MODEL 1
REMARK VINA RESULT:     -12.0      0.000      0.000
REMARK SMILES Cc1cc(F)cc(N[C@H](C(=O)NCCCCNC(=O)c2ccc(-c3c4nc(c(-c5c(F)cc(S(=O)(=O)[O-])cc5F)c5ccc([nH]5)c(-c5c(F)cc(S(=O)(=O)[O-])cc5F)c5nc(c(-c6c(F)cc(S(=O)(=O)[O-])cc6F)c6ccc3[nH]6)C=C5)C=C4)cc2)c2cc(C)cc(C)c2)c1
REMARK SMILES IDX 15 1 14 2 13 3 12 4 10 5 11 6 9 8 8 9 7 11 1 12 2 13 3 14
REMARK SMILES IDX 94 15 4 16 5 17 6 18 86 19 87 20 93 21 88 22 91 23 89 24
REMARK SMILES IDX 90 25 92 26 16 27 17 28 18 29 19 31 20 32 21 33 85 34 22 35
REMARK SMILES IDX 84 36 23 37 24 38 25 39 78 40 26 41 83 42 77 43 79 44 27 45
REMARK SMILES IDX 82 46 76 47 75 48 28 50 62 51 41 52 61 53 42 54 45 55 60 56
REMARK SMILES IDX 80 57 43 58 44 59 59 61 81 62 46 63 29 64 30 65 39 66 31 67
REMARK SMILES IDX 32 68 38 69 40 70 33 71 34 72 35 73 36 74 37 75 63 76 64 77
REMARK SMILES IDX 73 78 65 79 66 80 72 81 74 82 67 83 68 84 69 85 70 86 71 87
REMARK SMILES IDX 47 88 48 89 57 90 49 91 50 92 56 93 58 94 51 95 52 96 53 97
REMARK SMILES IDX 54 98 55 99
REMARK H PARENT 12 7 8 10 17 30 79 49 45 60
REMARK Flexibility Score: inf
ROOT
ATOM      1  C   UNL A   1      32.378  28.308  26.278  1.00  0.00     0.023 C 
ENDROOT
BRANCH   1   2
ATOM      2  C   UNL A   1      31.381  27.316  26.875  1.00  0.00     0.023 C 
BRANCH   2   3
ATOM      3  C   UNL A   1      30.939  26.180  25.956  1.00  0.00     0.116 C 
BRANCH   3   4
ATOM      4  N   UNL A   1      30.822  24.897  26.618  1.00  0.00    -0.354 N 
ATOM      5  C   UNL A   1      31.783  23.938  26.822  1.00  0.00     0.247 C 
ATOM      6  O   UNL A   1      31.428  22.969  27.506  1.00  0.00    -0.272 OA
ATOM      7  H   UNL A   1      29.928  24.682  26.971  1.00  0.00     0.163 HD
BRANCH   5   8
ATOM      8  C   UNL A   1      33.168  23.986  26.105  1.00  0.00     0.200 C 
BRANCH   8   9
ATOM      9  N   UNL A   1      34.240  23.180  26.737  1.00  0.00    -0.370 N 
ATOM     10  H   UNL A   1      33.992  22.781  27.603  1.00  0.00     0.161 HD
BRANCH   9  11
ATOM     11  C   UNL A   1      35.526  22.890  26.327  1.00  0.00     0.038 A 
ATOM     12  C   UNL A   1      37.329  19.816  24.894  1.00  0.00     0.044 C 
ATOM     13  C   UNL A   1      37.073  21.205  25.395  1.00  0.00    -0.046 A 
ATOM     14  C   UNL A   1      38.101  22.144  25.376  1.00  0.00     0.042 A 
ATOM     15  C   UNL A   1      35.811  21.578  25.902  1.00  0.00     0.029 A 
ATOM     16  C   UNL A   1      37.834  23.438  25.781  1.00  0.00     0.125 A 
ATOM     17  F   UNL A   1      38.810  24.354  25.756  1.00  0.00    -0.207 F 
ATOM     18  C   UNL A   1      36.561  23.811  26.205  1.00  0.00     0.065 A 
ENDBRANCH   9  11
ENDBRANCH   8   9
BRANCH   8  19
ATOM     19  C   UNL A   1      33.157  23.776  24.591  1.00  0.00    -0.016 A 
ATOM     20  C   UNL A   1      33.452  24.824  23.708  1.00  0.00     0.009 A 
ATOM     21  C   UNL A   1      32.698  22.566  24.043  1.00  0.00     0.009 A 
ATOM     22  C   UNL A   1      33.079  24.767  22.362  1.00  0.00    -0.051 A 
ATOM     23  C   UNL A   1      32.468  22.437  22.664  1.00  0.00    -0.051 A 
ATOM     24  C   UNL A   1      33.024  26.036  21.561  1.00  0.00     0.044 C 
ATOM     25  C   UNL A   1      32.598  23.565  21.843  1.00  0.00     0.006 A 
ATOM     26  C   UNL A   1      31.984  21.146  22.078  1.00  0.00     0.044 C 
ENDBRANCH   8  19
ENDBRANCH   5   8
ENDBRANCH   3   4
ENDBRANCH   2   3
ENDBRANCH   1   2
BRANCH   1  27
ATOM     27  C   UNL A   1      33.583  28.651  27.147  1.00  0.00     0.116 C 
BRANCH  27  28
ATOM     28  N   UNL A   1      33.558  30.016  27.652  1.00  0.00    -0.352 N 
ATOM     29  C   UNL A   1      34.541  30.725  28.304  1.00  0.00     0.251 C 
ATOM     30  H   UNL A   1      32.715  30.503  27.507  1.00  0.00     0.163 HD
ATOM     31  O   UNL A   1      34.293  31.836  28.768  1.00  0.00    -0.269 OA
BRANCH  29  32
ATOM     32  C   UNL A   1      35.885  30.132  28.475  1.00  0.00     0.039 A 
ATOM     33  C   UNL A   1      36.770  30.124  27.393  1.00  0.00     0.014 A 
ATOM     34  C   UNL A   1      36.283  29.618  29.710  1.00  0.00     0.014 A 
ATOM     35  C   UNL A   1      38.085  29.688  27.578  1.00  0.00     0.010 A 
ATOM     36  C   UNL A   1      37.612  29.254  29.911  1.00  0.00     0.010 A 
ATOM     37  C   UNL A   1      38.531  29.297  28.851  1.00  0.00    -0.014 A 
BRANCH  37  38
ATOM     38  C   UNL A   1      39.952  28.942  29.110  1.00  0.00     0.031 A 
ATOM     39  C   UNL A   1      40.904  29.983  29.631  1.00  0.00     0.074 A 
ATOM     40  C   UNL A   1      40.407  27.715  28.783  1.00  0.00     0.049 A 
ATOM     41  N   UNL A   1      42.201  29.916  29.785  1.00  0.00    -0.248 NA
ATOM     42  C   UNL A   1      40.323  31.285  29.997  1.00  0.00     0.031 C 
ATOM     43  C   UNL A   1      39.596  26.629  28.226  1.00  0.00     0.029 A 
ATOM     44  N   UNL A   1      41.671  27.180  28.849  1.00  0.00    -0.354 N 
ATOM     45  C   UNL A   1      42.595  31.169  30.238  1.00  0.00     0.074 A 
ATOM     46  C   UNL A   1      41.405  31.990  30.295  1.00  0.00     0.031 C 
ATOM     47  C   UNL A   1      40.378  25.558  28.015  1.00  0.00     0.029 A 
ATOM     48  C   UNL A   1      41.751  25.890  28.379  1.00  0.00     0.049 A 
ATOM     49  H   UNL A   1      42.446  27.674  29.200  1.00  0.00     0.167 HD
ATOM     50  C   UNL A   1      43.831  31.591  30.594  1.00  0.00     0.037 A 
ATOM     51  C   UNL A   1      42.813  25.071  28.241  1.00  0.00     0.037 A 
ATOM     52  C   UNL A   1      45.006  30.759  30.569  1.00  0.00     0.049 A 
ATOM     53  C   UNL A   1      44.176  25.557  28.656  1.00  0.00     0.074 A 
ATOM     54  C   UNL A   1      46.294  31.078  30.963  1.00  0.00     0.029 A 
ATOM     55  N   UNL A   1      45.036  29.444  30.130  1.00  0.00    -0.354 N 
ATOM     56  N   UNL A   1      44.520  26.730  29.131  1.00  0.00    -0.248 NA
ATOM     57  C   UNL A   1      45.292  24.610  28.521  1.00  0.00     0.031 C 
ATOM     58  C   UNL A   1      47.110  29.965  30.733  1.00  0.00     0.029 A 
ATOM     59  C   UNL A   1      46.321  28.940  30.235  1.00  0.00     0.049 A 
ATOM     60  H   UNL A   1      44.258  28.942  29.793  1.00  0.00     0.167 HD
ATOM     61  C   UNL A   1      45.885  26.651  29.383  1.00  0.00     0.074 A 
ATOM     62  C   UNL A   1      46.304  25.316  29.009  1.00  0.00     0.031 C 
ATOM     63  C   UNL A   1      46.717  27.599  29.881  1.00  0.00     0.037 A 
BRANCH  50  64
ATOM     64  C   UNL A   1      43.976  33.018  31.046  1.00  0.00     0.058 A 
ATOM     65  C   UNL A   1      44.233  34.055  30.135  1.00  0.00     0.135 A 
ATOM     66  C   UNL A   1      43.828  33.358  32.400  1.00  0.00     0.135 A 
ATOM     67  F   UNL A   1      44.399  33.783  28.830  1.00  0.00    -0.206 F 
ATOM     68  C   UNL A   1      44.371  35.374  30.555  1.00  0.00     0.059 A 
ATOM     69  C   UNL A   1      43.934  34.675  32.839  1.00  0.00     0.059 A 
ATOM     70  F   UNL A   1      43.579  32.406  33.314  1.00  0.00    -0.206 F 
ATOM     71  C   UNL A   1      44.223  35.673  31.910  1.00  0.00     0.060 A 
BRANCH  71  72
ATOM     72  S   UNL A   1      44.405  37.390  32.438  1.00  0.00     0.124 S 
ATOM     73  O   UNL A   1      45.780  37.398  32.928  1.00  0.00    -0.237 OA
ATOM     74  O   UNL A   1      44.171  38.126  31.199  1.00  0.00    -0.237 OA
ATOM     75  O   UNL A   1      43.373  37.543  33.458  1.00  0.00    -0.744 OA
ENDBRANCH  71  72
ENDBRANCH  50  64
BRANCH  51  76
ATOM     76  C   UNL A   1      42.626  23.695  27.707  1.00  0.00     0.058 A 
ATOM     77  C   UNL A   1      42.636  23.454  26.326  1.00  0.00     0.135 A 
ATOM     78  C   UNL A   1      42.451  22.596  28.562  1.00  0.00     0.135 A 
ATOM     79  F   UNL A   1      42.793  24.474  25.468  1.00  0.00    -0.206 F 
ATOM     80  C   UNL A   1      42.465  22.174  25.808  1.00  0.00     0.059 A 
ATOM     81  C   UNL A   1      42.301  21.303  28.068  1.00  0.00     0.059 A 
ATOM     82  F   UNL A   1      42.452  22.771  29.892  1.00  0.00    -0.206 F 
ATOM     83  C   UNL A   1      42.300  21.104  26.688  1.00  0.00     0.060 A 
BRANCH  83  84
ATOM     84  S   UNL A   1      42.133  19.439  26.007  1.00  0.00     0.124 S 
ATOM     85  O   UNL A   1      42.956  19.528  24.807  1.00  0.00    -0.237 OA
ATOM     86  O   UNL A   1      42.664  18.611  27.085  1.00  0.00    -0.237 OA
ATOM     87  O   UNL A   1      40.696  19.313  25.780  1.00  0.00    -0.744 OA
ENDBRANCH  83  84
ENDBRANCH  51  76
BRANCH  63  88
ATOM     88  C   UNL A   1      48.153  27.221  30.106  1.00  0.00     0.058 A 
ATOM     89  C   UNL A   1      49.125  27.387  29.109  1.00  0.00     0.135 A 
ATOM     90  C   UNL A   1      48.572  26.760  31.364  1.00  0.00     0.135 A 
ATOM     91  F   UNL A   1      48.775  27.818  27.888  1.00  0.00    -0.206 F 
ATOM     92  C   UNL A   1      50.466  27.102  29.350  1.00  0.00     0.059 A 
ATOM     93  C   UNL A   1      49.910  26.490  31.634  1.00  0.00     0.059 A 
ATOM     94  F   UNL A   1      47.681  26.591  32.354  1.00  0.00    -0.206 F 
ATOM     95  C   UNL A   1      50.849  26.659  30.618  1.00  0.00     0.060 A 
BRANCH  95  96
ATOM     96  S   UNL A   1      52.599  26.350  30.937  1.00  0.00     0.124 S 
ATOM     97  O   UNL A   1      52.544  25.100  31.687  1.00  0.00    -0.237 OA
ATOM     98  O   UNL A   1      53.152  26.256  29.589  1.00  0.00    -0.237 OA
ATOM     99  O   UNL A   1      53.018  27.522  31.698  1.00  0.00    -0.744 OA
ENDBRANCH  95  96
ENDBRANCH  63  88
ENDBRANCH  37  38
ENDBRANCH  29  32
ENDBRANCH  27  28
ENDBRANCH   1  27
TORSDOF 17
ENDMDL
MODEL 2
REMARK VINA RESULT:     -11.5      3.146      4.842
REMARK SMILES Cc1cc(F)cc(N[C@H](C(=O)NCCCCNC(=O)c2ccc(-c3c4nc(c(-c5c(F)cc(S(=O)(=O)[O-])cc5F)c5ccc([nH]5)c(-c5c(F)cc(S(=O)(=O)[O-])cc5F)c5nc(c(-c6c(F)cc(S(=O)(=O)[O-])cc6F)c6ccc3[nH]6)C=C5)C=C4)cc2)c2cc(C)cc(C)c2)c1
REMARK SMILES IDX 15 1 14 2 13 3 12 4 10 5 11 6 9 8 8 9 7 11 1 12 2 13 3 14
REMARK SMILES IDX 94 15 4 16 5 17 6 18 86 19 87 20 93 21 88 22 91 23 89 24
REMARK SMILES IDX 90 25 92 26 16 27 17 28 18 29 19 31 20 32 21 33 85 34 22 35
REMARK SMILES IDX 84 36 23 37 24 38 25 39 78 40 26 41 83 42 77 43 79 44 27 45
REMARK SMILES IDX 82 46 76 47 75 48 28 50 62 51 41 52 61 53 42 54 45 55 60 56
REMARK SMILES IDX 80 57 43 58 44 59 59 61 81 62 46 63 29 64 30 65 39 66 31 67
REMARK SMILES IDX 32 68 38 69 40 70 33 71 34 72 35 73 36 74 37 75 63 76 64 77
REMARK SMILES IDX 73 78 65 79 66 80 72 81 74 82 67 83 68 84 69 85 70 86 71 87
REMARK SMILES IDX 47 88 48 89 57 90 49 91 50 92 56 93 58 94 51 95 52 96 53 97
REMARK SMILES IDX 54 98 55 99
REMARK H PARENT 12 7 8 10 17 30 79 49 45 60
REMARK Flexibility Score: inf
ROOT
ATOM      1  C   UNL A   1      34.153  29.142  27.346  1.00  0.00     0.023 C 
ENDROOT
BRANCH   1   2
ATOM      2  C   UNL A   1      32.694  29.574  27.197  1.00  0.00     0.023 C 
BRANCH   2   3
ATOM      3  C   UNL A   1      32.269  30.019  25.801  1.00  0.00     0.116 C 
BRANCH   3   4
ATOM      4  N   UNL A   1      33.265  29.780  24.777  1.00  0.00    -0.354 N 
ATOM      5  C   UNL A   1      33.312  28.788  23.831  1.00  0.00     0.247 C 
ATOM      6  O   UNL A   1      34.238  28.878  23.014  1.00  0.00    -0.272 OA
ATOM      7  H   UNL A   1      34.013  30.420  24.757  1.00  0.00     0.163 HD
BRANCH   5   8
ATOM      8  C   UNL A   1      32.370  27.545  23.884  1.00  0.00     0.200 C 
BRANCH   8   9
ATOM      9  N   UNL A   1      31.271  27.535  22.887  1.00  0.00    -0.370 N 
ATOM     10  H   UNL A   1      31.445  26.971  22.099  1.00  0.00     0.161 HD
BRANCH   9  11
ATOM     11  C   UNL A   1      30.050  28.177  22.869  1.00  0.00     0.038 A 
ATOM     12  C   UNL A   1      28.651  31.388  21.294  1.00  0.00     0.044 C 
ATOM     13  C   UNL A   1      28.734  30.105  22.063  1.00  0.00    -0.046 A 
ATOM     14  C   UNL A   1      27.590  29.591  22.669  1.00  0.00     0.042 A 
ATOM     15  C   UNL A   1      29.954  29.412  22.200  1.00  0.00     0.029 A 
ATOM     16  C   UNL A   1      27.666  28.376  23.321  1.00  0.00     0.125 A 
ATOM     17  F   UNL A   1      26.571  27.864  23.898  1.00  0.00    -0.207 F 
ATOM     18  C   UNL A   1      28.862  27.665  23.381  1.00  0.00     0.065 A 
ENDBRANCH   9  11
ENDBRANCH   8   9
BRANCH   8  19
ATOM     19  C   UNL A   1      33.050  26.178  23.950  1.00  0.00    -0.016 A 
ATOM     20  C   UNL A   1      33.221  25.392  22.802  1.00  0.00     0.009 A 
ATOM     21  C   UNL A   1      33.379  25.605  25.192  1.00  0.00     0.009 A 
ATOM     22  C   UNL A   1      33.474  24.020  22.891  1.00  0.00    -0.051 A 
ATOM     23  C   UNL A   1      33.791  24.267  25.285  1.00  0.00    -0.051 A 
ATOM     24  C   UNL A   1      33.235  23.151  21.690  1.00  0.00     0.044 C 
ATOM     25  C   UNL A   1      33.770  23.466  24.136  1.00  0.00     0.006 A 
ATOM     26  C   UNL A   1      34.148  23.658  26.606  1.00  0.00     0.044 C 
ENDBRANCH   8  19
ENDBRANCH   5   8
ENDBRANCH   3   4
ENDBRANCH   2   3
ENDBRANCH   1   2
BRANCH   1  27
ATOM     27  C   UNL A   1      35.156  30.256  27.624  1.00  0.00     0.116 C 
BRANCH  27  28
ATOM     28  N   UNL A   1      35.169  30.684  29.015  1.00  0.00    -0.352 N 
ATOM     29  C   UNL A   1      36.141  30.513  29.973  1.00  0.00     0.251 C 
ATOM     30  H   UNL A   1      34.364  31.167  29.314  1.00  0.00     0.163 HD
ATOM     31  O   UNL A   1      35.922  30.839  31.138  1.00  0.00    -0.269 OA
BRANCH  29  32
ATOM     32  C   UNL A   1      37.438  29.903  29.605  1.00  0.00     0.039 A 
ATOM     33  C   UNL A   1      37.869  29.967  28.277  1.00  0.00     0.014 A 
ATOM     34  C   UNL A   1      38.242  29.302  30.575  1.00  0.00     0.014 A 
ATOM     35  C   UNL A   1      39.147  29.513  27.941  1.00  0.00     0.010 A 
ATOM     36  C   UNL A   1      39.541  28.919  30.255  1.00  0.00     0.010 A 
ATOM     37  C   UNL A   1      40.014  29.031  28.937  1.00  0.00    -0.014 A 
BRANCH  37  38
ATOM     38  C   UNL A   1      41.420  28.652  28.638  1.00  0.00     0.031 A 
ATOM     39  C   UNL A   1      42.492  29.708  28.601  1.00  0.00     0.074 A 
ATOM     40  C   UNL A   1      41.715  27.379  28.301  1.00  0.00     0.049 A 
ATOM     41  N   UNL A   1      43.739  29.607  28.222  1.00  0.00    -0.248 NA
ATOM     42  C   UNL A   1      42.097  31.064  29.015  1.00  0.00     0.031 C 
ATOM     43  C   UNL A   1      40.759  26.271  28.254  1.00  0.00     0.029 A 
ATOM     44  N   UNL A   1      42.901  26.806  27.911  1.00  0.00    -0.354 N 
ATOM     45  C   UNL A   1      44.271  30.887  28.325  1.00  0.00     0.074 A 
ATOM     46  C   UNL A   1      43.199  31.754  28.762  1.00  0.00     0.031 C 
ATOM     47  C   UNL A   1      41.397  25.153  27.872  1.00  0.00     0.029 A 
ATOM     48  C   UNL A   1      42.796  25.470  27.605  1.00  0.00     0.049 A 
ATOM     49  H   UNL A   1      43.747  27.306  27.858  1.00  0.00     0.167 HD
ATOM     50  C   UNL A   1      45.540  31.298  28.096  1.00  0.00     0.037 A 
ATOM     51  C   UNL A   1      43.718  24.600  27.147  1.00  0.00     0.037 A 
ATOM     52  C   UNL A   1      46.611  30.423  27.695  1.00  0.00     0.049 A 
ATOM     53  C   UNL A   1      45.126  25.076  26.912  1.00  0.00     0.074 A 
ATOM     54  C   UNL A   1      47.945  30.733  27.492  1.00  0.00     0.029 A 
ATOM     55  N   UNL A   1      46.474  29.067  27.441  1.00  0.00    -0.354 N 
ATOM     56  N   UNL A   1      45.623  26.280  27.064  1.00  0.00    -0.248 NA
ATOM     57  C   UNL A   1      46.101  24.077  26.449  1.00  0.00     0.031 C 
ATOM     58  C   UNL A   1      48.608  29.571  27.084  1.00  0.00     0.029 A 
ATOM     59  C   UNL A   1      47.694  28.528  27.074  1.00  0.00     0.049 A 
ATOM     60  H   UNL A   1      45.630  28.561  27.510  1.00  0.00     0.167 HD
ATOM     61  C   UNL A   1      46.973  26.177  26.748  1.00  0.00     0.074 A 
ATOM     62  C   UNL A   1      47.217  24.793  26.398  1.00  0.00     0.031 C 
ATOM     63  C   UNL A   1      47.925  27.141  26.751  1.00  0.00     0.037 A 
BRANCH  50  64
ATOM     64  C   UNL A   1      45.843  32.760  28.279  1.00  0.00     0.058 A 
ATOM     65  C   UNL A   1      45.717  33.674  27.220  1.00  0.00     0.135 A 
ATOM     66  C   UNL A   1      46.234  33.258  29.531  1.00  0.00     0.135 A 
ATOM     67  F   UNL A   1      45.360  33.248  25.998  1.00  0.00    -0.206 F 
ATOM     68  C   UNL A   1      46.000  35.025  27.389  1.00  0.00     0.059 A 
ATOM     69  C   UNL A   1      46.497  34.611  29.730  1.00  0.00     0.059 A 
ATOM     70  F   UNL A   1      46.368  32.428  30.578  1.00  0.00    -0.206 F 
ATOM     71  C   UNL A   1      46.393  35.483  28.647  1.00  0.00     0.060 A 
BRANCH  71  72
ATOM     72  S   UNL A   1      46.757  37.240  28.850  1.00  0.00     0.124 S 
ATOM     73  O   UNL A   1      45.783  37.844  27.947  1.00  0.00    -0.237 OA
ATOM     74  O   UNL A   1      46.514  37.449  30.274  1.00  0.00    -0.237 OA
ATOM     75  O   UNL A   1      48.151  37.348  28.433  1.00  0.00    -0.744 OA
ENDBRANCH  71  72
ENDBRANCH  50  64
BRANCH  51  76
ATOM     76  C   UNL A   1      43.344  23.182  26.901  1.00  0.00     0.058 A 
ATOM     77  C   UNL A   1      43.246  22.680  25.595  1.00  0.00     0.135 A 
ATOM     78  C   UNL A   1      43.093  22.296  27.961  1.00  0.00     0.135 A 
ATOM     79  F   UNL A   1      43.470  23.490  24.548  1.00  0.00    -0.206 F 
ATOM     80  C   UNL A   1      42.899  21.357  25.345  1.00  0.00     0.059 A 
ATOM     81  C   UNL A   1      42.767  20.962  27.737  1.00  0.00     0.059 A 
ATOM     82  F   UNL A   1      43.190  22.721  29.229  1.00  0.00    -0.206 F 
ATOM     83  C   UNL A   1      42.663  20.504  26.424  1.00  0.00     0.060 A 
BRANCH  83  84
ATOM     84  S   UNL A   1      42.266  18.773  26.091  1.00  0.00     0.124 S 
ATOM     85  O   UNL A   1      40.860  18.862  25.713  1.00  0.00    -0.237 OA
ATOM     86  O   UNL A   1      43.197  18.445  25.015  1.00  0.00    -0.237 OA
ATOM     87  O   UNL A   1      42.538  18.116  27.366  1.00  0.00    -0.744 OA
ENDBRANCH  83  84
ENDBRANCH  51  76
BRANCH  63  88
ATOM     88  C   UNL A   1      49.332  26.735  26.417  1.00  0.00     0.058 A 
ATOM     89  C   UNL A   1      50.186  26.173  27.377  1.00  0.00     0.135 A 
ATOM     90  C   UNL A   1      49.802  26.837  25.097  1.00  0.00     0.135 A 
ATOM     91  F   UNL A   1      49.787  26.059  28.653  1.00  0.00    -0.206 F 
ATOM     92  C   UNL A   1      51.463  25.732  27.042  1.00  0.00     0.059 A 
ATOM     93  C   UNL A   1      51.066  26.383  24.735  1.00  0.00     0.059 A 
ATOM     94  F   UNL A   1      49.020  27.361  24.140  1.00  0.00    -0.206 F 
ATOM     95  C   UNL A   1      51.892  25.837  25.717  1.00  0.00     0.060 A 
BRANCH  95  96
ATOM     96  S   UNL A   1      53.527  25.207  25.281  1.00  0.00     0.124 S 
ATOM     97  O   UNL A   1      53.316  23.765  25.358  1.00  0.00    -0.237 OA
ATOM     98  O   UNL A   1      53.724  25.748  23.940  1.00  0.00    -0.237 OA
ATOM     99  O   UNL A   1      54.394  25.771  26.311  1.00  0.00    -0.744 OA
ENDBRANCH  95  96
ENDBRANCH  63  88
ENDBRANCH  37  38
ENDBRANCH  29  32
ENDBRANCH  27  28
ENDBRANCH   1  27
TORSDOF 17
ENDMDL
MODEL 3
REMARK VINA RESULT:     -11.3      3.296      8.029
REMARK SMILES Cc1cc(F)cc(N[C@H](C(=O)NCCCCNC(=O)c2ccc(-c3c4nc(c(-c5c(F)cc(S(=O)(=O)[O-])cc5F)c5ccc([nH]5)c(-c5c(F)cc(S(=O)(=O)[O-])cc5F)c5nc(c(-c6c(F)cc(S(=O)(=O)[O-])cc6F)c6ccc3[nH]6)C=C5)C=C4)cc2)c2cc(C)cc(C)c2)c1
REMARK SMILES IDX 15 1 14 2 13 3 12 4 10 5 11 6 9 8 8 9 7 11 1 12 2 13 3 14
REMARK SMILES IDX 94 15 4 16 5 17 6 18 86 19 87 20 93 21 88 22 91 23 89 24
REMARK SMILES IDX 90 25 92 26 16 27 17 28 18 29 19 31 20 32 21 33 85 34 22 35
REMARK SMILES IDX 84 36 23 37 24 38 25 39 78 40 26 41 83 42 77 43 79 44 27 45
REMARK SMILES IDX 82 46 76 47 75 48 28 50 62 51 41 52 61 53 42 54 45 55 60 56
REMARK SMILES IDX 80 57 43 58 44 59 59 61 81 62 46 63 29 64 30 65 39 66 31 67
REMARK SMILES IDX 32 68 38 69 40 70 33 71 34 72 35 73 36 74 37 75 63 76 64 77
REMARK SMILES IDX 73 78 65 79 66 80 72 81 74 82 67 83 68 84 69 85 70 86 71 87
REMARK SMILES IDX 47 88 48 89 57 90 49 91 50 92 56 93 58 94 51 95 52 96 53 97
REMARK SMILES IDX 54 98 55 99
REMARK H PARENT 12 7 8 10 17 30 79 49 45 60
REMARK Flexibility Score: inf
ROOT
ATOM      1  C   UNL A   1      37.977  20.540  25.345  1.00  0.00     0.023 C 
ENDROOT
BRANCH   1   2
ATOM      2  C   UNL A   1      37.388  21.733  24.593  1.00  0.00     0.023 C 
BRANCH   2   3
ATOM      3  C   UNL A   1      36.996  22.934  25.449  1.00  0.00     0.116 C 
BRANCH   3   4
ATOM      4  N   UNL A   1      36.047  22.627  26.498  1.00  0.00    -0.354 N 
ATOM      5  C   UNL A   1      34.712  22.322  26.396  1.00  0.00     0.247 C 
ATOM      6  O   UNL A   1      34.158  22.009  27.457  1.00  0.00    -0.272 OA
ATOM      7  H   UNL A   1      36.409  22.638  27.413  1.00  0.00     0.163 HD
BRANCH   5   8
ATOM      8  C   UNL A   1      33.916  22.521  25.069  1.00  0.00     0.200 C 
BRANCH   8   9
ATOM      9  N   UNL A   1      32.778  21.593  24.864  1.00  0.00    -0.370 N 
ATOM     10  H   UNL A   1      31.906  21.949  25.155  1.00  0.00     0.161 HD
BRANCH   9  11
ATOM     11  C   UNL A   1      32.723  20.318  24.338  1.00  0.00     0.038 A 
ATOM     12  C   UNL A   1      32.873  16.750  25.751  1.00  0.00     0.044 C 
ATOM     13  C   UNL A   1      32.763  17.890  24.784  1.00  0.00    -0.046 A 
ATOM     14  C   UNL A   1      32.557  17.627  23.432  1.00  0.00     0.042 A 
ATOM     15  C   UNL A   1      32.878  19.227  25.215  1.00  0.00     0.029 A 
ATOM     16  C   UNL A   1      32.394  18.688  22.561  1.00  0.00     0.125 A 
ATOM     17  F   UNL A   1      32.183  18.450  21.260  1.00  0.00    -0.207 F 
ATOM     18  C   UNL A   1      32.432  20.003  23.015  1.00  0.00     0.065 A 
ENDBRANCH   9  11
ENDBRANCH   8   9
BRANCH   8  19
ATOM     19  C   UNL A   1      33.510  23.955  24.727  1.00  0.00    -0.016 A 
ATOM     20  C   UNL A   1      33.038  24.295  23.452  1.00  0.00     0.009 A 
ATOM     21  C   UNL A   1      33.749  24.999  25.638  1.00  0.00     0.009 A 
ATOM     22  C   UNL A   1      33.033  25.621  23.009  1.00  0.00    -0.051 A 
ATOM     23  C   UNL A   1      33.595  26.341  25.257  1.00  0.00    -0.051 A 
ATOM     24  C   UNL A   1      32.930  25.901  21.537  1.00  0.00     0.044 C 
ATOM     25  C   UNL A   1      33.301  26.641  23.921  1.00  0.00     0.006 A 
ATOM     26  C   UNL A   1      33.843  27.454  26.229  1.00  0.00     0.044 C 
ENDBRANCH   8  19
ENDBRANCH   5   8
ENDBRANCH   3   4
ENDBRANCH   2   3
ENDBRANCH   1   2
BRANCH   1  27
ATOM     27  C   UNL A   1      39.322  20.775  26.024  1.00  0.00     0.116 C 
BRANCH  27  28
ATOM     28  N   UNL A   1      40.197  19.612  25.985  1.00  0.00    -0.352 N 
ATOM     29  C   UNL A   1      41.567  19.544  26.099  1.00  0.00     0.251 C 
ATOM     30  H   UNL A   1      39.743  18.748  25.858  1.00  0.00     0.163 HD
ATOM     31  O   UNL A   1      42.147  18.476  25.918  1.00  0.00    -0.269 OA
BRANCH  29  32
ATOM     32  C   UNL A   1      42.341  20.767  26.406  1.00  0.00     0.039 A 
ATOM     33  C   UNL A   1      42.886  21.512  25.356  1.00  0.00     0.014 A 
ATOM     34  C   UNL A   1      42.497  21.198  27.725  1.00  0.00     0.014 A 
ATOM     35  C   UNL A   1      43.504  22.736  25.623  1.00  0.00     0.010 A 
ATOM     36  C   UNL A   1      43.045  22.451  27.982  1.00  0.00     0.010 A 
ATOM     37  C   UNL A   1      43.545  23.240  26.934  1.00  0.00    -0.014 A 
BRANCH  37  38
ATOM     38  C   UNL A   1      44.086  24.591  27.239  1.00  0.00     0.031 A 
ATOM     39  C   UNL A   1      43.156  25.696  27.661  1.00  0.00     0.074 A 
ATOM     40  C   UNL A   1      45.395  24.849  27.040  1.00  0.00     0.049 A 
ATOM     41  N   UNL A   1      43.407  26.968  27.832  1.00  0.00    -0.248 NA
ATOM     42  C   UNL A   1      41.750  25.324  27.890  1.00  0.00     0.031 C 
ATOM     43  C   UNL A   1      46.393  23.877  26.589  1.00  0.00     0.029 A 
ATOM     44  N   UNL A   1      46.109  26.016  27.170  1.00  0.00    -0.354 N 
ATOM     45  C   UNL A   1      42.190  27.553  28.161  1.00  0.00     0.074 A 
ATOM     46  C   UNL A   1      41.195  26.504  28.125  1.00  0.00     0.031 C 
ATOM     47  C   UNL A   1      47.588  24.483  26.492  1.00  0.00     0.029 A 
ATOM     48  C   UNL A   1      47.436  25.894  26.832  1.00  0.00     0.049 A 
ATOM     49  H   UNL A   1      45.707  26.860  27.477  1.00  0.00     0.167 HD
ATOM     50  C   UNL A   1      41.930  28.842  28.483  1.00  0.00     0.037 A 
ATOM     51  C   UNL A   1      48.419  26.816  26.787  1.00  0.00     0.037 A 
ATOM     52  C   UNL A   1      42.931  29.874  28.551  1.00  0.00     0.049 A 
ATOM     53  C   UNL A   1      48.108  28.240  27.161  1.00  0.00     0.074 A 
ATOM     54  C   UNL A   1      42.776  31.199  28.922  1.00  0.00     0.029 A 
ATOM     55  N   UNL A   1      44.272  29.699  28.247  1.00  0.00    -0.354 N 
ATOM     56  N   UNL A   1      46.961  28.764  27.520  1.00  0.00    -0.248 NA
ATOM     57  C   UNL A   1      49.224  29.197  27.132  1.00  0.00     0.031 C 
ATOM     58  C   UNL A   1      44.019  31.832  28.812  1.00  0.00     0.029 A 
ATOM     59  C   UNL A   1      44.955  30.891  28.412  1.00  0.00     0.049 A 
ATOM     60  H   UNL A   1      44.679  28.850  27.955  1.00  0.00     0.167 HD
ATOM     61  C   UNL A   1      47.223  30.103  27.790  1.00  0.00     0.074 A 
ATOM     62  C   UNL A   1      48.637  30.309  27.556  1.00  0.00     0.031 C 
ATOM     63  C   UNL A   1      46.369  31.073  28.198  1.00  0.00     0.037 A 
BRANCH  50  64
ATOM     64  C   UNL A   1      40.504  29.208  28.791  1.00  0.00     0.058 A 
ATOM     65  C   UNL A   1      40.056  29.365  30.113  1.00  0.00     0.135 A 
ATOM     66  C   UNL A   1      39.583  29.433  27.757  1.00  0.00     0.135 A 
ATOM     67  F   UNL A   1      40.892  29.148  31.141  1.00  0.00    -0.206 F 
ATOM     68  C   UNL A   1      38.736  29.700  30.398  1.00  0.00     0.059 A 
ATOM     69  C   UNL A   1      38.264  29.795  28.018  1.00  0.00     0.059 A 
ATOM     70  F   UNL A   1      39.959  29.298  26.475  1.00  0.00    -0.206 F 
ATOM     71  C   UNL A   1      37.847  29.910  29.343  1.00  0.00     0.060 A 
BRANCH  71  72
ATOM     72  S   UNL A   1      36.138  30.344  29.730  1.00  0.00     0.124 S 
ATOM     73  O   UNL A   1      36.195  31.802  29.698  1.00  0.00    -0.237 OA
ATOM     74  O   UNL A   1      35.400  29.716  28.638  1.00  0.00    -0.237 OA
ATOM     75  O   UNL A   1      35.927  29.752  31.047  1.00  0.00    -0.744 OA
ENDBRANCH  71  72
ENDBRANCH  50  64
BRANCH  51  76
ATOM     76  C   UNL A   1      49.795  26.416  26.392  1.00  0.00     0.058 A 
ATOM     77  C   UNL A   1      50.671  25.840  27.323  1.00  0.00     0.135 A 
ATOM     78  C   UNL A   1      50.257  26.583  25.077  1.00  0.00     0.135 A 
ATOM     79  F   UNL A   1      50.278  25.666  28.595  1.00  0.00    -0.206 F 
ATOM     80  C   UNL A   1      51.962  25.458  26.973  1.00  0.00     0.059 A 
ATOM     81  C   UNL A   1      51.536  26.186  24.696  1.00  0.00     0.059 A 
ATOM     82  F   UNL A   1      49.453  27.112  24.143  1.00  0.00    -0.206 F 
ATOM     83  C   UNL A   1      52.385  25.633  25.654  1.00  0.00     0.060 A 
BRANCH  83  84
ATOM     84  S   UNL A   1      54.043  25.083  25.195  1.00  0.00     0.124 S 
ATOM     85  O   UNL A   1      53.827  23.659  24.967  1.00  0.00    -0.237 OA
ATOM     86  O   UNL A   1      54.316  25.885  24.007  1.00  0.00    -0.237 OA
ATOM     87  O   UNL A   1      54.844  25.421  26.367  1.00  0.00    -0.744 OA
ENDBRANCH  83  84
ENDBRANCH  51  76
BRANCH  63  88
ATOM     88  C   UNL A   1      46.940  32.436  28.471  1.00  0.00     0.058 A 
ATOM     89  C   UNL A   1      46.989  33.429  27.482  1.00  0.00     0.135 A 
ATOM     90  C   UNL A   1      47.369  32.774  29.765  1.00  0.00     0.135 A 
ATOM     91  F   UNL A   1      46.597  33.153  26.228  1.00  0.00    -0.206 F 
ATOM     92  C   UNL A   1      47.452  34.711  27.763  1.00  0.00     0.059 A 
ATOM     93  C   UNL A   1      47.814  34.055  30.075  1.00  0.00     0.059 A 
ATOM     94  F   UNL A   1      47.334  31.862  30.749  1.00  0.00    -0.206 F 
ATOM     95  C   UNL A   1      47.858  35.016  29.065  1.00  0.00     0.060 A 
BRANCH  95  96
ATOM     96  S   UNL A   1      48.399  36.698  29.433  1.00  0.00     0.124 S 
ATOM     97  O   UNL A   1      47.937  37.420  28.252  1.00  0.00    -0.237 OA
ATOM     98  O   UNL A   1      47.689  36.991  30.674  1.00  0.00    -0.237 OA
ATOM     99  O   UNL A   1      49.847  36.568  29.563  1.00  0.00    -0.744 OA
ENDBRANCH  95  96
ENDBRANCH  63  88
ENDBRANCH  37  38
ENDBRANCH  29  32
ENDBRANCH  27  28
ENDBRANCH   1  27
TORSDOF 17
ENDMDL
