MODEL 1
REMARK VINA RESULT:     -11.3      0.000      0.000
REMARK SMILES CC(C)(C)c1ccc(C(=O)C[C@H](C(=O)NCCCCNC(=O)c2ccc(-c3c4nc(c(-c5c(F)cc(S(=O)(=O)[O-])cc5F)c5ccc([nH]5)c(-c5c(F)cc(S(=O)(=O)[O-])cc5F)c5nc(c(-c6c(F)cc(S(=O)(=O)[O-])cc6F)c6ccc3[nH]6)C=C5)C=C4)cc2)[NH+]2CCCC2)cc1
REMARK SMILES IDX 17 1 16 2 15 3 13 4 14 5 12 7 11 8 9 9 10 10 8 11 5 12 6 13
REMARK SMILES IDX 95 14 7 15 94 16 2 17 1 18 3 19 4 20 89 21 90 22 93 23 91 25
REMARK SMILES IDX 92 26 18 27 19 28 20 29 21 30 22 32 23 33 24 34 88 35 25 36
REMARK SMILES IDX 87 37 26 38 27 39 28 40 81 41 29 42 86 43 80 44 82 45 30 46
REMARK SMILES IDX 85 47 79 48 78 49 31 51 65 52 44 53 64 54 45 55 48 56 63 57
REMARK SMILES IDX 83 58 46 59 47 60 62 62 84 63 49 64 32 65 33 66 42 67 34 68
REMARK SMILES IDX 35 69 41 70 43 71 36 72 37 73 38 74 39 75 40 76 66 77 67 78
REMARK SMILES IDX 76 79 68 80 69 81 75 82 77 83 70 84 71 85 72 86 73 87 74 88
REMARK SMILES IDX 50 89 51 90 60 91 52 92 53 93 59 94 61 95 54 96 55 97 56 98
REMARK SMILES IDX 57 99 58 100
REMARK H PARENT 15 6 89 24 20 31 82 50 48 61
REMARK Flexibility Score: inf
ROOT
ATOM      1  C   UNL A   1      35.285  22.494  26.436  1.00  0.00     0.023 C 
ENDROOT
BRANCH   1   2
ATOM      2  C   UNL A   1      33.961  22.180  25.747  1.00  0.00     0.116 C 
BRANCH   2   3
ATOM      3  N   UNL A   1      32.781  22.584  26.472  1.00  0.00    -0.351 N 
ATOM      4  C   UNL A   1      32.049  23.732  26.425  1.00  0.00     0.278 C 
ATOM      5  O   UNL A   1      31.169  23.805  27.295  1.00  0.00    -0.268 OA
ATOM      6  H   UNL A   1      32.447  21.914  27.112  1.00  0.00     0.163 HD
BRANCH   4   7
ATOM      7  C   UNL A   1      32.341  24.945  25.443  1.00  0.00     0.281 C 
BRANCH   7   8
ATOM      8  C   UNL A   1      33.207  26.101  25.968  1.00  0.00     0.156 C 
BRANCH   8   9
ATOM      9  C   UNL A   1      32.508  27.427  26.291  1.00  0.00     0.169 C 
ATOM     10  O   UNL A   1      32.765  27.983  27.365  1.00  0.00    -0.294 OA
BRANCH   9  11
ATOM     11  C   UNL A   1      31.605  28.156  25.333  1.00  0.00     0.018 A 
ATOM     12  C   UNL A   1      29.682  29.438  23.644  1.00  0.00    -0.043 A 
ATOM     13  C   UNL A   1      29.719  28.040  23.784  1.00  0.00     0.005 A 
ATOM     14  C   UNL A   1      30.663  30.164  24.327  1.00  0.00     0.005 A 
ATOM     15  C   UNL A   1      30.665  27.411  24.611  1.00  0.00     0.012 A 
ATOM     16  C   UNL A   1      31.604  29.534  25.149  1.00  0.00     0.012 A 
BRANCH  12  17
ATOM     17  C   UNL A   1      28.558  30.150  22.875  1.00  0.00    -0.013 C 
ATOM     18  C   UNL A   1      28.994  30.582  21.460  1.00  0.00     0.016 C 
ATOM     19  C   UNL A   1      28.040  31.422  23.588  1.00  0.00     0.016 C 
ATOM     20  C   UNL A   1      27.383  29.156  22.761  1.00  0.00     0.016 C 
ENDBRANCH  12  17
ENDBRANCH   9  11
ENDBRANCH   8   9
ENDBRANCH   7   8
BRANCH   7  21
ATOM     21  N   UNL A   1      32.809  24.411  24.109  1.00  0.00    -0.324 N 
ATOM     22  C   UNL A   1      33.924  25.124  23.471  1.00  0.00     0.263 C 
ATOM     23  C   UNL A   1      31.822  24.230  23.037  1.00  0.00     0.263 C 
ATOM     24  H   UNL A   1      33.093  23.500  24.469  1.00  0.00     0.348 HD
ATOM     25  C   UNL A   1      33.285  26.069  22.479  1.00  0.00     0.067 C 
ATOM     26  C   UNL A   1      32.062  25.319  21.994  1.00  0.00     0.067 C 
ENDBRANCH   7  21
ENDBRANCH   4   7
ENDBRANCH   2   3
ENDBRANCH   1   2
BRANCH   1  27
ATOM     27  C   UNL A   1      35.988  23.782  26.027  1.00  0.00     0.023 C 
BRANCH  27  28
ATOM     28  C   UNL A   1      37.082  23.650  24.975  1.00  0.00     0.116 C 
BRANCH  28  29
ATOM     29  N   UNL A   1      38.157  22.745  25.355  1.00  0.00    -0.352 N 
ATOM     30  C   UNL A   1      39.261  22.960  26.153  1.00  0.00     0.251 C 
ATOM     31  H   UNL A   1      38.085  21.836  24.984  1.00  0.00     0.163 HD
ATOM     32  O   UNL A   1      40.104  22.084  26.284  1.00  0.00    -0.269 OA
BRANCH  30  33
ATOM     33  C   UNL A   1      39.450  24.273  26.814  1.00  0.00     0.039 A 
ATOM     34  C   UNL A   1      38.947  24.455  28.105  1.00  0.00     0.014 A 
ATOM     35  C   UNL A   1      40.146  25.305  26.183  1.00  0.00     0.014 A 
ATOM     36  C   UNL A   1      39.238  25.633  28.802  1.00  0.00     0.010 A 
ATOM     37  C   UNL A   1      40.509  26.436  26.907  1.00  0.00     0.010 A 
ATOM     38  C   UNL A   1      40.070  26.608  28.229  1.00  0.00    -0.014 A 
BRANCH  38  39
ATOM     39  C   UNL A   1      40.512  27.803  28.996  1.00  0.00     0.031 A 
ATOM     40  C   UNL A   1      41.847  27.802  29.691  1.00  0.00     0.074 A 
ATOM     41  C   UNL A   1      39.677  28.852  29.141  1.00  0.00     0.049 A 
ATOM     42  N   UNL A   1      42.362  28.699  30.492  1.00  0.00    -0.248 NA
ATOM     43  C   UNL A   1      42.703  26.623  29.482  1.00  0.00     0.031 C 
ATOM     44  C   UNL A   1      38.331  28.951  28.569  1.00  0.00     0.029 A 
ATOM     45  N   UNL A   1      39.827  30.030  29.829  1.00  0.00    -0.354 N 
ATOM     46  C   UNL A   1      43.586  28.184  30.901  1.00  0.00     0.074 A 
ATOM     47  C   UNL A   1      43.714  26.874  30.300  1.00  0.00     0.031 C 
ATOM     48  C   UNL A   1      37.792  30.133  28.909  1.00  0.00     0.029 A 
ATOM     49  C   UNL A   1      38.732  30.860  29.755  1.00  0.00     0.049 A 
ATOM     50  H   UNL A   1      40.643  30.261  30.329  1.00  0.00     0.167 HD
ATOM     51  C   UNL A   1      44.529  28.758  31.685  1.00  0.00     0.037 A 
ATOM     52  C   UNL A   1      38.507  32.067  30.311  1.00  0.00     0.037 A 
ATOM     53  C   UNL A   1      44.415  30.077  32.248  1.00  0.00     0.049 A 
ATOM     54  C   UNL A   1      39.579  32.694  31.160  1.00  0.00     0.074 A 
ATOM     55  C   UNL A   1      45.342  30.775  33.002  1.00  0.00     0.029 A 
ATOM     56  N   UNL A   1      43.307  30.901  32.116  1.00  0.00    -0.354 N 
ATOM     57  N   UNL A   1      40.756  32.216  31.487  1.00  0.00    -0.248 NA
ATOM     58  C   UNL A   1      39.295  34.026  31.713  1.00  0.00     0.031 C 
ATOM     59  C   UNL A   1      44.783  32.008  33.353  1.00  0.00     0.029 A 
ATOM     60  C   UNL A   1      43.522  32.095  32.784  1.00  0.00     0.049 A 
ATOM     61  H   UNL A   1      42.488  30.672  31.621  1.00  0.00     0.167 HD
ATOM     62  C   UNL A   1      41.363  33.199  32.261  1.00  0.00     0.074 A 
ATOM     63  C   UNL A   1      40.428  34.302  32.345  1.00  0.00     0.031 C 
ATOM     64  C   UNL A   1      42.585  33.188  32.848  1.00  0.00     0.037 A 
BRANCH  51  65
ATOM     65  C   UNL A   1      45.775  27.965  31.967  1.00  0.00     0.058 A 
ATOM     66  C   UNL A   1      46.900  28.042  31.131  1.00  0.00     0.135 A 
ATOM     67  C   UNL A   1      45.856  27.137  33.099  1.00  0.00     0.135 A 
ATOM     68  F   UNL A   1      46.872  28.806  30.027  1.00  0.00    -0.206 F 
ATOM     69  C   UNL A   1      48.050  27.303  31.388  1.00  0.00     0.059 A 
ATOM     70  C   UNL A   1      47.006  26.409  33.390  1.00  0.00     0.059 A 
ATOM     71  F   UNL A   1      44.810  27.026  33.932  1.00  0.00    -0.206 F 
ATOM     72  C   UNL A   1      48.092  26.486  32.519  1.00  0.00     0.060 A 
BRANCH  72  73
ATOM     73  S   UNL A   1      49.590  25.533  32.838  1.00  0.00     0.124 S 
ATOM     74  O   UNL A   1      50.440  26.532  33.477  1.00  0.00    -0.237 OA
ATOM     75  O   UNL A   1      49.105  24.466  33.708  1.00  0.00    -0.237 OA
ATOM     76  O   UNL A   1      50.013  25.108  31.507  1.00  0.00    -0.744 OA
ENDBRANCH  72  73
ENDBRANCH  51  65
BRANCH  52  77
ATOM     77  C   UNL A   1      37.224  32.775  30.059  1.00  0.00     0.058 A 
ATOM     78  C   UNL A   1      37.087  33.646  28.968  1.00  0.00     0.135 A 
ATOM     79  C   UNL A   1      36.110  32.590  30.892  1.00  0.00     0.135 A 
ATOM     80  F   UNL A   1      38.125  33.861  28.148  1.00  0.00    -0.206 F 
ATOM     81  C   UNL A   1      35.897  34.322  28.720  1.00  0.00     0.059 A 
ATOM     82  C   UNL A   1      34.902  33.237  30.651  1.00  0.00     0.059 A 
ATOM     83  F   UNL A   1      36.185  31.754  31.940  1.00  0.00    -0.206 F 
ATOM     84  C   UNL A   1      34.808  34.111  29.569  1.00  0.00     0.060 A 
BRANCH  84  85
ATOM     85  S   UNL A   1      33.253  34.956  29.210  1.00  0.00     0.124 S 
ATOM     86  O   UNL A   1      32.690  34.107  28.168  1.00  0.00    -0.237 OA
ATOM     87  O   UNL A   1      32.574  34.916  30.502  1.00  0.00    -0.237 OA
ATOM     88  O   UNL A   1      33.685  36.283  28.780  1.00  0.00    -0.744 OA
ENDBRANCH  84  85
ENDBRANCH  52  77
BRANCH  64  89
ATOM     89  C   UNL A   1      42.999  34.419  33.605  1.00  0.00     0.058 A 
ATOM     90  C   UNL A   1      42.716  34.573  34.971  1.00  0.00     0.135 A 
ATOM     91  C   UNL A   1      43.739  35.428  32.968  1.00  0.00     0.135 A 
ATOM     92  F   UNL A   1      42.006  33.639  35.624  1.00  0.00    -0.206 F 
ATOM     93  C   UNL A   1      43.137  35.696  35.676  1.00  0.00     0.059 A 
ATOM     94  C   UNL A   1      44.190  36.547  33.659  1.00  0.00     0.059 A 
ATOM     95  F   UNL A   1      44.043  35.324  31.665  1.00  0.00    -0.206 F 
ATOM     96  C   UNL A   1      43.876  36.677  35.012  1.00  0.00     0.060 A 
BRANCH  96  97
ATOM     97  S   UNL A   1      44.451  38.111  35.946  1.00  0.00     0.124 S 
ATOM     98  O   UNL A   1      43.784  37.913  37.228  1.00  0.00    -0.237 OA
ATOM     99  O   UNL A   1      45.899  37.923  35.950  1.00  0.00    -0.237 OA
ATOM    100  O   UNL A   1      43.975  39.243  35.158  1.00  0.00    -0.744 OA
ENDBRANCH  96  97
ENDBRANCH  64  89
ENDBRANCH  38  39
ENDBRANCH  30  33
ENDBRANCH  28  29
ENDBRANCH  27  28
ENDBRANCH   1  27
TORSDOF 19
ENDMDL
MODEL 2
REMARK VINA RESULT:     -11.2      1.715      2.743
REMARK SMILES CC(C)(C)c1ccc(C(=O)C[C@H](C(=O)NCCCCNC(=O)c2ccc(-c3c4nc(c(-c5c(F)cc(S(=O)(=O)[O-])cc5F)c5ccc([nH]5)c(-c5c(F)cc(S(=O)(=O)[O-])cc5F)c5nc(c(-c6c(F)cc(S(=O)(=O)[O-])cc6F)c6ccc3[nH]6)C=C5)C=C4)cc2)[NH+]2CCCC2)cc1
REMARK SMILES IDX 17 1 16 2 15 3 13 4 14 5 12 7 11 8 9 9 10 10 8 11 5 12 6 13
REMARK SMILES IDX 95 14 7 15 94 16 2 17 1 18 3 19 4 20 89 21 90 22 93 23 91 25
REMARK SMILES IDX 92 26 18 27 19 28 20 29 21 30 22 32 23 33 24 34 88 35 25 36
REMARK SMILES IDX 87 37 26 38 27 39 28 40 81 41 29 42 86 43 80 44 82 45 30 46
REMARK SMILES IDX 85 47 79 48 78 49 31 51 65 52 44 53 64 54 45 55 48 56 63 57
REMARK SMILES IDX 83 58 46 59 47 60 62 62 84 63 49 64 32 65 33 66 42 67 34 68
REMARK SMILES IDX 35 69 41 70 43 71 36 72 37 73 38 74 39 75 40 76 66 77 67 78
REMARK SMILES IDX 76 79 68 80 69 81 75 82 77 83 70 84 71 85 72 86 73 87 74 88
REMARK SMILES IDX 50 89 51 90 60 91 52 92 53 93 59 94 61 95 54 96 55 97 56 98
REMARK SMILES IDX 57 99 58 100
REMARK H PARENT 15 6 89 24 20 31 82 50 48 61
REMARK Flexibility Score: inf
ROOT
ATOM      1  C   UNL A   1      35.712  21.769  26.390  1.00  0.00     0.023 C 
ENDROOT
BRANCH   1   2
ATOM      2  C   UNL A   1      35.563  20.864  25.172  1.00  0.00     0.116 C 
BRANCH   2   3
ATOM      3  N   UNL A   1      34.297  20.180  25.068  1.00  0.00    -0.351 N 
ATOM      4  C   UNL A   1      33.045  20.647  24.798  1.00  0.00     0.278 C 
ATOM      5  O   UNL A   1      32.152  19.797  24.926  1.00  0.00    -0.268 OA
ATOM      6  H   UNL A   1      34.345  19.208  25.217  1.00  0.00     0.163 HD
BRANCH   4   7
ATOM      7  C   UNL A   1      32.703  22.161  24.467  1.00  0.00     0.281 C 
BRANCH   7   8
ATOM      8  C   UNL A   1      33.196  22.733  23.128  1.00  0.00     0.156 C 
BRANCH   8   9
ATOM      9  C   UNL A   1      34.102  23.968  23.171  1.00  0.00     0.169 C 
ATOM     10  O   UNL A   1      35.112  23.985  22.457  1.00  0.00    -0.294 OA
BRANCH   9  11
ATOM     11  C   UNL A   1      33.785  25.218  23.948  1.00  0.00     0.018 A 
ATOM     12  C   UNL A   1      33.420  27.566  25.544  1.00  0.00    -0.043 A 
ATOM     13  C   UNL A   1      33.653  26.310  26.130  1.00  0.00     0.005 A 
ATOM     14  C   UNL A   1      33.323  27.600  24.150  1.00  0.00     0.005 A 
ATOM     15  C   UNL A   1      33.829  25.157  25.346  1.00  0.00     0.012 A 
ATOM     16  C   UNL A   1      33.499  26.450  23.373  1.00  0.00     0.012 A 
BRANCH  12  17
ATOM     17  C   UNL A   1      33.387  28.858  26.375  1.00  0.00    -0.013 C 
ATOM     18  C   UNL A   1      32.907  30.073  25.554  1.00  0.00     0.016 C 
ATOM     19  C   UNL A   1      34.763  29.240  26.970  1.00  0.00     0.016 C 
ATOM     20  C   UNL A   1      32.410  28.622  27.546  1.00  0.00     0.016 C 
ENDBRANCH  12  17
ENDBRANCH   9  11
ENDBRANCH   8   9
ENDBRANCH   7   8
BRANCH   7  21
ATOM     21  N   UNL A   1      31.233  22.410  24.713  1.00  0.00    -0.324 N 
ATOM     22  C   UNL A   1      30.618  23.512  23.960  1.00  0.00     0.263 C 
ATOM     23  C   UNL A   1      30.772  22.602  26.095  1.00  0.00     0.263 C 
ATOM     24  H   UNL A   1      30.928  21.497  24.375  1.00  0.00     0.348 HD
ATOM     25  C   UNL A   1      30.623  24.697  24.900  1.00  0.00     0.067 C 
ATOM     26  C   UNL A   1      30.424  24.078  26.268  1.00  0.00     0.067 C 
ENDBRANCH   7  21
ENDBRANCH   4   7
ENDBRANCH   2   3
ENDBRANCH   1   2
BRANCH   1  27
ATOM     27  C   UNL A   1      36.095  23.221  26.128  1.00  0.00     0.023 C 
BRANCH  27  28
ATOM     28  C   UNL A   1      37.228  23.451  25.136  1.00  0.00     0.116 C 
BRANCH  28  29
ATOM     29  N   UNL A   1      38.400  22.622  25.377  1.00  0.00    -0.352 N 
ATOM     30  C   UNL A   1      39.553  22.896  26.082  1.00  0.00     0.251 C 
ATOM     31  H   UNL A   1      38.364  21.726  24.974  1.00  0.00     0.163 HD
ATOM     32  O   UNL A   1      40.470  22.087  26.098  1.00  0.00    -0.269 OA
BRANCH  30  33
ATOM     33  C   UNL A   1      39.701  24.194  26.782  1.00  0.00     0.039 A 
ATOM     34  C   UNL A   1      39.059  24.374  28.010  1.00  0.00     0.014 A 
ATOM     35  C   UNL A   1      40.493  25.213  26.251  1.00  0.00     0.014 A 
ATOM     36  C   UNL A   1      39.301  25.533  28.754  1.00  0.00     0.010 A 
ATOM     37  C   UNL A   1      40.801  26.324  27.031  1.00  0.00     0.010 A 
ATOM     38  C   UNL A   1      40.219  26.492  28.296  1.00  0.00    -0.014 A 
BRANCH  38  39
ATOM     39  C   UNL A   1      40.603  27.662  29.128  1.00  0.00     0.031 A 
ATOM     40  C   UNL A   1      41.887  27.642  29.913  1.00  0.00     0.074 A 
ATOM     41  C   UNL A   1      39.756  28.705  29.247  1.00  0.00     0.049 A 
ATOM     42  N   UNL A   1      42.342  28.515  30.775  1.00  0.00    -0.248 NA
ATOM     43  C   UNL A   1      42.759  26.471  29.729  1.00  0.00     0.031 C 
ATOM     44  C   UNL A   1      38.453  28.820  28.586  1.00  0.00     0.029 A 
ATOM     45  N   UNL A   1      39.855  29.862  29.980  1.00  0.00    -0.354 N 
ATOM     46  C   UNL A   1      43.537  27.989  31.252  1.00  0.00     0.074 A 
ATOM     47  C   UNL A   1      43.711  26.698  30.621  1.00  0.00     0.031 C 
ATOM     48  C   UNL A   1      37.888  29.990  28.924  1.00  0.00     0.029 A 
ATOM     49  C   UNL A   1      38.765  30.692  29.855  1.00  0.00     0.049 A 
ATOM     50  H   UNL A   1      40.633  30.078  30.542  1.00  0.00     0.167 HD
ATOM     51  C   UNL A   1      44.421  28.540  32.116  1.00  0.00     0.037 A 
ATOM     52  C   UNL A   1      38.497  31.881  30.430  1.00  0.00     0.037 A 
ATOM     53  C   UNL A   1      44.264  29.841  32.711  1.00  0.00     0.049 A 
ATOM     54  C   UNL A   1      39.506  32.484  31.371  1.00  0.00     0.074 A 
ATOM     55  C   UNL A   1      45.135  30.516  33.548  1.00  0.00     0.029 A 
ATOM     56  N   UNL A   1      43.165  30.667  32.527  1.00  0.00    -0.354 N 
ATOM     57  N   UNL A   1      40.659  31.998  31.764  1.00  0.00    -0.248 NA
ATOM     58  C   UNL A   1      39.180  33.798  31.943  1.00  0.00     0.031 C 
ATOM     59  C   UNL A   1      44.548  31.737  33.897  1.00  0.00     0.029 A 
ATOM     60  C   UNL A   1      43.330  31.840  33.245  1.00  0.00     0.049 A 
ATOM     61  H   UNL A   1      42.383  30.452  31.970  1.00  0.00     0.167 HD
ATOM     62  C   UNL A   1      41.208  32.957  32.608  1.00  0.00     0.074 A 
ATOM     63  C   UNL A   1      40.266  34.055  32.660  1.00  0.00     0.031 C 
ATOM     64  C   UNL A   1      42.387  32.930  33.277  1.00  0.00     0.037 A 
BRANCH  51  65
ATOM     65  C   UNL A   1      45.647  27.740  32.460  1.00  0.00     0.058 A 
ATOM     66  C   UNL A   1      45.653  26.826  33.526  1.00  0.00     0.135 A 
ATOM     67  C   UNL A   1      46.821  27.866  31.700  1.00  0.00     0.135 A 
ATOM     68  F   UNL A   1      44.562  26.676  34.295  1.00  0.00    -0.206 F 
ATOM     69  C   UNL A   1      46.789  26.091  33.848  1.00  0.00     0.059 A 
ATOM     70  C   UNL A   1      47.961  27.121  31.988  1.00  0.00     0.059 A 
ATOM     71  F   UNL A   1      46.871  28.725  30.670  1.00  0.00    -0.206 F 
ATOM     72  C   UNL A   1      47.940  26.248  33.075  1.00  0.00     0.060 A 
BRANCH  72  73
ATOM     73  S   UNL A   1      49.406  25.288  33.506  1.00  0.00     0.124 S 
ATOM     74  O   UNL A   1      48.864  24.356  34.489  1.00  0.00    -0.237 OA
ATOM     75  O   UNL A   1      49.787  24.703  32.224  1.00  0.00    -0.237 OA
ATOM     76  O   UNL A   1      50.327  26.291  34.032  1.00  0.00    -0.744 OA
ENDBRANCH  72  73
ENDBRANCH  51  65
BRANCH  52  77
ATOM     77  C   UNL A   1      37.233  32.596  30.112  1.00  0.00     0.058 A 
ATOM     78  C   UNL A   1      36.061  32.340  30.840  1.00  0.00     0.135 A 
ATOM     79  C   UNL A   1      37.171  33.553  29.088  1.00  0.00     0.135 A 
ATOM     80  F   UNL A   1      36.069  31.429  31.823  1.00  0.00    -0.206 F 
ATOM     81  C   UNL A   1      34.867  32.994  30.553  1.00  0.00     0.059 A 
ATOM     82  C   UNL A   1      35.994  34.238  28.798  1.00  0.00     0.059 A 
ATOM     83  F   UNL A   1      38.269  33.847  28.374  1.00  0.00    -0.206 F 
ATOM     84  C   UNL A   1      34.844  33.943  29.529  1.00  0.00     0.060 A 
BRANCH  84  85
ATOM     85  S   UNL A   1      33.301  34.822  29.196  1.00  0.00     0.124 S 
ATOM     86  O   UNL A   1      33.791  36.061  28.604  1.00  0.00    -0.237 OA
ATOM     87  O   UNL A   1      32.614  33.908  28.289  1.00  0.00    -0.237 OA
ATOM     88  O   UNL A   1      32.697  34.949  30.520  1.00  0.00    -0.744 OA
ENDBRANCH  84  85
ENDBRANCH  52  77
BRANCH  64  89
ATOM     89  C   UNL A   1      42.743  34.137  34.098  1.00  0.00     0.058 A 
ATOM     90  C   UNL A   1      42.506  34.183  35.480  1.00  0.00     0.135 A 
ATOM     91  C   UNL A   1      43.383  35.236  33.503  1.00  0.00     0.135 A 
ATOM     92  F   UNL A   1      41.891  33.160  36.096  1.00  0.00    -0.206 F 
ATOM     93  C   UNL A   1      42.875  35.287  36.242  1.00  0.00     0.059 A 
ATOM     94  C   UNL A   1      43.782  36.339  34.249  1.00  0.00     0.059 A 
ATOM     95  F   UNL A   1      43.641  35.236  32.186  1.00  0.00    -0.206 F 
ATOM     96  C   UNL A   1      43.515  36.360  35.618  1.00  0.00     0.060 A 
BRANCH  96  97
ATOM     97  S   UNL A   1      44.025  37.770  36.623  1.00  0.00     0.124 S 
ATOM     98  O   UNL A   1      43.927  38.866  35.665  1.00  0.00    -0.237 OA
ATOM     99  O   UNL A   1      43.030  37.771  37.691  1.00  0.00    -0.237 OA
ATOM    100  O   UNL A   1      45.380  37.418  37.038  1.00  0.00    -0.744 OA
ENDBRANCH  96  97
ENDBRANCH  64  89
ENDBRANCH  38  39
ENDBRANCH  30  33
ENDBRANCH  28  29
ENDBRANCH  27  28
ENDBRANCH   1  27
TORSDOF 19
ENDMDL
MODEL 3
REMARK VINA RESULT:     -11.1      1.583      4.016
REMARK SMILES CC(C)(C)c1ccc(C(=O)C[C@H](C(=O)NCCCCNC(=O)c2ccc(-c3c4nc(c(-c5c(F)cc(S(=O)(=O)[O-])cc5F)c5ccc([nH]5)c(-c5c(F)cc(S(=O)(=O)[O-])cc5F)c5nc(c(-c6c(F)cc(S(=O)(=O)[O-])cc6F)c6ccc3[nH]6)C=C5)C=C4)cc2)[NH+]2CCCC2)cc1
REMARK SMILES IDX 17 1 16 2 15 3 13 4 14 5 12 7 11 8 9 9 10 10 8 11 5 12 6 13
REMARK SMILES IDX 95 14 7 15 94 16 2 17 1 18 3 19 4 20 89 21 90 22 93 23 91 25
REMARK SMILES IDX 92 26 18 27 19 28 20 29 21 30 22 32 23 33 24 34 88 35 25 36
REMARK SMILES IDX 87 37 26 38 27 39 28 40 81 41 29 42 86 43 80 44 82 45 30 46
REMARK SMILES IDX 85 47 79 48 78 49 31 51 65 52 44 53 64 54 45 55 48 56 63 57
REMARK SMILES IDX 83 58 46 59 47 60 62 62 84 63 49 64 32 65 33 66 42 67 34 68
REMARK SMILES IDX 35 69 41 70 43 71 36 72 37 73 38 74 39 75 40 76 66 77 67 78
REMARK SMILES IDX 76 79 68 80 69 81 75 82 77 83 70 84 71 85 72 86 73 87 74 88
REMARK SMILES IDX 50 89 51 90 60 91 52 92 53 93 59 94 61 95 54 96 55 97 56 98
REMARK SMILES IDX 57 99 58 100
REMARK H PARENT 15 6 89 24 20 31 82 50 48 61
REMARK Flexibility Score: inf
ROOT
ATOM      1  C   UNL A   1      35.189  23.038  23.796  1.00  0.00     0.023 C 
ENDROOT
BRANCH   1   2
ATOM      2  C   UNL A   1      34.297  24.275  23.822  1.00  0.00     0.116 C 
BRANCH   2   3
ATOM      3  N   UNL A   1      34.059  24.886  22.537  1.00  0.00    -0.351 N 
ATOM      4  C   UNL A   1      32.960  25.517  22.034  1.00  0.00     0.278 C 
ATOM      5  O   UNL A   1      33.049  25.801  20.831  1.00  0.00    -0.268 OA
ATOM      6  H   UNL A   1      34.821  24.838  21.916  1.00  0.00     0.163 HD
BRANCH   4   7
ATOM      7  C   UNL A   1      31.621  25.775  22.847  1.00  0.00     0.281 C 
BRANCH   7   8
ATOM      8  C   UNL A   1      30.711  24.569  23.133  1.00  0.00     0.156 C 
BRANCH   8   9
ATOM      9  C   UNL A   1      31.057  23.683  24.334  1.00  0.00     0.169 C 
ATOM     10  O   UNL A   1      30.692  24.045  25.459  1.00  0.00    -0.294 OA
BRANCH   9  11
ATOM     11  C   UNL A   1      31.722  22.337  24.223  1.00  0.00     0.018 A 
ATOM     12  C   UNL A   1      32.788  19.682  24.161  1.00  0.00    -0.043 A 
ATOM     13  C   UNL A   1      32.578  20.359  25.374  1.00  0.00     0.005 A 
ATOM     14  C   UNL A   1      32.502  20.388  22.989  1.00  0.00     0.005 A 
ATOM     15  C   UNL A   1      32.057  21.664  25.404  1.00  0.00     0.012 A 
ATOM     16  C   UNL A   1      31.984  21.687  23.022  1.00  0.00     0.012 A 
BRANCH  12  17
ATOM     17  C   UNL A   1      33.203  18.203  24.116  1.00  0.00    -0.013 C 
ATOM     18  C   UNL A   1      32.523  17.367  25.220  1.00  0.00     0.016 C 
ATOM     19  C   UNL A   1      34.728  17.989  24.274  1.00  0.00     0.016 C 
ATOM     20  C   UNL A   1      32.785  17.653  22.736  1.00  0.00     0.016 C 
ENDBRANCH  12  17
ENDBRANCH   9  11
ENDBRANCH   8   9
ENDBRANCH   7   8
BRANCH   7  21
ATOM     21  N   UNL A   1      31.930  26.590  24.081  1.00  0.00    -0.324 N 
ATOM     22  C   UNL A   1      30.792  27.253  24.733  1.00  0.00     0.263 C 
ATOM     23  C   UNL A   1      32.966  27.628  23.999  1.00  0.00     0.263 C 
ATOM     24  H   UNL A   1      32.279  25.802  24.627  1.00  0.00     0.348 HD
ATOM     25  C   UNL A   1      30.799  28.673  24.213  1.00  0.00     0.067 C 
ATOM     26  C   UNL A   1      32.268  28.985  24.023  1.00  0.00     0.067 C 
ENDBRANCH   7  21
ENDBRANCH   4   7
ENDBRANCH   2   3
ENDBRANCH   1   2
BRANCH   1  27
ATOM     27  C   UNL A   1      35.978  22.729  25.063  1.00  0.00     0.023 C 
BRANCH  27  28
ATOM     28  C   UNL A   1      37.245  23.545  25.285  1.00  0.00     0.116 C 
BRANCH  28  29
ATOM     29  N   UNL A   1      38.438  22.736  25.487  1.00  0.00    -0.352 N 
ATOM     30  C   UNL A   1      39.605  23.026  26.163  1.00  0.00     0.251 C 
ATOM     31  H   UNL A   1      38.408  21.842  25.078  1.00  0.00     0.163 HD
ATOM     32  O   UNL A   1      40.537  22.234  26.147  1.00  0.00    -0.269 OA
BRANCH  30  33
ATOM     33  C   UNL A   1      39.747  24.321  26.869  1.00  0.00     0.039 A 
ATOM     34  C   UNL A   1      39.168  24.467  28.132  1.00  0.00     0.014 A 
ATOM     35  C   UNL A   1      40.476  25.372  26.308  1.00  0.00     0.014 A 
ATOM     36  C   UNL A   1      39.411  25.626  28.876  1.00  0.00     0.010 A 
ATOM     37  C   UNL A   1      40.789  26.484  27.083  1.00  0.00     0.010 A 
ATOM     38  C   UNL A   1      40.271  26.620  28.380  1.00  0.00    -0.014 A 
BRANCH  38  39
ATOM     39  C   UNL A   1      40.660  27.794  29.204  1.00  0.00     0.031 A 
ATOM     40  C   UNL A   1      41.961  27.787  29.962  1.00  0.00     0.074 A 
ATOM     41  C   UNL A   1      39.806  28.829  29.341  1.00  0.00     0.049 A 
ATOM     42  N   UNL A   1      42.426  28.664  30.814  1.00  0.00    -0.248 NA
ATOM     43  C   UNL A   1      42.841  26.625  29.759  1.00  0.00     0.031 C 
ATOM     44  C   UNL A   1      38.488  28.930  28.708  1.00  0.00     0.029 A 
ATOM     45  N   UNL A   1      39.909  29.986  30.072  1.00  0.00    -0.354 N 
ATOM     46  C   UNL A   1      43.635  28.150  31.265  1.00  0.00     0.074 A 
ATOM     47  C   UNL A   1      43.809  26.861  30.631  1.00  0.00     0.031 C 
ATOM     48  C   UNL A   1      37.919  30.095  29.058  1.00  0.00     0.029 A 
ATOM     49  C   UNL A   1      38.808  30.806  29.970  1.00  0.00     0.049 A 
ATOM     50  H   UNL A   1      40.697  30.211  30.617  1.00  0.00     0.167 HD
ATOM     51  C   UNL A   1      44.532  28.710  32.111  1.00  0.00     0.037 A 
ATOM     52  C   UNL A   1      38.541  31.992  30.551  1.00  0.00     0.037 A 
ATOM     53  C   UNL A   1      44.375  30.010  32.708  1.00  0.00     0.049 A 
ATOM     54  C   UNL A   1      39.564  32.605  31.470  1.00  0.00     0.074 A 
ATOM     55  C   UNL A   1      45.256  30.694  33.527  1.00  0.00     0.029 A 
ATOM     56  N   UNL A   1      43.264  30.825  32.549  1.00  0.00    -0.354 N 
ATOM     57  N   UNL A   1      40.729  32.130  31.838  1.00  0.00    -0.248 NA
ATOM     58  C   UNL A   1      39.237  33.916  32.049  1.00  0.00     0.031 C 
ATOM     59  C   UNL A   1      44.665  31.909  33.889  1.00  0.00     0.029 A 
ATOM     60  C   UNL A   1      43.432  32.000  33.262  1.00  0.00     0.049 A 
ATOM     61  H   UNL A   1      42.473  30.602  32.008  1.00  0.00     0.167 HD
ATOM     62  C   UNL A   1      41.286  33.095  32.670  1.00  0.00     0.074 A 
ATOM     63  C   UNL A   1      40.335  34.184  32.743  1.00  0.00     0.031 C 
ATOM     64  C   UNL A   1      42.479  33.080  33.315  1.00  0.00     0.037 A 
BRANCH  51  65
ATOM     65  C   UNL A   1      45.773  27.922  32.428  1.00  0.00     0.058 A 
ATOM     66  C   UNL A   1      45.811  27.009  33.494  1.00  0.00     0.135 A 
ATOM     67  C   UNL A   1      46.930  28.061  31.644  1.00  0.00     0.135 A 
ATOM     68  F   UNL A   1      44.738  26.848  34.285  1.00  0.00    -0.206 F 
ATOM     69  C   UNL A   1      46.960  26.286  33.792  1.00  0.00     0.059 A 
ATOM     70  C   UNL A   1      48.083  27.327  31.908  1.00  0.00     0.059 A 
ATOM     71  F   UNL A   1      46.949  28.920  30.613  1.00  0.00    -0.206 F 
ATOM     72  C   UNL A   1      48.093  26.454  32.994  1.00  0.00     0.060 A 
BRANCH  72  73
ATOM     73  S   UNL A   1      49.578  25.508  33.394  1.00  0.00     0.124 S 
ATOM     74  O   UNL A   1      50.602  26.547  33.360  1.00  0.00    -0.237 OA
ATOM     75  O   UNL A   1      49.263  24.973  34.715  1.00  0.00    -0.237 OA
ATOM     76  O   UNL A   1      49.650  24.520  32.322  1.00  0.00    -0.744 OA
ENDBRANCH  72  73
ENDBRANCH  51  65
BRANCH  52  77
ATOM     77  C   UNL A   1      37.263  32.694  30.260  1.00  0.00     0.058 A 
ATOM     78  C   UNL A   1      37.153  33.560  29.162  1.00  0.00     0.135 A 
ATOM     79  C   UNL A   1      36.126  32.507  31.062  1.00  0.00     0.135 A 
ATOM     80  F   UNL A   1      38.213  33.776  28.370  1.00  0.00    -0.206 F 
ATOM     81  C   UNL A   1      35.967  34.230  28.877  1.00  0.00     0.059 A 
ATOM     82  C   UNL A   1      34.923  33.148  30.784  1.00  0.00     0.059 A 
ATOM     83  F   UNL A   1      36.175  31.675  32.114  1.00  0.00    -0.206 F 
ATOM     84  C   UNL A   1      34.856  34.016  29.695  1.00  0.00     0.060 A 
BRANCH  84  85
ATOM     85  S   UNL A   1      33.308  34.853  29.289  1.00  0.00     0.124 S 
ATOM     86  O   UNL A   1      33.791  36.117  28.747  1.00  0.00    -0.237 OA
ATOM     87  O   UNL A   1      32.703  33.936  28.328  1.00  0.00    -0.237 OA
ATOM     88  O   UNL A   1      32.625  34.937  30.577  1.00  0.00    -0.744 OA
ENDBRANCH  84  85
ENDBRANCH  52  77
BRANCH  64  89
ATOM     89  C   UNL A   1      42.841  34.290  34.128  1.00  0.00     0.058 A 
ATOM     90  C   UNL A   1      42.588  34.354  35.507  1.00  0.00     0.135 A 
ATOM     91  C   UNL A   1      43.501  35.375  33.530  1.00  0.00     0.135 A 
ATOM     92  F   UNL A   1      41.953  33.344  36.125  1.00  0.00    -0.206 F 
ATOM     93  C   UNL A   1      42.961  35.460  36.262  1.00  0.00     0.059 A 
ATOM     94  C   UNL A   1      43.905  36.481  34.270  1.00  0.00     0.059 A 
ATOM     95  F   UNL A   1      43.775  35.360  32.216  1.00  0.00    -0.206 F 
ATOM     96  C   UNL A   1      43.622  36.519  35.635  1.00  0.00     0.060 A 
BRANCH  96  97
ATOM     97  S   UNL A   1      44.138  37.932  36.633  1.00  0.00     0.124 S 
ATOM     98  O   UNL A   1      45.498  37.552  37.001  1.00  0.00    -0.237 OA
ATOM     99  O   UNL A   1      44.022  39.041  35.691  1.00  0.00    -0.237 OA
ATOM    100  O   UNL A   1      43.172  37.945  37.728  1.00  0.00    -0.744 OA
ENDBRANCH  96  97
ENDBRANCH  64  89
ENDBRANCH  38  39
ENDBRANCH  30  33
ENDBRANCH  28  29
ENDBRANCH  27  28
ENDBRANCH   1  27
TORSDOF 19
ENDMDL
