MODEL 1
REMARK VINA RESULT:     -12.4      0.000      0.000
REMARK SMILES CCn1cc(S(=O)(=O)Nc2c(C)cc(C)cc2C(=O)NCCCCNC(=O)c2ccc(-c3c4nc(c(-c5c(F)cc(S(=O)(=O)[O-])cc5F)c5ccc([nH]5)c(-c5c(F)cc(S(=O)(=O)[O-])cc5F)c5nc(c(-c6c(F)cc(S(=O)(=O)[O-])cc6F)c6ccc3[nH]6)C=C5)C=C4)cc2)cn1
REMARK SMILES IDX 22 1 21 2 20 3 18 4 19 5 17 7 10 8 11 9 12 10 13 11 16 12
REMARK SMILES IDX 14 13 15 14 9 15 6 17 7 18 8 19 5 20 3 21 4 22 95 23 94 24
REMARK SMILES IDX 2 25 1 26 23 27 24 28 25 29 26 30 27 32 28 33 29 34 93 35
REMARK SMILES IDX 30 36 92 37 31 38 32 39 33 40 86 41 34 42 91 43 85 44 87 45
REMARK SMILES IDX 35 46 90 47 84 48 83 49 36 51 70 52 49 53 69 54 50 55 53 56
REMARK SMILES IDX 68 57 88 58 51 59 52 60 67 62 89 63 54 64 37 65 38 66 47 67
REMARK SMILES IDX 39 68 40 69 46 70 48 71 41 72 42 73 43 74 44 75 45 76 71 77
REMARK SMILES IDX 72 78 81 79 73 80 74 81 80 82 82 83 75 84 76 85 77 86 78 87
REMARK SMILES IDX 79 88 55 89 56 90 65 91 57 92 58 93 64 94 66 95 59 96 60 97
REMARK SMILES IDX 61 98 62 99 63 100
REMARK H PARENT 20 6 9 16 25 31 87 50 53 61
REMARK Flexibility Score: inf
ROOT
ATOM      1  C   UNL A   1      37.724  23.086  25.681  1.00  0.00     0.023 C 
ENDROOT
BRANCH   1   2
ATOM      2  C   UNL A   1      36.244  22.977  25.304  1.00  0.00     0.116 C 
BRANCH   2   3
ATOM      3  N   UNL A   1      35.526  22.294  26.362  1.00  0.00    -0.352 N 
ATOM      4  C   UNL A   1      34.361  21.582  26.454  1.00  0.00     0.253 C 
ATOM      5  O   UNL A   1      33.962  21.427  27.617  1.00  0.00    -0.269 OA
ATOM      6  H   UNL A   1      35.991  22.359  27.227  1.00  0.00     0.163 HD
BRANCH   4   7
ATOM      7  C   UNL A   1      33.588  20.890  25.362  1.00  0.00     0.064 A 
ATOM      8  C   UNL A   1      32.967  21.388  24.200  1.00  0.00     0.065 A 
ATOM      9  C   UNL A   1      32.426  20.481  23.237  1.00  0.00    -0.026 A 
ATOM     10  C   UNL A   1      31.823  20.907  21.918  1.00  0.00     0.046 C 
ATOM     11  C   UNL A   1      32.359  19.106  23.522  1.00  0.00     0.009 A 
ATOM     12  C   UNL A   1      33.507  19.486  25.585  1.00  0.00     0.019 A 
ATOM     13  C   UNL A   1      32.875  18.599  24.706  1.00  0.00    -0.050 A 
ATOM     14  C   UNL A   1      32.724  17.146  25.046  1.00  0.00     0.044 C 
BRANCH   8  15
ATOM     15  N   UNL A   1      32.768  22.783  23.955  1.00  0.00    -0.278 N 
ATOM     16  H   UNL A   1      33.478  23.301  23.509  1.00  0.00     0.180 HD
BRANCH  15  17
ATOM     17  S   UNL A   1      31.338  23.560  24.419  1.00  0.00     0.265 S 
ATOM     18  O   UNL A   1      30.758  22.701  25.420  1.00  0.00    -0.201 OA
ATOM     19  O   UNL A   1      30.589  23.968  23.245  1.00  0.00    -0.201 OA
BRANCH  17  20
ATOM     20  C   UNL A   1      31.552  25.047  25.223  1.00  0.00     0.125 A 
ATOM     21  N   UNL A   1      32.148  27.044  25.851  1.00  0.00    -0.272 N 
ATOM     22  C   UNL A   1      32.270  26.151  24.827  1.00  0.00     0.131 A 
ATOM     23  N   UNL A   1      31.261  26.660  26.791  1.00  0.00    -0.180 NA
ATOM     24  C   UNL A   1      30.900  25.433  26.401  1.00  0.00     0.157 A 
BRANCH  21  25
ATOM     25  C   UNL A   1      32.925  28.260  26.002  1.00  0.00     0.141 C 
ATOM     26  C   UNL A   1      32.405  29.188  27.089  1.00  0.00     0.029 C 
ENDBRANCH  21  25
ENDBRANCH  17  20
ENDBRANCH  15  17
ENDBRANCH   8  15
ENDBRANCH   4   7
ENDBRANCH   2   3
ENDBRANCH   1   2
BRANCH   1  27
ATOM     27  C   UNL A   1      38.578  21.829  25.485  1.00  0.00     0.023 C 
BRANCH  27  28
ATOM     28  C   UNL A   1      39.716  21.688  26.486  1.00  0.00     0.116 C 
BRANCH  28  29
ATOM     29  N   UNL A   1      41.030  21.900  25.882  1.00  0.00    -0.352 N 
ATOM     30  C   UNL A   1      41.764  23.066  25.856  1.00  0.00     0.251 C 
ATOM     31  H   UNL A   1      41.438  21.119  25.444  1.00  0.00     0.163 HD
ATOM     32  O   UNL A   1      42.718  23.212  25.104  1.00  0.00    -0.269 OA
BRANCH  30  33
ATOM     33  C   UNL A   1      41.341  24.149  26.757  1.00  0.00     0.039 A 
ATOM     34  C   UNL A   1      41.905  24.249  28.027  1.00  0.00     0.014 A 
ATOM     35  C   UNL A   1      40.522  25.155  26.242  1.00  0.00     0.014 A 
ATOM     36  C   UNL A   1      41.737  25.433  28.739  1.00  0.00     0.010 A 
ATOM     37  C   UNL A   1      40.427  26.359  26.919  1.00  0.00     0.010 A 
ATOM     38  C   UNL A   1      41.040  26.514  28.166  1.00  0.00    -0.014 A 
BRANCH  38  39
ATOM     39  C   UNL A   1      41.120  27.830  28.821  1.00  0.00     0.031 A 
ATOM     40  C   UNL A   1      42.241  28.712  28.372  1.00  0.00     0.074 A 
ATOM     41  C   UNL A   1      40.170  28.375  29.611  1.00  0.00     0.049 A 
ATOM     42  N   UNL A   1      43.243  29.151  29.064  1.00  0.00    -0.248 NA
ATOM     43  C   UNL A   1      42.284  29.110  26.955  1.00  0.00     0.031 C 
ATOM     44  C   UNL A   1      38.827  27.857  29.883  1.00  0.00     0.029 A 
ATOM     45  N   UNL A   1      40.173  29.581  30.262  1.00  0.00    -0.354 N 
ATOM     46  C   UNL A   1      43.922  30.049  28.240  1.00  0.00     0.074 A 
ATOM     47  C   UNL A   1      43.380  29.872  26.917  1.00  0.00     0.031 C 
ATOM     48  C   UNL A   1      38.073  28.830  30.437  1.00  0.00     0.029 A 
ATOM     49  C   UNL A   1      38.929  29.963  30.740  1.00  0.00     0.049 A 
ATOM     50  H   UNL A   1      40.984  30.126  30.380  1.00  0.00     0.167 HD
ATOM     51  C   UNL A   1      44.707  31.036  28.755  1.00  0.00     0.037 A 
ATOM     52  C   UNL A   1      38.589  31.113  31.367  1.00  0.00     0.037 A 
ATOM     53  C   UNL A   1      44.955  30.840  30.158  1.00  0.00     0.049 A 
ATOM     54  C   UNL A   1      39.798  31.690  31.997  1.00  0.00     0.074 A 
ATOM     55  C   UNL A   1      45.815  30.117  30.952  1.00  0.00     0.029 A 
ATOM     56  N   UNL A   1      43.964  31.322  30.967  1.00  0.00    -0.354 N 
ATOM     57  N   UNL A   1      40.466  31.105  32.953  1.00  0.00    -0.248 NA
ATOM     58  C   UNL A   1      40.456  32.844  31.393  1.00  0.00     0.031 C 
ATOM     59  C   UNL A   1      45.214  30.052  32.246  1.00  0.00     0.029 A 
ATOM     60  C   UNL A   1      44.007  30.742  32.208  1.00  0.00     0.049 A 
ATOM     61  H   UNL A   1      43.302  31.998  30.693  1.00  0.00     0.167 HD
ATOM     62  C   UNL A   1      41.760  31.548  32.789  1.00  0.00     0.074 A 
ATOM     63  C   UNL A   1      41.664  32.733  31.951  1.00  0.00     0.031 C 
ATOM     64  C   UNL A   1      42.821  30.731  33.034  1.00  0.00     0.037 A 
BRANCH  51  65
ATOM     65  C   UNL A   1      44.901  32.415  28.149  1.00  0.00     0.058 A 
ATOM     66  C   UNL A   1      46.170  32.776  27.643  1.00  0.00     0.135 A 
ATOM     67  C   UNL A   1      44.000  33.484  28.340  1.00  0.00     0.135 A 
ATOM     68  F   UNL A   1      47.110  31.841  27.422  1.00  0.00    -0.206 F 
ATOM     69  C   UNL A   1      46.541  34.104  27.419  1.00  0.00     0.059 A 
ATOM     70  C   UNL A   1      44.331  34.811  28.074  1.00  0.00     0.059 A 
ATOM     71  F   UNL A   1      42.794  33.304  28.892  1.00  0.00    -0.206 F 
ATOM     72  C   UNL A   1      45.618  35.117  27.658  1.00  0.00     0.060 A 
BRANCH  72  73
ATOM     73  S   UNL A   1      46.123  36.840  27.484  1.00  0.00     0.124 S 
ATOM     74  O   UNL A   1      46.813  36.812  26.198  1.00  0.00    -0.237 OA
ATOM     75  O   UNL A   1      44.844  37.540  27.508  1.00  0.00    -0.237 OA
ATOM     76  O   UNL A   1      46.971  37.057  28.652  1.00  0.00    -0.744 OA
ENDBRANCH  72  73
ENDBRANCH  51  65
BRANCH  52  77
ATOM     77  C   UNL A   1      37.291  31.820  31.330  1.00  0.00     0.058 A 
ATOM     78  C   UNL A   1      36.373  31.723  32.387  1.00  0.00     0.135 A 
ATOM     79  C   UNL A   1      37.043  32.817  30.366  1.00  0.00     0.135 A 
ATOM     80  F   UNL A   1      36.549  30.810  33.354  1.00  0.00    -0.206 F 
ATOM     81  C   UNL A   1      35.292  32.598  32.510  1.00  0.00     0.059 A 
ATOM     82  C   UNL A   1      35.967  33.696  30.462  1.00  0.00     0.059 A 
ATOM     83  F   UNL A   1      37.895  33.018  29.349  1.00  0.00    -0.206 F 
ATOM     84  C   UNL A   1      35.110  33.596  31.552  1.00  0.00     0.060 A 
BRANCH  84  85
ATOM     85  S   UNL A   1      33.823  34.839  31.811  1.00  0.00     0.124 S 
ATOM     86  O   UNL A   1      33.016  34.222  32.858  1.00  0.00    -0.237 OA
ATOM     87  O   UNL A   1      34.600  36.007  32.208  1.00  0.00    -0.237 OA
ATOM     88  O   UNL A   1      33.180  34.935  30.503  1.00  0.00    -0.744 OA
ENDBRANCH  84  85
ENDBRANCH  52  77
BRANCH  64  89
ATOM     89  C   UNL A   1      42.663  29.656  34.064  1.00  0.00     0.058 A 
ATOM     90  C   UNL A   1      42.832  29.839  35.447  1.00  0.00     0.135 A 
ATOM     91  C   UNL A   1      42.261  28.386  33.626  1.00  0.00     0.135 A 
ATOM     92  F   UNL A   1      43.142  31.042  35.950  1.00  0.00    -0.206 F 
ATOM     93  C   UNL A   1      42.646  28.790  36.349  1.00  0.00     0.059 A 
ATOM     94  C   UNL A   1      42.042  27.334  34.509  1.00  0.00     0.059 A 
ATOM     95  F   UNL A   1      42.041  28.164  32.319  1.00  0.00    -0.206 F 
ATOM     96  C   UNL A   1      42.250  27.539  35.870  1.00  0.00     0.060 A 
BRANCH  96  97
ATOM     97  S   UNL A   1      41.945  26.200  37.042  1.00  0.00     0.124 S 
ATOM     98  O   UNL A   1      42.181  25.015  36.225  1.00  0.00    -0.237 OA
ATOM     99  O   UNL A   1      42.934  26.459  38.086  1.00  0.00    -0.237 OA
ATOM    100  O   UNL A   1      40.557  26.412  37.447  1.00  0.00    -0.744 OA
ENDBRANCH  96  97
ENDBRANCH  64  89
ENDBRANCH  38  39
ENDBRANCH  30  33
ENDBRANCH  28  29
ENDBRANCH  27  28
ENDBRANCH   1  27
TORSDOF 18
ENDMDL
MODEL 2
REMARK VINA RESULT:     -12.4      1.067      3.288
REMARK SMILES CCn1cc(S(=O)(=O)Nc2c(C)cc(C)cc2C(=O)NCCCCNC(=O)c2ccc(-c3c4nc(c(-c5c(F)cc(S(=O)(=O)[O-])cc5F)c5ccc([nH]5)c(-c5c(F)cc(S(=O)(=O)[O-])cc5F)c5nc(c(-c6c(F)cc(S(=O)(=O)[O-])cc6F)c6ccc3[nH]6)C=C5)C=C4)cc2)cn1
REMARK SMILES IDX 22 1 21 2 20 3 18 4 19 5 17 7 10 8 11 9 12 10 13 11 16 12
REMARK SMILES IDX 14 13 15 14 9 15 6 17 7 18 8 19 5 20 3 21 4 22 95 23 94 24
REMARK SMILES IDX 2 25 1 26 23 27 24 28 25 29 26 30 27 32 28 33 29 34 93 35
REMARK SMILES IDX 30 36 92 37 31 38 32 39 33 40 86 41 34 42 91 43 85 44 87 45
REMARK SMILES IDX 35 46 90 47 84 48 83 49 36 51 70 52 49 53 69 54 50 55 53 56
REMARK SMILES IDX 68 57 88 58 51 59 52 60 67 62 89 63 54 64 37 65 38 66 47 67
REMARK SMILES IDX 39 68 40 69 46 70 48 71 41 72 42 73 43 74 44 75 45 76 71 77
REMARK SMILES IDX 72 78 81 79 73 80 74 81 80 82 82 83 75 84 76 85 77 86 78 87
REMARK SMILES IDX 79 88 55 89 56 90 65 91 57 92 58 93 64 94 66 95 59 96 60 97
REMARK SMILES IDX 61 98 62 99 63 100
REMARK H PARENT 20 6 9 16 25 31 87 50 53 61
REMARK Flexibility Score: inf
ROOT
ATOM      1  C   UNL A   1      37.741  23.073  25.698  1.00  0.00     0.023 C 
ENDROOT
BRANCH   1   2
ATOM      2  C   UNL A   1      36.224  22.890  25.594  1.00  0.00     0.116 C 
BRANCH   2   3
ATOM      3  N   UNL A   1      35.816  23.023  24.210  1.00  0.00    -0.352 N 
ATOM      4  C   UNL A   1      34.809  23.666  23.542  1.00  0.00     0.253 C 
ATOM      5  O   UNL A   1      34.649  23.271  22.379  1.00  0.00    -0.269 OA
ATOM      6  H   UNL A   1      36.410  22.530  23.599  1.00  0.00     0.163 HD
BRANCH   4   7
ATOM      7  C   UNL A   1      33.971  24.834  23.994  1.00  0.00     0.064 A 
ATOM      8  C   UNL A   1      33.075  24.978  25.072  1.00  0.00     0.065 A 
ATOM      9  C   UNL A   1      32.522  26.260  25.371  1.00  0.00    -0.026 A 
ATOM     10  C   UNL A   1      31.627  26.540  26.556  1.00  0.00     0.046 C 
ATOM     11  C   UNL A   1      32.733  27.342  24.497  1.00  0.00     0.009 A 
ATOM     12  C   UNL A   1      34.162  25.971  23.158  1.00  0.00     0.019 A 
ATOM     13  C   UNL A   1      33.532  27.202  23.372  1.00  0.00    -0.050 A 
ATOM     14  C   UNL A   1      33.684  28.331  22.396  1.00  0.00     0.044 C 
BRANCH   8  15
ATOM     15  N   UNL A   1      32.612  23.876  25.856  1.00  0.00    -0.278 N 
ATOM     16  H   UNL A   1      32.958  23.753  26.770  1.00  0.00     0.180 HD
BRANCH  15  17
ATOM     17  S   UNL A   1      31.480  22.777  25.242  1.00  0.00     0.265 S 
ATOM     18  O   UNL A   1      31.073  23.333  23.976  1.00  0.00    -0.201 OA
ATOM     19  O   UNL A   1      30.511  22.435  26.266  1.00  0.00    -0.201 OA
BRANCH  17  20
ATOM     20  C   UNL A   1      32.107  21.244  24.838  1.00  0.00     0.125 A 
ATOM     21  N   UNL A   1      32.714  19.403  23.851  1.00  0.00    -0.272 N 
ATOM     22  C   UNL A   1      32.154  20.624  23.612  1.00  0.00     0.131 A 
ATOM     23  N   UNL A   1      33.190  19.269  25.106  1.00  0.00    -0.180 NA
ATOM     24  C   UNL A   1      32.811  20.402  25.708  1.00  0.00     0.157 A 
BRANCH  21  25
ATOM     25  C   UNL A   1      32.753  18.298  22.912  1.00  0.00     0.141 C 
ATOM     26  C   UNL A   1      33.731  17.199  23.297  1.00  0.00     0.029 C 
ENDBRANCH  21  25
ENDBRANCH  17  20
ENDBRANCH  15  17
ENDBRANCH   8  15
ENDBRANCH   4   7
ENDBRANCH   2   3
ENDBRANCH   1   2
BRANCH   1  27
ATOM     27  C   UNL A   1      38.595  21.807  25.582  1.00  0.00     0.023 C 
BRANCH  27  28
ATOM     28  C   UNL A   1      39.729  21.727  26.595  1.00  0.00     0.116 C 
BRANCH  28  29
ATOM     29  N   UNL A   1      41.042  21.941  25.990  1.00  0.00    -0.352 N 
ATOM     30  C   UNL A   1      41.751  23.121  25.917  1.00  0.00     0.251 C 
ATOM     31  H   UNL A   1      41.471  21.150  25.589  1.00  0.00     0.163 HD
ATOM     32  O   UNL A   1      42.708  23.253  25.165  1.00  0.00    -0.269 OA
BRANCH  30  33
ATOM     33  C   UNL A   1      41.299  24.232  26.766  1.00  0.00     0.039 A 
ATOM     34  C   UNL A   1      41.768  24.336  28.074  1.00  0.00     0.014 A 
ATOM     35  C   UNL A   1      40.557  25.256  26.175  1.00  0.00     0.014 A 
ATOM     36  C   UNL A   1      41.587  25.538  28.753  1.00  0.00     0.010 A 
ATOM     37  C   UNL A   1      40.452  26.474  26.824  1.00  0.00     0.010 A 
ATOM     38  C   UNL A   1      40.973  26.631  28.112  1.00  0.00    -0.014 A 
BRANCH  38  39
ATOM     39  C   UNL A   1      41.049  27.954  28.751  1.00  0.00     0.031 A 
ATOM     40  C   UNL A   1      42.160  28.840  28.284  1.00  0.00     0.074 A 
ATOM     41  C   UNL A   1      40.101  28.502  29.542  1.00  0.00     0.049 A 
ATOM     42  N   UNL A   1      43.164  29.293  28.963  1.00  0.00    -0.248 NA
ATOM     43  C   UNL A   1      42.190  29.221  26.862  1.00  0.00     0.031 C 
ATOM     44  C   UNL A   1      38.763  27.978  29.829  1.00  0.00     0.029 A 
ATOM     45  N   UNL A   1      40.100  29.715  30.179  1.00  0.00    -0.354 N 
ATOM     46  C   UNL A   1      43.831  30.186  28.124  1.00  0.00     0.074 A 
ATOM     47  C   UNL A   1      43.281  29.990  26.807  1.00  0.00     0.031 C 
ATOM     48  C   UNL A   1      38.006  28.952  30.377  1.00  0.00     0.029 A 
ATOM     49  C   UNL A   1      38.856  30.095  30.661  1.00  0.00     0.049 A 
ATOM     50  H   UNL A   1      40.907  30.268  30.285  1.00  0.00     0.167 HD
ATOM     51  C   UNL A   1      44.612  31.185  28.623  1.00  0.00     0.037 A 
ATOM     52  C   UNL A   1      38.513  31.249  31.277  1.00  0.00     0.037 A 
ATOM     53  C   UNL A   1      44.871  31.007  30.026  1.00  0.00     0.049 A 
ATOM     54  C   UNL A   1      39.722  31.842  31.892  1.00  0.00     0.074 A 
ATOM     55  C   UNL A   1      45.743  30.299  30.822  1.00  0.00     0.029 A 
ATOM     56  N   UNL A   1      43.883  31.491  30.836  1.00  0.00    -0.354 N 
ATOM     57  N   UNL A   1      40.401  31.273  32.850  1.00  0.00    -0.248 NA
ATOM     58  C   UNL A   1      40.368  32.993  31.270  1.00  0.00     0.031 C 
ATOM     59  C   UNL A   1      45.151  30.245  32.121  1.00  0.00     0.029 A 
ATOM     60  C   UNL A   1      43.939  30.926  32.083  1.00  0.00     0.049 A 
ATOM     61  H   UNL A   1      43.215  32.160  30.559  1.00  0.00     0.167 HD
ATOM     62  C   UNL A   1      41.691  31.723  32.671  1.00  0.00     0.074 A 
ATOM     63  C   UNL A   1      41.581  32.898  31.821  1.00  0.00     0.031 C 
ATOM     64  C   UNL A   1      42.759  30.916  32.918  1.00  0.00     0.037 A 
BRANCH  51  65
ATOM     65  C   UNL A   1      44.793  32.558  27.999  1.00  0.00     0.058 A 
ATOM     66  C   UNL A   1      46.055  32.920  27.477  1.00  0.00     0.135 A 
ATOM     67  C   UNL A   1      43.887  33.624  28.187  1.00  0.00     0.135 A 
ATOM     68  F   UNL A   1      46.997  31.988  27.257  1.00  0.00    -0.206 F 
ATOM     69  C   UNL A   1      46.416  34.248  27.234  1.00  0.00     0.059 A 
ATOM     70  C   UNL A   1      44.208  34.950  27.903  1.00  0.00     0.059 A 
ATOM     71  F   UNL A   1      42.688  33.443  28.753  1.00  0.00    -0.206 F 
ATOM     72  C   UNL A   1      45.489  35.258  27.471  1.00  0.00     0.060 A 
BRANCH  72  73
ATOM     73  S   UNL A   1      45.982  36.982  27.272  1.00  0.00     0.124 S 
ATOM     74  O   UNL A   1      44.691  37.634  27.085  1.00  0.00    -0.237 OA
ATOM     75  O   UNL A   1      46.660  37.256  28.535  1.00  0.00    -0.237 OA
ATOM     76  O   UNL A   1      46.849  36.946  26.099  1.00  0.00    -0.744 OA
ENDBRANCH  72  73
ENDBRANCH  51  65
BRANCH  52  77
ATOM     77  C   UNL A   1      37.209  31.946  31.242  1.00  0.00     0.058 A 
ATOM     78  C   UNL A   1      36.301  31.858  32.308  1.00  0.00     0.135 A 
ATOM     79  C   UNL A   1      36.946  32.928  30.265  1.00  0.00     0.135 A 
ATOM     80  F   UNL A   1      36.492  30.961  33.286  1.00  0.00    -0.206 F 
ATOM     81  C   UNL A   1      35.215  32.728  32.427  1.00  0.00     0.059 A 
ATOM     82  C   UNL A   1      35.865  33.801  30.358  1.00  0.00     0.059 A 
ATOM     83  F   UNL A   1      37.788  33.120  29.238  1.00  0.00    -0.206 F 
ATOM     84  C   UNL A   1      35.018  33.711  31.457  1.00  0.00     0.060 A 
BRANCH  84  85
ATOM     85  S   UNL A   1      33.725  34.948  31.709  1.00  0.00     0.124 S 
ATOM     86  O   UNL A   1      32.930  34.340  32.770  1.00  0.00    -0.237 OA
ATOM     87  O   UNL A   1      34.497  36.127  32.084  1.00  0.00    -0.237 OA
ATOM     88  O   UNL A   1      33.072  35.023  30.404  1.00  0.00    -0.744 OA
ENDBRANCH  84  85
ENDBRANCH  52  77
BRANCH  64  89
ATOM     89  C   UNL A   1      42.616  29.853  33.962  1.00  0.00     0.058 A 
ATOM     90  C   UNL A   1      42.771  30.057  35.343  1.00  0.00     0.135 A 
ATOM     91  C   UNL A   1      42.244  28.568  33.538  1.00  0.00     0.135 A 
ATOM     92  F   UNL A   1      43.051  31.274  35.832  1.00  0.00    -0.206 F 
ATOM     93  C   UNL A   1      42.600  29.017  36.258  1.00  0.00     0.059 A 
ATOM     94  C   UNL A   1      42.041  27.523  34.434  1.00  0.00     0.059 A 
ATOM     95  F   UNL A   1      42.040  28.323  32.232  1.00  0.00    -0.206 F 
ATOM     96  C   UNL A   1      42.234  27.752  35.793  1.00  0.00     0.060 A 
BRANCH  96  97
ATOM     97  S   UNL A   1      41.948  26.422  36.982  1.00  0.00     0.124 S 
ATOM     98  O   UNL A   1      40.632  26.760  37.511  1.00  0.00    -0.237 OA
ATOM     99  O   UNL A   1      42.008  25.228  36.143  1.00  0.00    -0.237 OA
ATOM    100  O   UNL A   1      43.055  26.565  37.924  1.00  0.00    -0.744 OA
ENDBRANCH  96  97
ENDBRANCH  64  89
ENDBRANCH  38  39
ENDBRANCH  30  33
ENDBRANCH  28  29
ENDBRANCH  27  28
ENDBRANCH   1  27
TORSDOF 18
ENDMDL
MODEL 3
REMARK VINA RESULT:     -12.4      2.413      4.437
REMARK SMILES CCn1cc(S(=O)(=O)Nc2c(C)cc(C)cc2C(=O)NCCCCNC(=O)c2ccc(-c3c4nc(c(-c5c(F)cc(S(=O)(=O)[O-])cc5F)c5ccc([nH]5)c(-c5c(F)cc(S(=O)(=O)[O-])cc5F)c5nc(c(-c6c(F)cc(S(=O)(=O)[O-])cc6F)c6ccc3[nH]6)C=C5)C=C4)cc2)cn1
REMARK SMILES IDX 22 1 21 2 20 3 18 4 19 5 17 7 10 8 11 9 12 10 13 11 16 12
REMARK SMILES IDX 14 13 15 14 9 15 6 17 7 18 8 19 5 20 3 21 4 22 95 23 94 24
REMARK SMILES IDX 2 25 1 26 23 27 24 28 25 29 26 30 27 32 28 33 29 34 93 35
REMARK SMILES IDX 30 36 92 37 31 38 32 39 33 40 86 41 34 42 91 43 85 44 87 45
REMARK SMILES IDX 35 46 90 47 84 48 83 49 36 51 70 52 49 53 69 54 50 55 53 56
REMARK SMILES IDX 68 57 88 58 51 59 52 60 67 62 89 63 54 64 37 65 38 66 47 67
REMARK SMILES IDX 39 68 40 69 46 70 48 71 41 72 42 73 43 74 44 75 45 76 71 77
REMARK SMILES IDX 72 78 81 79 73 80 74 81 80 82 82 83 75 84 76 85 77 86 78 87
REMARK SMILES IDX 79 88 55 89 56 90 65 91 57 92 58 93 64 94 66 95 59 96 60 97
REMARK SMILES IDX 61 98 62 99 63 100
REMARK H PARENT 20 6 9 16 25 31 87 50 53 61
REMARK Flexibility Score: inf
ROOT
ATOM      1  C   UNL A   1      38.963  22.847  26.022  1.00  0.00     0.023 C 
ENDROOT
BRANCH   1   2
ATOM      2  C   UNL A   1      37.513  23.342  26.045  1.00  0.00     0.116 C 
BRANCH   2   3
ATOM      3  N   UNL A   1      37.036  23.501  24.686  1.00  0.00    -0.352 N 
ATOM      4  C   UNL A   1      35.813  23.616  24.084  1.00  0.00     0.253 C 
ATOM      5  O   UNL A   1      35.839  23.431  22.859  1.00  0.00    -0.269 OA
ATOM      6  H   UNL A   1      37.774  23.534  24.035  1.00  0.00     0.163 HD
BRANCH   4   7
ATOM      7  C   UNL A   1      34.498  24.037  24.688  1.00  0.00     0.064 A 
ATOM      8  C   UNL A   1      33.357  23.293  25.050  1.00  0.00     0.065 A 
ATOM      9  C   UNL A   1      32.290  23.927  25.758  1.00  0.00    -0.026 A 
ATOM     10  C   UNL A   1      31.068  23.202  26.272  1.00  0.00     0.046 C 
ATOM     11  C   UNL A   1      32.297  25.321  25.947  1.00  0.00     0.009 A 
ATOM     12  C   UNL A   1      34.455  25.440  24.925  1.00  0.00     0.019 A 
ATOM     13  C   UNL A   1      33.365  26.092  25.511  1.00  0.00    -0.050 A 
ATOM     14  C   UNL A   1      33.329  27.587  25.635  1.00  0.00     0.044 C 
BRANCH   8  15
ATOM     15  N   UNL A   1      33.161  21.928  24.672  1.00  0.00    -0.278 N 
ATOM     16  H   UNL A   1      32.544  21.714  23.935  1.00  0.00     0.180 HD
BRANCH  15  17
ATOM     17  S   UNL A   1      33.969  20.673  25.470  1.00  0.00     0.265 S 
ATOM     18  O   UNL A   1      33.669  20.867  26.866  1.00  0.00    -0.201 OA
ATOM     19  O   UNL A   1      35.337  20.580  24.996  1.00  0.00    -0.201 OA
BRANCH  17  20
ATOM     20  C   UNL A   1      33.383  19.109  25.135  1.00  0.00     0.125 A 
ATOM     21  N   UNL A   1      32.527  17.109  25.218  1.00  0.00    -0.272 N 
ATOM     22  C   UNL A   1      32.741  18.226  25.971  1.00  0.00     0.131 A 
ATOM     23  N   UNL A   1      32.825  17.280  23.914  1.00  0.00    -0.180 NA
ATOM     24  C   UNL A   1      33.353  18.508  23.869  1.00  0.00     0.157 A 
BRANCH  21  25
ATOM     25  C   UNL A   1      32.098  15.821  25.728  1.00  0.00     0.141 C 
ATOM     26  C   UNL A   1      33.044  14.680  25.385  1.00  0.00     0.029 C 
ENDBRANCH  21  25
ENDBRANCH  17  20
ENDBRANCH  15  17
ENDBRANCH   8  15
ENDBRANCH   4   7
ENDBRANCH   2   3
ENDBRANCH   1   2
BRANCH   1  27
ATOM     27  C   UNL A   1      39.173  21.348  25.785  1.00  0.00     0.023 C 
BRANCH  27  28
ATOM     28  C   UNL A   1      40.002  20.660  26.859  1.00  0.00     0.116 C 
BRANCH  28  29
ATOM     29  N   UNL A   1      41.068  19.827  26.303  1.00  0.00    -0.352 N 
ATOM     30  C   UNL A   1      42.325  20.226  25.905  1.00  0.00     0.251 C 
ATOM     31  H   UNL A   1      40.862  18.869  26.202  1.00  0.00     0.163 HD
ATOM     32  O   UNL A   1      43.039  19.513  25.213  1.00  0.00    -0.269 OA
BRANCH  30  33
ATOM     33  C   UNL A   1      42.773  21.561  26.328  1.00  0.00     0.039 A 
ATOM     34  C   UNL A   1      42.739  22.619  25.422  1.00  0.00     0.014 A 
ATOM     35  C   UNL A   1      43.042  21.769  27.682  1.00  0.00     0.014 A 
ATOM     36  C   UNL A   1      42.862  23.917  25.909  1.00  0.00     0.010 A 
ATOM     37  C   UNL A   1      43.082  23.064  28.170  1.00  0.00     0.010 A 
ATOM     38  C   UNL A   1      42.982  24.149  27.293  1.00  0.00    -0.014 A 
BRANCH  38  39
ATOM     39  C   UNL A   1      42.829  25.525  27.792  1.00  0.00     0.031 A 
ATOM     40  C   UNL A   1      43.915  26.480  27.410  1.00  0.00     0.074 A 
ATOM     41  C   UNL A   1      41.719  26.035  28.366  1.00  0.00     0.049 A 
ATOM     42  N   UNL A   1      44.749  27.098  28.183  1.00  0.00    -0.248 NA
ATOM     43  C   UNL A   1      44.141  26.733  25.976  1.00  0.00     0.031 C 
ATOM     44  C   UNL A   1      40.407  25.397  28.500  1.00  0.00     0.029 A 
ATOM     45  N   UNL A   1      41.502  27.293  28.864  1.00  0.00    -0.354 N 
ATOM     46  C   UNL A   1      45.458  27.979  27.366  1.00  0.00     0.074 A 
ATOM     47  C   UNL A   1      45.150  27.607  26.008  1.00  0.00     0.031 C 
ATOM     48  C   UNL A   1      39.483  26.329  28.820  1.00  0.00     0.029 A 
ATOM     49  C   UNL A   1      40.166  27.577  29.107  1.00  0.00     0.049 A 
ATOM     50  H   UNL A   1      42.226  27.937  29.033  1.00  0.00     0.167 HD
ATOM     51  C   UNL A   1      46.051  29.098  27.869  1.00  0.00     0.037 A 
ATOM     52  C   UNL A   1      39.622  28.739  29.538  1.00  0.00     0.037 A 
ATOM     53  C   UNL A   1      46.094  29.075  29.307  1.00  0.00     0.049 A 
ATOM     54  C   UNL A   1      40.655  29.511  30.265  1.00  0.00     0.074 A 
ATOM     55  C   UNL A   1      46.886  28.540  30.296  1.00  0.00     0.029 A 
ATOM     56  N   UNL A   1      44.946  29.520  29.900  1.00  0.00    -0.354 N 
ATOM     57  N   UNL A   1      41.218  29.107  31.370  1.00  0.00    -0.248 NA
ATOM     58  C   UNL A   1      41.284  30.666  29.631  1.00  0.00     0.031 C 
ATOM     59  C   UNL A   1      46.099  28.538  31.488  1.00  0.00     0.029 A 
ATOM     60  C   UNL A   1      44.851  29.079  31.194  1.00  0.00     0.049 A 
ATOM     61  H   UNL A   1      44.273  30.085  29.455  1.00  0.00     0.167 HD
ATOM     62  C   UNL A   1      42.472  29.676  31.344  1.00  0.00     0.074 A 
ATOM     63  C   UNL A   1      42.394  30.752  30.367  1.00  0.00     0.031 C 
ATOM     64  C   UNL A   1      43.556  29.015  31.835  1.00  0.00     0.037 A 
BRANCH  51  65
ATOM     65  C   UNL A   1      46.203  30.420  27.139  1.00  0.00     0.058 A 
ATOM     66  C   UNL A   1      47.468  31.048  27.101  1.00  0.00     0.135 A 
ATOM     67  C   UNL A   1      45.111  31.235  26.768  1.00  0.00     0.135 A 
ATOM     68  F   UNL A   1      48.579  30.370  27.434  1.00  0.00    -0.206 F 
ATOM     69  C   UNL A   1      47.627  32.402  26.793  1.00  0.00     0.059 A 
ATOM     70  C   UNL A   1      45.254  32.573  26.408  1.00  0.00     0.059 A 
ATOM     71  F   UNL A   1      43.847  30.801  26.839  1.00  0.00    -0.206 F 
ATOM     72  C   UNL A   1      46.508  33.161  26.467  1.00  0.00     0.060 A 
BRANCH  72  73
ATOM     73  S   UNL A   1      46.687  34.933  26.183  1.00  0.00     0.124 S 
ATOM     74  O   UNL A   1      47.533  35.323  27.306  1.00  0.00    -0.237 OA
ATOM     75  O   UNL A   1      47.313  34.973  24.866  1.00  0.00    -0.237 OA
ATOM     76  O   UNL A   1      45.311  35.418  26.230  1.00  0.00    -0.744 OA
ENDBRANCH  72  73
ENDBRANCH  51  65
BRANCH  52  77
ATOM     77  C   UNL A   1      38.283  29.285  29.230  1.00  0.00     0.058 A 
ATOM     78  C   UNL A   1      37.363  29.587  30.246  1.00  0.00     0.135 A 
ATOM     79  C   UNL A   1      37.982  29.766  27.940  1.00  0.00     0.135 A 
ATOM     80  F   UNL A   1      37.586  29.178  31.503  1.00  0.00    -0.206 F 
ATOM     81  C   UNL A   1      36.228  30.365  30.007  1.00  0.00     0.059 A 
ATOM     82  C   UNL A   1      36.854  30.537  27.676  1.00  0.00     0.059 A 
ATOM     83  F   UNL A   1      38.830  29.571  26.918  1.00  0.00    -0.206 F 
ATOM     84  C   UNL A   1      35.994  30.855  28.722  1.00  0.00     0.060 A 
BRANCH  84  85
ATOM     85  S   UNL A   1      34.630  32.010  28.456  1.00  0.00     0.124 S 
ATOM     86  O   UNL A   1      35.267  33.048  27.653  1.00  0.00    -0.237 OA
ATOM     87  O   UNL A   1      33.653  31.177  27.765  1.00  0.00    -0.237 OA
ATOM     88  O   UNL A   1      34.257  32.410  29.811  1.00  0.00    -0.744 OA
ENDBRANCH  84  85
ENDBRANCH  52  77
BRANCH  64  89
ATOM     89  C   UNL A   1      43.345  28.041  32.951  1.00  0.00     0.058 A 
ATOM     90  C   UNL A   1      43.469  26.646  32.833  1.00  0.00     0.135 A 
ATOM     91  C   UNL A   1      43.056  28.557  34.223  1.00  0.00     0.135 A 
ATOM     92  F   UNL A   1      43.817  26.082  31.668  1.00  0.00    -0.206 F 
ATOM     93  C   UNL A   1      43.276  25.802  33.929  1.00  0.00     0.059 A 
ATOM     94  C   UNL A   1      42.887  27.737  35.334  1.00  0.00     0.059 A 
ATOM     95  F   UNL A   1      42.967  29.886  34.405  1.00  0.00    -0.206 F 
ATOM     96  C   UNL A   1      42.985  26.357  35.176  1.00  0.00     0.060 A 
BRANCH  96  97
ATOM     97  S   UNL A   1      42.801  25.270  36.606  1.00  0.00     0.124 S 
ATOM     98  O   UNL A   1      44.144  24.719  36.749  1.00  0.00    -0.237 OA
ATOM     99  O   UNL A   1      42.380  26.194  37.656  1.00  0.00    -0.237 OA
ATOM    100  O   UNL A   1      41.778  24.318  36.180  1.00  0.00    -0.744 OA
ENDBRANCH  96  97
ENDBRANCH  64  89
ENDBRANCH  38  39
ENDBRANCH  30  33
ENDBRANCH  28  29
ENDBRANCH  27  28
ENDBRANCH   1  27
TORSDOF 18
ENDMDL
