MODEL 1
REMARK VINA RESULT:     -10.7      0.000      0.000
REMARK SMILES N#Cc1nccnc1N(CC(=O)NCCCCNC(=O)c1ccc(-c2c3nc(c(-c4c(F)cc(S(=O)(=O)[O-])cc4F)c4ccc([nH]4)c(-c4c(F)cc(S(=O)(=O)[O-])cc4F)c4nc(c(-c5c(F)cc(S(=O)(=O)[O-])cc5F)c5ccc2[nH]5)C=C4)C=C3)cc1)CC(F)(F)F
REMARK SMILES IDX 15 1 14 2 13 3 11 4 12 5 10 7 9 8 8 9 3 10 4 11 5 12 7 13
REMARK SMILES IDX 6 14 2 15 1 16 87 17 88 18 89 19 90 20 91 21 16 22 17 23
REMARK SMILES IDX 18 24 19 25 20 27 21 28 22 29 86 30 23 31 85 32 24 33 25 34
REMARK SMILES IDX 26 35 79 36 27 37 84 38 78 39 80 40 28 41 83 42 77 43 76 44
REMARK SMILES IDX 29 46 63 47 42 48 62 49 43 50 46 51 61 52 81 53 44 54 45 55
REMARK SMILES IDX 60 57 82 58 47 59 30 60 31 61 40 62 32 63 33 64 39 65 41 66
REMARK SMILES IDX 34 67 35 68 36 69 37 70 38 71 64 72 65 73 74 74 66 75 67 76
REMARK SMILES IDX 73 77 75 78 68 79 69 80 70 81 71 82 72 83 48 84 49 85 58 86
REMARK SMILES IDX 50 87 51 88 57 89 59 90 52 91 53 92 54 93 55 94 56 95
REMARK H PARENT 13 6 18 26 80 45 46 56
REMARK Flexibility Score: inf
ROOT
ATOM      1  C   UNL A   1      39.468  22.053  26.192  1.00  0.00     0.023 C 
ENDROOT
BRANCH   1   2
ATOM      2  C   UNL A   1      38.204  22.903  26.101  1.00  0.00     0.116 C 
BRANCH   2   3
ATOM      3  N   UNL A   1      37.775  23.098  24.730  1.00  0.00    -0.355 N 
ATOM      4  C   UNL A   1      36.503  23.101  24.235  1.00  0.00     0.239 C 
ATOM      5  O   UNL A   1      36.333  23.238  23.020  1.00  0.00    -0.273 OA
ATOM      6  H   UNL A   1      38.492  23.248  24.073  1.00  0.00     0.163 HD
BRANCH   4   7
ATOM      7  C   UNL A   1      35.309  22.936  25.180  1.00  0.00     0.218 C 
BRANCH   7   8
ATOM      8  N   UNL A   1      34.007  23.275  24.541  1.00  0.00    -0.336 N 
BRANCH   8   9
ATOM      9  C   UNL A   1      33.508  24.555  24.726  1.00  0.00     0.166 A 
ATOM     10  C   UNL A   1      32.546  25.002  25.655  1.00  0.00     0.183 A 
ATOM     11  N   UNL A   1      32.150  26.312  25.781  1.00  0.00    -0.240 NA
ATOM     12  C   UNL A   1      32.728  27.197  24.953  1.00  0.00     0.133 A 
ATOM     13  N   UNL A   1      34.030  25.504  23.897  1.00  0.00    -0.235 NA
ATOM     14  C   UNL A   1      33.648  26.797  24.019  1.00  0.00     0.133 A 
BRANCH  10  15
ATOM     15  C   UNL A   1      31.812  24.144  26.537  1.00  0.00     0.123 C 
ATOM     16  N   UNL A   1      31.240  23.457  27.278  1.00  0.00    -0.191 NA
ENDBRANCH  10  15
ENDBRANCH   8   9
BRANCH   8  17
ATOM     17  C   UNL A   1      33.452  22.220  23.639  1.00  0.00     0.234 C 
BRANCH  17  18
ATOM     18  C   UNL A   1      33.078  20.869  24.281  1.00  0.00     0.405 C 
ATOM     19  F   UNL A   1      32.240  20.153  23.499  1.00  0.00    -0.169 F 
ATOM     20  F   UNL A   1      34.186  20.121  24.483  1.00  0.00    -0.169 F 
ATOM     21  F   UNL A   1      32.477  21.032  25.479  1.00  0.00    -0.169 F 
ENDBRANCH  17  18
ENDBRANCH   8  17
ENDBRANCH   7   8
ENDBRANCH   4   7
ENDBRANCH   2   3
ENDBRANCH   1   2
BRANCH   1  22
ATOM     22  C   UNL A   1      40.319  22.332  27.430  1.00  0.00     0.023 C 
BRANCH  22  23
ATOM     23  C   UNL A   1      41.636  23.028  27.124  1.00  0.00     0.116 C 
BRANCH  23  24
ATOM     24  N   UNL A   1      41.526  24.023  26.062  1.00  0.00    -0.352 N 
ATOM     25  C   UNL A   1      41.305  25.377  26.179  1.00  0.00     0.251 C 
ATOM     26  H   UNL A   1      41.625  23.682  25.143  1.00  0.00     0.163 HD
ATOM     27  O   UNL A   1      41.100  26.063  25.183  1.00  0.00    -0.269 OA
BRANCH  25  28
ATOM     28  C   UNL A   1      41.275  25.974  27.530  1.00  0.00     0.039 A 
ATOM     29  C   UNL A   1      40.118  25.875  28.301  1.00  0.00     0.014 A 
ATOM     30  C   UNL A   1      42.360  26.728  27.977  1.00  0.00     0.014 A 
ATOM     31  C   UNL A   1      39.957  26.712  29.394  1.00  0.00     0.010 A 
ATOM     32  C   UNL A   1      42.240  27.471  29.156  1.00  0.00     0.010 A 
ATOM     33  C   UNL A   1      41.012  27.528  29.835  1.00  0.00    -0.014 A 
BRANCH  33  34
ATOM     34  C   UNL A   1      40.775  28.452  30.978  1.00  0.00     0.031 A 
ATOM     35  C   UNL A   1      41.664  28.417  32.197  1.00  0.00     0.074 A 
ATOM     36  C   UNL A   1      39.810  29.387  30.875  1.00  0.00     0.049 A 
ATOM     37  N   UNL A   1      41.631  29.182  33.260  1.00  0.00    -0.248 NA
ATOM     38  C   UNL A   1      42.721  27.394  32.238  1.00  0.00     0.031 C 
ATOM     39  C   UNL A   1      38.894  29.531  29.739  1.00  0.00     0.029 A 
ATOM     40  N   UNL A   1      39.457  30.417  31.711  1.00  0.00    -0.354 N 
ATOM     41  C   UNL A   1      42.644  28.723  34.095  1.00  0.00     0.074 A 
ATOM     42  C   UNL A   1      43.244  27.582  33.441  1.00  0.00     0.031 C 
ATOM     43  C   UNL A   1      38.138  30.623  29.915  1.00  0.00     0.029 A 
ATOM     44  C   UNL A   1      38.451  31.211  31.212  1.00  0.00     0.049 A 
ATOM     45  H   UNL A   1      39.883  30.572  32.585  1.00  0.00     0.167 HD
ATOM     46  C   UNL A   1      43.053  29.222  35.288  1.00  0.00     0.037 A 
ATOM     47  C   UNL A   1      37.833  32.284  31.741  1.00  0.00     0.037 A 
ATOM     48  C   UNL A   1      42.470  30.376  35.919  1.00  0.00     0.049 A 
ATOM     49  C   UNL A   1      38.261  32.776  33.095  1.00  0.00     0.074 A 
ATOM     50  C   UNL A   1      42.832  30.975  37.113  1.00  0.00     0.029 A 
ATOM     51  N   UNL A   1      41.405  31.108  35.413  1.00  0.00    -0.354 N 
ATOM     52  N   UNL A   1      39.243  32.347  33.852  1.00  0.00    -0.248 NA
ATOM     53  C   UNL A   1      37.496  33.888  33.672  1.00  0.00     0.031 C 
ATOM     54  C   UNL A   1      41.948  32.028  37.359  1.00  0.00     0.029 A 
ATOM     55  C   UNL A   1      41.072  32.126  36.291  1.00  0.00     0.049 A 
ATOM     56  H   UNL A   1      40.952  30.929  34.557  1.00  0.00     0.167 HD
ATOM     57  C   UNL A   1      39.214  33.139  34.995  1.00  0.00     0.074 A 
ATOM     58  C   UNL A   1      38.141  34.094  34.813  1.00  0.00     0.031 C 
ATOM     59  C   UNL A   1      39.998  33.070  36.098  1.00  0.00     0.037 A 
BRANCH  46  60
ATOM     60  C   UNL A   1      44.185  28.524  35.997  1.00  0.00     0.058 A 
ATOM     61  C   UNL A   1      45.519  28.935  35.843  1.00  0.00     0.135 A 
ATOM     62  C   UNL A   1      43.925  27.475  36.894  1.00  0.00     0.135 A 
ATOM     63  F   UNL A   1      45.828  29.924  34.990  1.00  0.00    -0.206 F 
ATOM     64  C   UNL A   1      46.555  28.317  36.536  1.00  0.00     0.059 A 
ATOM     65  C   UNL A   1      44.943  26.862  37.621  1.00  0.00     0.059 A 
ATOM     66  F   UNL A   1      42.669  27.041  37.082  1.00  0.00    -0.206 F 
ATOM     67  C   UNL A   1      46.257  27.284  37.426  1.00  0.00     0.060 A 
BRANCH  67  68
ATOM     68  S   UNL A   1      47.616  26.506  38.324  1.00  0.00     0.124 S 
ATOM     69  O   UNL A   1      47.797  25.272  37.568  1.00  0.00    -0.237 OA
ATOM     70  O   UNL A   1      48.681  27.495  38.188  1.00  0.00    -0.237 OA
ATOM     71  O   UNL A   1      47.085  26.341  39.673  1.00  0.00    -0.744 OA
ENDBRANCH  67  68
ENDBRANCH  46  60
BRANCH  47  72
ATOM     72  C   UNL A   1      36.736  32.951  30.988  1.00  0.00     0.058 A 
ATOM     73  C   UNL A   1      37.013  33.810  29.915  1.00  0.00     0.135 A 
ATOM     74  C   UNL A   1      35.387  32.719  31.308  1.00  0.00     0.135 A 
ATOM     75  F   UNL A   1      38.283  34.072  29.575  1.00  0.00    -0.206 F 
ATOM     76  C   UNL A   1      35.994  34.419  29.188  1.00  0.00     0.059 A 
ATOM     77  C   UNL A   1      34.352  33.289  30.574  1.00  0.00     0.059 A 
ATOM     78  F   UNL A   1      35.066  31.896  32.318  1.00  0.00    -0.206 F 
ATOM     79  C   UNL A   1      34.666  34.144  29.520  1.00  0.00     0.060 A 
BRANCH  79  80
ATOM     80  S   UNL A   1      33.357  34.899  28.533  1.00  0.00     0.124 S 
ATOM     81  O   UNL A   1      32.508  35.482  29.563  1.00  0.00    -0.237 OA
ATOM     82  O   UNL A   1      34.106  35.843  27.710  1.00  0.00    -0.237 OA
ATOM     83  O   UNL A   1      32.784  33.766  27.810  1.00  0.00    -0.744 OA
ENDBRANCH  79  80
ENDBRANCH  47  72
BRANCH  59  84
ATOM     84  C   UNL A   1      39.727  34.045  37.210  1.00  0.00     0.058 A 
ATOM     85  C   UNL A   1      38.961  33.679  38.328  1.00  0.00     0.135 A 
ATOM     86  C   UNL A   1      40.317  35.320  37.210  1.00  0.00     0.135 A 
ATOM     87  F   UNL A   1      38.366  32.475  38.375  1.00  0.00    -0.206 F 
ATOM     88  C   UNL A   1      38.784  34.542  39.403  1.00  0.00     0.059 A 
ATOM     89  C   UNL A   1      40.180  36.188  38.288  1.00  0.00     0.059 A 
ATOM     90  F   UNL A   1      41.067  35.717  36.170  1.00  0.00    -0.206 F 
ATOM     91  C   UNL A   1      39.409  35.791  39.380  1.00  0.00     0.060 A 
BRANCH  91  92
ATOM     92  S   UNL A   1      39.221  36.869  40.814  1.00  0.00     0.124 S 
ATOM     93  O   UNL A   1      38.491  36.007  41.739  1.00  0.00    -0.237 OA
ATOM     94  O   UNL A   1      40.607  37.152  41.171  1.00  0.00    -0.237 OA
ATOM     95  O   UNL A   1      38.469  38.006  40.291  1.00  0.00    -0.744 OA
ENDBRANCH  91  92
ENDBRANCH  59  84
ENDBRANCH  33  34
ENDBRANCH  25  28
ENDBRANCH  23  24
ENDBRANCH  22  23
ENDBRANCH   1  22
TORSDOF 19
ENDMDL
MODEL 2
REMARK VINA RESULT:     -10.7      5.043      9.918
REMARK SMILES N#Cc1nccnc1N(CC(=O)NCCCCNC(=O)c1ccc(-c2c3nc(c(-c4c(F)cc(S(=O)(=O)[O-])cc4F)c4ccc([nH]4)c(-c4c(F)cc(S(=O)(=O)[O-])cc4F)c4nc(c(-c5c(F)cc(S(=O)(=O)[O-])cc5F)c5ccc2[nH]5)C=C4)C=C3)cc1)CC(F)(F)F
REMARK SMILES IDX 15 1 14 2 13 3 11 4 12 5 10 7 9 8 8 9 3 10 4 11 5 12 7 13
REMARK SMILES IDX 6 14 2 15 1 16 87 17 88 18 89 19 90 20 91 21 16 22 17 23
REMARK SMILES IDX 18 24 19 25 20 27 21 28 22 29 86 30 23 31 85 32 24 33 25 34
REMARK SMILES IDX 26 35 79 36 27 37 84 38 78 39 80 40 28 41 83 42 77 43 76 44
REMARK SMILES IDX 29 46 63 47 42 48 62 49 43 50 46 51 61 52 81 53 44 54 45 55
REMARK SMILES IDX 60 57 82 58 47 59 30 60 31 61 40 62 32 63 33 64 39 65 41 66
REMARK SMILES IDX 34 67 35 68 36 69 37 70 38 71 64 72 65 73 74 74 66 75 67 76
REMARK SMILES IDX 73 77 75 78 68 79 69 80 70 81 71 82 72 83 48 84 49 85 58 86
REMARK SMILES IDX 50 87 51 88 57 89 59 90 52 91 53 92 54 93 55 94 56 95
REMARK H PARENT 13 6 18 26 80 45 46 56
REMARK Flexibility Score: inf
ROOT
ATOM      1  C   UNL A   1      32.308  29.147  25.055  1.00  0.00     0.023 C 
ENDROOT
BRANCH   1   2
ATOM      2  C   UNL A   1      31.702  28.275  23.959  1.00  0.00     0.116 C 
BRANCH   2   3
ATOM      3  N   UNL A   1      32.673  27.366  23.383  1.00  0.00    -0.355 N 
ATOM      4  C   UNL A   1      32.752  26.011  23.528  1.00  0.00     0.239 C 
ATOM      5  O   UNL A   1      33.686  25.405  22.995  1.00  0.00    -0.273 OA
ATOM      6  H   UNL A   1      33.363  27.779  22.815  1.00  0.00     0.163 HD
BRANCH   4   7
ATOM      7  C   UNL A   1      31.693  25.261  24.342  1.00  0.00     0.218 C 
BRANCH   7   8
ATOM      8  N   UNL A   1      31.987  23.809  24.484  1.00  0.00    -0.336 N 
BRANCH   8   9
ATOM      9  C   UNL A   1      32.619  23.386  25.643  1.00  0.00     0.166 A 
ATOM     10  C   UNL A   1      32.045  22.986  26.867  1.00  0.00     0.183 A 
ATOM     11  N   UNL A   1      32.769  22.544  27.948  1.00  0.00    -0.240 NA
ATOM     12  C   UNL A   1      34.103  22.503  27.801  1.00  0.00     0.133 A 
ATOM     13  N   UNL A   1      33.981  23.349  25.578  1.00  0.00    -0.235 NA
ATOM     14  C   UNL A   1      34.700  22.909  26.636  1.00  0.00     0.133 A 
BRANCH  10  15
ATOM     15  C   UNL A   1      30.644  23.054  27.165  1.00  0.00     0.123 C 
ATOM     16  N   UNL A   1      29.506  23.075  27.391  1.00  0.00    -0.191 NA
ENDBRANCH  10  15
ENDBRANCH   8   9
BRANCH   8  17
ATOM     17  C   UNL A   1      31.427  22.942  23.403  1.00  0.00     0.234 C 
BRANCH  17  18
ATOM     18  C   UNL A   1      32.427  22.103  22.583  1.00  0.00     0.405 C 
ATOM     19  F   UNL A   1      33.370  21.532  23.366  1.00  0.00    -0.169 F 
ATOM     20  F   UNL A   1      31.784  21.108  21.930  1.00  0.00    -0.169 F 
ATOM     21  F   UNL A   1      33.066  22.847  21.655  1.00  0.00    -0.169 F 
ENDBRANCH  17  18
ENDBRANCH   8  17
ENDBRANCH   7   8
ENDBRANCH   4   7
ENDBRANCH   2   3
ENDBRANCH   1   2
BRANCH   1  22
ATOM     22  C   UNL A   1      32.337  28.488  26.432  1.00  0.00     0.023 C 
BRANCH  22  23
ATOM     23  C   UNL A   1      33.597  28.787  27.229  1.00  0.00     0.116 C 
BRANCH  23  24
ATOM     24  N   UNL A   1      33.631  30.147  27.758  1.00  0.00    -0.352 N 
ATOM     25  C   UNL A   1      34.668  30.790  28.397  1.00  0.00     0.251 C 
ATOM     26  H   UNL A   1      32.808  30.674  27.640  1.00  0.00     0.163 HD
ATOM     27  O   UNL A   1      34.499  31.892  28.907  1.00  0.00    -0.269 OA
BRANCH  25  28
ATOM     28  C   UNL A   1      35.973  30.103  28.492  1.00  0.00     0.039 A 
ATOM     29  C   UNL A   1      36.362  29.529  29.701  1.00  0.00     0.014 A 
ATOM     30  C   UNL A   1      36.852  30.135  27.409  1.00  0.00     0.014 A 
ATOM     31  C   UNL A   1      37.694  29.203  29.899  1.00  0.00     0.010 A 
ATOM     32  C   UNL A   1      38.164  29.681  27.576  1.00  0.00     0.010 A 
ATOM     33  C   UNL A   1      38.618  29.279  28.844  1.00  0.00    -0.014 A 
BRANCH  33  34
ATOM     34  C   UNL A   1      40.049  28.974  29.118  1.00  0.00     0.031 A 
ATOM     35  C   UNL A   1      40.644  27.643  28.730  1.00  0.00     0.074 A 
ATOM     36  C   UNL A   1      40.836  29.937  29.637  1.00  0.00     0.049 A 
ATOM     37  N   UNL A   1      41.881  27.229  28.849  1.00  0.00    -0.248 NA
ATOM     38  C   UNL A   1      39.740  26.642  28.138  1.00  0.00     0.031 C 
ATOM     39  C   UNL A   1      40.381  31.271  30.040  1.00  0.00     0.029 A 
ATOM     40  N   UNL A   1      42.187  29.965  29.882  1.00  0.00    -0.354 N 
ATOM     41  C   UNL A   1      41.898  25.924  28.366  1.00  0.00     0.074 A 
ATOM     42  C   UNL A   1      40.540  25.595  27.996  1.00  0.00     0.031 C 
ATOM     43  C   UNL A   1      41.437  32.007  30.411  1.00  0.00     0.029 A 
ATOM     44  C   UNL A   1      42.635  31.176  30.356  1.00  0.00     0.049 A 
ATOM     45  H   UNL A   1      42.778  29.193  29.732  1.00  0.00     0.167 HD
ATOM     46  C   UNL A   1      42.953  25.086  28.221  1.00  0.00     0.037 A 
ATOM     47  C   UNL A   1      43.867  31.575  30.724  1.00  0.00     0.037 A 
ATOM     48  C   UNL A   1      44.308  25.432  28.564  1.00  0.00     0.049 A 
ATOM     49  C   UNL A   1      45.009  30.604  30.615  1.00  0.00     0.074 A 
ATOM     50  C   UNL A   1      45.450  24.662  28.429  1.00  0.00     0.029 A 
ATOM     51  N   UNL A   1      44.706  26.645  29.109  1.00  0.00    -0.354 N 
ATOM     52  N   UNL A   1      45.008  29.387  30.126  1.00  0.00    -0.248 NA
ATOM     53  C   UNL A   1      46.314  31.051  31.117  1.00  0.00     0.031 C 
ATOM     54  C   UNL A   1      46.527  25.383  28.948  1.00  0.00     0.029 A 
ATOM     55  C   UNL A   1      46.070  26.627  29.353  1.00  0.00     0.049 A 
ATOM     56  H   UNL A   1      44.109  27.404  29.296  1.00  0.00     0.167 HD
ATOM     57  C   UNL A   1      46.313  28.924  30.258  1.00  0.00     0.074 A 
ATOM     58  C   UNL A   1      47.081  30.005  30.842  1.00  0.00     0.031 C 
ATOM     59  C   UNL A   1      46.822  27.710  29.937  1.00  0.00     0.037 A 
BRANCH  46  60
ATOM     60  C   UNL A   1      42.694  23.708  27.670  1.00  0.00     0.058 A 
ATOM     61  C   UNL A   1      42.704  23.450  26.290  1.00  0.00     0.135 A 
ATOM     62  C   UNL A   1      42.499  22.619  28.536  1.00  0.00     0.135 A 
ATOM     63  F   UNL A   1      42.874  24.453  25.415  1.00  0.00    -0.206 F 
ATOM     64  C   UNL A   1      42.509  22.166  25.789  1.00  0.00     0.059 A 
ATOM     65  C   UNL A   1      42.332  21.322  28.058  1.00  0.00     0.059 A 
ATOM     66  F   UNL A   1      42.480  22.807  29.865  1.00  0.00    -0.206 F 
ATOM     67  C   UNL A   1      42.328  21.108  26.681  1.00  0.00     0.060 A 
BRANCH  67  68
ATOM     68  S   UNL A   1      42.091  19.450  26.008  1.00  0.00     0.124 S 
ATOM     69  O   UNL A   1      42.903  19.507  24.796  1.00  0.00    -0.237 OA
ATOM     70  O   UNL A   1      42.611  18.605  27.079  1.00  0.00    -0.237 OA
ATOM     71  O   UNL A   1      40.651  19.370  25.791  1.00  0.00    -0.744 OA
ENDBRANCH  67  68
ENDBRANCH  46  60
BRANCH  47  72
ATOM     72  C   UNL A   1      44.074  32.956  31.240  1.00  0.00     0.058 A 
ATOM     73  C   UNL A   1      44.019  33.231  32.614  1.00  0.00     0.135 A 
ATOM     74  C   UNL A   1      44.361  34.023  30.372  1.00  0.00     0.135 A 
ATOM     75  F   UNL A   1      43.740  32.250  33.485  1.00  0.00    -0.206 F 
ATOM     76  C   UNL A   1      44.236  34.513  33.109  1.00  0.00     0.059 A 
ATOM     77  C   UNL A   1      44.615  35.305  30.845  1.00  0.00     0.059 A 
ATOM     78  F   UNL A   1      44.438  33.812  29.049  1.00  0.00    -0.206 F 
ATOM     79  C   UNL A   1      44.543  35.542  32.217  1.00  0.00     0.060 A 
BRANCH  79  80
ATOM     80  S   UNL A   1      44.875  37.188  32.880  1.00  0.00     0.124 S 
ATOM     81  O   UNL A   1      45.895  37.677  31.960  1.00  0.00    -0.237 OA
ATOM     82  O   UNL A   1      43.565  37.823  32.779  1.00  0.00    -0.237 OA
ATOM     83  O   UNL A   1      45.330  36.918  34.241  1.00  0.00    -0.744 OA
ENDBRANCH  79  80
ENDBRANCH  47  72
BRANCH  59  84
ATOM     84  C   UNL A   1      48.280  27.468  30.216  1.00  0.00     0.058 A 
ATOM     85  C   UNL A   1      49.267  27.822  29.282  1.00  0.00     0.135 A 
ATOM     86  C   UNL A   1      48.703  26.974  31.461  1.00  0.00     0.135 A 
ATOM     87  F   UNL A   1      48.917  28.291  28.073  1.00  0.00    -0.206 F 
ATOM     88  C   UNL A   1      50.620  27.688  29.570  1.00  0.00     0.059 A 
ATOM     89  C   UNL A   1      50.052  26.861  31.782  1.00  0.00     0.059 A 
ATOM     90  F   UNL A   1      47.800  26.628  32.393  1.00  0.00    -0.206 F 
ATOM     91  C   UNL A   1      51.004  27.219  30.828  1.00  0.00     0.060 A 
BRANCH  91  92
ATOM     92  S   UNL A   1      52.765  27.117  31.204  1.00  0.00     0.124 S 
ATOM     93  O   UNL A   1      52.786  27.463  32.622  1.00  0.00    -0.237 OA
ATOM     94  O   UNL A   1      53.067  25.725  30.886  1.00  0.00    -0.237 OA
ATOM     95  O   UNL A   1      53.364  28.104  30.310  1.00  0.00    -0.744 OA
ENDBRANCH  91  92
ENDBRANCH  59  84
ENDBRANCH  33  34
ENDBRANCH  25  28
ENDBRANCH  23  24
ENDBRANCH  22  23
ENDBRANCH   1  22
TORSDOF 19
ENDMDL
MODEL 3
REMARK VINA RESULT:     -10.6      6.826     12.108
REMARK SMILES N#Cc1nccnc1N(CC(=O)NCCCCNC(=O)c1ccc(-c2c3nc(c(-c4c(F)cc(S(=O)(=O)[O-])cc4F)c4ccc([nH]4)c(-c4c(F)cc(S(=O)(=O)[O-])cc4F)c4nc(c(-c5c(F)cc(S(=O)(=O)[O-])cc5F)c5ccc2[nH]5)C=C4)C=C3)cc1)CC(F)(F)F
REMARK SMILES IDX 15 1 14 2 13 3 11 4 12 5 10 7 9 8 8 9 3 10 4 11 5 12 7 13
REMARK SMILES IDX 6 14 2 15 1 16 87 17 88 18 89 19 90 20 91 21 16 22 17 23
REMARK SMILES IDX 18 24 19 25 20 27 21 28 22 29 86 30 23 31 85 32 24 33 25 34
REMARK SMILES IDX 26 35 79 36 27 37 84 38 78 39 80 40 28 41 83 42 77 43 76 44
REMARK SMILES IDX 29 46 63 47 42 48 62 49 43 50 46 51 61 52 81 53 44 54 45 55
REMARK SMILES IDX 60 57 82 58 47 59 30 60 31 61 40 62 32 63 33 64 39 65 41 66
REMARK SMILES IDX 34 67 35 68 36 69 37 70 38 71 64 72 65 73 74 74 66 75 67 76
REMARK SMILES IDX 73 77 75 78 68 79 69 80 70 81 71 82 72 83 48 84 49 85 58 86
REMARK SMILES IDX 50 87 51 88 57 89 59 90 52 91 53 92 54 93 55 94 56 95
REMARK H PARENT 13 6 18 26 80 45 46 56
REMARK Flexibility Score: inf
ROOT
ATOM      1  C   UNL A   1      33.394  29.089  26.304  1.00  0.00     0.023 C 
ENDROOT
BRANCH   1   2
ATOM      2  C   UNL A   1      32.859  29.659  24.993  1.00  0.00     0.116 C 
BRANCH   2   3
ATOM      3  N   UNL A   1      33.723  29.353  23.871  1.00  0.00    -0.355 N 
ATOM      4  C   UNL A   1      33.472  28.534  22.809  1.00  0.00     0.239 C 
ATOM      5  O   UNL A   1      34.355  28.358  21.965  1.00  0.00    -0.273 OA
ATOM      6  H   UNL A   1      34.604  29.793  23.875  1.00  0.00     0.163 HD
BRANCH   4   7
ATOM      7  C   UNL A   1      32.109  27.847  22.673  1.00  0.00     0.218 C 
BRANCH   7   8
ATOM      8  N   UNL A   1      31.906  26.754  23.663  1.00  0.00    -0.336 N 
BRANCH   8   9
ATOM      9  C   UNL A   1      32.858  25.749  23.723  1.00  0.00     0.166 A 
ATOM     10  C   UNL A   1      33.482  25.057  22.664  1.00  0.00     0.183 A 
ATOM     11  N   UNL A   1      34.450  24.098  22.836  1.00  0.00    -0.240 NA
ATOM     12  C   UNL A   1      34.802  23.820  24.102  1.00  0.00     0.133 A 
ATOM     13  N   UNL A   1      33.243  25.392  24.982  1.00  0.00    -0.235 NA
ATOM     14  C   UNL A   1      34.200  24.452  25.159  1.00  0.00     0.133 A 
BRANCH  10  15
ATOM     15  C   UNL A   1      33.139  25.216  21.281  1.00  0.00     0.123 C 
ATOM     16  N   UNL A   1      32.826  25.343  20.170  1.00  0.00    -0.191 NA
ENDBRANCH  10  15
ENDBRANCH   8   9
BRANCH   8  17
ATOM     17  C   UNL A   1      30.750  26.948  24.591  1.00  0.00     0.234 C 
BRANCH  17  18
ATOM     18  C   UNL A   1      29.566  25.970  24.457  1.00  0.00     0.405 C 
ATOM     19  F   UNL A   1      29.902  24.862  23.759  1.00  0.00    -0.169 F 
ATOM     20  F   UNL A   1      29.146  25.569  25.679  1.00  0.00    -0.169 F 
ATOM     21  F   UNL A   1      28.512  26.539  23.836  1.00  0.00    -0.169 F 
ENDBRANCH  17  18
ENDBRANCH   8  17
ENDBRANCH   7   8
ENDBRANCH   4   7
ENDBRANCH   2   3
ENDBRANCH   1   2
BRANCH   1  22
ATOM     22  C   UNL A   1      33.950  30.142  27.261  1.00  0.00     0.023 C 
BRANCH  22  23
ATOM     23  C   UNL A   1      34.987  29.601  28.232  1.00  0.00     0.116 C 
BRANCH  23  24
ATOM     24  N   UNL A   1      35.308  30.535  29.308  1.00  0.00    -0.352 N 
ATOM     25  C   UNL A   1      36.517  30.731  29.937  1.00  0.00     0.251 C 
ATOM     26  H   UNL A   1      34.564  31.098  29.623  1.00  0.00     0.163 HD
ATOM     27  O   UNL A   1      36.597  31.459  30.920  1.00  0.00    -0.269 OA
BRANCH  25  28
ATOM     28  C   UNL A   1      37.703  30.012  29.428  1.00  0.00     0.039 A 
ATOM     29  C   UNL A   1      38.536  29.340  30.321  1.00  0.00     0.014 A 
ATOM     30  C   UNL A   1      38.043  30.107  28.078  1.00  0.00     0.014 A 
ATOM     31  C   UNL A   1      39.809  28.972  29.914  1.00  0.00     0.010 A 
ATOM     32  C   UNL A   1      39.277  29.613  27.644  1.00  0.00     0.010 A 
ATOM     33  C   UNL A   1      40.203  29.108  28.573  1.00  0.00    -0.014 A 
BRANCH  33  34
ATOM     34  C   UNL A   1      41.599  28.753  28.194  1.00  0.00     0.031 A 
ATOM     35  C   UNL A   1      42.706  29.774  28.277  1.00  0.00     0.074 A 
ATOM     36  C   UNL A   1      41.882  27.478  27.861  1.00  0.00     0.049 A 
ATOM     37  N   UNL A   1      43.984  29.622  28.034  1.00  0.00    -0.248 NA
ATOM     38  C   UNL A   1      42.339  31.143  28.678  1.00  0.00     0.031 C 
ATOM     39  C   UNL A   1      40.898  26.395  27.759  1.00  0.00     0.029 A 
ATOM     40  N   UNL A   1      43.076  26.862  27.582  1.00  0.00    -0.354 N 
ATOM     41  C   UNL A   1      44.564  30.871  28.234  1.00  0.00     0.074 A 
ATOM     42  C   UNL A   1      43.495  31.782  28.572  1.00  0.00     0.031 C 
ATOM     43  C   UNL A   1      41.534  25.242  27.514  1.00  0.00     0.029 A 
ATOM     44  C   UNL A   1      42.959  25.510  27.355  1.00  0.00     0.049 A 
ATOM     45  H   UNL A   1      43.936  27.341  27.549  1.00  0.00     0.167 HD
ATOM     46  C   UNL A   1      45.872  31.220  28.167  1.00  0.00     0.037 A 
ATOM     47  C   UNL A   1      43.887  24.587  27.038  1.00  0.00     0.037 A 
ATOM     48  C   UNL A   1      46.935  30.299  27.858  1.00  0.00     0.049 A 
ATOM     49  C   UNL A   1      45.321  25.014  26.905  1.00  0.00     0.074 A 
ATOM     50  C   UNL A   1      48.295  30.550  27.793  1.00  0.00     0.029 A 
ATOM     51  N   UNL A   1      46.763  28.954  27.565  1.00  0.00    -0.354 N 
ATOM     52  N   UNL A   1      45.852  26.193  27.130  1.00  0.00    -0.248 NA
ATOM     53  C   UNL A   1      46.281  23.995  26.464  1.00  0.00     0.031 C 
ATOM     54  C   UNL A   1      48.937  29.375  27.399  1.00  0.00     0.029 A 
ATOM     55  C   UNL A   1      47.988  28.373  27.277  1.00  0.00     0.049 A 
ATOM     56  H   UNL A   1      45.899  28.482  27.560  1.00  0.00     0.167 HD
ATOM     57  C   UNL A   1      47.209  26.055  26.862  1.00  0.00     0.074 A 
ATOM     58  C   UNL A   1      47.422  24.671  26.491  1.00  0.00     0.031 C 
ATOM     59  C   UNL A   1      48.185  26.993  26.906  1.00  0.00     0.037 A 
BRANCH  46  60
ATOM     60  C   UNL A   1      46.236  32.658  28.428  1.00  0.00     0.058 A 
ATOM     61  C   UNL A   1      46.584  33.112  29.710  1.00  0.00     0.135 A 
ATOM     62  C   UNL A   1      46.305  33.580  27.369  1.00  0.00     0.135 A 
ATOM     63  F   UNL A   1      46.524  32.280  30.761  1.00  0.00    -0.206 F 
ATOM     64  C   UNL A   1      46.963  34.432  29.937  1.00  0.00     0.059 A 
ATOM     65  C   UNL A   1      46.712  34.897  27.567  1.00  0.00     0.059 A 
ATOM     66  F   UNL A   1      45.985  33.201  26.122  1.00  0.00    -0.206 F 
ATOM     67  C   UNL A   1      47.029  35.315  28.858  1.00  0.00     0.060 A 
BRANCH  67  68
ATOM     68  S   UNL A   1      47.537  37.018  29.174  1.00  0.00     0.124 S 
ATOM     69  O   UNL A   1      48.719  36.820  30.007  1.00  0.00    -0.237 OA
ATOM     70  O   UNL A   1      47.789  37.520  27.827  1.00  0.00    -0.237 OA
ATOM     71  O   UNL A   1      46.385  37.600  29.853  1.00  0.00    -0.744 OA
ENDBRANCH  67  68
ENDBRANCH  46  60
BRANCH  47  72
ATOM     72  C   UNL A   1      43.477  23.174  26.814  1.00  0.00     0.058 A 
ATOM     73  C   UNL A   1      43.451  22.624  25.524  1.00  0.00     0.135 A 
ATOM     74  C   UNL A   1      43.132  22.336  27.888  1.00  0.00     0.135 A 
ATOM     75  F   UNL A   1      43.762  23.384  24.464  1.00  0.00    -0.206 F 
ATOM     76  C   UNL A   1      43.094  21.297  25.306  1.00  0.00     0.059 A 
ATOM     77  C   UNL A   1      42.806  20.998  27.698  1.00  0.00     0.059 A 
ATOM     78  F   UNL A   1      43.152  22.808  29.144  1.00  0.00    -0.206 F 
ATOM     79  C   UNL A   1      42.782  20.489  26.401  1.00  0.00     0.060 A 
BRANCH  79  80
ATOM     80  S   UNL A   1      42.375  18.755  26.106  1.00  0.00     0.124 S 
ATOM     81  O   UNL A   1      42.668  18.158  27.402  1.00  0.00    -0.237 OA
ATOM     82  O   UNL A   1      40.964  18.835  25.742  1.00  0.00    -0.237 OA
ATOM     83  O   UNL A   1      43.274  18.377  25.019  1.00  0.00    -0.744 OA
ENDBRANCH  79  80
ENDBRANCH  47  72
BRANCH  59  84
ATOM     84  C   UNL A   1      49.580  26.570  26.536  1.00  0.00     0.058 A 
ATOM     85  C   UNL A   1      50.464  26.057  27.498  1.00  0.00     0.135 A 
ATOM     86  C   UNL A   1      50.003  26.580  25.197  1.00  0.00     0.135 A 
ATOM     87  F   UNL A   1      50.113  26.033  28.795  1.00  0.00    -0.206 F 
ATOM     88  C   UNL A   1      51.720  25.577  27.148  1.00  0.00     0.059 A 
ATOM     89  C   UNL A   1      51.244  26.075  24.819  1.00  0.00     0.059 A 
ATOM     90  F   UNL A   1      49.194  27.051  24.235  1.00  0.00    -0.206 F 
ATOM     91  C   UNL A   1      52.097  25.577  25.803  1.00  0.00     0.060 A 
BRANCH  91  92
ATOM     92  S   UNL A   1      53.705  24.887  25.364  1.00  0.00     0.124 S 
ATOM     93  O   UNL A   1      54.461  25.092  26.595  1.00  0.00    -0.237 OA
ATOM     94  O   UNL A   1      53.370  23.503  25.047  1.00  0.00    -0.237 OA
ATOM     95  O   UNL A   1      54.127  25.701  24.228  1.00  0.00    -0.744 OA
ENDBRANCH  91  92
ENDBRANCH  59  84
ENDBRANCH  33  34
ENDBRANCH  25  28
ENDBRANCH  23  24
ENDBRANCH  22  23
ENDBRANCH   1  22
TORSDOF 19
ENDMDL
