MODEL 1
REMARK VINA RESULT:     -11.5      0.000      0.000
REMARK SMILES CCc1n[nH]c(C(=O)NC[C@@H]2CC[C@@H](C(=O)NCCCCNC(=O)c3ccc(-c4c5nc(c(-c6c(F)cc(S(=O)(=O)[O-])cc6F)c6ccc([nH]6)c(-c6c(F)cc(S(=O)(=O)[O-])cc6F)c6nc(c(-c7c(F)cc(S(=O)(=O)[O-])cc7F)c7ccc4[nH]7)C=C6)C=C5)cc3)O2)n1
REMARK SMILES IDX 19 1 18 2 17 3 15 4 16 5 14 7 11 8 12 9 91 10 13 11 10 12
REMARK SMILES IDX 9 13 7 14 8 15 6 17 3 18 4 19 92 20 5 21 2 23 1 24 20 25
REMARK SMILES IDX 21 26 22 27 23 28 24 30 25 31 26 32 90 33 27 34 89 35 28 36
REMARK SMILES IDX 29 37 30 38 83 39 31 40 88 41 82 42 84 43 32 44 87 45 81 46
REMARK SMILES IDX 80 47 33 49 67 50 46 51 66 52 47 53 50 54 65 55 85 56 48 57
REMARK SMILES IDX 49 58 64 60 86 61 51 62 34 63 35 64 44 65 36 66 37 67 43 68
REMARK SMILES IDX 45 69 38 70 39 71 40 72 41 73 42 74 68 75 69 76 78 77 70 78
REMARK SMILES IDX 71 79 77 80 79 81 72 82 73 83 74 84 75 85 76 86 52 87 53 88
REMARK SMILES IDX 62 89 54 90 55 91 61 92 63 93 56 94 57 95 58 96 59 97 60 98
REMARK H PARENT 17 6 9 16 5 22 22 29 84 48 50 59
REMARK Flexibility Score: inf
ROOT
ATOM      1  C   UNL A   1      39.621  21.765  26.156  1.00  0.00     0.023 C 
ENDROOT
BRANCH   1   2
ATOM      2  C   UNL A   1      38.277  22.377  25.751  1.00  0.00     0.116 C 
BRANCH   2   3
ATOM      3  N   UNL A   1      37.324  21.341  25.432  1.00  0.00    -0.354 N 
ATOM      4  C   UNL A   1      36.003  21.425  25.104  1.00  0.00     0.249 C 
ATOM      5  O   UNL A   1      35.400  20.352  24.992  1.00  0.00    -0.272 OA
ATOM      6  H   UNL A   1      37.685  20.426  25.456  1.00  0.00     0.163 HD
BRANCH   4   7
ATOM      7  C   UNL A   1      35.321  22.777  24.781  1.00  0.00     0.207 C 
ATOM      8  C   UNL A   1      33.048  23.415  24.784  1.00  0.00     0.138 C 
ATOM      9  C   UNL A   1      33.838  24.503  25.472  1.00  0.00     0.037 C 
ATOM     10  O   UNL A   1      34.025  22.541  24.186  1.00  0.00    -0.363 OA
ATOM     11  C   UNL A   1      35.071  23.762  25.911  1.00  0.00     0.045 C 
BRANCH   8  12
ATOM     12  C   UNL A   1      32.142  23.953  23.680  1.00  0.00     0.148 C 
BRANCH  12  13
ATOM     13  N   UNL A   1      32.912  24.590  22.623  1.00  0.00    -0.347 N 
ATOM     14  C   UNL A   1      32.831  25.874  22.141  1.00  0.00     0.288 C 
ATOM     15  O   UNL A   1      33.635  26.216  21.275  1.00  0.00    -0.266 OA
ATOM     16  H   UNL A   1      33.588  24.019  22.193  1.00  0.00     0.164 HD
BRANCH  14  17
ATOM     17  C   UNL A   1      31.846  26.798  22.658  1.00  0.00     0.214 A 
ATOM     18  C   UNL A   1      30.234  28.119  23.017  1.00  0.00     0.151 A 
ATOM     19  N   UNL A   1      30.797  28.014  24.225  1.00  0.00    -0.158 NA
ATOM     20  N   UNL A   1      30.854  27.401  22.027  1.00  0.00    -0.207 NA
ATOM     21  N   UNL A   1      31.828  27.192  23.966  1.00  0.00    -0.255 N 
ATOM     22  H   UNL A   1      32.490  26.908  24.637  1.00  0.00     0.192 HD
BRANCH  18  23
ATOM     23  C   UNL A   1      29.013  28.926  22.761  1.00  0.00     0.076 C 
ATOM     24  C   UNL A   1      29.285  30.099  21.833  1.00  0.00     0.012 C 
ENDBRANCH  18  23
ENDBRANCH  14  17
ENDBRANCH  12  13
ENDBRANCH   8  12
ENDBRANCH   4   7
ENDBRANCH   2   3
ENDBRANCH   1   2
BRANCH   1  25
ATOM     25  C   UNL A   1      40.208  22.350  27.441  1.00  0.00     0.023 C 
BRANCH  25  26
ATOM     26  C   UNL A   1      41.489  23.146  27.248  1.00  0.00     0.116 C 
BRANCH  26  27
ATOM     27  N   UNL A   1      41.458  24.020  26.082  1.00  0.00    -0.352 N 
ATOM     28  C   UNL A   1      41.331  25.389  26.063  1.00  0.00     0.251 C 
ATOM     29  H   UNL A   1      41.538  23.579  25.205  1.00  0.00     0.163 HD
ATOM     30  O   UNL A   1      41.212  25.997  25.007  1.00  0.00    -0.269 OA
BRANCH  28  31
ATOM     31  C   UNL A   1      41.298  26.096  27.357  1.00  0.00     0.039 A 
ATOM     32  C   UNL A   1      42.384  26.890  27.722  1.00  0.00     0.014 A 
ATOM     33  C   UNL A   1      40.137  26.064  28.134  1.00  0.00     0.014 A 
ATOM     34  C   UNL A   1      42.274  27.722  28.837  1.00  0.00     0.010 A 
ATOM     35  C   UNL A   1      40.000  26.953  29.191  1.00  0.00     0.010 A 
ATOM     36  C   UNL A   1      41.066  27.794  29.550  1.00  0.00    -0.014 A 
BRANCH  36  37
ATOM     37  C   UNL A   1      40.884  28.754  30.668  1.00  0.00     0.031 A 
ATOM     38  C   UNL A   1      41.711  28.612  31.914  1.00  0.00     0.074 A 
ATOM     39  C   UNL A   1      39.925  29.698  30.588  1.00  0.00     0.049 A 
ATOM     40  N   UNL A   1      41.644  29.290  33.030  1.00  0.00    -0.248 NA
ATOM     41  C   UNL A   1      42.726  27.546  31.920  1.00  0.00     0.031 C 
ATOM     42  C   UNL A   1      39.026  29.899  29.449  1.00  0.00     0.029 A 
ATOM     43  N   UNL A   1      39.535  30.658  31.489  1.00  0.00    -0.354 N 
ATOM     44  C   UNL A   1      42.596  28.728  33.871  1.00  0.00     0.074 A 
ATOM     45  C   UNL A   1      43.185  27.615  33.161  1.00  0.00     0.031 C 
ATOM     46  C   UNL A   1      38.206  30.930  29.711  1.00  0.00     0.029 A 
ATOM     47  C   UNL A   1      38.488  31.435  31.051  1.00  0.00     0.049 A 
ATOM     48  H   UNL A   1      39.965  30.779  32.366  1.00  0.00     0.167 HD
ATOM     49  C   UNL A   1      42.962  29.120  35.114  1.00  0.00     0.037 A 
ATOM     50  C   UNL A   1      37.820  32.432  31.666  1.00  0.00     0.037 A 
ATOM     51  C   UNL A   1      42.384  30.243  35.803  1.00  0.00     0.049 A 
ATOM     52  C   UNL A   1      38.234  32.838  33.055  1.00  0.00     0.074 A 
ATOM     53  C   UNL A   1      42.728  30.763  37.038  1.00  0.00     0.029 A 
ATOM     54  N   UNL A   1      41.335  31.015  35.322  1.00  0.00    -0.354 N 
ATOM     55  N   UNL A   1      39.189  32.345  33.807  1.00  0.00    -0.248 NA
ATOM     56  C   UNL A   1      37.484  33.936  33.680  1.00  0.00     0.031 C 
ATOM     57  C   UNL A   1      41.850  31.812  37.329  1.00  0.00     0.029 A 
ATOM     58  C   UNL A   1      40.999  31.987  36.248  1.00  0.00     0.049 A 
ATOM     59  H   UNL A   1      40.896  30.890  34.450  1.00  0.00     0.167 HD
ATOM     60  C   UNL A   1      39.171  33.088  34.982  1.00  0.00     0.074 A 
ATOM     61  C   UNL A   1      38.119  34.074  34.836  1.00  0.00     0.031 C 
ATOM     62  C   UNL A   1      39.954  32.966  36.083  1.00  0.00     0.037 A 
BRANCH  49  63
ATOM     63  C   UNL A   1      44.038  28.332  35.808  1.00  0.00     0.058 A 
ATOM     64  C   UNL A   1      45.389  28.717  35.754  1.00  0.00     0.135 A 
ATOM     65  C   UNL A   1      43.714  27.197  36.570  1.00  0.00     0.135 A 
ATOM     66  F   UNL A   1      45.759  29.783  35.026  1.00  0.00    -0.206 F 
ATOM     67  C   UNL A   1      46.380  27.991  36.405  1.00  0.00     0.059 A 
ATOM     68  C   UNL A   1      44.685  26.475  37.256  1.00  0.00     0.059 A 
ATOM     69  F   UNL A   1      42.441  26.782  36.654  1.00  0.00    -0.206 F 
ATOM     70  C   UNL A   1      46.018  26.872  37.156  1.00  0.00     0.060 A 
BRANCH  70  71
ATOM     71  S   UNL A   1      47.317  25.949  38.003  1.00  0.00     0.124 S 
ATOM     72  O   UNL A   1      48.457  26.177  37.120  1.00  0.00    -0.237 OA
ATOM     73  O   UNL A   1      47.376  26.615  39.300  1.00  0.00    -0.237 OA
ATOM     74  O   UNL A   1      46.806  24.582  38.024  1.00  0.00    -0.744 OA
ENDBRANCH  70  71
ENDBRANCH  49  63
BRANCH  50  75
ATOM     75  C   UNL A   1      36.699  33.120  30.969  1.00  0.00     0.058 A 
ATOM     76  C   UNL A   1      36.942  34.011  29.913  1.00  0.00     0.135 A 
ATOM     77  C   UNL A   1      35.363  32.893  31.337  1.00  0.00     0.135 A 
ATOM     78  F   UNL A   1      38.202  34.266  29.527  1.00  0.00    -0.206 F 
ATOM     79  C   UNL A   1      35.904  34.667  29.258  1.00  0.00     0.059 A 
ATOM     80  C   UNL A   1      34.306  33.515  30.679  1.00  0.00     0.059 A 
ATOM     81  F   UNL A   1      35.074  32.038  32.330  1.00  0.00    -0.206 F 
ATOM     82  C   UNL A   1      34.588  34.409  29.647  1.00  0.00     0.060 A 
BRANCH  82  83
ATOM     83  S   UNL A   1      33.247  35.233  28.759  1.00  0.00     0.124 S 
ATOM     84  O   UNL A   1      32.644  34.118  28.037  1.00  0.00    -0.237 OA
ATOM     85  O   UNL A   1      32.457  35.790  29.851  1.00  0.00    -0.237 OA
ATOM     86  O   UNL A   1      33.944  36.216  27.935  1.00  0.00    -0.744 OA
ENDBRANCH  82  83
ENDBRANCH  50  75
BRANCH  62  87
ATOM     87  C   UNL A   1      39.730  33.938  37.210  1.00  0.00     0.058 A 
ATOM     88  C   UNL A   1      38.961  33.600  38.333  1.00  0.00     0.135 A 
ATOM     89  C   UNL A   1      40.360  35.194  37.198  1.00  0.00     0.135 A 
ATOM     90  F   UNL A   1      38.332  32.415  38.391  1.00  0.00    -0.206 F 
ATOM     91  C   UNL A   1      38.814  34.479  39.402  1.00  0.00     0.059 A 
ATOM     92  C   UNL A   1      40.251  36.075  38.269  1.00  0.00     0.059 A 
ATOM     93  F   UNL A   1      41.114  35.563  36.151  1.00  0.00    -0.206 F 
ATOM     94  C   UNL A   1      39.470  35.711  39.365  1.00  0.00     0.060 A 
BRANCH  94  95
ATOM     95  S   UNL A   1      39.317  36.814  40.784  1.00  0.00     0.124 S 
ATOM     96  O   UNL A   1      40.716  37.064  41.115  1.00  0.00    -0.237 OA
ATOM     97  O   UNL A   1      38.586  37.946  40.221  1.00  0.00    -0.237 OA
ATOM     98  O   UNL A   1      38.575  36.019  41.757  1.00  0.00    -0.744 OA
ENDBRANCH  94  95
ENDBRANCH  62  87
ENDBRANCH  36  37
ENDBRANCH  28  31
ENDBRANCH  26  27
ENDBRANCH  25  26
ENDBRANCH   1  25
TORSDOF 18
ENDMDL
MODEL 2
REMARK VINA RESULT:     -11.4      4.905      9.998
REMARK SMILES CCc1n[nH]c(C(=O)NC[C@@H]2CC[C@@H](C(=O)NCCCCNC(=O)c3ccc(-c4c5nc(c(-c6c(F)cc(S(=O)(=O)[O-])cc6F)c6ccc([nH]6)c(-c6c(F)cc(S(=O)(=O)[O-])cc6F)c6nc(c(-c7c(F)cc(S(=O)(=O)[O-])cc7F)c7ccc4[nH]7)C=C6)C=C5)cc3)O2)n1
REMARK SMILES IDX 19 1 18 2 17 3 15 4 16 5 14 7 11 8 12 9 91 10 13 11 10 12
REMARK SMILES IDX 9 13 7 14 8 15 6 17 3 18 4 19 92 20 5 21 2 23 1 24 20 25
REMARK SMILES IDX 21 26 22 27 23 28 24 30 25 31 26 32 90 33 27 34 89 35 28 36
REMARK SMILES IDX 29 37 30 38 83 39 31 40 88 41 82 42 84 43 32 44 87 45 81 46
REMARK SMILES IDX 80 47 33 49 67 50 46 51 66 52 47 53 50 54 65 55 85 56 48 57
REMARK SMILES IDX 49 58 64 60 86 61 51 62 34 63 35 64 44 65 36 66 37 67 43 68
REMARK SMILES IDX 45 69 38 70 39 71 40 72 41 73 42 74 68 75 69 76 78 77 70 78
REMARK SMILES IDX 71 79 77 80 79 81 72 82 73 83 74 84 75 85 76 86 52 87 53 88
REMARK SMILES IDX 62 89 54 90 55 91 61 92 63 93 56 94 57 95 58 96 59 97 60 98
REMARK H PARENT 17 6 9 16 5 22 22 29 84 48 50 59
REMARK Flexibility Score: inf
ROOT
ATOM      1  C   UNL A   1      32.832  29.408  24.916  1.00  0.00     0.023 C 
ENDROOT
BRANCH   1   2
ATOM      2  C   UNL A   1      31.401  28.927  24.666  1.00  0.00     0.116 C 
BRANCH   2   3
ATOM      3  N   UNL A   1      31.263  28.422  23.320  1.00  0.00    -0.354 N 
ATOM      4  C   UNL A   1      31.077  27.149  22.867  1.00  0.00     0.249 C 
ATOM      5  O   UNL A   1      31.108  26.997  21.641  1.00  0.00    -0.272 OA
ATOM      6  H   UNL A   1      31.312  29.108  22.615  1.00  0.00     0.163 HD
BRANCH   4   7
ATOM      7  C   UNL A   1      30.734  25.979  23.822  1.00  0.00     0.207 C 
ATOM      8  C   UNL A   1      31.411  25.530  26.038  1.00  0.00     0.138 C 
ATOM      9  C   UNL A   1      29.923  25.282  25.946  1.00  0.00     0.037 C 
ATOM     10  O   UNL A   1      31.863  25.704  24.682  1.00  0.00    -0.363 OA
ATOM     11  C   UNL A   1      29.543  26.118  24.754  1.00  0.00     0.045 C 
BRANCH   8  12
ATOM     12  C   UNL A   1      32.167  24.354  26.652  1.00  0.00     0.148 C 
BRANCH  12  13
ATOM     13  N   UNL A   1      31.616  23.081  26.215  1.00  0.00    -0.347 N 
ATOM     14  C   UNL A   1      32.084  22.212  25.260  1.00  0.00     0.288 C 
ATOM     15  O   UNL A   1      31.481  21.152  25.099  1.00  0.00    -0.266 OA
ATOM     16  H   UNL A   1      30.788  22.803  26.669  1.00  0.00     0.164 HD
BRANCH  14  17
ATOM     17  C   UNL A   1      33.266  22.528  24.488  1.00  0.00     0.214 A 
ATOM     18  C   UNL A   1      35.199  22.748  23.658  1.00  0.00     0.151 A 
ATOM     19  N   UNL A   1      34.423  23.350  22.750  1.00  0.00    -0.158 NA
ATOM     20  N   UNL A   1      34.531  22.244  24.744  1.00  0.00    -0.207 NA
ATOM     21  N   UNL A   1      33.208  23.217  23.311  1.00  0.00    -0.255 N 
ATOM     22  H   UNL A   1      32.378  23.574  22.920  1.00  0.00     0.192 HD
BRANCH  18  23
ATOM     23  C   UNL A   1      36.669  22.607  23.498  1.00  0.00     0.076 C 
ATOM     24  C   UNL A   1      37.404  22.718  24.825  1.00  0.00     0.012 C 
ENDBRANCH  18  23
ENDBRANCH  14  17
ENDBRANCH  12  13
ENDBRANCH   8  12
ENDBRANCH   4   7
ENDBRANCH   2   3
ENDBRANCH   1   2
BRANCH   1  25
ATOM     25  C   UNL A   1      33.728  28.370  25.591  1.00  0.00     0.023 C 
BRANCH  25  26
ATOM     26  C   UNL A   1      33.735  28.430  27.111  1.00  0.00     0.116 C 
BRANCH  26  27
ATOM     27  N   UNL A   1      33.592  29.782  27.637  1.00  0.00    -0.352 N 
ATOM     28  C   UNL A   1      34.550  30.540  28.268  1.00  0.00     0.251 C 
ATOM     29  H   UNL A   1      32.708  30.201  27.529  1.00  0.00     0.163 HD
ATOM     30  O   UNL A   1      34.271  31.627  28.760  1.00  0.00    -0.269 OA
BRANCH  28  31
ATOM     31  C   UNL A   1      35.912  29.984  28.373  1.00  0.00     0.039 A 
ATOM     32  C   UNL A   1      36.760  30.059  27.269  1.00  0.00     0.014 A 
ATOM     33  C   UNL A   1      36.374  29.510  29.604  1.00  0.00     0.014 A 
ATOM     34  C   UNL A   1      38.106  29.728  27.422  1.00  0.00     0.010 A 
ATOM     35  C   UNL A   1      37.729  29.262  29.773  1.00  0.00     0.010 A 
ATOM     36  C   UNL A   1      38.610  29.374  28.685  1.00  0.00    -0.014 A 
BRANCH  36  37
ATOM     37  C   UNL A   1      40.058  29.130  28.900  1.00  0.00     0.031 A 
ATOM     38  C   UNL A   1      40.646  27.789  28.564  1.00  0.00     0.074 A 
ATOM     39  C   UNL A   1      40.820  30.086  29.467  1.00  0.00     0.049 A 
ATOM     40  N   UNL A   1      41.862  27.350  28.757  1.00  0.00    -0.248 NA
ATOM     41  C   UNL A   1      39.739  26.798  27.959  1.00  0.00     0.031 C 
ATOM     42  C   UNL A   1      40.348  31.410  29.884  1.00  0.00     0.029 A 
ATOM     43  N   UNL A   1      42.150  30.090  29.806  1.00  0.00    -0.354 N 
ATOM     44  C   UNL A   1      41.863  26.034  28.310  1.00  0.00     0.074 A 
ATOM     45  C   UNL A   1      40.514  25.726  27.893  1.00  0.00     0.031 C 
ATOM     46  C   UNL A   1      41.376  32.102  30.401  1.00  0.00     0.029 A 
ATOM     47  C   UNL A   1      42.568  31.260  30.396  1.00  0.00     0.049 A 
ATOM     48  H   UNL A   1      42.749  29.326  29.642  1.00  0.00     0.167 HD
ATOM     49  C   UNL A   1      42.902  25.169  28.233  1.00  0.00     0.037 A 
ATOM     50  C   UNL A   1      43.772  31.609  30.891  1.00  0.00     0.037 A 
ATOM     51  C   UNL A   1      44.246  25.494  28.631  1.00  0.00     0.049 A 
ATOM     52  C   UNL A   1      44.908  30.624  30.809  1.00  0.00     0.074 A 
ATOM     53  C   UNL A   1      45.383  24.711  28.534  1.00  0.00     0.029 A 
ATOM     54  N   UNL A   1      44.634  26.694  29.211  1.00  0.00    -0.354 N 
ATOM     55  N   UNL A   1      44.911  29.409  30.313  1.00  0.00    -0.248 NA
ATOM     56  C   UNL A   1      46.204  31.053  31.352  1.00  0.00     0.031 C 
ATOM     57  C   UNL A   1      46.447  25.416  29.106  1.00  0.00     0.029 A 
ATOM     58  C   UNL A   1      45.987  26.661  29.504  1.00  0.00     0.049 A 
ATOM     59  H   UNL A   1      44.036  27.455  29.386  1.00  0.00     0.167 HD
ATOM     60  C   UNL A   1      46.211  28.940  30.460  1.00  0.00     0.074 A 
ATOM     61  C   UNL A   1      46.971  30.007  31.079  1.00  0.00     0.031 C 
ATOM     62  C   UNL A   1      46.730  27.736  30.114  1.00  0.00     0.037 A 
BRANCH  49  63
ATOM     63  C   UNL A   1      42.627  23.791  27.696  1.00  0.00     0.058 A 
ATOM     64  C   UNL A   1      42.567  23.534  26.316  1.00  0.00     0.135 A 
ATOM     65  C   UNL A   1      42.460  22.705  28.570  1.00  0.00     0.135 A 
ATOM     66  F   UNL A   1      42.703  24.538  25.434  1.00  0.00    -0.206 F 
ATOM     67  C   UNL A   1      42.322  22.256  25.823  1.00  0.00     0.059 A 
ATOM     68  C   UNL A   1      42.246  21.414  28.099  1.00  0.00     0.059 A 
ATOM     69  F   UNL A   1      42.505  22.893  29.898  1.00  0.00    -0.206 F 
ATOM     70  C   UNL A   1      42.166  21.201  26.724  1.00  0.00     0.060 A 
BRANCH  70  71
ATOM     71  S   UNL A   1      41.860  19.549  26.065  1.00  0.00     0.124 S 
ATOM     72  O   UNL A   1      42.206  18.712  27.210  1.00  0.00    -0.237 OA
ATOM     73  O   UNL A   1      40.442  19.607  25.727  1.00  0.00    -0.237 OA
ATOM     74  O   UNL A   1      42.771  19.462  24.928  1.00  0.00    -0.744 OA
ENDBRANCH  70  71
ENDBRANCH  49  63
BRANCH  50  75
ATOM     75  C   UNL A   1      43.969  32.954  31.497  1.00  0.00     0.058 A 
ATOM     76  C   UNL A   1      44.400  34.041  30.721  1.00  0.00     0.135 A 
ATOM     77  C   UNL A   1      43.720  33.184  32.859  1.00  0.00     0.135 A 
ATOM     78  F   UNL A   1      44.657  33.872  29.415  1.00  0.00    -0.206 F 
ATOM     79  C   UNL A   1      44.595  35.303  31.275  1.00  0.00     0.059 A 
ATOM     80  C   UNL A   1      43.880  34.443  33.431  1.00  0.00     0.059 A 
ATOM     81  F   UNL A   1      43.290  32.183  33.643  1.00  0.00    -0.206 F 
ATOM     82  C   UNL A   1      44.328  35.494  32.632  1.00  0.00     0.060 A 
BRANCH  82  83
ATOM     83  S   UNL A   1      44.542  37.146  33.331  1.00  0.00     0.124 S 
ATOM     84  O   UNL A   1      43.188  37.454  33.778  1.00  0.00    -0.237 OA
ATOM     85  O   UNL A   1      45.524  36.907  34.384  1.00  0.00    -0.237 OA
ATOM     86  O   UNL A   1      45.027  37.929  32.199  1.00  0.00    -0.744 OA
ENDBRANCH  82  83
ENDBRANCH  50  75
BRANCH  62  87
ATOM     87  C   UNL A   1      48.196  27.508  30.366  1.00  0.00     0.058 A 
ATOM     88  C   UNL A   1      48.656  26.897  31.541  1.00  0.00     0.135 A 
ATOM     89  C   UNL A   1      49.143  27.837  29.382  1.00  0.00     0.135 A 
ATOM     90  F   UNL A   1      47.793  26.569  32.517  1.00  0.00    -0.206 F 
ATOM     91  C   UNL A   1      50.007  26.629  31.738  1.00  0.00     0.059 A 
ATOM     92  C   UNL A   1      50.495  27.551  29.545  1.00  0.00     0.059 A 
ATOM     93  F   UNL A   1      48.754  28.417  28.235  1.00  0.00    -0.206 F 
ATOM     94  C   UNL A   1      50.918  26.952  30.731  1.00  0.00     0.060 A 
BRANCH  94  95
ATOM     95  S   UNL A   1      52.658  26.544  30.977  1.00  0.00     0.124 S 
ATOM     96  O   UNL A   1      53.151  27.746  31.643  1.00  0.00    -0.237 OA
ATOM     97  O   UNL A   1      52.583  25.345  31.805  1.00  0.00    -0.237 OA
ATOM     98  O   UNL A   1      53.155  26.331  29.620  1.00  0.00    -0.744 OA
ENDBRANCH  94  95
ENDBRANCH  62  87
ENDBRANCH  36  37
ENDBRANCH  28  31
ENDBRANCH  26  27
ENDBRANCH  25  26
ENDBRANCH   1  25
TORSDOF 18
ENDMDL
MODEL 3
REMARK VINA RESULT:     -11.4      6.199     10.932
REMARK SMILES CCc1n[nH]c(C(=O)NC[C@@H]2CC[C@@H](C(=O)NCCCCNC(=O)c3ccc(-c4c5nc(c(-c6c(F)cc(S(=O)(=O)[O-])cc6F)c6ccc([nH]6)c(-c6c(F)cc(S(=O)(=O)[O-])cc6F)c6nc(c(-c7c(F)cc(S(=O)(=O)[O-])cc7F)c7ccc4[nH]7)C=C6)C=C5)cc3)O2)n1
REMARK SMILES IDX 19 1 18 2 17 3 15 4 16 5 14 7 11 8 12 9 91 10 13 11 10 12
REMARK SMILES IDX 9 13 7 14 8 15 6 17 3 18 4 19 92 20 5 21 2 23 1 24 20 25
REMARK SMILES IDX 21 26 22 27 23 28 24 30 25 31 26 32 90 33 27 34 89 35 28 36
REMARK SMILES IDX 29 37 30 38 83 39 31 40 88 41 82 42 84 43 32 44 87 45 81 46
REMARK SMILES IDX 80 47 33 49 67 50 46 51 66 52 47 53 50 54 65 55 85 56 48 57
REMARK SMILES IDX 49 58 64 60 86 61 51 62 34 63 35 64 44 65 36 66 37 67 43 68
REMARK SMILES IDX 45 69 38 70 39 71 40 72 41 73 42 74 68 75 69 76 78 77 70 78
REMARK SMILES IDX 71 79 77 80 79 81 72 82 73 83 74 84 75 85 76 86 52 87 53 88
REMARK SMILES IDX 62 89 54 90 55 91 61 92 63 93 56 94 57 95 58 96 59 97 60 98
REMARK H PARENT 17 6 9 16 5 22 22 29 84 48 50 59
REMARK Flexibility Score: inf
ROOT
ATOM      1  C   UNL A   1      37.520  22.822  25.078  1.00  0.00     0.023 C 
ENDROOT
BRANCH   1   2
ATOM      2  C   UNL A   1      36.365  23.279  25.973  1.00  0.00     0.116 C 
BRANCH   2   3
ATOM      3  N   UNL A   1      35.483  22.174  26.267  1.00  0.00    -0.354 N 
ATOM      4  C   UNL A   1      34.123  22.127  26.354  1.00  0.00     0.249 C 
ATOM      5  O   UNL A   1      33.639  21.057  26.737  1.00  0.00    -0.272 OA
ATOM      6  H   UNL A   1      35.937  21.316  26.431  1.00  0.00     0.163 HD
BRANCH   4   7
ATOM      7  C   UNL A   1      33.229  23.305  25.895  1.00  0.00     0.207 C 
ATOM      8  C   UNL A   1      31.207  23.342  24.679  1.00  0.00     0.138 C 
ATOM      9  C   UNL A   1      31.067  24.294  25.844  1.00  0.00     0.037 C 
ATOM     10  O   UNL A   1      32.600  22.979  24.636  1.00  0.00    -0.363 OA
ATOM     11  C   UNL A   1      32.100  23.766  26.802  1.00  0.00     0.045 C 
BRANCH   8  12
ATOM     12  C   UNL A   1      30.834  23.986  23.345  1.00  0.00     0.148 C 
BRANCH  12  13
ATOM     13  N   UNL A   1      32.013  24.264  22.541  1.00  0.00    -0.347 N 
ATOM     14  C   UNL A   1      32.616  25.467  22.269  1.00  0.00     0.288 C 
ATOM     15  O   UNL A   1      33.653  25.456  21.607  1.00  0.00    -0.266 OA
ATOM     16  H   UNL A   1      32.440  23.476  22.135  1.00  0.00     0.164 HD
BRANCH  14  17
ATOM     17  C   UNL A   1      32.059  26.704  22.769  1.00  0.00     0.214 A 
ATOM     18  C   UNL A   1      31.486  28.429  23.852  1.00  0.00     0.151 A 
ATOM     19  N   UNL A   1      30.899  28.623  22.667  1.00  0.00    -0.158 NA
ATOM     20  N   UNL A   1      32.194  27.259  23.961  1.00  0.00    -0.207 NA
ATOM     21  N   UNL A   1      31.258  27.507  22.008  1.00  0.00    -0.255 N 
ATOM     22  H   UNL A   1      30.977  27.294  21.089  1.00  0.00     0.192 HD
BRANCH  18  23
ATOM     23  C   UNL A   1      31.407  29.411  24.963  1.00  0.00     0.076 C 
ATOM     24  C   UNL A   1      31.773  28.792  26.304  1.00  0.00     0.012 C 
ENDBRANCH  18  23
ENDBRANCH  14  17
ENDBRANCH  12  13
ENDBRANCH   8  12
ENDBRANCH   4   7
ENDBRANCH   2   3
ENDBRANCH   1   2
BRANCH   1  25
ATOM     25  C   UNL A   1      38.016  21.407  25.378  1.00  0.00     0.023 C 
BRANCH  25  26
ATOM     26  C   UNL A   1      39.278  21.343  26.224  1.00  0.00     0.116 C 
BRANCH  26  27
ATOM     27  N   UNL A   1      39.994  20.079  26.100  1.00  0.00    -0.352 N 
ATOM     28  C   UNL A   1      41.354  19.880  26.132  1.00  0.00     0.251 C 
ATOM     29  H   UNL A   1      39.440  19.274  25.979  1.00  0.00     0.163 HD
ATOM     30  O   UNL A   1      41.835  18.776  25.909  1.00  0.00    -0.269 OA
BRANCH  28  31
ATOM     31  C   UNL A   1      42.216  21.047  26.398  1.00  0.00     0.039 A 
ATOM     32  C   UNL A   1      42.657  21.821  25.325  1.00  0.00     0.014 A 
ATOM     33  C   UNL A   1      42.470  21.434  27.717  1.00  0.00     0.014 A 
ATOM     34  C   UNL A   1      43.293  23.036  25.580  1.00  0.00     0.010 A 
ATOM     35  C   UNL A   1      43.027  22.680  27.966  1.00  0.00     0.010 A 
ATOM     36  C   UNL A   1      43.439  23.497  26.900  1.00  0.00    -0.014 A 
BRANCH  36  37
ATOM     37  C   UNL A   1      44.007  24.837  27.193  1.00  0.00     0.031 A 
ATOM     38  C   UNL A   1      43.100  25.951  27.631  1.00  0.00     0.074 A 
ATOM     39  C   UNL A   1      45.320  25.064  26.988  1.00  0.00     0.049 A 
ATOM     40  N   UNL A   1      43.385  27.208  27.851  1.00  0.00    -0.248 NA
ATOM     41  C   UNL A   1      41.678  25.617  27.818  1.00  0.00     0.031 C 
ATOM     42  C   UNL A   1      46.289  24.073  26.514  1.00  0.00     0.029 A 
ATOM     43  N   UNL A   1      46.065  26.207  27.139  1.00  0.00    -0.354 N 
ATOM     44  C   UNL A   1      42.181  27.814  28.188  1.00  0.00     0.074 A 
ATOM     45  C   UNL A   1      41.153  26.803  28.086  1.00  0.00     0.031 C 
ATOM     46  C   UNL A   1      47.502  24.645  26.434  1.00  0.00     0.029 A 
ATOM     47  C   UNL A   1      47.391  26.051  26.806  1.00  0.00     0.049 A 
ATOM     48  H   UNL A   1      45.687  27.059  27.456  1.00  0.00     0.167 HD
ATOM     49  C   UNL A   1      41.958  29.093  28.572  1.00  0.00     0.037 A 
ATOM     50  C   UNL A   1      48.400  26.945  26.787  1.00  0.00     0.037 A 
ATOM     51  C   UNL A   1      42.993  30.086  28.692  1.00  0.00     0.049 A 
ATOM     52  C   UNL A   1      48.123  28.366  27.202  1.00  0.00     0.074 A 
ATOM     53  C   UNL A   1      42.883  31.393  29.134  1.00  0.00     0.029 A 
ATOM     54  N   UNL A   1      44.326  29.887  28.359  1.00  0.00    -0.354 N 
ATOM     55  N   UNL A   1      46.993  28.905  27.593  1.00  0.00    -0.248 NA
ATOM     56  C   UNL A   1      49.256  29.300  27.176  1.00  0.00     0.031 C 
ATOM     57  C   UNL A   1      44.136  32.000  29.015  1.00  0.00     0.029 A 
ATOM     58  C   UNL A   1      45.042  31.055  28.558  1.00  0.00     0.049 A 
ATOM     59  H   UNL A   1      44.706  29.040  28.032  1.00  0.00     0.167 HD
ATOM     60  C   UNL A   1      47.284  30.233  27.882  1.00  0.00     0.074 A 
ATOM     61  C   UNL A   1      48.700  30.413  27.636  1.00  0.00     0.031 C 
ATOM     62  C   UNL A   1      46.454  31.215  28.314  1.00  0.00     0.037 A 
BRANCH  49  63
ATOM     63  C   UNL A   1      40.544  29.491  28.894  1.00  0.00     0.058 A 
ATOM     64  C   UNL A   1      39.569  29.628  27.891  1.00  0.00     0.135 A 
ATOM     65  C   UNL A   1      40.146  29.701  30.224  1.00  0.00     0.135 A 
ATOM     66  F   UNL A   1      39.897  29.456  26.600  1.00  0.00    -0.206 F 
ATOM     67  C   UNL A   1      38.259  29.987  28.193  1.00  0.00     0.059 A 
ATOM     68  C   UNL A   1      38.834  30.029  30.551  1.00  0.00     0.059 A 
ATOM     69  F   UNL A   1      41.036  29.586  31.221  1.00  0.00    -0.206 F 
ATOM     70  C   UNL A   1      37.901  30.183  29.528  1.00  0.00     0.060 A 
BRANCH  70  71
ATOM     71  S   UNL A   1      36.195  30.638  29.900  1.00  0.00     0.124 S 
ATOM     72  O   UNL A   1      35.509  30.215  28.683  1.00  0.00    -0.237 OA
ATOM     73  O   UNL A   1      35.916  29.845  31.093  1.00  0.00    -0.237 OA
ATOM     74  O   UNL A   1      36.264  32.081  30.110  1.00  0.00    -0.744 OA
ENDBRANCH  70  71
ENDBRANCH  49  63
BRANCH  50  75
ATOM     75  C   UNL A   1      49.765  26.521  26.372  1.00  0.00     0.058 A 
ATOM     76  C   UNL A   1      50.188  26.648  25.041  1.00  0.00     0.135 A 
ATOM     77  C   UNL A   1      50.677  25.991  27.299  1.00  0.00     0.135 A 
ATOM     78  F   UNL A   1      49.352  27.144  24.116  1.00  0.00    -0.206 F 
ATOM     79  C   UNL A   1      51.459  26.249  24.637  1.00  0.00     0.059 A 
ATOM     80  C   UNL A   1      51.963  25.611  26.926  1.00  0.00     0.059 A 
ATOM     81  F   UNL A   1      50.329  25.862  28.588  1.00  0.00    -0.206 F 
ATOM     82  C   UNL A   1      52.341  25.735  25.589  1.00  0.00     0.060 A 
BRANCH  82  83
ATOM     83  S   UNL A   1      54.003  25.262  25.062  1.00  0.00     0.124 S 
ATOM     84  O   UNL A   1      53.890  23.810  24.996  1.00  0.00    -0.237 OA
ATOM     85  O   UNL A   1      54.124  25.953  23.782  1.00  0.00    -0.237 OA
ATOM     86  O   UNL A   1      54.854  25.783  26.128  1.00  0.00    -0.744 OA
ENDBRANCH  82  83
ENDBRANCH  50  75
BRANCH  62  87
ATOM     87  C   UNL A   1      47.054  32.569  28.580  1.00  0.00     0.058 A 
ATOM     88  C   UNL A   1      47.590  32.906  29.831  1.00  0.00     0.135 A 
ATOM     89  C   UNL A   1      47.162  33.512  27.543  1.00  0.00     0.135 A 
ATOM     90  F   UNL A   1      47.506  32.044  30.858  1.00  0.00    -0.206 F 
ATOM     91  C   UNL A   1      48.203  34.135  30.051  1.00  0.00     0.059 A 
ATOM     92  C   UNL A   1      47.798  34.735  27.733  1.00  0.00     0.059 A 
ATOM     93  F   UNL A   1      46.673  33.236  26.324  1.00  0.00    -0.206 F 
ATOM     94  C   UNL A   1      48.310  35.040  28.993  1.00  0.00     0.060 A 
BRANCH  94  95
ATOM     95  S   UNL A   1      49.160  36.606  29.278  1.00  0.00     0.124 S 
ATOM     96  O   UNL A   1      48.144  37.571  28.869  1.00  0.00    -0.237 OA
ATOM     97  O   UNL A   1      49.442  36.550  30.709  1.00  0.00    -0.237 OA
ATOM     98  O   UNL A   1      50.330  36.523  28.410  1.00  0.00    -0.744 OA
ENDBRANCH  94  95
ENDBRANCH  62  87
ENDBRANCH  36  37
ENDBRANCH  28  31
ENDBRANCH  26  27
ENDBRANCH  25  26
ENDBRANCH   1  25
TORSDOF 18
ENDMDL
