MODEL 1
REMARK VINA RESULT:     -11.4      0.000      0.000
REMARK SMILES CCOc1cccc(OCC)c1-c1ccc([C@@H](C)C(=O)NCCCCNC(=O)c2ccc(-c3c4nc(c(-c5c(F)cc(S(=O)(=O)[O-])cc5F)c5ccc([nH]5)c(-c5c(F)cc(S(=O)(=O)[O-])cc5F)c5nc(c(-c6c(F)cc(S(=O)(=O)[O-])cc6F)c6ccc3[nH]6)C=C5)C=C4)cc2)cc1F
REMARK SMILES IDX 23 1 22 2 21 3 19 4 20 5 17 7 18 8 16 9 13 10 14 11 96 12
REMARK SMILES IDX 15 13 95 14 97 15 12 16 4 17 5 18 6 19 8 20 7 21 3 22 2 23
REMARK SMILES IDX 1 24 9 25 10 26 11 27 24 28 25 29 26 30 27 31 28 33 29 34
REMARK SMILES IDX 30 35 94 36 31 37 93 38 32 39 33 40 34 41 87 42 35 43 92 44
REMARK SMILES IDX 86 45 88 46 36 47 91 48 85 49 84 50 37 52 71 53 50 54 70 55
REMARK SMILES IDX 51 56 54 57 69 58 89 59 52 60 53 61 68 63 90 64 55 65 38 66
REMARK SMILES IDX 39 67 48 68 40 69 41 70 47 71 49 72 42 73 43 74 44 75 45 76
REMARK SMILES IDX 46 77 72 78 73 79 82 80 74 81 75 82 81 83 83 84 76 85 77 86
REMARK SMILES IDX 78 87 79 88 80 89 56 90 57 91 66 92 58 93 59 94 65 95 67 96
REMARK SMILES IDX 60 97 61 98 62 99 63 100 64 101
REMARK H PARENT 21 6 26 32 88 51 54 62
REMARK Flexibility Score: inf
ROOT
ATOM      1  C   UNL A   1      33.164  29.058  27.402  1.00  0.00     0.023 C 
ENDROOT
BRANCH   1   2
ATOM      2  C   UNL A   1      32.528  29.951  26.323  1.00  0.00     0.116 C 
BRANCH   2   3
ATOM      3  N   UNL A   1      31.790  29.172  25.336  1.00  0.00    -0.356 N 
ATOM      4  C   UNL A   1      32.136  28.361  24.296  1.00  0.00     0.227 C 
ATOM      5  O   UNL A   1      31.185  27.920  23.635  1.00  0.00    -0.274 OA
ATOM      6  H   UNL A   1      30.815  29.248  25.447  1.00  0.00     0.163 HD
BRANCH   4   7
ATOM      7  C   UNL A   1      33.575  27.955  23.891  1.00  0.00     0.105 C 
ATOM      8  C   UNL A   1      34.046  28.538  22.562  1.00  0.00     0.023 C 
BRANCH   7   9
ATOM      9  C   UNL A   1      33.867  26.470  24.026  1.00  0.00    -0.033 A 
ATOM     10  C   UNL A   1      34.601  23.742  24.407  1.00  0.00     0.025 A 
ATOM     11  C   UNL A   1      34.664  24.671  25.438  1.00  0.00     0.012 A 
ATOM     12  C   UNL A   1      34.193  24.219  23.154  1.00  0.00     0.131 A 
ATOM     13  C   UNL A   1      34.164  25.949  25.272  1.00  0.00     0.005 A 
ATOM     14  C   UNL A   1      33.873  25.575  22.949  1.00  0.00     0.044 A 
ATOM     15  F   UNL A   1      34.126  23.386  22.103  1.00  0.00    -0.206 F 
BRANCH  10  16
ATOM     16  C   UNL A   1      35.050  22.373  24.696  1.00  0.00     0.069 A 
ATOM     17  C   UNL A   1      34.054  21.364  24.791  1.00  0.00     0.130 A 
ATOM     18  C   UNL A   1      34.369  20.012  24.951  1.00  0.00     0.047 A 
ATOM     19  C   UNL A   1      35.699  19.623  24.992  1.00  0.00     0.008 A 
ATOM     20  C   UNL A   1      36.403  21.959  24.759  1.00  0.00     0.130 A 
ATOM     21  C   UNL A   1      36.698  20.590  24.909  1.00  0.00     0.047 A 
BRANCH  17  22
ATOM     22  O   UNL A   1      32.727  21.728  24.802  1.00  0.00    -0.493 OA
BRANCH  22  23
ATOM     23  C   UNL A   1      31.880  20.814  24.097  1.00  0.00     0.226 C 
ATOM     24  C   UNL A   1      32.079  21.018  22.605  1.00  0.00     0.049 C 
ENDBRANCH  22  23
ENDBRANCH  17  22
BRANCH  20  25
ATOM     25  O   UNL A   1      37.566  22.687  24.775  1.00  0.00    -0.493 OA
BRANCH  25  26
ATOM     26  C   UNL A   1      38.411  22.815  25.909  1.00  0.00     0.226 C 
ATOM     27  C   UNL A   1      38.161  24.111  26.670  1.00  0.00     0.049 C 
ENDBRANCH  25  26
ENDBRANCH  20  25
ENDBRANCH  10  16
ENDBRANCH   7   9
ENDBRANCH   4   7
ENDBRANCH   2   3
ENDBRANCH   1   2
BRANCH   1  28
ATOM     28  C   UNL A   1      34.681  28.969  27.413  1.00  0.00     0.023 C 
BRANCH  28  29
ATOM     29  C   UNL A   1      35.396  30.278  27.700  1.00  0.00     0.116 C 
BRANCH  29  30
ATOM     30  N   UNL A   1      35.419  30.661  29.107  1.00  0.00    -0.352 N 
ATOM     31  C   UNL A   1      36.440  30.477  30.015  1.00  0.00     0.251 C 
ATOM     32  H   UNL A   1      34.610  31.104  29.449  1.00  0.00     0.163 HD
ATOM     33  O   UNL A   1      36.295  30.805  31.190  1.00  0.00    -0.269 OA
BRANCH  31  34
ATOM     34  C   UNL A   1      37.688  29.825  29.563  1.00  0.00     0.039 A 
ATOM     35  C   UNL A   1      38.086  29.968  28.233  1.00  0.00     0.014 A 
ATOM     36  C   UNL A   1      38.511  29.170  30.482  1.00  0.00     0.014 A 
ATOM     37  C   UNL A   1      39.357  29.535  27.847  1.00  0.00     0.010 A 
ATOM     38  C   UNL A   1      39.809  28.834  30.121  1.00  0.00     0.010 A 
ATOM     39  C   UNL A   1      40.247  29.012  28.800  1.00  0.00    -0.014 A 
BRANCH  39  40
ATOM     40  C   UNL A   1      41.639  28.636  28.444  1.00  0.00     0.031 A 
ATOM     41  C   UNL A   1      42.715  29.688  28.432  1.00  0.00     0.074 A 
ATOM     42  C   UNL A   1      41.916  27.376  28.058  1.00  0.00     0.049 A 
ATOM     43  N   UNL A   1      43.966  29.586  28.067  1.00  0.00    -0.248 NA
ATOM     44  C   UNL A   1      42.321  31.044  28.849  1.00  0.00     0.031 C 
ATOM     45  C   UNL A   1      40.946  26.280  27.967  1.00  0.00     0.029 A 
ATOM     46  N   UNL A   1      43.098  26.801  27.659  1.00  0.00    -0.354 N 
ATOM     47  C   UNL A   1      44.501  30.862  28.190  1.00  0.00     0.074 A 
ATOM     48  C   UNL A   1      43.422  31.735  28.600  1.00  0.00     0.031 C 
ATOM     49  C   UNL A   1      41.580  25.162  27.575  1.00  0.00     0.029 A 
ATOM     50  C   UNL A   1      42.989  25.466  27.354  1.00  0.00     0.049 A 
ATOM     51  H   UNL A   1      43.944  27.300  27.599  1.00  0.00     0.167 HD
ATOM     52  C   UNL A   1      45.780  31.268  28.011  1.00  0.00     0.037 A 
ATOM     53  C   UNL A   1      43.923  24.585  26.943  1.00  0.00     0.037 A 
ATOM     54  C   UNL A   1      46.856  30.389  27.642  1.00  0.00     0.049 A 
ATOM     55  C   UNL A   1      45.343  25.052  26.773  1.00  0.00     0.074 A 
ATOM     56  C   UNL A   1      48.199  30.686  27.489  1.00  0.00     0.029 A 
ATOM     57  N   UNL A   1      46.712  29.035  27.375  1.00  0.00    -0.354 N 
ATOM     58  N   UNL A   1      45.843  26.253  26.949  1.00  0.00    -0.248 NA
ATOM     59  C   UNL A   1      46.328  24.045  26.355  1.00  0.00     0.031 C 
ATOM     60  C   UNL A   1      48.863  29.516  27.103  1.00  0.00     0.029 A 
ATOM     61  C   UNL A   1      47.940  28.484  27.051  1.00  0.00     0.049 A 
ATOM     62  H   UNL A   1      45.862  28.539  27.411  1.00  0.00     0.167 HD
ATOM     63  C   UNL A   1      47.203  26.140  26.691  1.00  0.00     0.074 A 
ATOM     64  C   UNL A   1      47.451  24.752  26.356  1.00  0.00     0.031 C 
ATOM     65  C   UNL A   1      48.164  27.096  26.730  1.00  0.00     0.037 A 
BRANCH  52  66
ATOM     66  C   UNL A   1      46.076  32.726  28.229  1.00  0.00     0.058 A 
ATOM     67  C   UNL A   1      46.425  33.222  29.497  1.00  0.00     0.135 A 
ATOM     68  C   UNL A   1      46.008  33.640  27.166  1.00  0.00     0.135 A 
ATOM     69  F   UNL A   1      46.488  32.394  30.552  1.00  0.00    -0.206 F 
ATOM     70  C   UNL A   1      46.653  34.576  29.712  1.00  0.00     0.059 A 
ATOM     71  C   UNL A   1      46.260  34.995  27.352  1.00  0.00     0.059 A 
ATOM     72  F   UNL A   1      45.678  33.221  25.935  1.00  0.00    -0.206 F 
ATOM     73  C   UNL A   1      46.562  35.457  28.633  1.00  0.00     0.060 A 
BRANCH  73  74
ATOM     74  S   UNL A   1      46.840  37.216  28.930  1.00  0.00     0.124 S 
ATOM     75  O   UNL A   1      45.471  37.713  29.020  1.00  0.00    -0.237 OA
ATOM     76  O   UNL A   1      47.593  37.209  30.180  1.00  0.00    -0.237 OA
ATOM     77  O   UNL A   1      47.588  37.644  27.753  1.00  0.00    -0.744 OA
ENDBRANCH  73  74
ENDBRANCH  52  66
BRANCH  53  78
ATOM     78  C   UNL A   1      43.556  23.162  26.713  1.00  0.00     0.058 A 
ATOM     79  C   UNL A   1      43.231  22.325  27.790  1.00  0.00     0.135 A 
ATOM     80  C   UNL A   1      43.507  22.616  25.422  1.00  0.00     0.135 A 
ATOM     81  F   UNL A   1      43.268  22.801  29.044  1.00  0.00    -0.206 F 
ATOM     82  C   UNL A   1      42.887  20.991  27.599  1.00  0.00     0.059 A 
ATOM     83  C   UNL A   1      43.144  21.291  25.202  1.00  0.00     0.059 A 
ATOM     84  F   UNL A   1      43.792  23.382  24.356  1.00  0.00    -0.206 F 
ATOM     85  C   UNL A   1      42.845  20.483  26.300  1.00  0.00     0.060 A 
BRANCH  85  86
ATOM     86  S   UNL A   1      42.345  18.764  26.058  1.00  0.00     0.124 S 
ATOM     87  O   UNL A   1      40.960  18.918  25.632  1.00  0.00    -0.237 OA
ATOM     88  O   UNL A   1      43.282  18.312  25.034  1.00  0.00    -0.237 OA
ATOM     89  O   UNL A   1      42.539  18.171  27.378  1.00  0.00    -0.744 OA
ENDBRANCH  85  86
ENDBRANCH  53  78
BRANCH  65  90
ATOM     90  C   UNL A   1      49.573  26.668  26.437  1.00  0.00     0.058 A 
ATOM     91  C   UNL A   1      50.396  26.116  27.431  1.00  0.00     0.135 A 
ATOM     92  C   UNL A   1      50.090  26.770  25.136  1.00  0.00     0.135 A 
ATOM     93  F   UNL A   1      49.949  26.003  28.693  1.00  0.00    -0.206 F 
ATOM     94  C   UNL A   1      51.692  25.699  27.149  1.00  0.00     0.059 A 
ATOM     95  C   UNL A   1      51.375  26.337  24.827  1.00  0.00     0.059 A 
ATOM     96  F   UNL A   1      49.339  27.282  24.148  1.00  0.00    -0.206 F 
ATOM     97  C   UNL A   1      52.174  25.815  25.844  1.00  0.00     0.060 A 
BRANCH  97  98
ATOM     98  S   UNL A   1      53.847  25.242  25.482  1.00  0.00     0.124 S 
ATOM     99  O   UNL A   1      53.988  25.618  24.078  1.00  0.00    -0.237 OA
ATOM    100  O   UNL A   1      54.653  26.009  26.428  1.00  0.00    -0.237 OA
ATOM    101  O   UNL A   1      53.778  23.808  25.744  1.00  0.00    -0.744 OA
ENDBRANCH  97  98
ENDBRANCH  65  90
ENDBRANCH  39  40
ENDBRANCH  31  34
ENDBRANCH  29  30
ENDBRANCH  28  29
ENDBRANCH   1  28
TORSDOF 20
ENDMDL
MODEL 2
REMARK VINA RESULT:     -11.3      0.264      2.026
REMARK SMILES CCOc1cccc(OCC)c1-c1ccc([C@@H](C)C(=O)NCCCCNC(=O)c2ccc(-c3c4nc(c(-c5c(F)cc(S(=O)(=O)[O-])cc5F)c5ccc([nH]5)c(-c5c(F)cc(S(=O)(=O)[O-])cc5F)c5nc(c(-c6c(F)cc(S(=O)(=O)[O-])cc6F)c6ccc3[nH]6)C=C5)C=C4)cc2)cc1F
REMARK SMILES IDX 23 1 22 2 21 3 19 4 20 5 17 7 18 8 16 9 13 10 14 11 96 12
REMARK SMILES IDX 15 13 95 14 97 15 12 16 4 17 5 18 6 19 8 20 7 21 3 22 2 23
REMARK SMILES IDX 1 24 9 25 10 26 11 27 24 28 25 29 26 30 27 31 28 33 29 34
REMARK SMILES IDX 30 35 94 36 31 37 93 38 32 39 33 40 34 41 87 42 35 43 92 44
REMARK SMILES IDX 86 45 88 46 36 47 91 48 85 49 84 50 37 52 71 53 50 54 70 55
REMARK SMILES IDX 51 56 54 57 69 58 89 59 52 60 53 61 68 63 90 64 55 65 38 66
REMARK SMILES IDX 39 67 48 68 40 69 41 70 47 71 49 72 42 73 43 74 44 75 45 76
REMARK SMILES IDX 46 77 72 78 73 79 82 80 74 81 75 82 81 83 83 84 76 85 77 86
REMARK SMILES IDX 78 87 79 88 80 89 56 90 57 91 66 92 58 93 59 94 65 95 67 96
REMARK SMILES IDX 60 97 61 98 62 99 63 100 64 101
REMARK H PARENT 21 6 26 32 88 51 54 62
REMARK Flexibility Score: inf
ROOT
ATOM      1  C   UNL A   1      33.330  29.016  27.547  1.00  0.00     0.023 C 
ENDROOT
BRANCH   1   2
ATOM      2  C   UNL A   1      32.580  29.979  26.609  1.00  0.00     0.116 C 
BRANCH   2   3
ATOM      3  N   UNL A   1      31.781  29.265  25.621  1.00  0.00    -0.356 N 
ATOM      4  C   UNL A   1      32.061  28.503  24.526  1.00  0.00     0.227 C 
ATOM      5  O   UNL A   1      31.071  28.114  23.890  1.00  0.00    -0.274 OA
ATOM      6  H   UNL A   1      30.814  29.353  25.783  1.00  0.00     0.163 HD
BRANCH   4   7
ATOM      7  C   UNL A   1      33.470  28.092  24.031  1.00  0.00     0.105 C 
ATOM      8  C   UNL A   1      33.893  28.741  22.717  1.00  0.00     0.023 C 
BRANCH   7   9
ATOM      9  C   UNL A   1      33.736  26.597  24.070  1.00  0.00    -0.033 A 
ATOM     10  C   UNL A   1      34.428  23.839  24.264  1.00  0.00     0.025 A 
ATOM     11  C   UNL A   1      34.562  24.707  25.340  1.00  0.00     0.012 A 
ATOM     12  C   UNL A   1      33.968  24.392  23.060  1.00  0.00     0.131 A 
ATOM     13  C   UNL A   1      34.083  26.002  25.269  1.00  0.00     0.005 A 
ATOM     14  C   UNL A   1      33.669  25.763  22.947  1.00  0.00     0.044 A 
ATOM     15  F   UNL A   1      33.831  23.621  21.970  1.00  0.00    -0.206 F 
BRANCH  10  16
ATOM     16  C   UNL A   1      34.859  22.447  24.454  1.00  0.00     0.069 A 
ATOM     17  C   UNL A   1      36.227  22.221  24.764  1.00  0.00     0.130 A 
ATOM     18  C   UNL A   1      36.726  20.954  25.075  1.00  0.00     0.047 A 
ATOM     19  C   UNL A   1      35.861  19.872  25.115  1.00  0.00     0.008 A 
ATOM     20  C   UNL A   1      33.993  21.326  24.482  1.00  0.00     0.130 A 
ATOM     21  C   UNL A   1      34.516  20.060  24.809  1.00  0.00     0.047 A 
BRANCH  17  22
ATOM     22  O   UNL A   1      37.116  23.269  24.685  1.00  0.00    -0.493 OA
BRANCH  22  23
ATOM     23  C   UNL A   1      38.236  23.133  25.566  1.00  0.00     0.226 C 
ATOM     24  C   UNL A   1      38.161  24.224  26.620  1.00  0.00     0.049 C 
ENDBRANCH  22  23
ENDBRANCH  17  22
BRANCH  20  25
ATOM     25  O   UNL A   1      32.664  21.209  24.159  1.00  0.00    -0.493 OA
BRANCH  25  26
ATOM     26  C   UNL A   1      32.156  20.309  23.186  1.00  0.00     0.226 C 
ATOM     27  C   UNL A   1      31.862  21.000  21.860  1.00  0.00     0.049 C 
ENDBRANCH  25  26
ENDBRANCH  20  25
ENDBRANCH  10  16
ENDBRANCH   7   9
ENDBRANCH   4   7
ENDBRANCH   2   3
ENDBRANCH   1   2
BRANCH   1  28
ATOM     28  C   UNL A   1      34.848  29.083  27.526  1.00  0.00     0.023 C 
BRANCH  28  29
ATOM     29  C   UNL A   1      35.433  30.447  27.850  1.00  0.00     0.116 C 
BRANCH  29  30
ATOM     30  N   UNL A   1      35.457  30.775  29.271  1.00  0.00    -0.352 N 
ATOM     31  C   UNL A   1      36.470  30.536  30.175  1.00  0.00     0.251 C 
ATOM     32  H   UNL A   1      34.654  31.220  29.627  1.00  0.00     0.163 HD
ATOM     33  O   UNL A   1      36.326  30.823  31.361  1.00  0.00    -0.269 OA
BRANCH  31  34
ATOM     34  C   UNL A   1      37.708  29.878  29.703  1.00  0.00     0.039 A 
ATOM     35  C   UNL A   1      38.109  30.056  28.378  1.00  0.00     0.014 A 
ATOM     36  C   UNL A   1      38.520  29.182  30.601  1.00  0.00     0.014 A 
ATOM     37  C   UNL A   1      39.373  29.614  27.978  1.00  0.00     0.010 A 
ATOM     38  C   UNL A   1      39.812  28.836  30.230  1.00  0.00     0.010 A 
ATOM     39  C   UNL A   1      40.253  29.048  28.915  1.00  0.00    -0.014 A 
BRANCH  39  40
ATOM     40  C   UNL A   1      41.639  28.661  28.548  1.00  0.00     0.031 A 
ATOM     41  C   UNL A   1      42.724  29.704  28.527  1.00  0.00     0.074 A 
ATOM     42  C   UNL A   1      41.903  27.398  28.159  1.00  0.00     0.049 A 
ATOM     43  N   UNL A   1      43.971  29.591  28.153  1.00  0.00    -0.248 NA
ATOM     44  C   UNL A   1      42.344  31.062  28.947  1.00  0.00     0.031 C 
ATOM     45  C   UNL A   1      40.923  26.311  28.076  1.00  0.00     0.029 A 
ATOM     46  N   UNL A   1      43.077  26.814  27.751  1.00  0.00    -0.354 N 
ATOM     47  C   UNL A   1      44.517  30.863  28.272  1.00  0.00     0.074 A 
ATOM     48  C   UNL A   1      43.449  31.745  28.691  1.00  0.00     0.031 C 
ATOM     49  C   UNL A   1      41.544  25.187  27.679  1.00  0.00     0.029 A 
ATOM     50  C   UNL A   1      42.955  25.479  27.446  1.00  0.00     0.049 A 
ATOM     51  H   UNL A   1      43.926  27.306  27.684  1.00  0.00     0.167 HD
ATOM     52  C   UNL A   1      45.798  31.258  28.082  1.00  0.00     0.037 A 
ATOM     53  C   UNL A   1      43.877  24.592  27.027  1.00  0.00     0.037 A 
ATOM     54  C   UNL A   1      46.864  30.371  27.704  1.00  0.00     0.049 A 
ATOM     55  C   UNL A   1      45.299  25.047  26.846  1.00  0.00     0.074 A 
ATOM     56  C   UNL A   1      48.208  30.656  27.541  1.00  0.00     0.029 A 
ATOM     57  N   UNL A   1      46.706  29.018  27.438  1.00  0.00    -0.354 N 
ATOM     58  N   UNL A   1      45.811  26.243  27.018  1.00  0.00    -0.248 NA
ATOM     59  C   UNL A   1      46.273  24.032  26.420  1.00  0.00     0.031 C 
ATOM     60  C   UNL A   1      48.859  29.481  27.148  1.00  0.00     0.029 A 
ATOM     61  C   UNL A   1      47.927  28.457  27.103  1.00  0.00     0.049 A 
ATOM     62  H   UNL A   1      45.853  28.530  27.480  1.00  0.00     0.167 HD
ATOM     63  C   UNL A   1      47.168  26.119  26.749  1.00  0.00     0.074 A 
ATOM     64  C   UNL A   1      47.401  24.729  26.412  1.00  0.00     0.031 C 
ATOM     65  C   UNL A   1      48.137  27.067  26.780  1.00  0.00     0.037 A 
BRANCH  52  66
ATOM     66  C   UNL A   1      46.108  32.714  28.298  1.00  0.00     0.058 A 
ATOM     67  C   UNL A   1      46.052  33.641  27.243  1.00  0.00     0.135 A 
ATOM     68  C   UNL A   1      46.469  33.190  29.568  1.00  0.00     0.135 A 
ATOM     69  F   UNL A   1      45.731  33.235  26.004  1.00  0.00    -0.206 F 
ATOM     70  C   UNL A   1      46.384  34.977  27.430  1.00  0.00     0.059 A 
ATOM     71  C   UNL A   1      46.777  34.530  29.784  1.00  0.00     0.059 A 
ATOM     72  F   UNL A   1      46.539  32.349  30.611  1.00  0.00    -0.206 F 
ATOM     73  C   UNL A   1      46.752  35.412  28.704  1.00  0.00     0.060 A 
BRANCH  73  74
ATOM     74  S   UNL A   1      47.201  37.146  28.928  1.00  0.00     0.124 S 
ATOM     75  O   UNL A   1      47.974  37.403  27.717  1.00  0.00    -0.237 OA
ATOM     76  O   UNL A   1      45.899  37.801  28.998  1.00  0.00    -0.237 OA
ATOM     77  O   UNL A   1      47.964  37.140  30.171  1.00  0.00    -0.744 OA
ENDBRANCH  73  74
ENDBRANCH  52  66
BRANCH  53  78
ATOM     78  C   UNL A   1      43.496  23.172  26.800  1.00  0.00     0.058 A 
ATOM     79  C   UNL A   1      43.211  22.326  27.882  1.00  0.00     0.135 A 
ATOM     80  C   UNL A   1      43.395  22.637  25.508  1.00  0.00     0.135 A 
ATOM     81  F   UNL A   1      43.299  22.792  29.138  1.00  0.00    -0.206 F 
ATOM     82  C   UNL A   1      42.856  20.995  27.694  1.00  0.00     0.059 A 
ATOM     83  C   UNL A   1      43.019  21.314  25.291  1.00  0.00     0.059 A 
ATOM     84  F   UNL A   1      43.640  23.410  24.438  1.00  0.00    -0.206 F 
ATOM     85  C   UNL A   1      42.760  20.498  26.393  1.00  0.00     0.060 A 
BRANCH  85  86
ATOM     86  S   UNL A   1      42.246  18.783  26.157  1.00  0.00     0.124 S 
ATOM     87  O   UNL A   1      40.855  18.946  25.753  1.00  0.00    -0.237 OA
ATOM     88  O   UNL A   1      43.164  18.327  25.117  1.00  0.00    -0.237 OA
ATOM     89  O   UNL A   1      42.457  18.187  27.473  1.00  0.00    -0.744 OA
ENDBRANCH  85  86
ENDBRANCH  53  78
BRANCH  65  90
ATOM     90  C   UNL A   1      49.540  26.628  26.476  1.00  0.00     0.058 A 
ATOM     91  C   UNL A   1      50.353  26.032  27.454  1.00  0.00     0.135 A 
ATOM     92  C   UNL A   1      50.061  26.763  25.179  1.00  0.00     0.135 A 
ATOM     93  F   UNL A   1      49.903  25.887  28.710  1.00  0.00    -0.206 F 
ATOM     94  C   UNL A   1      51.643  25.605  27.160  1.00  0.00     0.059 A 
ATOM     95  C   UNL A   1      51.340  26.321  24.859  1.00  0.00     0.059 A 
ATOM     96  F   UNL A   1      49.319  27.316  24.207  1.00  0.00    -0.206 F 
ATOM     97  C   UNL A   1      52.129  25.755  25.860  1.00  0.00     0.060 A 
BRANCH  97  98
ATOM     98  S   UNL A   1      53.794  25.169  25.482  1.00  0.00     0.124 S 
ATOM     99  O   UNL A   1      54.042  25.804  24.191  1.00  0.00    -0.237 OA
ATOM    100  O   UNL A   1      54.571  25.687  26.604  1.00  0.00    -0.237 OA
ATOM    101  O   UNL A   1      53.643  23.718  25.449  1.00  0.00    -0.744 OA
ENDBRANCH  97  98
ENDBRANCH  65  90
ENDBRANCH  39  40
ENDBRANCH  31  34
ENDBRANCH  29  30
ENDBRANCH  28  29
ENDBRANCH   1  28
TORSDOF 20
ENDMDL
MODEL 3
REMARK VINA RESULT:     -11.3      1.214      2.011
REMARK SMILES CCOc1cccc(OCC)c1-c1ccc([C@@H](C)C(=O)NCCCCNC(=O)c2ccc(-c3c4nc(c(-c5c(F)cc(S(=O)(=O)[O-])cc5F)c5ccc([nH]5)c(-c5c(F)cc(S(=O)(=O)[O-])cc5F)c5nc(c(-c6c(F)cc(S(=O)(=O)[O-])cc6F)c6ccc3[nH]6)C=C5)C=C4)cc2)cc1F
REMARK SMILES IDX 23 1 22 2 21 3 19 4 20 5 17 7 18 8 16 9 13 10 14 11 96 12
REMARK SMILES IDX 15 13 95 14 97 15 12 16 4 17 5 18 6 19 8 20 7 21 3 22 2 23
REMARK SMILES IDX 1 24 9 25 10 26 11 27 24 28 25 29 26 30 27 31 28 33 29 34
REMARK SMILES IDX 30 35 94 36 31 37 93 38 32 39 33 40 34 41 87 42 35 43 92 44
REMARK SMILES IDX 86 45 88 46 36 47 91 48 85 49 84 50 37 52 71 53 50 54 70 55
REMARK SMILES IDX 51 56 54 57 69 58 89 59 52 60 53 61 68 63 90 64 55 65 38 66
REMARK SMILES IDX 39 67 48 68 40 69 41 70 47 71 49 72 42 73 43 74 44 75 45 76
REMARK SMILES IDX 46 77 72 78 73 79 82 80 74 81 75 82 81 83 83 84 76 85 77 86
REMARK SMILES IDX 78 87 79 88 80 89 56 90 57 91 66 92 58 93 59 94 65 95 67 96
REMARK SMILES IDX 60 97 61 98 62 99 63 100 64 101
REMARK H PARENT 21 6 26 32 88 51 54 62
REMARK Flexibility Score: inf
ROOT
ATOM      1  C   UNL A   1      34.084  31.109  28.030  1.00  0.00     0.023 C 
ENDROOT
BRANCH   1   2
ATOM      2  C   UNL A   1      34.611  29.883  27.261  1.00  0.00     0.116 C 
BRANCH   2   3
ATOM      3  N   UNL A   1      34.108  29.842  25.894  1.00  0.00    -0.356 N 
ATOM      4  C   UNL A   1      33.130  29.145  25.248  1.00  0.00     0.227 C 
ATOM      5  O   UNL A   1      33.054  29.354  24.029  1.00  0.00    -0.274 OA
ATOM      6  H   UNL A   1      34.586  30.462  25.297  1.00  0.00     0.163 HD
BRANCH   4   7
ATOM      7  C   UNL A   1      32.135  28.151  25.895  1.00  0.00     0.105 C 
ATOM      8  C   UNL A   1      31.585  28.596  27.247  1.00  0.00     0.023 C 
BRANCH   7   9
ATOM      9  C   UNL A   1      32.602  26.705  25.889  1.00  0.00    -0.033 A 
ATOM     10  C   UNL A   1      33.475  24.003  25.645  1.00  0.00     0.025 A 
ATOM     11  C   UNL A   1      33.975  25.012  24.833  1.00  0.00     0.012 A 
ATOM     12  C   UNL A   1      32.488  24.369  26.572  1.00  0.00     0.131 A 
ATOM     13  C   UNL A   1      33.650  26.335  25.066  1.00  0.00     0.005 A 
ATOM     14  C   UNL A   1      32.021  25.694  26.665  1.00  0.00     0.044 A 
ATOM     15  F   UNL A   1      31.942  23.446  27.378  1.00  0.00    -0.206 F 
BRANCH  10  16
ATOM     16  C   UNL A   1      33.955  22.635  25.404  1.00  0.00     0.069 A 
ATOM     17  C   UNL A   1      33.075  21.739  24.739  1.00  0.00     0.130 A 
ATOM     18  C   UNL A   1      33.463  20.452  24.359  1.00  0.00     0.047 A 
ATOM     19  C   UNL A   1      34.760  20.029  24.607  1.00  0.00     0.008 A 
ATOM     20  C   UNL A   1      35.271  22.180  25.666  1.00  0.00     0.130 A 
ATOM     21  C   UNL A   1      35.643  20.882  25.264  1.00  0.00     0.047 A 
BRANCH  17  22
ATOM     22  O   UNL A   1      31.769  22.115  24.525  1.00  0.00    -0.493 OA
BRANCH  22  23
ATOM     23  C   UNL A   1      31.535  22.631  23.210  1.00  0.00     0.226 C 
ATOM     24  C   UNL A   1      30.669  23.874  23.322  1.00  0.00     0.049 C 
ENDBRANCH  22  23
ENDBRANCH  17  22
BRANCH  20  25
ATOM     25  O   UNL A   1      36.306  22.768  26.347  1.00  0.00    -0.493 OA
BRANCH  25  26
ATOM     26  C   UNL A   1      37.530  23.169  25.747  1.00  0.00     0.226 C 
ATOM     27  C   UNL A   1      38.124  24.401  26.419  1.00  0.00     0.049 C 
ENDBRANCH  25  26
ENDBRANCH  20  25
ENDBRANCH  10  16
ENDBRANCH   7   9
ENDBRANCH   4   7
ENDBRANCH   2   3
ENDBRANCH   1   2
BRANCH   1  28
ATOM     28  C   UNL A   1      34.998  32.321  28.097  1.00  0.00     0.023 C 
BRANCH  28  29
ATOM     29  C   UNL A   1      35.990  32.310  29.248  1.00  0.00     0.116 C 
BRANCH  29  30
ATOM     30  N   UNL A   1      35.698  31.336  30.293  1.00  0.00    -0.352 N 
ATOM     31  C   UNL A   1      36.526  30.349  30.782  1.00  0.00     0.251 C 
ATOM     32  H   UNL A   1      34.802  31.390  30.697  1.00  0.00     0.163 HD
ATOM     33  O   UNL A   1      36.120  29.561  31.633  1.00  0.00    -0.269 OA
BRANCH  31  34
ATOM     34  C   UNL A   1      37.889  30.219  30.223  1.00  0.00     0.039 A 
ATOM     35  C   UNL A   1      38.985  30.557  31.020  1.00  0.00     0.014 A 
ATOM     36  C   UNL A   1      38.079  29.661  28.957  1.00  0.00     0.014 A 
ATOM     37  C   UNL A   1      40.274  30.245  30.580  1.00  0.00     0.010 A 
ATOM     38  C   UNL A   1      39.350  29.260  28.569  1.00  0.00     0.010 A 
ATOM     39  C   UNL A   1      40.462  29.548  29.376  1.00  0.00    -0.014 A 
BRANCH  39  40
ATOM     40  C   UNL A   1      41.809  29.112  28.928  1.00  0.00     0.031 A 
ATOM     41  C   UNL A   1      42.936  30.108  28.875  1.00  0.00     0.074 A 
ATOM     42  C   UNL A   1      41.997  27.849  28.496  1.00  0.00     0.049 A 
ATOM     43  N   UNL A   1      44.156  29.952  28.434  1.00  0.00    -0.248 NA
ATOM     44  C   UNL A   1      42.637  31.470  29.347  1.00  0.00     0.031 C 
ATOM     45  C   UNL A   1      40.968  26.807  28.438  1.00  0.00     0.029 A 
ATOM     46  N   UNL A   1      43.122  27.227  28.014  1.00  0.00    -0.354 N 
ATOM     47  C   UNL A   1      44.762  31.197  28.554  1.00  0.00     0.074 A 
ATOM     48  C   UNL A   1      43.757  32.111  29.049  1.00  0.00     0.031 C 
ATOM     49  C   UNL A   1      41.518  25.669  27.983  1.00  0.00     0.029 A 
ATOM     50  C   UNL A   1      42.926  25.907  27.684  1.00  0.00     0.049 A 
ATOM     51  H   UNL A   1      43.988  27.684  27.914  1.00  0.00     0.167 HD
ATOM     52  C   UNL A   1      46.048  31.542  28.307  1.00  0.00     0.037 A 
ATOM     53  C   UNL A   1      43.787  24.992  27.197  1.00  0.00     0.037 A 
ATOM     54  C   UNL A   1      47.054  30.620  27.853  1.00  0.00     0.049 A 
ATOM     55  C   UNL A   1      45.216  25.391  26.952  1.00  0.00     0.074 A 
ATOM     56  C   UNL A   1      48.398  30.853  27.627  1.00  0.00     0.029 A 
ATOM     57  N   UNL A   1      46.824  29.282  27.564  1.00  0.00    -0.354 N 
ATOM     58  N   UNL A   1      45.787  26.560  27.126  1.00  0.00    -0.248 NA
ATOM     59  C   UNL A   1      46.122  24.347  26.453  1.00  0.00     0.031 C 
ATOM     60  C   UNL A   1      48.977  29.661  27.173  1.00  0.00     0.029 A 
ATOM     61  C   UNL A   1      48.000  28.679  27.153  1.00  0.00     0.049 A 
ATOM     62  H   UNL A   1      45.953  28.830  27.639  1.00  0.00     0.167 HD
ATOM     63  C   UNL A   1      47.123  26.385  26.784  1.00  0.00     0.074 A 
ATOM     64  C   UNL A   1      47.278  24.996  26.402  1.00  0.00     0.031 C 
ATOM     65  C   UNL A   1      48.133  27.291  26.787  1.00  0.00     0.037 A 
BRANCH  52  66
ATOM     66  C   UNL A   1      46.432  32.977  28.541  1.00  0.00     0.058 A 
ATOM     67  C   UNL A   1      46.365  33.932  27.511  1.00  0.00     0.135 A 
ATOM     68  C   UNL A   1      46.875  33.405  29.802  1.00  0.00     0.135 A 
ATOM     69  F   UNL A   1      45.965  33.572  26.282  1.00  0.00    -0.206 F 
ATOM     70  C   UNL A   1      46.764  35.247  27.712  1.00  0.00     0.059 A 
ATOM     71  C   UNL A   1      47.252  34.725  30.033  1.00  0.00     0.059 A 
ATOM     72  F   UNL A   1      46.959  32.535  30.820  1.00  0.00    -0.206 F 
ATOM     73  C   UNL A   1      47.213  35.634  28.977  1.00  0.00     0.060 A 
BRANCH  73  74
ATOM     74  S   UNL A   1      47.747  37.341  29.218  1.00  0.00     0.124 S 
ATOM     75  O   UNL A   1      47.541  37.508  30.653  1.00  0.00    -0.237 OA
ATOM     76  O   UNL A   1      49.138  37.300  28.779  1.00  0.00    -0.237 OA
ATOM     77  O   UNL A   1      46.845  38.102  28.360  1.00  0.00    -0.744 OA
ENDBRANCH  73  74
ENDBRANCH  52  66
BRANCH  53  78
ATOM     78  C   UNL A   1      43.333  23.596  26.956  1.00  0.00     0.058 A 
ATOM     79  C   UNL A   1      43.087  23.139  25.653  1.00  0.00     0.135 A 
ATOM     80  C   UNL A   1      43.151  22.691  28.012  1.00  0.00     0.135 A 
ATOM     81  F   UNL A   1      43.243  23.970  24.611  1.00  0.00    -0.206 F 
ATOM     82  C   UNL A   1      42.661  21.840  25.404  1.00  0.00     0.059 A 
ATOM     83  C   UNL A   1      42.746  21.378  27.787  1.00  0.00     0.059 A 
ATOM     84  F   UNL A   1      43.390  23.074  29.276  1.00  0.00    -0.206 F 
ATOM     85  C   UNL A   1      42.494  20.964  26.479  1.00  0.00     0.060 A 
BRANCH  85  86
ATOM     86  S   UNL A   1      41.991  19.263  26.141  1.00  0.00     0.124 S 
ATOM     87  O   UNL A   1      42.835  18.928  25.001  1.00  0.00    -0.237 OA
ATOM     88  O   UNL A   1      42.314  18.592  27.396  1.00  0.00    -0.237 OA
ATOM     89  O   UNL A   1      40.564  19.388  25.856  1.00  0.00    -0.744 OA
ENDBRANCH  85  86
ENDBRANCH  53  78
BRANCH  65  90
ATOM     90  C   UNL A   1      49.498  26.800  26.400  1.00  0.00     0.058 A 
ATOM     91  C   UNL A   1      50.333  26.147  27.319  1.00  0.00     0.135 A 
ATOM     92  C   UNL A   1      49.957  26.945  25.080  1.00  0.00     0.135 A 
ATOM     93  F   UNL A   1      49.942  25.990  28.594  1.00  0.00    -0.206 F 
ATOM     94  C   UNL A   1      51.587  25.674  26.949  1.00  0.00     0.059 A 
ATOM     95  C   UNL A   1      51.197  26.458  24.683  1.00  0.00     0.059 A 
ATOM     96  F   UNL A   1      49.190  27.553  24.161  1.00  0.00    -0.206 F 
ATOM     97  C   UNL A   1      52.011  25.835  25.628  1.00  0.00     0.060 A 
BRANCH  97  98
ATOM     98  S   UNL A   1      53.627  25.189  25.150  1.00  0.00     0.124 S 
ATOM     99  O   UNL A   1      53.716  25.621  23.759  1.00  0.00    -0.237 OA
ATOM    100  O   UNL A   1      54.524  25.865  26.083  1.00  0.00    -0.237 OA
ATOM    101  O   UNL A   1      53.491  23.750  25.354  1.00  0.00    -0.744 OA
ENDBRANCH  97  98
ENDBRANCH  65  90
ENDBRANCH  39  40
ENDBRANCH  31  34
ENDBRANCH  29  30
ENDBRANCH  28  29
ENDBRANCH   1  28
TORSDOF 20
ENDMDL
