MODEL 1
REMARK VINA RESULT:     -10.1      0.000      0.000
REMARK SMILES CN(C)S(=O)(=O)c1ccc(-n2c(CCC(=O)NCCCCNC(=O)c3ccc(-c4c5nc(c(-c6c(F)cc(S(=O)(=O)[O-])cc6F)c6ccc([nH]6)c(-c6c(F)cc(S(=O)(=O)[O-])cc6F)c6nc(c(-c7c(F)cc(S(=O)(=O)[O-])cc7F)c7ccc4[nH]7)C=C6)C=C5)cc3)ccc2-c2ccc(F)cc2)cc1
REMARK SMILES IDX 18 1 17 2 15 3 16 4 14 6 13 7 12 8 11 9 93 10 91 11 92 12
REMARK SMILES IDX 10 13 7 14 8 15 102 16 9 17 101 18 4 19 5 20 6 21 2 22 1 23
REMARK SMILES IDX 3 24 94 25 95 26 100 27 96 28 99 29 97 30 98 31 19 32 20 33
REMARK SMILES IDX 21 34 22 35 23 36 24 38 25 39 26 40 90 41 27 42 89 43 28 44
REMARK SMILES IDX 29 45 30 46 83 47 31 48 88 49 82 50 84 51 32 52 87 53 81 54
REMARK SMILES IDX 80 55 33 57 67 58 46 59 66 60 47 61 50 62 65 63 85 64 48 65
REMARK SMILES IDX 49 66 64 68 86 69 51 70 34 71 35 72 44 73 36 74 37 75 43 76
REMARK SMILES IDX 45 77 38 78 39 79 40 80 41 81 42 82 68 83 69 84 78 85 70 86
REMARK SMILES IDX 71 87 77 88 79 89 72 90 73 91 74 92 75 93 76 94 52 95 53 96
REMARK SMILES IDX 62 97 54 98 55 99 61 100 63 101 56 102 57 103 58 104 59 105
REMARK SMILES IDX 60 106
REMARK H PARENT 17 5 22 37 84 56 50 67
REMARK Flexibility Score: inf
ROOT
ATOM      1  C   UNL A   1      34.462  34.196  31.362  1.00  0.00     0.116 C 
ENDROOT
BRANCH   1   2
ATOM      2  N   UNL A   1      35.634  34.855  31.911  1.00  0.00    -0.356 N 
ATOM      3  C   UNL A   1      36.498  34.402  32.869  1.00  0.00     0.220 C 
ATOM      4  O   UNL A   1      37.368  35.165  33.289  1.00  0.00    -0.275 OA
ATOM      5  H   UNL A   1      35.833  35.747  31.545  1.00  0.00     0.163 HD
BRANCH   3   6
ATOM      6  C   UNL A   1      36.379  32.987  33.419  1.00  0.00     0.106 C 
BRANCH   6   7
ATOM      7  C   UNL A   1      37.254  31.925  32.716  1.00  0.00     0.064 C 
BRANCH   7   8
ATOM      8  C   UNL A   1      38.560  32.467  32.153  1.00  0.00     0.024 A 
ATOM      9  N   UNL A   1      39.699  32.975  32.839  1.00  0.00    -0.314 N 
ATOM     10  C   UNL A   1      40.637  33.347  31.833  1.00  0.00     0.053 A 
ATOM     11  C   UNL A   1      38.797  32.559  30.790  1.00  0.00     0.024 A 
ATOM     12  C   UNL A   1      40.066  33.106  30.595  1.00  0.00     0.029 A 
BRANCH   9  13
ATOM     13  C   UNL A   1      39.952  32.979  34.276  1.00  0.00     0.046 A 
ATOM     14  C   UNL A   1      40.106  33.022  37.112  1.00  0.00     0.082 A 
ATOM     15  C   UNL A   1      40.199  31.814  36.422  1.00  0.00     0.024 A 
ATOM     16  C   UNL A   1      39.992  34.206  36.403  1.00  0.00     0.024 A 
ATOM     17  C   UNL A   1      40.134  31.797  35.012  1.00  0.00     0.028 A 
ATOM     18  C   UNL A   1      39.922  34.171  35.008  1.00  0.00     0.028 A 
BRANCH  14  19
ATOM     19  S   UNL A   1      40.283  33.093  38.878  1.00  0.00     0.242 S 
ATOM     20  O   UNL A   1      40.276  34.489  39.270  1.00  0.00    -0.207 OA
ATOM     21  O   UNL A   1      41.404  32.242  39.217  1.00  0.00    -0.207 OA
BRANCH  19  22
ATOM     22  N   UNL A   1      38.857  32.379  39.499  1.00  0.00    -0.204 NA
ATOM     23  C   UNL A   1      38.716  32.635  40.962  1.00  0.00     0.124 C 
ATOM     24  C   UNL A   1      37.595  32.736  38.804  1.00  0.00     0.124 C 
ENDBRANCH  19  22
ENDBRANCH  14  19
ENDBRANCH   9  13
BRANCH  10  25
ATOM     25  C   UNL A   1      42.072  33.644  31.993  1.00  0.00    -0.001 A 
ATOM     26  C   UNL A   1      42.534  34.845  32.538  1.00  0.00     0.013 A 
ATOM     27  C   UNL A   1      43.013  32.757  31.465  1.00  0.00     0.013 A 
ATOM     28  C   UNL A   1      43.910  35.117  32.575  1.00  0.00     0.040 A 
ATOM     29  C   UNL A   1      44.380  33.022  31.482  1.00  0.00     0.040 A 
ATOM     30  C   UNL A   1      44.818  34.204  32.045  1.00  0.00     0.123 A 
ATOM     31  F   UNL A   1      46.130  34.475  32.074  1.00  0.00    -0.207 F 
ENDBRANCH  10  25
ENDBRANCH   7   8
ENDBRANCH   6   7
ENDBRANCH   3   6
ENDBRANCH   1   2
BRANCH   1  32
ATOM     32  C   UNL A   1      34.710  33.808  29.917  1.00  0.00     0.023 C 
BRANCH  32  33
ATOM     33  C   UNL A   1      35.431  32.477  29.716  1.00  0.00     0.023 C 
BRANCH  33  34
ATOM     34  C   UNL A   1      35.905  32.290  28.283  1.00  0.00     0.116 C 
BRANCH  34  35
ATOM     35  N   UNL A   1      35.285  31.168  27.566  1.00  0.00    -0.352 N 
ATOM     36  C   UNL A   1      35.778  29.892  27.367  1.00  0.00     0.251 C 
ATOM     37  H   UNL A   1      34.400  31.348  27.175  1.00  0.00     0.163 HD
ATOM     38  O   UNL A   1      35.242  29.109  26.618  1.00  0.00    -0.269 OA
BRANCH  36  39
ATOM     39  C   UNL A   1      37.017  29.548  28.079  1.00  0.00     0.039 A 
ATOM     40  C   UNL A   1      36.944  28.974  29.350  1.00  0.00     0.014 A 
ATOM     41  C   UNL A   1      38.222  29.662  27.386  1.00  0.00     0.014 A 
ATOM     42  C   UNL A   1      38.088  28.396  29.880  1.00  0.00     0.010 A 
ATOM     43  C   UNL A   1      39.315  28.973  27.846  1.00  0.00     0.010 A 
ATOM     44  C   UNL A   1      39.251  28.350  29.099  1.00  0.00    -0.014 A 
BRANCH  44  45
ATOM     45  C   UNL A   1      40.441  27.610  29.552  1.00  0.00     0.031 A 
ATOM     46  C   UNL A   1      40.741  26.372  28.704  1.00  0.00     0.074 A 
ATOM     47  C   UNL A   1      41.108  28.203  30.585  1.00  0.00     0.049 A 
ATOM     48  N   UNL A   1      41.378  25.291  29.024  1.00  0.00    -0.248 NA
ATOM     49  C   UNL A   1      40.176  26.271  27.329  1.00  0.00     0.031 C 
ATOM     50  C   UNL A   1      40.621  29.415  31.282  1.00  0.00     0.029 A 
ATOM     51  N   UNL A   1      42.299  27.975  31.240  1.00  0.00    -0.354 N 
ATOM     52  C   UNL A   1      41.473  24.489  27.865  1.00  0.00     0.074 A 
ATOM     53  C   UNL A   1      40.590  25.074  26.900  1.00  0.00     0.031 C 
ATOM     54  C   UNL A   1      41.471  29.791  32.250  1.00  0.00     0.029 A 
ATOM     55  C   UNL A   1      42.585  28.873  32.300  1.00  0.00     0.049 A 
ATOM     56  H   UNL A   1      42.906  27.241  30.990  1.00  0.00     0.167 HD
ATOM     57  C   UNL A   1      42.391  23.484  27.728  1.00  0.00     0.037 A 
ATOM     58  C   UNL A   1      43.616  28.862  33.199  1.00  0.00     0.037 A 
ATOM     59  C   UNL A   1      43.234  23.452  28.882  1.00  0.00     0.049 A 
ATOM     60  C   UNL A   1      44.508  27.773  32.766  1.00  0.00     0.074 A 
ATOM     61  C   UNL A   1      43.018  23.059  30.176  1.00  0.00     0.029 A 
ATOM     62  N   UNL A   1      44.375  24.218  28.828  1.00  0.00    -0.354 N 
ATOM     63  N   UNL A   1      45.268  27.807  31.712  1.00  0.00    -0.248 NA
ATOM     64  C   UNL A   1      44.442  26.487  33.473  1.00  0.00     0.031 C 
ATOM     65  C   UNL A   1      43.777  23.976  30.931  1.00  0.00     0.029 A 
ATOM     66  C   UNL A   1      44.572  24.752  30.078  1.00  0.00     0.049 A 
ATOM     67  H   UNL A   1      44.948  24.357  28.038  1.00  0.00     0.167 HD
ATOM     68  C   UNL A   1      45.487  26.473  31.454  1.00  0.00     0.074 A 
ATOM     69  C   UNL A   1      45.235  25.763  32.690  1.00  0.00     0.031 C 
ATOM     70  C   UNL A   1      45.310  25.993  30.195  1.00  0.00     0.037 A 
BRANCH  57  71
ATOM     71  C   UNL A   1      42.834  22.642  26.560  1.00  0.00     0.058 A 
ATOM     72  C   UNL A   1      42.441  21.278  26.550  1.00  0.00     0.135 A 
ATOM     73  C   UNL A   1      43.859  22.994  25.674  1.00  0.00     0.135 A 
ATOM     74  F   UNL A   1      41.416  20.852  27.307  1.00  0.00    -0.206 F 
ATOM     75  C   UNL A   1      43.129  20.303  25.835  1.00  0.00     0.059 A 
ATOM     76  C   UNL A   1      44.536  22.035  24.911  1.00  0.00     0.059 A 
ATOM     77  F   UNL A   1      44.292  24.259  25.583  1.00  0.00    -0.206 F 
ATOM     78  C   UNL A   1      44.206  20.688  25.049  1.00  0.00     0.060 A 
BRANCH  78  79
ATOM     79  S   UNL A   1      45.193  19.399  24.259  1.00  0.00     0.124 S 
ATOM     80  O   UNL A   1      44.651  19.401  22.905  1.00  0.00    -0.237 OA
ATOM     81  O   UNL A   1      46.551  19.918  24.397  1.00  0.00    -0.237 OA
ATOM     82  O   UNL A   1      44.899  18.216  25.061  1.00  0.00    -0.744 OA
ENDBRANCH  78  79
ENDBRANCH  57  71
BRANCH  58  83
ATOM     83  C   UNL A   1      43.882  29.530  34.531  1.00  0.00     0.058 A 
ATOM     84  C   UNL A   1      43.111  29.405  35.696  1.00  0.00     0.135 A 
ATOM     85  C   UNL A   1      45.091  30.254  34.717  1.00  0.00     0.135 A 
ATOM     86  F   UNL A   1      41.852  28.960  35.662  1.00  0.00    -0.206 F 
ATOM     87  C   UNL A   1      43.595  29.757  36.965  1.00  0.00     0.059 A 
ATOM     88  C   UNL A   1      45.607  30.588  35.965  1.00  0.00     0.059 A 
ATOM     89  F   UNL A   1      45.845  30.641  33.680  1.00  0.00    -0.206 F 
ATOM     90  C   UNL A   1      44.872  30.289  37.095  1.00  0.00     0.060 A 
BRANCH  90  91
ATOM     91  S   UNL A   1      45.621  30.484  38.722  1.00  0.00     0.124 S 
ATOM     92  O   UNL A   1      45.193  31.826  39.094  1.00  0.00    -0.237 OA
ATOM     93  O   UNL A   1      45.020  29.389  39.479  1.00  0.00    -0.237 OA
ATOM     94  O   UNL A   1      47.048  30.327  38.447  1.00  0.00    -0.744 OA
ENDBRANCH  90  91
ENDBRANCH  58  83
BRANCH  70  95
ATOM     95  C   UNL A   1      45.543  27.014  29.094  1.00  0.00     0.058 A 
ATOM     96  C   UNL A   1      46.833  27.527  28.870  1.00  0.00     0.135 A 
ATOM     97  C   UNL A   1      44.521  27.573  28.309  1.00  0.00     0.135 A 
ATOM     98  F   UNL A   1      47.875  27.042  29.565  1.00  0.00    -0.206 F 
ATOM     99  C   UNL A   1      47.087  28.540  27.938  1.00  0.00     0.059 A 
ATOM    100  C   UNL A   1      44.745  28.576  27.361  1.00  0.00     0.059 A 
ATOM    101  F   UNL A   1      43.260  27.165  28.448  1.00  0.00    -0.206 F 
ATOM    102  C   UNL A   1      46.035  29.061  27.186  1.00  0.00     0.060 A 
BRANCH 102 103
ATOM    103  S   UNL A   1      46.374  30.362  25.977  1.00  0.00     0.124 S 
ATOM    104  O   UNL A   1      45.192  31.210  26.091  1.00  0.00    -0.237 OA
ATOM    105  O   UNL A   1      47.615  30.935  26.484  1.00  0.00    -0.237 OA
ATOM    106  O   UNL A   1      46.494  29.636  24.714  1.00  0.00    -0.744 OA
ENDBRANCH 102 103
ENDBRANCH  70  95
ENDBRANCH  44  45
ENDBRANCH  36  39
ENDBRANCH  34  35
ENDBRANCH  33  34
ENDBRANCH  32  33
ENDBRANCH   1  32
TORSDOF 20
ENDMDL
MODEL 2
REMARK VINA RESULT:      -9.6      1.788      3.562
REMARK SMILES CN(C)S(=O)(=O)c1ccc(-n2c(CCC(=O)NCCCCNC(=O)c3ccc(-c4c5nc(c(-c6c(F)cc(S(=O)(=O)[O-])cc6F)c6ccc([nH]6)c(-c6c(F)cc(S(=O)(=O)[O-])cc6F)c6nc(c(-c7c(F)cc(S(=O)(=O)[O-])cc7F)c7ccc4[nH]7)C=C6)C=C5)cc3)ccc2-c2ccc(F)cc2)cc1
REMARK SMILES IDX 18 1 17 2 15 3 16 4 14 6 13 7 12 8 11 9 93 10 91 11 92 12
REMARK SMILES IDX 10 13 7 14 8 15 102 16 9 17 101 18 4 19 5 20 6 21 2 22 1 23
REMARK SMILES IDX 3 24 94 25 95 26 100 27 96 28 99 29 97 30 98 31 19 32 20 33
REMARK SMILES IDX 21 34 22 35 23 36 24 38 25 39 26 40 90 41 27 42 89 43 28 44
REMARK SMILES IDX 29 45 30 46 83 47 31 48 88 49 82 50 84 51 32 52 87 53 81 54
REMARK SMILES IDX 80 55 33 57 67 58 46 59 66 60 47 61 50 62 65 63 85 64 48 65
REMARK SMILES IDX 49 66 64 68 86 69 51 70 34 71 35 72 44 73 36 74 37 75 43 76
REMARK SMILES IDX 45 77 38 78 39 79 40 80 41 81 42 82 68 83 69 84 78 85 70 86
REMARK SMILES IDX 71 87 77 88 79 89 72 90 73 91 74 92 75 93 76 94 52 95 53 96
REMARK SMILES IDX 62 97 54 98 55 99 61 100 63 101 56 102 57 103 58 104 59 105
REMARK SMILES IDX 60 106
REMARK H PARENT 17 5 22 37 84 56 50 67
REMARK Flexibility Score: inf
ROOT
ATOM      1  C   UNL A   1      34.093  34.318  30.320  1.00  0.00     0.116 C 
ENDROOT
BRANCH   1   2
ATOM      2  N   UNL A   1      34.412  35.282  31.358  1.00  0.00    -0.356 N 
ATOM      3  C   UNL A   1      34.831  35.051  32.638  1.00  0.00     0.220 C 
ATOM      4  O   UNL A   1      34.934  36.007  33.408  1.00  0.00    -0.275 OA
ATOM      5  H   UNL A   1      34.313  36.228  31.106  1.00  0.00     0.163 HD
BRANCH   3   6
ATOM      6  C   UNL A   1      35.150  33.640  33.110  1.00  0.00     0.106 C 
BRANCH   6   7
ATOM      7  C   UNL A   1      36.647  33.346  33.363  1.00  0.00     0.064 C 
BRANCH   7   8
ATOM      8  C   UNL A   1      37.076  33.497  34.815  1.00  0.00     0.024 A 
ATOM      9  N   UNL A   1      38.384  33.506  35.376  1.00  0.00    -0.314 N 
ATOM     10  C   UNL A   1      38.215  33.677  36.780  1.00  0.00     0.053 A 
ATOM     11  C   UNL A   1      36.160  33.629  35.848  1.00  0.00     0.024 A 
ATOM     12  C   UNL A   1      36.858  33.730  37.051  1.00  0.00     0.029 A 
BRANCH   9  13
ATOM     13  C   UNL A   1      39.661  33.504  34.670  1.00  0.00     0.046 A 
ATOM     14  C   UNL A   1      42.261  33.704  33.544  1.00  0.00     0.082 A 
ATOM     15  C   UNL A   1      41.892  32.564  34.258  1.00  0.00     0.024 A 
ATOM     16  C   UNL A   1      41.335  34.714  33.342  1.00  0.00     0.024 A 
ATOM     17  C   UNL A   1      40.595  32.463  34.806  1.00  0.00     0.028 A 
ATOM     18  C   UNL A   1      40.059  34.600  33.898  1.00  0.00     0.028 A 
BRANCH  14  19
ATOM     19  S   UNL A   1      43.848  33.825  32.756  1.00  0.00     0.242 S 
ATOM     20  O   UNL A   1      44.121  32.557  32.107  1.00  0.00    -0.207 OA
ATOM     21  O   UNL A   1      44.764  34.355  33.744  1.00  0.00    -0.207 OA
BRANCH  19  22
ATOM     22  N   UNL A   1      43.647  34.996  31.525  1.00  0.00    -0.204 NA
ATOM     23  C   UNL A   1      44.791  35.953  31.494  1.00  0.00     0.124 C 
ATOM     24  C   UNL A   1      43.398  34.470  30.160  1.00  0.00     0.124 C 
ENDBRANCH  19  22
ENDBRANCH  14  19
ENDBRANCH   9  13
BRANCH  10  25
ATOM     25  C   UNL A   1      39.232  34.048  37.780  1.00  0.00    -0.001 A 
ATOM     26  C   UNL A   1      39.404  33.343  38.974  1.00  0.00     0.013 A 
ATOM     27  C   UNL A   1      39.969  35.221  37.598  1.00  0.00     0.013 A 
ATOM     28  C   UNL A   1      40.320  33.798  39.934  1.00  0.00     0.040 A 
ATOM     29  C   UNL A   1      40.869  35.692  38.550  1.00  0.00     0.040 A 
ATOM     30  C   UNL A   1      41.041  34.969  39.714  1.00  0.00     0.123 A 
ATOM     31  F   UNL A   1      41.905  35.404  40.640  1.00  0.00    -0.207 F 
ENDBRANCH  10  25
ENDBRANCH   7   8
ENDBRANCH   6   7
ENDBRANCH   3   6
ENDBRANCH   1   2
BRANCH   1  32
ATOM     32  C   UNL A   1      35.250  34.196  29.347  1.00  0.00     0.023 C 
BRANCH  32  33
ATOM     33  C   UNL A   1      36.005  32.870  29.396  1.00  0.00     0.023 C 
BRANCH  33  34
ATOM     34  C   UNL A   1      36.380  32.369  28.010  1.00  0.00     0.116 C 
BRANCH  34  35
ATOM     35  N   UNL A   1      35.600  31.219  27.533  1.00  0.00    -0.352 N 
ATOM     36  C   UNL A   1      35.948  29.882  27.528  1.00  0.00     0.251 C 
ATOM     37  H   UNL A   1      34.710  31.429  27.168  1.00  0.00     0.163 HD
ATOM     38  O   UNL A   1      35.283  29.049  26.957  1.00  0.00    -0.269 OA
BRANCH  36  39
ATOM     39  C   UNL A   1      37.198  29.525  28.216  1.00  0.00     0.039 A 
ATOM     40  C   UNL A   1      37.143  28.946  29.485  1.00  0.00     0.014 A 
ATOM     41  C   UNL A   1      38.391  29.634  27.503  1.00  0.00     0.014 A 
ATOM     42  C   UNL A   1      38.292  28.356  29.993  1.00  0.00     0.010 A 
ATOM     43  C   UNL A   1      39.487  28.936  27.940  1.00  0.00     0.010 A 
ATOM     44  C   UNL A   1      39.440  28.307  29.191  1.00  0.00    -0.014 A 
BRANCH  44  45
ATOM     45  C   UNL A   1      40.633  27.557  29.619  1.00  0.00     0.031 A 
ATOM     46  C   UNL A   1      40.909  26.321  28.760  1.00  0.00     0.074 A 
ATOM     47  C   UNL A   1      41.323  28.139  30.644  1.00  0.00     0.049 A 
ATOM     48  N   UNL A   1      41.545  25.233  29.063  1.00  0.00    -0.248 NA
ATOM     49  C   UNL A   1      40.320  26.231  27.394  1.00  0.00     0.031 C 
ATOM     50  C   UNL A   1      40.856  29.351  31.355  1.00  0.00     0.029 A 
ATOM     51  N   UNL A   1      42.523  27.899  31.276  1.00  0.00    -0.354 N 
ATOM     52  C   UNL A   1      41.614  24.437  27.898  1.00  0.00     0.074 A 
ATOM     53  C   UNL A   1      40.718  25.034  26.952  1.00  0.00     0.031 C 
ATOM     54  C   UNL A   1      41.726  29.716  32.310  1.00  0.00     0.029 A 
ATOM     55  C   UNL A   1      42.834  28.791  32.336  1.00  0.00     0.049 A 
ATOM     56  H   UNL A   1      43.120  27.163  31.012  1.00  0.00     0.167 HD
ATOM     57  C   UNL A   1      42.523  23.427  27.740  1.00  0.00     0.037 A 
ATOM     58  C   UNL A   1      43.880  28.768  33.216  1.00  0.00     0.037 A 
ATOM     59  C   UNL A   1      43.385  23.383  28.879  1.00  0.00     0.049 A 
ATOM     60  C   UNL A   1      44.757  27.675  32.762  1.00  0.00     0.074 A 
ATOM     61  C   UNL A   1      43.189  22.985  30.174  1.00  0.00     0.029 A 
ATOM     62  N   UNL A   1      44.531  24.141  28.809  1.00  0.00    -0.354 N 
ATOM     63  N   UNL A   1      45.499  27.709  31.695  1.00  0.00    -0.248 NA
ATOM     64  C   UNL A   1      44.694  26.386  33.464  1.00  0.00     0.031 C 
ATOM     65  C   UNL A   1      43.967  23.893  30.921  1.00  0.00     0.029 A 
ATOM     66  C   UNL A   1      44.753  24.667  30.058  1.00  0.00     0.049 A 
ATOM     67  H   UNL A   1      45.090  24.281  28.010  1.00  0.00     0.167 HD
ATOM     68  C   UNL A   1      45.703  26.375  31.426  1.00  0.00     0.074 A 
ATOM     69  C   UNL A   1      45.469  25.661  32.663  1.00  0.00     0.031 C 
ATOM     70  C   UNL A   1      45.502  25.903  30.169  1.00  0.00     0.037 A 
BRANCH  57  71
ATOM     71  C   UNL A   1      42.939  22.588  26.560  1.00  0.00     0.058 A 
ATOM     72  C   UNL A   1      42.476  21.247  26.514  1.00  0.00     0.135 A 
ATOM     73  C   UNL A   1      43.995  22.905  25.697  1.00  0.00     0.135 A 
ATOM     74  F   UNL A   1      41.418  20.859  27.247  1.00  0.00    -0.206 F 
ATOM     75  C   UNL A   1      43.122  20.253  25.788  1.00  0.00     0.059 A 
ATOM     76  C   UNL A   1      44.633  21.928  24.923  1.00  0.00     0.059 A 
ATOM     77  F   UNL A   1      44.495  24.147  25.641  1.00  0.00    -0.206 F 
ATOM     78  C   UNL A   1      44.230  20.597  25.026  1.00  0.00     0.060 A 
BRANCH  78  79
ATOM     79  S   UNL A   1      45.161  19.276  24.222  1.00  0.00     0.124 S 
ATOM     80  O   UNL A   1      44.602  19.299  22.875  1.00  0.00    -0.237 OA
ATOM     81  O   UNL A   1      46.538  19.746  24.344  1.00  0.00    -0.237 OA
ATOM     82  O   UNL A   1      44.835  18.102  25.026  1.00  0.00    -0.744 OA
ENDBRANCH  78  79
ENDBRANCH  57  71
BRANCH  58  83
ATOM     83  C   UNL A   1      44.174  29.426  34.547  1.00  0.00     0.058 A 
ATOM     84  C   UNL A   1      45.034  30.512  34.769  1.00  0.00     0.135 A 
ATOM     85  C   UNL A   1      43.432  29.036  35.695  1.00  0.00     0.135 A 
ATOM     86  F   UNL A   1      45.965  30.866  33.879  1.00  0.00    -0.206 F 
ATOM     87  C   UNL A   1      44.992  31.283  35.941  1.00  0.00     0.059 A 
ATOM     88  C   UNL A   1      43.350  29.798  36.857  1.00  0.00     0.059 A 
ATOM     89  F   UNL A   1      42.721  27.902  35.721  1.00  0.00    -0.206 F 
ATOM     90  C   UNL A   1      44.099  30.954  36.954  1.00  0.00     0.060 A 
BRANCH  90  91
ATOM     91  S   UNL A   1      43.825  32.080  38.333  1.00  0.00     0.124 S 
ATOM     92  O   UNL A   1      45.060  31.934  39.093  1.00  0.00    -0.237 OA
ATOM     93  O   UNL A   1      43.637  33.362  37.661  1.00  0.00    -0.237 OA
ATOM     94  O   UNL A   1      42.625  31.538  38.965  1.00  0.00    -0.744 OA
ENDBRANCH  90  91
ENDBRANCH  58  83
BRANCH  70  95
ATOM     95  C   UNL A   1      45.723  26.928  29.068  1.00  0.00     0.058 A 
ATOM     96  C   UNL A   1      47.011  27.433  28.824  1.00  0.00     0.135 A 
ATOM     97  C   UNL A   1      44.690  27.498  28.305  1.00  0.00     0.135 A 
ATOM     98  F   UNL A   1      48.062  26.938  29.499  1.00  0.00    -0.206 F 
ATOM     99  C   UNL A   1      47.256  28.449  27.894  1.00  0.00     0.059 A 
ATOM    100  C   UNL A   1      44.905  28.504  27.358  1.00  0.00     0.059 A 
ATOM    101  F   UNL A   1      43.429  27.098  28.463  1.00  0.00    -0.206 F 
ATOM    102  C   UNL A   1      46.195  28.981  27.163  1.00  0.00     0.060 A 
BRANCH 102 103
ATOM    103  S   UNL A   1      46.522  30.287  25.955  1.00  0.00     0.124 S 
ATOM    104  O   UNL A   1      47.793  30.832  26.421  1.00  0.00    -0.237 OA
ATOM    105  O   UNL A   1      46.573  29.540  24.704  1.00  0.00    -0.237 OA
ATOM    106  O   UNL A   1      45.376  31.184  26.099  1.00  0.00    -0.744 OA
ENDBRANCH 102 103
ENDBRANCH  70  95
ENDBRANCH  44  45
ENDBRANCH  36  39
ENDBRANCH  34  35
ENDBRANCH  33  34
ENDBRANCH  32  33
ENDBRANCH   1  32
TORSDOF 20
ENDMDL
MODEL 3
REMARK VINA RESULT:      -9.4      5.030     11.019
REMARK SMILES CN(C)S(=O)(=O)c1ccc(-n2c(CCC(=O)NCCCCNC(=O)c3ccc(-c4c5nc(c(-c6c(F)cc(S(=O)(=O)[O-])cc6F)c6ccc([nH]6)c(-c6c(F)cc(S(=O)(=O)[O-])cc6F)c6nc(c(-c7c(F)cc(S(=O)(=O)[O-])cc7F)c7ccc4[nH]7)C=C6)C=C5)cc3)ccc2-c2ccc(F)cc2)cc1
REMARK SMILES IDX 18 1 17 2 15 3 16 4 14 6 13 7 12 8 11 9 93 10 91 11 92 12
REMARK SMILES IDX 10 13 7 14 8 15 102 16 9 17 101 18 4 19 5 20 6 21 2 22 1 23
REMARK SMILES IDX 3 24 94 25 95 26 100 27 96 28 99 29 97 30 98 31 19 32 20 33
REMARK SMILES IDX 21 34 22 35 23 36 24 38 25 39 26 40 90 41 27 42 89 43 28 44
REMARK SMILES IDX 29 45 30 46 83 47 31 48 88 49 82 50 84 51 32 52 87 53 81 54
REMARK SMILES IDX 80 55 33 57 67 58 46 59 66 60 47 61 50 62 65 63 85 64 48 65
REMARK SMILES IDX 49 66 64 68 86 69 51 70 34 71 35 72 44 73 36 74 37 75 43 76
REMARK SMILES IDX 45 77 38 78 39 79 40 80 41 81 42 82 68 83 69 84 78 85 70 86
REMARK SMILES IDX 71 87 77 88 79 89 72 90 73 91 74 92 75 93 76 94 52 95 53 96
REMARK SMILES IDX 62 97 54 98 55 99 61 100 63 101 56 102 57 103 58 104 59 105
REMARK SMILES IDX 60 106
REMARK H PARENT 17 5 22 37 84 56 50 67
REMARK Flexibility Score: inf
ROOT
ATOM      1  C   UNL A   1      35.586  32.394  28.023  1.00  0.00     0.116 C 
ENDROOT
BRANCH   1   2
ATOM      2  N   UNL A   1      36.440  31.368  28.592  1.00  0.00    -0.356 N 
ATOM      3  C   UNL A   1      36.445  30.025  28.340  1.00  0.00     0.220 C 
ATOM      4  O   UNL A   1      37.171  29.298  29.020  1.00  0.00    -0.275 OA
ATOM      5  H   UNL A   1      37.105  31.681  29.247  1.00  0.00     0.163 HD
BRANCH   3   6
ATOM      6  C   UNL A   1      35.558  29.433  27.253  1.00  0.00     0.106 C 
BRANCH   6   7
ATOM      7  C   UNL A   1      34.119  29.077  27.691  1.00  0.00     0.064 C 
BRANCH   7   8
ATOM      8  C   UNL A   1      33.033  29.678  26.810  1.00  0.00     0.024 A 
ATOM      9  N   UNL A   1      32.465  29.176  25.605  1.00  0.00    -0.314 N 
ATOM     10  C   UNL A   1      31.492  30.131  25.194  1.00  0.00     0.053 A 
ATOM     11  C   UNL A   1      32.442  30.899  27.092  1.00  0.00     0.024 A 
ATOM     12  C   UNL A   1      31.505  31.181  26.098  1.00  0.00     0.029 A 
BRANCH   9  13
ATOM     13  C   UNL A   1      32.696  27.878  24.978  1.00  0.00     0.046 A 
ATOM     14  C   UNL A   1      32.841  25.394  23.609  1.00  0.00     0.082 A 
ATOM     15  C   UNL A   1      33.550  26.497  23.137  1.00  0.00     0.024 A 
ATOM     16  C   UNL A   1      32.108  25.502  24.779  1.00  0.00     0.024 A 
ATOM     17  C   UNL A   1      33.486  27.727  23.827  1.00  0.00     0.028 A 
ATOM     18  C   UNL A   1      32.050  26.728  25.445  1.00  0.00     0.028 A 
BRANCH  14  19
ATOM     19  S   UNL A   1      32.977  23.805  22.826  1.00  0.00     0.242 S 
ATOM     20  O   UNL A   1      33.522  24.009  21.497  1.00  0.00    -0.207 OA
ATOM     21  O   UNL A   1      31.701  23.145  23.002  1.00  0.00    -0.207 OA
BRANCH  19  22
ATOM     22  N   UNL A   1      34.152  22.958  23.737  1.00  0.00    -0.204 NA
ATOM     23  C   UNL A   1      35.227  23.872  24.219  1.00  0.00     0.124 C 
ATOM     24  C   UNL A   1      33.638  22.148  24.870  1.00  0.00     0.124 C 
ENDBRANCH  19  22
ENDBRANCH  14  19
ENDBRANCH   9  13
BRANCH  10  25
ATOM     25  C   UNL A   1      30.422  29.967  24.194  1.00  0.00    -0.001 A 
ATOM     26  C   UNL A   1      30.379  28.886  23.310  1.00  0.00     0.013 A 
ATOM     27  C   UNL A   1      29.485  30.990  24.027  1.00  0.00     0.013 A 
ATOM     28  C   UNL A   1      29.394  28.831  22.313  1.00  0.00     0.040 A 
ATOM     29  C   UNL A   1      28.512  30.955  23.031  1.00  0.00     0.040 A 
ATOM     30  C   UNL A   1      28.472  29.867  22.183  1.00  0.00     0.123 A 
ATOM     31  F   UNL A   1      27.541  29.814  21.221  1.00  0.00    -0.207 F 
ENDBRANCH  10  25
ENDBRANCH   7   8
ENDBRANCH   6   7
ENDBRANCH   3   6
ENDBRANCH   1   2
BRANCH   1  32
ATOM     32  C   UNL A   1      34.516  32.797  29.021  1.00  0.00     0.023 C 
BRANCH  32  33
ATOM     33  C   UNL A   1      34.329  34.301  29.203  1.00  0.00     0.023 C 
BRANCH  33  34
ATOM     34  C   UNL A   1      34.670  34.759  30.612  1.00  0.00     0.116 C 
BRANCH  34  35
ATOM     35  N   UNL A   1      33.726  34.326  31.651  1.00  0.00    -0.352 N 
ATOM     36  C   UNL A   1      33.936  33.445  32.696  1.00  0.00     0.251 C 
ATOM     37  H   UNL A   1      32.824  34.715  31.598  1.00  0.00     0.163 HD
ATOM     38  O   UNL A   1      33.028  33.046  33.388  1.00  0.00    -0.269 OA
BRANCH  36  39
ATOM     39  C   UNL A   1      35.316  32.979  32.896  1.00  0.00     0.039 A 
ATOM     40  C   UNL A   1      35.783  31.879  32.173  1.00  0.00     0.014 A 
ATOM     41  C   UNL A   1      36.160  33.757  33.687  1.00  0.00     0.014 A 
ATOM     42  C   UNL A   1      37.148  31.633  32.153  1.00  0.00     0.010 A 
ATOM     43  C   UNL A   1      37.516  33.600  33.559  1.00  0.00     0.010 A 
ATOM     44  C   UNL A   1      38.009  32.529  32.801  1.00  0.00    -0.014 A 
BRANCH  44  45
ATOM     45  C   UNL A   1      39.471  32.401  32.677  1.00  0.00     0.031 A 
ATOM     46  C   UNL A   1      40.063  31.335  33.601  1.00  0.00     0.074 A 
ATOM     47  C   UNL A   1      40.021  33.189  31.708  1.00  0.00     0.049 A 
ATOM     48  N   UNL A   1      41.262  31.239  34.085  1.00  0.00    -0.248 NA
ATOM     49  C   UNL A   1      39.182  30.265  34.147  1.00  0.00     0.031 C 
ATOM     50  C   UNL A   1      39.248  34.182  30.927  1.00  0.00     0.029 A 
ATOM     51  N   UNL A   1      41.273  33.320  31.147  1.00  0.00    -0.354 N 
ATOM     52  C   UNL A   1      41.340  30.025  34.802  1.00  0.00     0.074 A 
ATOM     53  C   UNL A   1      39.995  29.548  34.929  1.00  0.00     0.031 C 
ATOM     54  C   UNL A   1      40.029  34.812  30.037  1.00  0.00     0.029 A 
ATOM     55  C   UNL A   1      41.382  34.316  30.142  1.00  0.00     0.049 A 
ATOM     56  H   UNL A   1      42.036  32.761  31.423  1.00  0.00     0.167 HD
ATOM     57  C   UNL A   1      42.527  29.418  35.111  1.00  0.00     0.037 A 
ATOM     58  C   UNL A   1      42.487  34.761  29.471  1.00  0.00     0.037 A 
ATOM     59  C   UNL A   1      43.603  30.163  34.537  1.00  0.00     0.049 A 
ATOM     60  C   UNL A   1      43.589  33.879  29.892  1.00  0.00     0.074 A 
ATOM     61  C   UNL A   1      44.159  31.375  34.848  1.00  0.00     0.029 A 
ATOM     62  N   UNL A   1      43.989  29.802  33.267  1.00  0.00    -0.354 N 
ATOM     63  N   UNL A   1      43.726  32.636  29.539  1.00  0.00    -0.248 NA
ATOM     64  C   UNL A   1      44.533  34.369  30.905  1.00  0.00     0.031 C 
ATOM     65  C   UNL A   1      44.488  31.921  33.590  1.00  0.00     0.029 A 
ATOM     66  C   UNL A   1      44.309  30.955  32.592  1.00  0.00     0.049 A 
ATOM     67  H   UNL A   1      44.029  28.886  32.907  1.00  0.00     0.167 HD
ATOM     68  C   UNL A   1      44.538  32.127  30.527  1.00  0.00     0.074 A 
ATOM     69  C   UNL A   1      45.223  33.254  31.122  1.00  0.00     0.031 C 
ATOM     70  C   UNL A   1      44.198  30.968  31.147  1.00  0.00     0.037 A 
BRANCH  57  71
ATOM     71  C   UNL A   1      42.879  28.062  35.663  1.00  0.00     0.058 A 
ATOM     72  C   UNL A   1      44.013  27.975  36.513  1.00  0.00     0.135 A 
ATOM     73  C   UNL A   1      42.398  26.850  35.152  1.00  0.00     0.135 A 
ATOM     74  F   UNL A   1      44.506  29.070  37.115  1.00  0.00    -0.206 F 
ATOM     75  C   UNL A   1      44.718  26.792  36.706  1.00  0.00     0.059 A 
ATOM     76  C   UNL A   1      43.068  25.640  35.371  1.00  0.00     0.059 A 
ATOM     77  F   UNL A   1      41.319  26.812  34.359  1.00  0.00    -0.206 F 
ATOM     78  C   UNL A   1      44.260  25.634  36.094  1.00  0.00     0.060 A 
BRANCH  78  79
ATOM     79  S   UNL A   1      45.271  24.144  36.214  1.00  0.00     0.124 S 
ATOM     80  O   UNL A   1      44.598  23.255  35.273  1.00  0.00    -0.237 OA
ATOM     81  O   UNL A   1      46.586  24.625  35.799  1.00  0.00    -0.237 OA
ATOM     82  O   UNL A   1      45.162  23.780  37.623  1.00  0.00    -0.744 OA
ENDBRANCH  78  79
ENDBRANCH  57  71
BRANCH  58  83
ATOM     83  C   UNL A   1      42.815  35.982  28.639  1.00  0.00     0.058 A 
ATOM     84  C   UNL A   1      42.687  36.103  27.247  1.00  0.00     0.135 A 
ATOM     85  C   UNL A   1      43.161  37.196  29.292  1.00  0.00     0.135 A 
ATOM     86  F   UNL A   1      42.593  35.033  26.454  1.00  0.00    -0.206 F 
ATOM     87  C   UNL A   1      42.671  37.345  26.594  1.00  0.00     0.059 A 
ATOM     88  C   UNL A   1      43.123  38.443  28.675  1.00  0.00     0.059 A 
ATOM     89  F   UNL A   1      43.520  37.224  30.582  1.00  0.00    -0.206 F 
ATOM     90  C   UNL A   1      42.826  38.515  27.328  1.00  0.00     0.060 A 
BRANCH  90  91
ATOM     91  S   UNL A   1      42.529  40.119  26.565  1.00  0.00     0.124 S 
ATOM     92  O   UNL A   1      43.627  40.209  25.612  1.00  0.00    -0.237 OA
ATOM     93  O   UNL A   1      41.197  39.954  25.992  1.00  0.00    -0.237 OA
ATOM     94  O   UNL A   1      42.598  41.039  27.699  1.00  0.00    -0.744 OA
ENDBRANCH  90  91
ENDBRANCH  58  83
BRANCH  70  95
ATOM     95  C   UNL A   1      43.374  30.015  30.296  1.00  0.00     0.058 A 
ATOM     96  C   UNL A   1      43.965  29.356  29.204  1.00  0.00     0.135 A 
ATOM     97  C   UNL A   1      41.996  29.801  30.463  1.00  0.00     0.135 A 
ATOM     98  F   UNL A   1      45.282  29.492  28.974  1.00  0.00    -0.206 F 
ATOM     99  C   UNL A   1      43.232  28.547  28.329  1.00  0.00     0.059 A 
ATOM    100  C   UNL A   1      41.239  28.988  29.613  1.00  0.00     0.059 A 
ATOM    101  F   UNL A   1      41.335  30.386  31.462  1.00  0.00    -0.206 F 
ATOM    102  C   UNL A   1      41.866  28.369  28.540  1.00  0.00     0.060 A 
BRANCH 102 103
ATOM    103  S   UNL A   1      40.928  27.314  27.409  1.00  0.00     0.124 S 
ATOM    104  O   UNL A   1      39.640  27.199  28.086  1.00  0.00    -0.237 OA
ATOM    105  O   UNL A   1      40.931  28.102  26.182  1.00  0.00    -0.237 OA
ATOM    106  O   UNL A   1      41.712  26.081  27.359  1.00  0.00    -0.744 OA
ENDBRANCH 102 103
ENDBRANCH  70  95
ENDBRANCH  44  45
ENDBRANCH  36  39
ENDBRANCH  34  35
ENDBRANCH  33  34
ENDBRANCH  32  33
ENDBRANCH   1  32
TORSDOF 20
ENDMDL
