MODEL 1
REMARK VINA RESULT:     -13.4      0.000      0.000
REMARK SMILES CC1=C[C@H](C)[C@H](CN2C[C@@]34C=C[C@@H](O3)[C@H](C(=O)NCCCCNC(=O)c3ccc(-c5c6nc(c(-c7c(F)cc(S(=O)(=O)[O-])cc7F)c7ccc([nH]7)c(-c7c(F)cc(S(=O)(=O)[O-])cc7F)c7nc(c(-c8c(F)cc(S(=O)(=O)[O-])cc8F)c8ccc5[nH]8)C=C7)C=C6)cc3)[C@@H]4C2=O)[C@H](C)C1
REMARK SMILES IDX 21 1 20 2 19 3 18 4 16 5 17 6 15 8 8 9 9 10 93 11 10 12
REMARK SMILES IDX 92 13 94 14 11 15 14 16 12 17 13 18 7 19 6 20 1 21 2 22 3 23
REMARK SMILES IDX 97 24 4 25 95 26 5 27 96 28 22 29 23 30 24 31 25 33 26 34
REMARK SMILES IDX 27 35 91 36 28 37 90 38 29 39 30 40 31 41 84 42 32 43 89 44
REMARK SMILES IDX 83 45 85 46 33 47 88 48 82 49 81 50 34 52 68 53 47 54 67 55
REMARK SMILES IDX 48 56 51 57 66 58 86 59 49 60 50 61 65 63 87 64 52 65 35 66
REMARK SMILES IDX 36 67 45 68 37 69 38 70 44 71 46 72 39 73 40 74 41 75 42 76
REMARK SMILES IDX 43 77 69 78 70 79 79 80 71 81 72 82 78 83 80 84 73 85 74 86
REMARK SMILES IDX 75 87 76 88 77 89 53 90 54 91 63 92 55 93 56 94 62 95 64 96
REMARK SMILES IDX 57 97 58 98 59 99 60 100 61 101
REMARK H PARENT 18 7 23 32 85 51 51 62
REMARK Flexibility Score: inf
ROOT
ATOM      1  C   UNL A   1      31.782  32.144  26.751  1.00  0.00     0.023 C 
ENDROOT
BRANCH   1   2
ATOM      2  C   UNL A   1      31.650  30.616  26.502  1.00  0.00     0.023 C 
BRANCH   2   3
ATOM      3  C   UNL A   1      32.039  29.245  27.279  1.00  0.00     0.116 C 
BRANCH   3   4
ATOM      4  N   UNL A   1      31.436  27.797  27.128  1.00  0.00    -0.356 N 
ATOM      5  C   UNL A   1      31.238  26.808  26.094  1.00  0.00     0.227 C 
ATOM      6  O   UNL A   1      31.030  25.639  26.412  1.00  0.00    -0.275 OA
ATOM      7  H   UNL A   1      31.094  27.470  27.993  1.00  0.00     0.163 HD
BRANCH   5   8
ATOM      8  C   UNL A   1      31.158  27.321  24.641  1.00  0.00     0.127 C 
ATOM      9  N   UNL A   1      33.918  25.264  24.821  1.00  0.00    -0.339 N 
ATOM     10  C   UNL A   1      33.651  25.204  23.202  1.00  0.00     0.160 C 
ATOM     11  C   UNL A   1      33.547  26.531  25.113  1.00  0.00     0.230 C 
ATOM     12  C   UNL A   1      32.899  26.652  22.877  1.00  0.00     0.117 C 
ATOM     13  C   UNL A   1      32.347  26.545  24.253  1.00  0.00     0.132 C 
ATOM     14  O   UNL A   1      34.033  27.358  25.878  1.00  0.00    -0.274 OA
ATOM     15  C   UNL A   1      33.624  27.931  22.692  1.00  0.00     0.009 C 
ATOM     16  O   UNL A   1      31.587  27.096  22.419  1.00  0.00    -0.360 OA
ATOM     17  C   UNL A   1      32.815  28.899  23.162  1.00  0.00     0.004 C 
ATOM     18  C   UNL A   1      31.456  28.284  23.492  1.00  0.00     0.155 C 
BRANCH   9  19
ATOM     19  C   UNL A   1      34.450  24.462  25.973  1.00  0.00     0.124 C 
BRANCH  19  20
ATOM     20  C   UNL A   1      34.962  22.731  26.169  1.00  0.00     0.018 C 
ATOM     21  C   UNL A   1      33.798  18.664  24.432  1.00  0.00     0.039 C 
ATOM     22  C   UNL A   1      34.188  19.940  25.126  1.00  0.00    -0.077 C 
ATOM     23  C   UNL A   1      33.391  20.593  25.977  1.00  0.00    -0.025 C 
ATOM     24  C   UNL A   1      35.568  20.391  24.852  1.00  0.00     0.034 C 
ATOM     25  C   UNL A   1      33.737  21.855  26.736  1.00  0.00     0.014 C 
ATOM     26  C   UNL A   1      36.120  21.522  25.757  1.00  0.00    -0.005 C 
ATOM     27  C   UNL A   1      32.434  22.597  27.014  1.00  0.00     0.012 C 
ATOM     28  C   UNL A   1      37.612  21.532  25.311  1.00  0.00     0.008 C 
ENDBRANCH  19  20
ENDBRANCH   9  19
ENDBRANCH   5   8
ENDBRANCH   3   4
ENDBRANCH   2   3
ENDBRANCH   1   2
BRANCH   1  29
ATOM     29  C   UNL A   1      33.024  32.719  27.375  1.00  0.00     0.116 C 
BRANCH  29  30
ATOM     30  N   UNL A   1      32.824  34.123  27.648  1.00  0.00    -0.352 N 
ATOM     31  C   UNL A   1      33.245  34.801  28.766  1.00  0.00     0.251 C 
ATOM     32  H   UNL A   1      32.341  34.644  26.967  1.00  0.00     0.163 HD
ATOM     33  O   UNL A   1      32.674  35.827  29.114  1.00  0.00    -0.269 OA
BRANCH  31  34
ATOM     34  C   UNL A   1      34.401  34.271  29.525  1.00  0.00     0.039 A 
ATOM     35  C   UNL A   1      35.701  34.543  29.095  1.00  0.00     0.014 A 
ATOM     36  C   UNL A   1      34.182  33.478  30.658  1.00  0.00     0.014 A 
ATOM     37  C   UNL A   1      36.783  34.004  29.796  1.00  0.00     0.010 A 
ATOM     38  C   UNL A   1      35.257  33.025  31.407  1.00  0.00     0.010 A 
ATOM     39  C   UNL A   1      36.566  33.235  30.951  1.00  0.00    -0.014 A 
BRANCH  39  40
ATOM     40  C   UNL A   1      37.677  32.536  31.641  1.00  0.00     0.031 A 
ATOM     41  C   UNL A   1      38.108  33.017  33.003  1.00  0.00     0.074 A 
ATOM     42  C   UNL A   1      38.332  31.532  31.029  1.00  0.00     0.049 A 
ATOM     43  N   UNL A   1      39.108  32.620  33.746  1.00  0.00    -0.248 NA
ATOM     44  C   UNL A   1      37.339  34.130  33.586  1.00  0.00     0.031 C 
ATOM     45  C   UNL A   1      38.043  31.029  29.685  1.00  0.00     0.029 A 
ATOM     46  N   UNL A   1      39.383  30.764  31.455  1.00  0.00    -0.354 N 
ATOM     47  C   UNL A   1      39.108  33.458  34.856  1.00  0.00     0.074 A 
ATOM     48  C   UNL A   1      38.059  34.431  34.654  1.00  0.00     0.031 C 
ATOM     49  C   UNL A   1      38.882  30.017  29.407  1.00  0.00     0.029 A 
ATOM     50  C   UNL A   1      39.783  29.820  30.539  1.00  0.00     0.049 A 
ATOM     51  H   UNL A   1      39.812  30.876  32.334  1.00  0.00     0.167 HD
ATOM     52  C   UNL A   1      39.887  33.400  35.962  1.00  0.00     0.037 A 
ATOM     53  C   UNL A   1      40.763  28.900  30.611  1.00  0.00     0.037 A 
ATOM     54  C   UNL A   1      40.886  32.389  36.173  1.00  0.00     0.049 A 
ATOM     55  C   UNL A   1      41.580  28.810  31.871  1.00  0.00     0.074 A 
ATOM     56  C   UNL A   1      41.677  32.175  37.286  1.00  0.00     0.029 A 
ATOM     57  N   UNL A   1      41.223  31.412  35.245  1.00  0.00    -0.354 N 
ATOM     58  N   UNL A   1      41.522  29.562  32.946  1.00  0.00    -0.248 NA
ATOM     59  C   UNL A   1      42.585  27.741  31.938  1.00  0.00     0.031 C 
ATOM     60  C   UNL A   1      42.520  31.091  37.016  1.00  0.00     0.029 A 
ATOM     61  C   UNL A   1      42.220  30.599  35.754  1.00  0.00     0.049 A 
ATOM     62  H   UNL A   1      40.811  31.312  34.356  1.00  0.00     0.167 HD
ATOM     63  C   UNL A   1      42.467  29.046  33.825  1.00  0.00     0.074 A 
ATOM     64  C   UNL A   1      43.073  27.909  33.160  1.00  0.00     0.031 C 
ATOM     65  C   UNL A   1      42.801  29.470  35.070  1.00  0.00     0.037 A 
BRANCH  52  66
ATOM     66  C   UNL A   1      39.672  34.455  37.016  1.00  0.00     0.058 A 
ATOM     67  C   UNL A   1      40.315  35.704  36.956  1.00  0.00     0.135 A 
ATOM     68  C   UNL A   1      38.835  34.207  38.115  1.00  0.00     0.135 A 
ATOM     69  F   UNL A   1      41.138  35.993  35.936  1.00  0.00    -0.206 F 
ATOM     70  C   UNL A   1      40.183  36.641  37.976  1.00  0.00     0.059 A 
ATOM     71  C   UNL A   1      38.661  35.145  39.130  1.00  0.00     0.059 A 
ATOM     72  F   UNL A   1      38.190  33.034  38.225  1.00  0.00    -0.206 F 
ATOM     73  C   UNL A   1      39.362  36.349  39.064  1.00  0.00     0.060 A 
BRANCH  73  74
ATOM     74  S   UNL A   1      39.234  37.558  40.399  1.00  0.00     0.124 S 
ATOM     75  O   UNL A   1      40.581  38.117  40.414  1.00  0.00    -0.237 OA
ATOM     76  O   UNL A   1      38.183  38.449  39.914  1.00  0.00    -0.237 OA
ATOM     77  O   UNL A   1      38.876  36.747  41.559  1.00  0.00    -0.744 OA
ENDBRANCH  73  74
ENDBRANCH  52  66
BRANCH  53  78
ATOM     78  C   UNL A   1      40.976  27.965  29.474  1.00  0.00     0.058 A 
ATOM     79  C   UNL A   1      42.079  28.111  28.620  1.00  0.00     0.135 A 
ATOM     80  C   UNL A   1      40.122  26.873  29.258  1.00  0.00     0.135 A 
ATOM     81  F   UNL A   1      42.923  29.141  28.784  1.00  0.00    -0.206 F 
ATOM     82  C   UNL A   1      42.331  27.206  27.594  1.00  0.00     0.059 A 
ATOM     83  C   UNL A   1      40.365  25.942  28.251  1.00  0.00     0.059 A 
ATOM     84  F   UNL A   1      39.064  26.678  30.060  1.00  0.00    -0.206 F 
ATOM     85  C   UNL A   1      41.472  26.118  27.422  1.00  0.00     0.060 A 
BRANCH  85  86
ATOM     86  S   UNL A   1      41.859  24.903  26.143  1.00  0.00     0.124 S 
ATOM     87  O   UNL A   1      40.746  23.971  26.276  1.00  0.00    -0.237 OA
ATOM     88  O   UNL A   1      41.864  25.723  24.935  1.00  0.00    -0.237 OA
ATOM     89  O   UNL A   1      43.165  24.393  26.549  1.00  0.00    -0.744 OA
ENDBRANCH  85  86
ENDBRANCH  53  78
BRANCH  65  90
ATOM     90  C   UNL A   1      43.854  28.690  35.806  1.00  0.00     0.058 A 
ATOM     91  C   UNL A   1      43.526  27.584  36.604  1.00  0.00     0.135 A 
ATOM     92  C   UNL A   1      45.212  29.011  35.649  1.00  0.00     0.135 A 
ATOM     93  F   UNL A   1      42.242  27.239  36.788  1.00  0.00    -0.206 F 
ATOM     94  C   UNL A   1      44.509  26.830  37.234  1.00  0.00     0.059 A 
ATOM     95  C   UNL A   1      46.212  28.255  36.248  1.00  0.00     0.059 A 
ATOM     96  F   UNL A   1      45.577  30.054  34.887  1.00  0.00    -0.206 F 
ATOM     97  C   UNL A   1      45.851  27.171  37.046  1.00  0.00     0.060 A 
BRANCH  97  98
ATOM     98  S   UNL A   1      47.119  26.155  37.832  1.00  0.00     0.124 S 
ATOM     99  O   UNL A   1      46.912  26.467  39.243  1.00  0.00    -0.237 OA
ATOM    100  O   UNL A   1      46.740  24.807  37.419  1.00  0.00    -0.237 OA
ATOM    101  O   UNL A   1      48.362  26.656  37.253  1.00  0.00    -0.744 OA
ENDBRANCH  97  98
ENDBRANCH  65  90
ENDBRANCH  39  40
ENDBRANCH  31  34
ENDBRANCH  29  30
ENDBRANCH   1  29
TORSDOF 16
ENDMDL
MODEL 2
REMARK VINA RESULT:     -13.3      6.122     12.054
REMARK SMILES CC1=C[C@H](C)[C@H](CN2C[C@@]34C=C[C@@H](O3)[C@H](C(=O)NCCCCNC(=O)c3ccc(-c5c6nc(c(-c7c(F)cc(S(=O)(=O)[O-])cc7F)c7ccc([nH]7)c(-c7c(F)cc(S(=O)(=O)[O-])cc7F)c7nc(c(-c8c(F)cc(S(=O)(=O)[O-])cc8F)c8ccc5[nH]8)C=C7)C=C6)cc3)[C@@H]4C2=O)[C@H](C)C1
REMARK SMILES IDX 21 1 20 2 19 3 18 4 16 5 17 6 15 8 8 9 9 10 93 11 10 12
REMARK SMILES IDX 92 13 94 14 11 15 14 16 12 17 13 18 7 19 6 20 1 21 2 22 3 23
REMARK SMILES IDX 97 24 4 25 95 26 5 27 96 28 22 29 23 30 24 31 25 33 26 34
REMARK SMILES IDX 27 35 91 36 28 37 90 38 29 39 30 40 31 41 84 42 32 43 89 44
REMARK SMILES IDX 83 45 85 46 33 47 88 48 82 49 81 50 34 52 68 53 47 54 67 55
REMARK SMILES IDX 48 56 51 57 66 58 86 59 49 60 50 61 65 63 87 64 52 65 35 66
REMARK SMILES IDX 36 67 45 68 37 69 38 70 44 71 46 72 39 73 40 74 41 75 42 76
REMARK SMILES IDX 43 77 69 78 70 79 79 80 71 81 72 82 78 83 80 84 73 85 74 86
REMARK SMILES IDX 75 87 76 88 77 89 53 90 54 91 63 92 55 93 56 94 62 95 64 96
REMARK SMILES IDX 57 97 58 98 59 99 60 100 61 101
REMARK H PARENT 18 7 23 32 85 51 51 62
REMARK Flexibility Score: inf
ROOT
ATOM      1  C   UNL A   1      38.553  19.681  25.351  1.00  0.00     0.023 C 
ENDROOT
BRANCH   1   2
ATOM      2  C   UNL A   1      37.395  20.613  24.900  1.00  0.00     0.023 C 
BRANCH   2   3
ATOM      3  C   UNL A   1      37.233  22.132  24.351  1.00  0.00     0.116 C 
BRANCH   3   4
ATOM      4  N   UNL A   1      36.117  22.756  23.429  1.00  0.00    -0.356 N 
ATOM      5  C   UNL A   1      34.692  22.990  23.461  1.00  0.00     0.227 C 
ATOM      6  O   UNL A   1      34.201  23.814  22.691  1.00  0.00    -0.275 OA
ATOM      7  H   UNL A   1      36.505  23.082  22.584  1.00  0.00     0.163 HD
BRANCH   5   8
ATOM      8  C   UNL A   1      33.852  22.072  24.373  1.00  0.00     0.127 C 
ATOM      9  N   UNL A   1      33.453  25.286  25.554  1.00  0.00    -0.339 N 
ATOM     10  C   UNL A   1      32.104  24.604  26.191  1.00  0.00     0.160 C 
ATOM     11  C   UNL A   1      34.333  24.261  25.612  1.00  0.00     0.230 C 
ATOM     12  C   UNL A   1      32.519  23.002  26.361  1.00  0.00     0.117 C 
ATOM     13  C   UNL A   1      33.386  23.217  25.172  1.00  0.00     0.132 C 
ATOM     14  O   UNL A   1      35.527  24.237  25.892  1.00  0.00    -0.274 OA
ATOM     15  C   UNL A   1      33.304  22.474  27.502  1.00  0.00     0.009 C 
ATOM     16  O   UNL A   1      32.108  21.724  25.791  1.00  0.00    -0.360 OA
ATOM     17  C   UNL A   1      34.038  21.454  27.020  1.00  0.00     0.004 C 
ATOM     18  C   UNL A   1      33.603  21.172  25.583  1.00  0.00     0.155 C 
BRANCH   9  19
ATOM     19  C   UNL A   1      34.002  26.582  25.029  1.00  0.00     0.124 C 
BRANCH  19  20
ATOM     20  C   UNL A   1      33.274  28.213  24.697  1.00  0.00     0.018 C 
ATOM     21  C   UNL A   1      29.310  29.867  23.128  1.00  0.00     0.039 C 
ATOM     22  C   UNL A   1      30.677  29.418  23.566  1.00  0.00    -0.077 C 
ATOM     23  C   UNL A   1      31.548  28.801  22.761  1.00  0.00    -0.025 C 
ATOM     24  C   UNL A   1      31.023  29.777  24.957  1.00  0.00     0.034 C 
ATOM     25  C   UNL A   1      32.947  28.361  23.129  1.00  0.00     0.014 C 
ATOM     26  C   UNL A   1      32.509  29.605  25.367  1.00  0.00    -0.005 C 
ATOM     27  C   UNL A   1      33.306  27.177  22.239  1.00  0.00     0.012 C 
ATOM     28  C   UNL A   1      32.492  30.286  26.767  1.00  0.00     0.008 C 
ENDBRANCH  19  20
ENDBRANCH   9  19
ENDBRANCH   5   8
ENDBRANCH   3   4
ENDBRANCH   2   3
ENDBRANCH   1   2
BRANCH   1  29
ATOM     29  C   UNL A   1      39.721  20.224  26.128  1.00  0.00     0.116 C 
BRANCH  29  30
ATOM     30  N   UNL A   1      40.759  19.223  26.205  1.00  0.00    -0.352 N 
ATOM     31  C   UNL A   1      42.108  19.439  26.052  1.00  0.00     0.251 C 
ATOM     32  H   UNL A   1      40.474  18.298  26.383  1.00  0.00     0.163 HD
ATOM     33  O   UNL A   1      42.841  18.523  25.698  1.00  0.00    -0.269 OA
BRANCH  31  34
ATOM     34  C   UNL A   1      42.647  20.788  26.335  1.00  0.00     0.039 A 
ATOM     35  C   UNL A   1      42.660  21.273  27.644  1.00  0.00     0.014 A 
ATOM     36  C   UNL A   1      43.121  21.580  25.282  1.00  0.00     0.014 A 
ATOM     37  C   UNL A   1      43.134  22.564  27.893  1.00  0.00     0.010 A 
ATOM     38  C   UNL A   1      43.680  22.822  25.544  1.00  0.00     0.010 A 
ATOM     39  C   UNL A   1      43.639  23.348  26.843  1.00  0.00    -0.014 A 
BRANCH  39  40
ATOM     40  C   UNL A   1      44.024  24.766  27.044  1.00  0.00     0.031 A 
ATOM     41  C   UNL A   1      45.458  25.172  26.819  1.00  0.00     0.074 A 
ATOM     42  C   UNL A   1      43.119  25.658  27.487  1.00  0.00     0.049 A 
ATOM     43  N   UNL A   1      46.035  26.327  27.023  1.00  0.00    -0.248 NA
ATOM     44  C   UNL A   1      46.378  24.122  26.347  1.00  0.00     0.031 C 
ATOM     45  C   UNL A   1      41.721  25.361  27.802  1.00  0.00     0.029 A 
ATOM     46  N   UNL A   1      43.246  26.995  27.760  1.00  0.00    -0.354 N 
ATOM     47  C   UNL A   1      47.383  26.129  26.744  1.00  0.00     0.074 A 
ATOM     48  C   UNL A   1      47.551  24.728  26.429  1.00  0.00     0.031 C 
ATOM     49  C   UNL A   1      41.112  26.490  28.201  1.00  0.00     0.029 A 
ATOM     50  C   UNL A   1      42.082  27.582  28.197  1.00  0.00     0.049 A 
ATOM     51  H   UNL A   1      44.091  27.489  27.653  1.00  0.00     0.167 HD
ATOM     52  C   UNL A   1      48.387  27.038  26.714  1.00  0.00     0.037 A 
ATOM     53  C   UNL A   1      41.831  28.856  28.549  1.00  0.00     0.037 A 
ATOM     54  C   UNL A   1      48.191  28.438  26.971  1.00  0.00     0.049 A 
ATOM     55  C   UNL A   1      42.941  29.866  28.453  1.00  0.00     0.074 A 
ATOM     56  C   UNL A   1      49.110  29.467  26.889  1.00  0.00     0.029 A 
ATOM     57  N   UNL A   1      46.983  29.005  27.354  1.00  0.00    -0.354 N 
ATOM     58  N   UNL A   1      44.197  29.680  28.116  1.00  0.00    -0.248 NA
ATOM     59  C   UNL A   1      42.604  31.260  28.770  1.00  0.00     0.031 C 
ATOM     60  C   UNL A   1      48.465  30.653  27.258  1.00  0.00     0.029 A 
ATOM     61  C   UNL A   1      47.133  30.370  27.525  1.00  0.00     0.049 A 
ATOM     62  H   UNL A   1      46.143  28.509  27.484  1.00  0.00     0.167 HD
ATOM     63  C   UNL A   1      44.794  30.935  28.160  1.00  0.00     0.074 A 
ATOM     64  C   UNL A   1      43.758  31.873  28.544  1.00  0.00     0.031 C 
ATOM     65  C   UNL A   1      46.081  31.280  27.904  1.00  0.00     0.037 A 
BRANCH  52  66
ATOM     66  C   UNL A   1      49.768  26.534  26.384  1.00  0.00     0.058 A 
ATOM     67  C   UNL A   1      50.242  26.482  25.062  1.00  0.00     0.135 A 
ATOM     68  C   UNL A   1      50.621  26.072  27.399  1.00  0.00     0.135 A 
ATOM     69  F   UNL A   1      49.465  26.898  24.047  1.00  0.00    -0.206 F 
ATOM     70  C   UNL A   1      51.482  25.935  24.752  1.00  0.00     0.059 A 
ATOM     71  C   UNL A   1      51.882  25.552  27.115  1.00  0.00     0.059 A 
ATOM     72  F   UNL A   1      50.226  26.100  28.681  1.00  0.00    -0.206 F 
ATOM     73  C   UNL A   1      52.292  25.462  25.785  1.00  0.00     0.060 A 
BRANCH  73  74
ATOM     74  S   UNL A   1      53.882  24.718  25.365  1.00  0.00     0.124 S 
ATOM     75  O   UNL A   1      54.318  25.570  24.264  1.00  0.00    -0.237 OA
ATOM     76  O   UNL A   1      54.632  24.858  26.610  1.00  0.00    -0.237 OA
ATOM     77  O   UNL A   1      53.530  23.349  25.000  1.00  0.00    -0.744 OA
ENDBRANCH  73  74
ENDBRANCH  52  66
BRANCH  53  78
ATOM     78  C   UNL A   1      40.457  29.244  28.967  1.00  0.00     0.058 A 
ATOM     79  C   UNL A   1      40.146  29.444  30.320  1.00  0.00     0.135 A 
ATOM     80  C   UNL A   1      39.448  29.486  28.022  1.00  0.00     0.135 A 
ATOM     81  F   UNL A   1      41.077  29.222  31.262  1.00  0.00    -0.206 F 
ATOM     82  C   UNL A   1      38.886  29.872  30.723  1.00  0.00     0.059 A 
ATOM     83  C   UNL A   1      38.186  29.936  28.399  1.00  0.00     0.059 A 
ATOM     84  F   UNL A   1      39.701  29.329  26.713  1.00  0.00    -0.206 F 
ATOM     85  C   UNL A   1      37.913  30.124  29.753  1.00  0.00     0.060 A 
BRANCH  85  86
ATOM     86  S   UNL A   1      36.309  30.764  30.283  1.00  0.00     0.124 S 
ATOM     87  O   UNL A   1      36.662  32.104  30.737  1.00  0.00    -0.237 OA
ATOM     88  O   UNL A   1      35.530  30.692  29.050  1.00  0.00    -0.237 OA
ATOM     89  O   UNL A   1      35.902  29.828  31.327  1.00  0.00    -0.744 OA
ENDBRANCH  85  86
ENDBRANCH  53  78
BRANCH  65  90
ATOM     90  C   UNL A   1      46.439  32.736  28.006  1.00  0.00     0.058 A 
ATOM     91  C   UNL A   1      46.218  33.625  26.942  1.00  0.00     0.135 A 
ATOM     92  C   UNL A   1      46.938  33.260  29.210  1.00  0.00     0.135 A 
ATOM     93  F   UNL A   1      45.746  33.173  25.770  1.00  0.00    -0.206 F 
ATOM     94  C   UNL A   1      46.495  34.981  27.064  1.00  0.00     0.059 A 
ATOM     95  C   UNL A   1      47.196  34.617  29.362  1.00  0.00     0.059 A 
ATOM     96  F   UNL A   1      47.155  32.452  30.260  1.00  0.00    -0.206 F 
ATOM     97  C   UNL A   1      46.980  35.469  28.280  1.00  0.00     0.060 A 
BRANCH  97  98
ATOM     98  S   UNL A   1      47.290  37.240  28.440  1.00  0.00     0.124 S 
ATOM     99  O   UNL A   1      48.734  37.267  28.646  1.00  0.00    -0.237 OA
ATOM    100  O   UNL A   1      46.823  37.756  27.156  1.00  0.00    -0.237 OA
ATOM    101  O   UNL A   1      46.483  37.624  29.594  1.00  0.00    -0.744 OA
ENDBRANCH  97  98
ENDBRANCH  65  90
ENDBRANCH  39  40
ENDBRANCH  31  34
ENDBRANCH  29  30
ENDBRANCH   1  29
TORSDOF 16
ENDMDL
MODEL 3
REMARK VINA RESULT:     -13.1      6.201      8.315
REMARK SMILES CC1=C[C@H](C)[C@H](CN2C[C@@]34C=C[C@@H](O3)[C@H](C(=O)NCCCCNC(=O)c3ccc(-c5c6nc(c(-c7c(F)cc(S(=O)(=O)[O-])cc7F)c7ccc([nH]7)c(-c7c(F)cc(S(=O)(=O)[O-])cc7F)c7nc(c(-c8c(F)cc(S(=O)(=O)[O-])cc8F)c8ccc5[nH]8)C=C7)C=C6)cc3)[C@@H]4C2=O)[C@H](C)C1
REMARK SMILES IDX 21 1 20 2 19 3 18 4 16 5 17 6 15 8 8 9 9 10 93 11 10 12
REMARK SMILES IDX 92 13 94 14 11 15 14 16 12 17 13 18 7 19 6 20 1 21 2 22 3 23
REMARK SMILES IDX 97 24 4 25 95 26 5 27 96 28 22 29 23 30 24 31 25 33 26 34
REMARK SMILES IDX 27 35 91 36 28 37 90 38 29 39 30 40 31 41 84 42 32 43 89 44
REMARK SMILES IDX 83 45 85 46 33 47 88 48 82 49 81 50 34 52 68 53 47 54 67 55
REMARK SMILES IDX 48 56 51 57 66 58 86 59 49 60 50 61 65 63 87 64 52 65 35 66
REMARK SMILES IDX 36 67 45 68 37 69 38 70 44 71 46 72 39 73 40 74 41 75 42 76
REMARK SMILES IDX 43 77 69 78 70 79 79 80 71 81 72 82 78 83 80 84 73 85 74 86
REMARK SMILES IDX 75 87 76 88 77 89 53 90 54 91 63 92 55 93 56 94 62 95 64 96
REMARK SMILES IDX 57 97 58 98 59 99 60 100 61 101
REMARK H PARENT 18 7 23 32 85 51 51 62
REMARK Flexibility Score: inf
ROOT
ATOM      1  C   UNL A   1      34.231  29.984  27.277  1.00  0.00     0.023 C 
ENDROOT
BRANCH   1   2
ATOM      2  C   UNL A   1      33.345  28.818  26.757  1.00  0.00     0.023 C 
BRANCH   2   3
ATOM      3  C   UNL A   1      32.216  27.818  27.360  1.00  0.00     0.116 C 
BRANCH   3   4
ATOM      4  N   UNL A   1      31.537  26.556  26.706  1.00  0.00    -0.356 N 
ATOM      5  C   UNL A   1      31.174  26.079  25.392  1.00  0.00     0.227 C 
ATOM      6  O   UNL A   1      30.954  24.881  25.227  1.00  0.00    -0.275 OA
ATOM      7  H   UNL A   1      31.286  25.899  27.397  1.00  0.00     0.163 HD
BRANCH   5   8
ATOM      8  C   UNL A   1      30.945  27.145  24.300  1.00  0.00     0.127 C 
ATOM      9  N   UNL A   1      33.234  24.899  23.036  1.00  0.00    -0.339 N 
ATOM     10  C   UNL A   1      32.683  25.534  21.626  1.00  0.00     0.160 C 
ATOM     11  C   UNL A   1      33.177  25.970  23.860  1.00  0.00     0.230 C 
ATOM     12  C   UNL A   1      32.185  27.062  22.053  1.00  0.00     0.117 C 
ATOM     13  C   UNL A   1      31.872  26.467  23.380  1.00  0.00     0.132 C 
ATOM     14  O   UNL A   1      33.941  26.355  24.738  1.00  0.00    -0.274 OA
ATOM     15  C   UNL A   1      33.104  28.216  22.193  1.00  0.00     0.009 C 
ATOM     16  O   UNL A   1      30.927  27.797  22.121  1.00  0.00    -0.360 OA
ATOM     17  C   UNL A   1      32.596  28.992  23.168  1.00  0.00     0.004 C 
ATOM     18  C   UNL A   1      31.221  28.452  23.558  1.00  0.00     0.155 C 
BRANCH   9  19
ATOM     19  C   UNL A   1      33.791  23.644  23.643  1.00  0.00     0.124 C 
BRANCH  19  20
ATOM     20  C   UNL A   1      33.085  22.326  24.675  1.00  0.00     0.018 C 
ATOM     21  C   UNL A   1      33.375  17.773  24.974  1.00  0.00     0.039 C 
ATOM     22  C   UNL A   1      33.143  19.257  24.896  1.00  0.00    -0.077 C 
ATOM     23  C   UNL A   1      32.500  19.854  23.887  1.00  0.00    -0.025 C 
ATOM     24  C   UNL A   1      33.624  20.014  26.069  1.00  0.00     0.034 C 
ATOM     25  C   UNL A   1      32.202  21.332  23.769  1.00  0.00     0.014 C 
ATOM     26  C   UNL A   1      33.157  21.489  26.179  1.00  0.00    -0.005 C 
ATOM     27  C   UNL A   1      32.101  21.663  22.285  1.00  0.00     0.012 C 
ATOM     28  C   UNL A   1      33.666  21.835  27.610  1.00  0.00     0.008 C 
ENDBRANCH  19  20
ENDBRANCH   9  19
ENDBRANCH   5   8
ENDBRANCH   3   4
ENDBRANCH   2   3
ENDBRANCH   1   2
BRANCH   1  29
ATOM     29  C   UNL A   1      35.543  29.710  27.957  1.00  0.00     0.116 C 
BRANCH  29  30
ATOM     30  N   UNL A   1      35.505  30.220  29.308  1.00  0.00    -0.352 N 
ATOM     31  C   UNL A   1      36.472  30.046  30.269  1.00  0.00     0.251 C 
ATOM     32  H   UNL A   1      34.712  30.743  29.565  1.00  0.00     0.163 HD
ATOM     33  O   UNL A   1      36.178  30.116  31.456  1.00  0.00    -0.269 OA
BRANCH  31  34
ATOM     34  C   UNL A   1      37.864  29.786  29.838  1.00  0.00     0.039 A 
ATOM     35  C   UNL A   1      38.233  29.999  28.508  1.00  0.00     0.014 A 
ATOM     36  C   UNL A   1      38.798  29.306  30.763  1.00  0.00     0.014 A 
ATOM     37  C   UNL A   1      39.539  29.712  28.103  1.00  0.00     0.010 A 
ATOM     38  C   UNL A   1      40.118  29.114  30.381  1.00  0.00     0.010 A 
ATOM     39  C   UNL A   1      40.486  29.259  29.036  1.00  0.00    -0.014 A 
BRANCH  39  40
ATOM     40  C   UNL A   1      41.839  28.816  28.621  1.00  0.00     0.031 A 
ATOM     41  C   UNL A   1      42.951  29.832  28.555  1.00  0.00     0.074 A 
ATOM     42  C   UNL A   1      42.050  27.542  28.245  1.00  0.00     0.049 A 
ATOM     43  N   UNL A   1      44.180  29.690  28.132  1.00  0.00    -0.248 NA
ATOM     44  C   UNL A   1      42.620  31.205  28.973  1.00  0.00     0.031 C 
ATOM     45  C   UNL A   1      41.032  26.491  28.206  1.00  0.00     0.029 A 
ATOM     46  N   UNL A   1      43.191  26.918  27.812  1.00  0.00    -0.354 N 
ATOM     47  C   UNL A   1      44.749  30.958  28.198  1.00  0.00     0.074 A 
ATOM     48  C   UNL A   1      43.712  31.868  28.628  1.00  0.00     0.031 C 
ATOM     49  C   UNL A   1      41.601  25.344  27.798  1.00  0.00     0.029 A 
ATOM     50  C   UNL A   1      43.014  25.587  27.519  1.00  0.00     0.049 A 
ATOM     51  H   UNL A   1      44.056  27.379  27.720  1.00  0.00     0.167 HD
ATOM     52  C   UNL A   1      46.030  31.327  27.959  1.00  0.00     0.037 A 
ATOM     53  C   UNL A   1      43.895  24.669  27.080  1.00  0.00     0.037 A 
ATOM     54  C   UNL A   1      47.063  30.399  27.590  1.00  0.00     0.049 A 
ATOM     55  C   UNL A   1      45.328  25.081  26.876  1.00  0.00     0.074 A 
ATOM     56  C   UNL A   1      48.412  30.637  27.403  1.00  0.00     0.029 A 
ATOM     57  N   UNL A   1      46.857  29.045  27.359  1.00  0.00    -0.354 N 
ATOM     58  N   UNL A   1      45.870  26.269  27.013  1.00  0.00    -0.248 NA
ATOM     59  C   UNL A   1      46.272  24.031  26.473  1.00  0.00     0.031 C 
ATOM     60  C   UNL A   1      49.015  29.433  27.023  1.00  0.00     0.029 A 
ATOM     61  C   UNL A   1      48.051  28.435  27.019  1.00  0.00     0.049 A 
ATOM     62  H   UNL A   1      45.988  28.587  27.427  1.00  0.00     0.167 HD
ATOM     63  C   UNL A   1      47.222  26.106  26.734  1.00  0.00     0.074 A 
ATOM     64  C   UNL A   1      47.416  24.701  26.433  1.00  0.00     0.031 C 
ATOM     65  C   UNL A   1      48.214  27.032  26.729  1.00  0.00     0.037 A 
BRANCH  52  66
ATOM     66  C   UNL A   1      46.368  32.788  28.101  1.00  0.00     0.058 A 
ATOM     67  C   UNL A   1      46.813  33.331  29.319  1.00  0.00     0.135 A 
ATOM     68  C   UNL A   1      46.220  33.665  27.015  1.00  0.00     0.135 A 
ATOM     69  F   UNL A   1      46.961  32.543  30.397  1.00  0.00    -0.206 F 
ATOM     70  C   UNL A   1      47.039  34.695  29.471  1.00  0.00     0.059 A 
ATOM     71  C   UNL A   1      46.474  35.029  27.135  1.00  0.00     0.059 A 
ATOM     72  F   UNL A   1      45.802  33.205  25.825  1.00  0.00    -0.206 F 
ATOM     73  C   UNL A   1      46.857  35.538  28.376  1.00  0.00     0.060 A 
BRANCH  73  74
ATOM     74  S   UNL A   1      47.115  37.311  28.598  1.00  0.00     0.124 S 
ATOM     75  O   UNL A   1      45.896  37.857  28.011  1.00  0.00    -0.237 OA
ATOM     76  O   UNL A   1      47.229  37.432  30.049  1.00  0.00    -0.237 OA
ATOM     77  O   UNL A   1      48.343  37.572  27.853  1.00  0.00    -0.744 OA
ENDBRANCH  73  74
ENDBRANCH  52  66
BRANCH  53  78
ATOM     78  C   UNL A   1      43.447  23.267  26.862  1.00  0.00     0.058 A 
ATOM     79  C   UNL A   1      43.311  22.749  25.566  1.00  0.00     0.135 A 
ATOM     80  C   UNL A   1      43.212  22.401  27.941  1.00  0.00     0.135 A 
ATOM     81  F   UNL A   1      43.523  23.539  24.502  1.00  0.00    -0.206 F 
ATOM     82  C   UNL A   1      42.959  21.422  25.346  1.00  0.00     0.059 A 
ATOM     83  C   UNL A   1      42.879  21.064  27.745  1.00  0.00     0.059 A 
ATOM     84  F   UNL A   1      43.348  22.844  29.201  1.00  0.00    -0.206 F 
ATOM     85  C   UNL A   1      42.754  20.583  26.443  1.00  0.00     0.060 A 
BRANCH  85  86
ATOM     86  S   UNL A   1      42.384  18.840  26.143  1.00  0.00     0.124 S 
ATOM     87  O   UNL A   1      40.981  18.900  25.749  1.00  0.00    -0.237 OA
ATOM     88  O   UNL A   1      43.331  18.506  25.084  1.00  0.00    -0.237 OA
ATOM     89  O   UNL A   1      42.653  18.213  27.433  1.00  0.00    -0.744 OA
ENDBRANCH  85  86
ENDBRANCH  53  78
BRANCH  65  90
ATOM     90  C   UNL A   1      49.603  26.555  26.411  1.00  0.00     0.058 A 
ATOM     91  C   UNL A   1      50.481  26.123  27.417  1.00  0.00     0.135 A 
ATOM     92  C   UNL A   1      50.031  26.458  25.077  1.00  0.00     0.135 A 
ATOM     93  F   UNL A   1      50.120  26.199  28.708  1.00  0.00    -0.206 F 
ATOM     94  C   UNL A   1      51.743  25.626  27.112  1.00  0.00     0.059 A 
ATOM     95  C   UNL A   1      51.277  25.940  24.748  1.00  0.00     0.059 A 
ATOM     96  F   UNL A   1      49.223  26.848  24.078  1.00  0.00    -0.206 F 
ATOM     97  C   UNL A   1      52.131  25.534  25.773  1.00  0.00     0.060 A 
BRANCH  97  98
ATOM     98  S   UNL A   1      53.753  24.843  25.388  1.00  0.00     0.124 S 
ATOM     99  O   UNL A   1      54.187  25.705  24.294  1.00  0.00    -0.237 OA
ATOM    100  O   UNL A   1      54.470  25.009  26.649  1.00  0.00    -0.237 OA
ATOM    101  O   UNL A   1      53.456  23.462  25.021  1.00  0.00    -0.744 OA
ENDBRANCH  97  98
ENDBRANCH  65  90
ENDBRANCH  39  40
ENDBRANCH  31  34
ENDBRANCH  29  30
ENDBRANCH   1  29
TORSDOF 16
ENDMDL
