MODEL 1
REMARK VINA RESULT:     -11.6      0.000      0.000
REMARK SMILES CC(=O)c1cc(C(=O)NC[C@H]2CC[C@H](C(=O)NCCCCNC(=O)c3ccc(-c4c5nc(c(-c6c(F)cc(S(=O)(=O)[O-])cc6F)c6ccc([nH]6)c(-c6c(F)cc(S(=O)(=O)[O-])cc6F)c6nc(c(-c7c(F)cc(S(=O)(=O)[O-])cc7F)c7ccc4[nH]7)C=C6)C=C5)cc3)O2)n(C)c1
REMARK SMILES IDX 19 1 18 2 17 3 15 4 16 5 14 7 11 8 12 9 91 10 13 11 10 12
REMARK SMILES IDX 9 13 7 14 8 15 6 17 4 18 5 19 94 20 92 21 93 22 2 23 1 24
REMARK SMILES IDX 3 25 20 26 21 27 22 28 23 29 24 31 25 32 26 33 90 34 27 35
REMARK SMILES IDX 89 36 28 37 29 38 30 39 83 40 31 41 88 42 82 43 84 44 32 45
REMARK SMILES IDX 87 46 81 47 80 48 33 50 67 51 46 52 66 53 47 54 50 55 65 56
REMARK SMILES IDX 85 57 48 58 49 59 64 61 86 62 51 63 34 64 35 65 44 66 36 67
REMARK SMILES IDX 37 68 43 69 45 70 38 71 39 72 40 73 41 74 42 75 68 76 69 77
REMARK SMILES IDX 78 78 70 79 71 80 77 81 79 82 72 83 73 84 74 85 75 86 76 87
REMARK SMILES IDX 52 88 53 89 62 90 54 91 55 92 61 93 63 94 56 95 57 96 58 97
REMARK SMILES IDX 59 98 60 99
REMARK H PARENT 17 6 9 16 22 30 84 49 50 60
REMARK Flexibility Score: inf
ROOT
ATOM      1  C   UNL A   1      35.345  32.819  28.101  1.00  0.00     0.023 C 
ENDROOT
BRANCH   1   2
ATOM      2  C   UNL A   1      35.018  31.384  27.682  1.00  0.00     0.116 C 
BRANCH   2   3
ATOM      3  N   UNL A   1      33.598  31.116  27.756  1.00  0.00    -0.354 N 
ATOM      4  C   UNL A   1      32.851  30.184  27.096  1.00  0.00     0.249 C 
ATOM      5  O   UNL A   1      31.639  30.151  27.331  1.00  0.00    -0.272 OA
ATOM      6  H   UNL A   1      33.095  31.693  28.375  1.00  0.00     0.163 HD
BRANCH   4   7
ATOM      7  C   UNL A   1      33.465  29.244  26.033  1.00  0.00     0.207 C 
ATOM      8  C   UNL A   1      32.686  27.787  24.380  1.00  0.00     0.138 C 
ATOM      9  C   UNL A   1      32.763  26.980  25.669  1.00  0.00     0.037 C 
ATOM     10  O   UNL A   1      32.789  29.160  24.774  1.00  0.00    -0.363 OA
ATOM     11  C   UNL A   1      33.654  27.824  26.552  1.00  0.00     0.045 C 
BRANCH   8  12
ATOM     12  C   UNL A   1      33.862  27.337  23.521  1.00  0.00     0.148 C 
BRANCH  12  13
ATOM     13  N   UNL A   1      33.625  26.942  22.164  1.00  0.00    -0.348 N 
ATOM     14  C   UNL A   1      33.188  25.708  21.741  1.00  0.00     0.268 C 
ATOM     15  O   UNL A   1      32.988  25.564  20.534  1.00  0.00    -0.268 OA
ATOM     16  H   UNL A   1      33.789  27.619  21.468  1.00  0.00     0.163 HD
BRANCH  14  17
ATOM     17  C   UNL A   1      33.078  24.592  22.677  1.00  0.00     0.107 A 
ATOM     18  C   UNL A   1      33.715  22.753  23.906  1.00  0.00     0.036 A 
ATOM     19  C   UNL A   1      34.101  23.667  22.892  1.00  0.00     0.045 A 
ATOM     20  C   UNL A   1      32.446  23.134  24.284  1.00  0.00     0.097 A 
ATOM     21  N   UNL A   1      32.028  24.159  23.471  1.00  0.00    -0.346 N 
ATOM     22  C   UNL A   1      30.645  24.580  23.467  1.00  0.00     0.150 C 
BRANCH  18  23
ATOM     23  C   UNL A   1      34.443  21.621  24.478  1.00  0.00     0.161 C 
ATOM     24  C   UNL A   1      35.773  21.887  25.131  1.00  0.00     0.093 C 
ATOM     25  O   UNL A   1      33.982  20.480  24.447  1.00  0.00    -0.294 OA
ENDBRANCH  18  23
ENDBRANCH  14  17
ENDBRANCH  12  13
ENDBRANCH   8  12
ENDBRANCH   4   7
ENDBRANCH   2   3
ENDBRANCH   1   2
BRANCH   1  26
ATOM     26  C   UNL A   1      36.730  33.027  28.697  1.00  0.00     0.023 C 
BRANCH  26  27
ATOM     27  C   UNL A   1      36.765  32.958  30.217  1.00  0.00     0.116 C 
BRANCH  27  28
ATOM     28  N   UNL A   1      36.201  31.734  30.772  1.00  0.00    -0.352 N 
ATOM     29  C   UNL A   1      36.800  30.493  30.830  1.00  0.00     0.251 C 
ATOM     30  H   UNL A   1      35.294  31.800  31.148  1.00  0.00     0.163 HD
ATOM     31  O   UNL A   1      36.198  29.521  31.256  1.00  0.00    -0.269 OA
BRANCH  29  32
ATOM     32  C   UNL A   1      38.173  30.375  30.302  1.00  0.00     0.039 A 
ATOM     33  C   UNL A   1      39.243  30.410  31.197  1.00  0.00     0.014 A 
ATOM     34  C   UNL A   1      38.374  30.086  28.950  1.00  0.00     0.014 A 
ATOM     35  C   UNL A   1      40.517  30.072  30.744  1.00  0.00     0.010 A 
ATOM     36  C   UNL A   1      39.626  29.667  28.524  1.00  0.00     0.010 A 
ATOM     37  C   UNL A   1      40.709  29.654  29.417  1.00  0.00    -0.014 A 
BRANCH  37  38
ATOM     38  C   UNL A   1      42.034  29.194  28.936  1.00  0.00     0.031 A 
ATOM     39  C   UNL A   1      43.163  30.180  28.812  1.00  0.00     0.074 A 
ATOM     40  C   UNL A   1      42.195  27.918  28.536  1.00  0.00     0.049 A 
ATOM     41  N   UNL A   1      44.369  29.998  28.344  1.00  0.00    -0.248 NA
ATOM     42  C   UNL A   1      42.885  31.561  29.237  1.00  0.00     0.031 C 
ATOM     43  C   UNL A   1      41.151  26.889  28.539  1.00  0.00     0.029 A 
ATOM     44  N   UNL A   1      43.295  27.270  28.033  1.00  0.00    -0.354 N 
ATOM     45  C   UNL A   1      44.985  31.241  28.397  1.00  0.00     0.074 A 
ATOM     46  C   UNL A   1      44.002  32.181  28.889  1.00  0.00     0.031 C 
ATOM     47  C   UNL A   1      41.667  25.737  28.081  1.00  0.00     0.029 A 
ATOM     48  C   UNL A   1      43.066  25.950  27.723  1.00  0.00     0.049 A 
ATOM     49  H   UNL A   1      44.166  27.709  27.906  1.00  0.00     0.167 HD
ATOM     50  C   UNL A   1      46.263  31.565  28.092  1.00  0.00     0.037 A 
ATOM     51  C   UNL A   1      43.891  25.019  27.207  1.00  0.00     0.037 A 
ATOM     52  C   UNL A   1      47.245  30.617  27.640  1.00  0.00     0.049 A 
ATOM     53  C   UNL A   1      45.318  25.392  26.912  1.00  0.00     0.074 A 
ATOM     54  C   UNL A   1      48.586  30.825  27.377  1.00  0.00     0.029 A 
ATOM     55  N   UNL A   1      46.989  29.277  27.387  1.00  0.00    -0.354 N 
ATOM     56  N   UNL A   1      45.909  26.556  27.045  1.00  0.00    -0.248 NA
ATOM     57  C   UNL A   1      46.195  24.326  26.408  1.00  0.00     0.031 C 
ATOM     58  C   UNL A   1      49.136  29.618  26.933  1.00  0.00     0.029 A 
ATOM     59  C   UNL A   1      48.145  28.648  26.956  1.00  0.00     0.049 A 
ATOM     60  H   UNL A   1      46.116  28.838  27.498  1.00  0.00     0.167 HD
ATOM     61  C   UNL A   1      47.230  26.358  26.663  1.00  0.00     0.074 A 
ATOM     62  C   UNL A   1      47.356  24.960  26.305  1.00  0.00     0.031 C 
ATOM     63  C   UNL A   1      48.249  27.252  26.611  1.00  0.00     0.037 A 
BRANCH  50  64
ATOM     64  C   UNL A   1      46.666  33.005  28.248  1.00  0.00     0.058 A 
ATOM     65  C   UNL A   1      46.548  33.920  27.189  1.00  0.00     0.135 A 
ATOM     66  C   UNL A   1      47.169  33.479  29.469  1.00  0.00     0.135 A 
ATOM     67  F   UNL A   1      46.090  33.515  25.993  1.00  0.00    -0.206 F 
ATOM     68  C   UNL A   1      46.951  35.244  27.323  1.00  0.00     0.059 A 
ATOM     69  C   UNL A   1      47.553  34.807  29.635  1.00  0.00     0.059 A 
ATOM     70  F   UNL A   1      47.305  32.646  30.513  1.00  0.00    -0.206 F 
ATOM     71  C   UNL A   1      47.457  35.677  28.550  1.00  0.00     0.060 A 
BRANCH  71  72
ATOM     72  S   UNL A   1      47.988  37.395  28.706  1.00  0.00     0.124 S 
ATOM     73  O   UNL A   1      48.805  37.337  29.914  1.00  0.00    -0.237 OA
ATOM     74  O   UNL A   1      48.715  37.613  27.459  1.00  0.00    -0.237 OA
ATOM     75  O   UNL A   1      46.731  38.127  28.832  1.00  0.00    -0.744 OA
ENDBRANCH  71  72
ENDBRANCH  50  64
BRANCH  51  76
ATOM     76  C   UNL A   1      43.395  23.638  26.969  1.00  0.00     0.058 A 
ATOM     77  C   UNL A   1      43.091  23.194  25.674  1.00  0.00     0.135 A 
ATOM     78  C   UNL A   1      43.238  22.727  28.026  1.00  0.00     0.135 A 
ATOM     79  F   UNL A   1      43.221  24.031  24.632  1.00  0.00    -0.206 F 
ATOM     80  C   UNL A   1      42.638  21.901  25.433  1.00  0.00     0.059 A 
ATOM     81  C   UNL A   1      42.808  21.423  27.808  1.00  0.00     0.059 A 
ATOM     82  F   UNL A   1      43.533  23.098  29.282  1.00  0.00    -0.206 F 
ATOM     83  C   UNL A   1      42.502  21.022  26.508  1.00  0.00     0.060 A 
BRANCH  83  84
ATOM     84  S   UNL A   1      41.972  19.326  26.178  1.00  0.00     0.124 S 
ATOM     85  O   UNL A   1      42.325  18.661  27.427  1.00  0.00    -0.237 OA
ATOM     86  O   UNL A   1      40.544  19.494  25.924  1.00  0.00    -0.237 OA
ATOM     87  O   UNL A   1      42.766  18.948  25.012  1.00  0.00    -0.744 OA
ENDBRANCH  83  84
ENDBRANCH  51  76
BRANCH  63  88
ATOM     88  C   UNL A   1      49.593  26.741  26.178  1.00  0.00     0.058 A 
ATOM     89  C   UNL A   1      50.071  26.942  24.875  1.00  0.00     0.135 A 
ATOM     90  C   UNL A   1      50.436  26.094  27.096  1.00  0.00     0.135 A 
ATOM     91  F   UNL A   1      49.300  27.550  23.959  1.00  0.00    -0.206 F 
ATOM     92  C   UNL A   1      51.331  26.500  24.489  1.00  0.00     0.059 A 
ATOM     93  C   UNL A   1      51.709  25.666  26.738  1.00  0.00     0.059 A 
ATOM     94  F   UNL A   1      50.030  25.887  28.358  1.00  0.00    -0.206 F 
ATOM     95  C   UNL A   1      52.144  25.864  25.428  1.00  0.00     0.060 A 
BRANCH  95  96
ATOM     96  S   UNL A   1      53.793  25.326  24.927  1.00  0.00     0.124 S 
ATOM     97  O   UNL A   1      54.615  25.850  26.012  1.00  0.00    -0.237 OA
ATOM     98  O   UNL A   1      53.650  23.874  24.884  1.00  0.00    -0.237 OA
ATOM     99  O   UNL A   1      53.978  25.969  23.629  1.00  0.00    -0.744 OA
ENDBRANCH  95  96
ENDBRANCH  63  88
ENDBRANCH  37  38
ENDBRANCH  29  32
ENDBRANCH  27  28
ENDBRANCH  26  27
ENDBRANCH   1  26
TORSDOF 18
ENDMDL
MODEL 2
REMARK VINA RESULT:     -11.6      6.557     11.880
REMARK SMILES CC(=O)c1cc(C(=O)NC[C@H]2CC[C@H](C(=O)NCCCCNC(=O)c3ccc(-c4c5nc(c(-c6c(F)cc(S(=O)(=O)[O-])cc6F)c6ccc([nH]6)c(-c6c(F)cc(S(=O)(=O)[O-])cc6F)c6nc(c(-c7c(F)cc(S(=O)(=O)[O-])cc7F)c7ccc4[nH]7)C=C6)C=C5)cc3)O2)n(C)c1
REMARK SMILES IDX 19 1 18 2 17 3 15 4 16 5 14 7 11 8 12 9 91 10 13 11 10 12
REMARK SMILES IDX 9 13 7 14 8 15 6 17 4 18 5 19 94 20 92 21 93 22 2 23 1 24
REMARK SMILES IDX 3 25 20 26 21 27 22 28 23 29 24 31 25 32 26 33 90 34 27 35
REMARK SMILES IDX 89 36 28 37 29 38 30 39 83 40 31 41 88 42 82 43 84 44 32 45
REMARK SMILES IDX 87 46 81 47 80 48 33 50 67 51 46 52 66 53 47 54 50 55 65 56
REMARK SMILES IDX 85 57 48 58 49 59 64 61 86 62 51 63 34 64 35 65 44 66 36 67
REMARK SMILES IDX 37 68 43 69 45 70 38 71 39 72 40 73 41 74 42 75 68 76 69 77
REMARK SMILES IDX 78 78 70 79 71 80 77 81 79 82 72 83 73 84 74 85 75 86 76 87
REMARK SMILES IDX 52 88 53 89 62 90 54 91 55 92 61 93 63 94 56 95 57 96 58 97
REMARK SMILES IDX 59 98 60 99
REMARK H PARENT 17 6 9 16 22 30 84 49 50 60
REMARK Flexibility Score: inf
ROOT
ATOM      1  C   UNL A   1      38.886  23.150  26.399  1.00  0.00     0.023 C 
ENDROOT
BRANCH   1   2
ATOM      2  C   UNL A   1      37.857  22.220  25.753  1.00  0.00     0.116 C 
BRANCH   2   3
ATOM      3  N   UNL A   1      37.623  22.561  24.367  1.00  0.00    -0.354 N 
ATOM      4  C   UNL A   1      36.446  22.714  23.693  1.00  0.00     0.249 C 
ATOM      5  O   UNL A   1      36.507  23.012  22.496  1.00  0.00    -0.272 OA
ATOM      6  H   UNL A   1      38.434  22.705  23.829  1.00  0.00     0.163 HD
BRANCH   4   7
ATOM      7  C   UNL A   1      35.077  22.456  24.364  1.00  0.00     0.207 C 
ATOM      8  C   UNL A   1      33.314  20.939  24.130  1.00  0.00     0.138 C 
ATOM      9  C   UNL A   1      33.036  22.081  23.161  1.00  0.00     0.037 C 
ATOM     10  O   UNL A   1      34.682  21.089  24.526  1.00  0.00    -0.363 OA
ATOM     11  C   UNL A   1      33.939  23.186  23.663  1.00  0.00     0.045 C 
BRANCH   8  12
ATOM     12  C   UNL A   1      32.347  21.119  25.295  1.00  0.00     0.148 C 
BRANCH  12  13
ATOM     13  N   UNL A   1      32.871  21.388  26.601  1.00  0.00    -0.348 N 
ATOM     14  C   UNL A   1      32.542  22.456  27.405  1.00  0.00     0.268 C 
ATOM     15  O   UNL A   1      33.055  22.498  28.523  1.00  0.00    -0.268 OA
ATOM     16  H   UNL A   1      33.528  20.748  26.958  1.00  0.00     0.163 HD
BRANCH  14  17
ATOM     17  C   UNL A   1      31.709  23.544  26.898  1.00  0.00     0.107 A 
ATOM     18  C   UNL A   1      31.172  25.591  25.992  1.00  0.00     0.036 A 
ATOM     19  C   UNL A   1      32.220  24.779  26.498  1.00  0.00     0.045 A 
ATOM     20  C   UNL A   1      30.028  24.831  26.110  1.00  0.00     0.097 A 
ATOM     21  N   UNL A   1      30.336  23.659  26.754  1.00  0.00    -0.346 N 
ATOM     22  C   UNL A   1      29.289  22.789  27.244  1.00  0.00     0.150 C 
BRANCH  18  23
ATOM     23  C   UNL A   1      31.210  26.949  25.453  1.00  0.00     0.161 C 
ATOM     24  C   UNL A   1      30.847  27.151  24.007  1.00  0.00     0.093 C 
ATOM     25  O   UNL A   1      31.515  27.911  26.159  1.00  0.00    -0.294 OA
ENDBRANCH  18  23
ENDBRANCH  14  17
ENDBRANCH  12  13
ENDBRANCH   8  12
ENDBRANCH   4   7
ENDBRANCH   2   3
ENDBRANCH   1   2
BRANCH   1  26
ATOM     26  C   UNL A   1      40.047  22.456  27.099  1.00  0.00     0.023 C 
BRANCH  26  27
ATOM     27  C   UNL A   1      41.335  23.265  27.108  1.00  0.00     0.116 C 
BRANCH  27  28
ATOM     28  N   UNL A   1      41.454  24.213  26.006  1.00  0.00    -0.352 N 
ATOM     29  C   UNL A   1      41.505  25.587  26.094  1.00  0.00     0.251 C 
ATOM     30  H   UNL A   1      41.503  23.829  25.102  1.00  0.00     0.163 HD
ATOM     31  O   UNL A   1      41.533  26.283  25.091  1.00  0.00    -0.269 OA
BRANCH  29  32
ATOM     32  C   UNL A   1      41.465  26.186  27.442  1.00  0.00     0.039 A 
ATOM     33  C   UNL A   1      42.544  26.963  27.864  1.00  0.00     0.014 A 
ATOM     34  C   UNL A   1      40.302  26.090  28.209  1.00  0.00     0.014 A 
ATOM     35  C   UNL A   1      42.422  27.717  29.030  1.00  0.00     0.010 A 
ATOM     36  C   UNL A   1      40.153  26.907  29.320  1.00  0.00     0.010 A 
ATOM     37  C   UNL A   1      41.210  27.730  29.741  1.00  0.00    -0.014 A 
BRANCH  37  38
ATOM     38  C   UNL A   1      41.020  28.597  30.928  1.00  0.00     0.031 A 
ATOM     39  C   UNL A   1      39.935  29.638  30.923  1.00  0.00     0.074 A 
ATOM     40  C   UNL A   1      41.873  28.505  31.967  1.00  0.00     0.049 A 
ATOM     41  N   UNL A   1      39.655  30.541  31.825  1.00  0.00    -0.248 NA
ATOM     42  C   UNL A   1      39.075  29.692  29.730  1.00  0.00     0.031 C 
ATOM     43  C   UNL A   1      43.010  27.584  32.052  1.00  0.00     0.029 A 
ATOM     44  N   UNL A   1      41.926  29.205  33.146  1.00  0.00    -0.354 N 
ATOM     45  C   UNL A   1      38.604  31.283  31.300  1.00  0.00     0.074 A 
ATOM     46  C   UNL A   1      38.335  30.761  29.979  1.00  0.00     0.031 C 
ATOM     47  C   UNL A   1      43.635  27.763  33.228  1.00  0.00     0.029 A 
ATOM     48  C   UNL A   1      42.963  28.828  33.966  1.00  0.00     0.049 A 
ATOM     49  H   UNL A   1      41.282  29.910  33.382  1.00  0.00     0.167 HD
ATOM     50  C   UNL A   1      37.908  32.288  31.879  1.00  0.00     0.037 A 
ATOM     51  C   UNL A   1      43.331  29.292  35.176  1.00  0.00     0.037 A 
ATOM     52  C   UNL A   1      38.157  32.775  33.209  1.00  0.00     0.049 A 
ATOM     53  C   UNL A   1      42.518  30.383  35.817  1.00  0.00     0.074 A 
ATOM     54  C   UNL A   1      37.461  33.736  33.919  1.00  0.00     0.029 A 
ATOM     55  N   UNL A   1      39.184  32.333  34.030  1.00  0.00    -0.354 N 
ATOM     56  N   UNL A   1      41.475  31.020  35.341  1.00  0.00    -0.248 NA
ATOM     57  C   UNL A   1      42.922  30.813  37.163  1.00  0.00     0.031 C 
ATOM     58  C   UNL A   1      38.087  33.900  35.160  1.00  0.00     0.029 A 
ATOM     59  C   UNL A   1      39.150  33.013  35.237  1.00  0.00     0.049 A 
ATOM     60  H   UNL A   1      39.840  31.640  33.793  1.00  0.00     0.167 HD
ATOM     61  C   UNL A   1      41.085  31.909  36.336  1.00  0.00     0.074 A 
ATOM     62  C   UNL A   1      41.996  31.719  37.445  1.00  0.00     0.031 C 
ATOM     63  C   UNL A   1      40.065  32.803  36.332  1.00  0.00     0.037 A 
BRANCH  50  64
ATOM     64  C   UNL A   1      36.805  32.917  31.073  1.00  0.00     0.058 A 
ATOM     65  C   UNL A   1      37.079  33.816  30.029  1.00  0.00     0.135 A 
ATOM     66  C   UNL A   1      35.461  32.616  31.343  1.00  0.00     0.135 A 
ATOM     67  F   UNL A   1      38.347  34.153  29.742  1.00  0.00    -0.206 F 
ATOM     68  C   UNL A   1      36.059  34.422  29.306  1.00  0.00     0.059 A 
ATOM     69  C   UNL A   1      34.424  33.190  30.612  1.00  0.00     0.059 A 
ATOM     70  F   UNL A   1      35.144  31.766  32.331  1.00  0.00    -0.206 F 
ATOM     71  C   UNL A   1      34.733  34.106  29.608  1.00  0.00     0.060 A 
BRANCH  71  72
ATOM     72  S   UNL A   1      33.419  34.911  28.668  1.00  0.00     0.124 S 
ATOM     73  O   UNL A   1      32.439  35.182  29.715  1.00  0.00    -0.237 OA
ATOM     74  O   UNL A   1      34.098  36.079  28.117  1.00  0.00    -0.237 OA
ATOM     75  O   UNL A   1      33.031  33.896  27.692  1.00  0.00    -0.744 OA
ENDBRANCH  71  72
ENDBRANCH  50  64
BRANCH  51  76
ATOM     76  C   UNL A   1      44.505  28.702  35.871  1.00  0.00     0.058 A 
ATOM     77  C   UNL A   1      45.796  29.209  35.664  1.00  0.00     0.135 A 
ATOM     78  C   UNL A   1      44.358  27.637  36.775  1.00  0.00     0.135 A 
ATOM     79  F   UNL A   1      45.986  30.224  34.806  1.00  0.00    -0.206 F 
ATOM     80  C   UNL A   1      46.903  28.677  36.317  1.00  0.00     0.059 A 
ATOM     81  C   UNL A   1      45.446  27.102  37.456  1.00  0.00     0.059 A 
ATOM     82  F   UNL A   1      43.141  27.129  37.022  1.00  0.00    -0.206 F 
ATOM     83  C   UNL A   1      46.717  27.624  37.213  1.00  0.00     0.060 A 
BRANCH  83  84
ATOM     84  S   UNL A   1      48.152  26.979  38.102  1.00  0.00     0.124 S 
ATOM     85  O   UNL A   1      49.241  27.725  37.482  1.00  0.00    -0.237 OA
ATOM     86  O   UNL A   1      47.840  27.330  39.484  1.00  0.00    -0.237 OA
ATOM     87  O   UNL A   1      48.113  25.549  37.805  1.00  0.00    -0.744 OA
ENDBRANCH  83  84
ENDBRANCH  51  76
BRANCH  63  88
ATOM     88  C   UNL A   1      39.863  33.624  37.572  1.00  0.00     0.058 A 
ATOM     89  C   UNL A   1      40.551  34.830  37.776  1.00  0.00     0.135 A 
ATOM     90  C   UNL A   1      38.927  33.229  38.542  1.00  0.00     0.135 A 
ATOM     91  F   UNL A   1      41.461  35.248  36.882  1.00  0.00    -0.206 F 
ATOM     92  C   UNL A   1      40.334  35.605  38.909  1.00  0.00     0.059 A 
ATOM     93  C   UNL A   1      38.676  34.001  39.670  1.00  0.00     0.059 A 
ATOM     94  F   UNL A   1      38.235  32.089  38.388  1.00  0.00    -0.206 F 
ATOM     95  C   UNL A   1      39.393  35.184  39.851  1.00  0.00     0.060 A 
BRANCH  95  96
ATOM     96  S   UNL A   1      39.092  36.217  41.300  1.00  0.00     0.124 S 
ATOM     97  O   UNL A   1      37.894  35.599  41.857  1.00  0.00    -0.237 OA
ATOM     98  O   UNL A   1      40.317  36.035  42.074  1.00  0.00    -0.237 OA
ATOM     99  O   UNL A   1      38.909  37.549  40.734  1.00  0.00    -0.744 OA
ENDBRANCH  95  96
ENDBRANCH  63  88
ENDBRANCH  37  38
ENDBRANCH  29  32
ENDBRANCH  27  28
ENDBRANCH  26  27
ENDBRANCH   1  26
TORSDOF 18
ENDMDL
MODEL 3
REMARK VINA RESULT:     -11.5      2.511      8.979
REMARK SMILES CC(=O)c1cc(C(=O)NC[C@H]2CC[C@H](C(=O)NCCCCNC(=O)c3ccc(-c4c5nc(c(-c6c(F)cc(S(=O)(=O)[O-])cc6F)c6ccc([nH]6)c(-c6c(F)cc(S(=O)(=O)[O-])cc6F)c6nc(c(-c7c(F)cc(S(=O)(=O)[O-])cc7F)c7ccc4[nH]7)C=C6)C=C5)cc3)O2)n(C)c1
REMARK SMILES IDX 19 1 18 2 17 3 15 4 16 5 14 7 11 8 12 9 91 10 13 11 10 12
REMARK SMILES IDX 9 13 7 14 8 15 6 17 4 18 5 19 94 20 92 21 93 22 2 23 1 24
REMARK SMILES IDX 3 25 20 26 21 27 22 28 23 29 24 31 25 32 26 33 90 34 27 35
REMARK SMILES IDX 89 36 28 37 29 38 30 39 83 40 31 41 88 42 82 43 84 44 32 45
REMARK SMILES IDX 87 46 81 47 80 48 33 50 67 51 46 52 66 53 47 54 50 55 65 56
REMARK SMILES IDX 85 57 48 58 49 59 64 61 86 62 51 63 34 64 35 65 44 66 36 67
REMARK SMILES IDX 37 68 43 69 45 70 38 71 39 72 40 73 41 74 42 75 68 76 69 77
REMARK SMILES IDX 78 78 70 79 71 80 77 81 79 82 72 83 73 84 74 85 75 86 76 87
REMARK SMILES IDX 52 88 53 89 62 90 54 91 55 92 61 93 63 94 56 95 57 96 58 97
REMARK SMILES IDX 59 98 60 99
REMARK H PARENT 17 6 9 16 22 30 84 49 50 60
REMARK Flexibility Score: inf
ROOT
ATOM      1  C   UNL A   1      36.896  21.973  25.596  1.00  0.00     0.023 C 
ENDROOT
BRANCH   1   2
ATOM      2  C   UNL A   1      35.600  21.162  25.682  1.00  0.00     0.116 C 
BRANCH   2   3
ATOM      3  N   UNL A   1      34.872  21.445  26.900  1.00  0.00    -0.354 N 
ATOM      4  C   UNL A   1      33.669  22.064  27.072  1.00  0.00     0.249 C 
ATOM      5  O   UNL A   1      33.250  22.190  28.228  1.00  0.00    -0.272 OA
ATOM      6  H   UNL A   1      35.311  21.147  27.729  1.00  0.00     0.163 HD
BRANCH   4   7
ATOM      7  C   UNL A   1      32.876  22.662  25.887  1.00  0.00     0.207 C 
ATOM      8  C   UNL A   1      32.035  24.753  25.268  1.00  0.00     0.138 C 
ATOM      9  C   UNL A   1      30.964  24.090  26.126  1.00  0.00     0.037 C 
ATOM     10  O   UNL A   1      33.227  23.987  25.474  1.00  0.00    -0.363 OA
ATOM     11  C   UNL A   1      31.371  22.633  26.120  1.00  0.00     0.045 C 
BRANCH   8  12
ATOM     12  C   UNL A   1      31.537  24.682  23.829  1.00  0.00     0.148 C 
BRANCH  12  13
ATOM     13  N   UNL A   1      32.446  24.974  22.761  1.00  0.00    -0.348 N 
ATOM     14  C   UNL A   1      32.754  26.223  22.274  1.00  0.00     0.268 C 
ATOM     15  O   UNL A   1      33.601  26.288  21.383  1.00  0.00    -0.268 OA
ATOM     16  H   UNL A   1      32.893  24.207  22.336  1.00  0.00     0.163 HD
BRANCH  14  17
ATOM     17  C   UNL A   1      32.019  27.403  22.724  1.00  0.00     0.107 A 
ATOM     18  C   UNL A   1      30.363  29.001  22.795  1.00  0.00     0.036 A 
ATOM     19  C   UNL A   1      30.884  27.892  22.078  1.00  0.00     0.045 A 
ATOM     20  C   UNL A   1      31.210  29.176  23.868  1.00  0.00     0.097 A 
ATOM     21  N   UNL A   1      32.257  28.294  23.758  1.00  0.00    -0.346 N 
ATOM     22  C   UNL A   1      33.427  28.429  24.598  1.00  0.00     0.150 C 
BRANCH  18  23
ATOM     23  C   UNL A   1      29.195  29.834  22.520  1.00  0.00     0.161 C 
ATOM     24  C   UNL A   1      28.747  30.805  23.580  1.00  0.00     0.093 C 
ATOM     25  O   UNL A   1      28.594  29.763  21.447  1.00  0.00    -0.294 OA
ENDBRANCH  18  23
ENDBRANCH  14  17
ENDBRANCH  12  13
ENDBRANCH   8  12
ENDBRANCH   4   7
ENDBRANCH   2   3
ENDBRANCH   1   2
BRANCH   1  26
ATOM     26  C   UNL A   1      38.116  21.206  25.104  1.00  0.00     0.023 C 
BRANCH  26  27
ATOM     27  C   UNL A   1      39.258  21.154  26.107  1.00  0.00     0.116 C 
BRANCH  27  28
ATOM     28  N   UNL A   1      40.025  19.914  26.076  1.00  0.00    -0.352 N 
ATOM     29  C   UNL A   1      41.392  19.778  26.198  1.00  0.00     0.251 C 
ATOM     30  H   UNL A   1      39.511  19.084  25.955  1.00  0.00     0.163 HD
ATOM     31  O   UNL A   1      41.930  18.688  26.084  1.00  0.00    -0.269 OA
BRANCH  29  32
ATOM     32  C   UNL A   1      42.182  21.006  26.413  1.00  0.00     0.039 A 
ATOM     33  C   UNL A   1      42.520  21.789  25.309  1.00  0.00     0.014 A 
ATOM     34  C   UNL A   1      42.450  21.439  27.713  1.00  0.00     0.014 A 
ATOM     35  C   UNL A   1      43.060  23.058  25.518  1.00  0.00     0.010 A 
ATOM     36  C   UNL A   1      42.906  22.733  27.918  1.00  0.00     0.010 A 
ATOM     37  C   UNL A   1      43.214  23.555  26.823  1.00  0.00    -0.014 A 
BRANCH  37  38
ATOM     38  C   UNL A   1      43.693  24.936  27.070  1.00  0.00     0.031 A 
ATOM     39  C   UNL A   1      45.143  25.270  26.854  1.00  0.00     0.074 A 
ATOM     40  C   UNL A   1      42.846  25.861  27.564  1.00  0.00     0.049 A 
ATOM     41  N   UNL A   1      45.775  26.390  27.084  1.00  0.00    -0.248 NA
ATOM     42  C   UNL A   1      46.004  24.187  26.349  1.00  0.00     0.031 C 
ATOM     43  C   UNL A   1      41.435  25.632  27.884  1.00  0.00     0.029 A 
ATOM     44  N   UNL A   1      43.053  27.174  27.899  1.00  0.00    -0.354 N 
ATOM     45  C   UNL A   1      47.106  26.143  26.773  1.00  0.00     0.074 A 
ATOM     46  C   UNL A   1      47.201  24.751  26.394  1.00  0.00     0.031 C 
ATOM     47  C   UNL A   1      40.898  26.773  28.349  1.00  0.00     0.029 A 
ATOM     48  C   UNL A   1      41.932  27.802  28.389  1.00  0.00     0.049 A 
ATOM     49  H   UNL A   1      43.921  27.625  27.798  1.00  0.00     0.167 HD
ATOM     50  C   UNL A   1      48.149  27.005  26.775  1.00  0.00     0.037 A 
ATOM     51  C   UNL A   1      41.760  29.066  28.823  1.00  0.00     0.037 A 
ATOM     52  C   UNL A   1      48.037  28.398  27.117  1.00  0.00     0.049 A 
ATOM     53  C   UNL A   1      42.924  30.018  28.780  1.00  0.00     0.074 A 
ATOM     54  C   UNL A   1      49.015  29.375  27.078  1.00  0.00     0.029 A 
ATOM     55  N   UNL A   1      46.874  29.010  27.559  1.00  0.00    -0.354 N 
ATOM     56  N   UNL A   1      44.160  29.789  28.405  1.00  0.00    -0.248 NA
ATOM     57  C   UNL A   1      42.670  31.401  29.206  1.00  0.00     0.031 C 
ATOM     58  C   UNL A   1      48.451  30.574  27.528  1.00  0.00     0.029 A 
ATOM     59  C   UNL A   1      47.113  30.351  27.811  1.00  0.00     0.049 A 
ATOM     60  H   UNL A   1      46.007  28.560  27.677  1.00  0.00     0.167 HD
ATOM     61  C   UNL A   1      44.826  31.003  28.529  1.00  0.00     0.074 A 
ATOM     62  C   UNL A   1      43.853  31.966  29.002  1.00  0.00     0.031 C 
ATOM     63  C   UNL A   1      46.126  31.295  28.276  1.00  0.00     0.037 A 
BRANCH  50  64
ATOM     64  C   UNL A   1      49.495  26.461  26.386  1.00  0.00     0.058 A 
ATOM     65  C   UNL A   1      50.326  25.820  27.320  1.00  0.00     0.135 A 
ATOM     66  C   UNL A   1      49.959  26.575  25.067  1.00  0.00     0.135 A 
ATOM     67  F   UNL A   1      49.939  25.701  28.600  1.00  0.00    -0.206 F 
ATOM     68  C   UNL A   1      51.584  25.346  26.968  1.00  0.00     0.059 A 
ATOM     69  C   UNL A   1      51.204  26.082  24.686  1.00  0.00     0.059 A 
ATOM     70  F   UNL A   1      49.206  27.181  24.135  1.00  0.00    -0.206 F 
ATOM     71  C   UNL A   1      52.017  25.486  25.648  1.00  0.00     0.060 A 
BRANCH  71  72
ATOM     72  S   UNL A   1      53.658  24.876  25.209  1.00  0.00     0.124 S 
ATOM     73  O   UNL A   1      53.915  25.605  23.970  1.00  0.00    -0.237 OA
ATOM     74  O   UNL A   1      54.460  25.279  26.360  1.00  0.00    -0.237 OA
ATOM     75  O   UNL A   1      53.456  23.438  25.061  1.00  0.00    -0.744 OA
ENDBRANCH  71  72
ENDBRANCH  50  64
BRANCH  51  76
ATOM     76  C   UNL A   1      40.425  29.509  29.305  1.00  0.00     0.058 A 
ATOM     77  C   UNL A   1      40.177  29.698  30.672  1.00  0.00     0.135 A 
ATOM     78  C   UNL A   1      39.379  29.777  28.408  1.00  0.00     0.135 A 
ATOM     79  F   UNL A   1      41.146  29.450  31.568  1.00  0.00    -0.206 F 
ATOM     80  C   UNL A   1      38.938  30.125  31.137  1.00  0.00     0.059 A 
ATOM     81  C   UNL A   1      38.137  30.226  28.847  1.00  0.00     0.059 A 
ATOM     82  F   UNL A   1      39.571  29.630  27.088  1.00  0.00    -0.206 F 
ATOM     83  C   UNL A   1      37.924  30.389  30.216  1.00  0.00     0.060 A 
BRANCH  83  84
ATOM     84  S   UNL A   1      36.337  31.001  30.824  1.00  0.00     0.124 S 
ATOM     85  O   UNL A   1      35.534  30.995  29.607  1.00  0.00    -0.237 OA
ATOM     86  O   UNL A   1      35.986  30.000  31.827  1.00  0.00    -0.237 OA
ATOM     87  O   UNL A   1      36.670  32.319  31.357  1.00  0.00    -0.744 OA
ENDBRANCH  83  84
ENDBRANCH  51  76
BRANCH  63  88
ATOM     88  C   UNL A   1      46.565  32.716  28.479  1.00  0.00     0.058 A 
ATOM     89  C   UNL A   1      46.475  33.667  27.452  1.00  0.00     0.135 A 
ATOM     90  C   UNL A   1      47.028  33.144  29.733  1.00  0.00     0.135 A 
ATOM     91  F   UNL A   1      46.045  33.306  26.232  1.00  0.00    -0.206 F 
ATOM     92  C   UNL A   1      46.849  34.991  27.655  1.00  0.00     0.059 A 
ATOM     93  C   UNL A   1      47.383  34.468  29.966  1.00  0.00     0.059 A 
ATOM     94  F   UNL A   1      47.122  32.275  30.752  1.00  0.00    -0.206 F 
ATOM     95  C   UNL A   1      47.300  35.383  28.916  1.00  0.00     0.060 A 
BRANCH  95  96
ATOM     96  S   UNL A   1      47.748  37.112  29.180  1.00  0.00     0.124 S 
ATOM     97  O   UNL A   1      46.456  37.702  29.509  1.00  0.00    -0.237 OA
ATOM     98  O   UNL A   1      48.703  37.024  30.281  1.00  0.00    -0.237 OA
ATOM     99  O   UNL A   1      48.317  37.513  27.897  1.00  0.00    -0.744 OA
ENDBRANCH  95  96
ENDBRANCH  63  88
ENDBRANCH  37  38
ENDBRANCH  29  32
ENDBRANCH  27  28
ENDBRANCH  26  27
ENDBRANCH   1  26
TORSDOF 18
ENDMDL
