MODEL 1
REMARK VINA RESULT:      -9.3      0.000      0.000
REMARK SMILES O=C(CCC(=O)/[NH+]=C1\S[C@H]2CS(=O)(=O)C[C@@H]2N1c1ccc2c(c1)OCO2)NCCCCNC(=O)c1ccc(-c2c3nc(c(-c4c(F)cc(S(=O)(=O)[O-])cc4F)c4ccc([nH]4)c(-c4c(F)cc(S(=O)(=O)[O-])cc4F)c4nc(c(-c5c(F)cc(S(=O)(=O)[O-])cc5F)c5ccc2[nH]5)C=C4)C=C3)cc1
REMARK SMILES IDX 29 1 28 2 27 3 2 4 1 5 3 7 4 8 5 9 6 10 7 11 8 12 9 14 17 15
REMARK SMILES IDX 10 16 16 17 11 18 15 19 12 20 13 21 14 22 18 23 19 24 23 25
REMARK SMILES IDX 20 26 22 27 21 28 24 29 26 30 25 31 30 32 31 33 32 34 33 35
REMARK SMILES IDX 34 37 35 38 36 39 100 40 37 41 99 42 38 43 39 44 40 45 93 46
REMARK SMILES IDX 41 47 98 48 92 49 94 50 42 51 97 52 91 53 90 54 43 56 77 57
REMARK SMILES IDX 56 58 76 59 57 60 60 61 75 62 95 63 58 64 59 65 74 67 96 68
REMARK SMILES IDX 61 69 44 70 45 71 54 72 46 73 47 74 53 75 55 76 48 77 49 78
REMARK SMILES IDX 50 79 51 80 52 81 78 82 79 83 88 84 80 85 81 86 87 87 89 88
REMARK SMILES IDX 82 89 83 90 84 91 85 92 86 93 62 94 63 95 72 96 64 97 65 98
REMARK SMILES IDX 71 99 73 100 66 101 67 102 68 103 69 104 70 105
REMARK H PARENT 27 6 7 13 32 36 94 55 60 66
REMARK Flexibility Score: inf
ROOT
ATOM      1  C   UNL A   1      38.360  33.836  29.631  1.00  0.00     0.023 C 
ENDROOT
BRANCH   1   2
ATOM      2  C   UNL A   1      38.763  34.046  31.092  1.00  0.00     0.116 C 
BRANCH   2   3
ATOM      3  N   UNL A   1      37.851  33.453  32.054  1.00  0.00    -0.356 N 
ATOM      4  C   UNL A   1      38.080  32.964  33.300  1.00  0.00     0.220 C 
ATOM      5  O   UNL A   1      37.125  32.572  33.973  1.00  0.00    -0.275 OA
ATOM      6  H   UNL A   1      36.915  33.396  31.754  1.00  0.00     0.163 HD
BRANCH   4   7
ATOM      7  C   UNL A   1      39.481  32.912  33.848  1.00  0.00     0.112 C 
BRANCH   7   8
ATOM      8  C   UNL A   1      40.287  31.633  33.665  1.00  0.00     0.138 C 
BRANCH   8   9
ATOM      9  C   UNL A   1      41.804  31.603  33.502  1.00  0.00     0.308 C 
ATOM     10  O   UNL A   1      42.428  32.655  33.643  1.00  0.00    -0.247 OA
ATOM     11  N   UNL A   1      42.443  30.446  33.167  1.00  0.00    -0.204 N 
ATOM     12  C   UNL A   1      42.530  29.441  33.972  1.00  0.00     0.319 C 
ATOM     13  H   UNL A   1      42.855  30.374  32.275  1.00  0.00     0.316 HD
ATOM     14  S   UNL A   1      41.789  29.377  35.599  1.00  0.00    -0.029 SA
ATOM     15  N   UNL A   1      43.125  28.214  33.685  1.00  0.00    -0.216 N 
ATOM     16  C   UNL A   1      42.461  27.721  35.867  1.00  0.00     0.120 C 
ATOM     17  C   UNL A   1      42.557  27.124  34.458  1.00  0.00     0.212 C 
ATOM     18  C   UNL A   1      41.693  26.702  36.663  1.00  0.00     0.156 C 
ATOM     19  C   UNL A   1      43.298  25.822  34.658  1.00  0.00     0.188 C 
ATOM     20  S   UNL A   1      42.510  25.182  36.152  1.00  0.00     0.155 S 
ATOM     21  O   UNL A   1      43.543  24.884  37.127  1.00  0.00    -0.229 OA
ATOM     22  O   UNL A   1      41.495  24.227  35.783  1.00  0.00    -0.229 OA
BRANCH  15  23
ATOM     23  C   UNL A   1      44.159  28.031  32.768  1.00  0.00     0.132 A 
ATOM     24  C   UNL A   1      43.951  27.411  31.514  1.00  0.00     0.056 A 
ATOM     25  C   UNL A   1      45.446  28.501  33.083  1.00  0.00     0.102 A 
ATOM     26  C   UNL A   1      44.988  27.297  30.578  1.00  0.00     0.055 A 
ATOM     27  C   UNL A   1      46.445  28.387  32.144  1.00  0.00     0.170 A 
ATOM     28  C   UNL A   1      46.216  27.818  30.917  1.00  0.00     0.166 A 
ATOM     29  O   UNL A   1      47.719  28.836  32.283  1.00  0.00    -0.453 OA
ATOM     30  O   UNL A   1      47.308  27.878  30.116  1.00  0.00    -0.454 OA
ATOM     31  C   UNL A   1      48.221  28.625  30.948  1.00  0.00     0.468 C 
ENDBRANCH  15  23
ENDBRANCH   8   9
ENDBRANCH   7   8
ENDBRANCH   4   7
ENDBRANCH   2   3
ENDBRANCH   1   2
BRANCH   1  32
ATOM     32  C   UNL A   1      36.855  33.814  29.369  1.00  0.00     0.023 C 
BRANCH  32  33
ATOM     33  C   UNL A   1      36.299  32.473  28.917  1.00  0.00     0.116 C 
BRANCH  33  34
ATOM     34  N   UNL A   1      35.926  31.642  30.044  1.00  0.00    -0.352 N 
ATOM     35  C   UNL A   1      36.520  30.495  30.507  1.00  0.00     0.251 C 
ATOM     36  H   UNL A   1      35.135  31.943  30.548  1.00  0.00     0.163 HD
ATOM     37  O   UNL A   1      35.906  29.776  31.291  1.00  0.00    -0.269 OA
BRANCH  35  38
ATOM     38  C   UNL A   1      37.888  30.119  30.071  1.00  0.00     0.039 A 
ATOM     39  C   UNL A   1      38.140  29.968  28.704  1.00  0.00     0.014 A 
ATOM     40  C   UNL A   1      38.902  29.853  30.995  1.00  0.00     0.014 A 
ATOM     41  C   UNL A   1      39.408  29.573  28.268  1.00  0.00     0.010 A 
ATOM     42  C   UNL A   1      40.188  29.544  30.554  1.00  0.00     0.010 A 
ATOM     43  C   UNL A   1      40.451  29.376  29.186  1.00  0.00    -0.014 A 
BRANCH  43  44
ATOM     44  C   UNL A   1      41.809  28.957  28.739  1.00  0.00     0.031 A 
ATOM     45  C   UNL A   1      42.918  29.970  28.641  1.00  0.00     0.074 A 
ATOM     46  C   UNL A   1      42.034  27.678  28.374  1.00  0.00     0.049 A 
ATOM     47  N   UNL A   1      44.148  29.810  28.223  1.00  0.00    -0.248 NA
ATOM     48  C   UNL A   1      42.599  31.350  29.043  1.00  0.00     0.031 C 
ATOM     49  C   UNL A   1      41.037  26.610  28.398  1.00  0.00     0.029 A 
ATOM     50  N   UNL A   1      43.164  27.058  27.902  1.00  0.00    -0.354 N 
ATOM     51  C   UNL A   1      44.744  31.064  28.305  1.00  0.00     0.074 A 
ATOM     52  C   UNL A   1      43.722  31.988  28.747  1.00  0.00     0.031 C 
ATOM     53  C   UNL A   1      41.590  25.469  27.959  1.00  0.00     0.029 A 
ATOM     54  C   UNL A   1      42.982  25.726  27.608  1.00  0.00     0.049 A 
ATOM     55  H   UNL A   1      44.024  27.523  27.785  1.00  0.00     0.167 HD
ATOM     56  C   UNL A   1      46.032  31.408  28.069  1.00  0.00     0.037 A 
ATOM     57  C   UNL A   1      43.838  24.811  27.114  1.00  0.00     0.037 A 
ATOM     58  C   UNL A   1      47.049  30.474  27.660  1.00  0.00     0.049 A 
ATOM     59  C   UNL A   1      45.261  25.216  26.851  1.00  0.00     0.074 A 
ATOM     60  C   UNL A   1      48.398  30.707  27.456  1.00  0.00     0.029 A 
ATOM     61  N   UNL A   1      46.831  29.130  27.394  1.00  0.00    -0.354 N 
ATOM     62  N   UNL A   1      45.822  26.391  27.004  1.00  0.00    -0.248 NA
ATOM     63  C   UNL A   1      46.172  24.170  26.366  1.00  0.00     0.031 C 
ATOM     64  C   UNL A   1      48.985  29.515  27.018  1.00  0.00     0.029 A 
ATOM     65  C   UNL A   1      48.015  28.527  27.002  1.00  0.00     0.049 A 
ATOM     66  H   UNL A   1      45.962  28.673  27.471  1.00  0.00     0.167 HD
ATOM     67  C   UNL A   1      47.159  26.220  26.666  1.00  0.00     0.074 A 
ATOM     68  C   UNL A   1      47.323  24.824  26.311  1.00  0.00     0.031 C 
ATOM     69  C   UNL A   1      48.161  27.135  26.656  1.00  0.00     0.037 A 
BRANCH  56  70
ATOM     70  C   UNL A   1      46.417  32.852  28.256  1.00  0.00     0.058 A 
ATOM     71  C   UNL A   1      46.281  33.792  27.221  1.00  0.00     0.135 A 
ATOM     72  C   UNL A   1      46.898  33.308  29.494  1.00  0.00     0.135 A 
ATOM     73  F   UNL A   1      45.841  33.409  26.012  1.00  0.00    -0.206 F 
ATOM     74  C   UNL A   1      46.640  35.125  27.396  1.00  0.00     0.059 A 
ATOM     75  C   UNL A   1      47.233  34.644  29.701  1.00  0.00     0.059 A 
ATOM     76  F   UNL A   1      47.047  32.454  30.519  1.00  0.00    -0.206 F 
ATOM     77  C   UNL A   1      47.116  35.542  28.640  1.00  0.00     0.060 A 
BRANCH  77  78
ATOM     78  S   UNL A   1      47.575  37.275  28.850  1.00  0.00     0.124 S 
ATOM     79  O   UNL A   1      46.683  37.682  29.931  1.00  0.00    -0.237 OA
ATOM     80  O   UNL A   1      48.989  37.184  29.196  1.00  0.00    -0.237 OA
ATOM     81  O   UNL A   1      47.288  37.863  27.545  1.00  0.00    -0.744 OA
ENDBRANCH  77  78
ENDBRANCH  56  70
BRANCH  57  82
ATOM     82  C   UNL A   1      43.378  23.415  26.878  1.00  0.00     0.058 A 
ATOM     83  C   UNL A   1      43.209  22.921  25.576  1.00  0.00     0.135 A 
ATOM     84  C   UNL A   1      43.121  22.541  27.946  1.00  0.00     0.135 A 
ATOM     85  F   UNL A   1      43.442  23.717  24.522  1.00  0.00    -0.206 F 
ATOM     86  C   UNL A   1      42.784  21.618  25.340  1.00  0.00     0.059 A 
ATOM     87  C   UNL A   1      42.719  21.226  27.735  1.00  0.00     0.059 A 
ATOM     88  F   UNL A   1      43.288  22.958  29.212  1.00  0.00    -0.206 F 
ATOM     89  C   UNL A   1      42.543  20.776  26.427  1.00  0.00     0.060 A 
BRANCH  89  90
ATOM     90  S   UNL A   1      42.036  19.073  26.106  1.00  0.00     0.124 S 
ATOM     91  O   UNL A   1      42.303  18.439  27.392  1.00  0.00    -0.237 OA
ATOM     92  O   UNL A   1      40.628  19.235  25.753  1.00  0.00    -0.237 OA
ATOM     93  O   UNL A   1      42.906  18.665  25.007  1.00  0.00    -0.744 OA
ENDBRANCH  89  90
ENDBRANCH  57  82
BRANCH  69  94
ATOM     94  C   UNL A   1      49.534  26.650  26.278  1.00  0.00     0.058 A 
ATOM     95  C   UNL A   1      50.042  26.811  24.980  1.00  0.00     0.135 A 
ATOM     96  C   UNL A   1      50.369  26.063  27.242  1.00  0.00     0.135 A 
ATOM     97  F   UNL A   1      49.281  27.359  24.018  1.00  0.00    -0.206 F 
ATOM     98  C   UNL A   1      51.323  26.385  24.643  1.00  0.00     0.059 A 
ATOM     99  C   UNL A   1      51.664  25.658  26.936  1.00  0.00     0.059 A 
ATOM    100  F   UNL A   1      49.935  25.894  28.501  1.00  0.00    -0.206 F 
ATOM    101  C   UNL A   1      52.128  25.812  25.631  1.00  0.00     0.060 A 
BRANCH 101 102
ATOM    102  S   UNL A   1      53.800  25.297  25.190  1.00  0.00     0.124 S 
ATOM    103  O   UNL A   1      53.904  25.780  23.817  1.00  0.00    -0.237 OA
ATOM    104  O   UNL A   1      54.613  26.003  26.175  1.00  0.00    -0.237 OA
ATOM    105  O   UNL A   1      53.760  23.846  25.343  1.00  0.00    -0.744 OA
ENDBRANCH 101 102
ENDBRANCH  69  94
ENDBRANCH  43  44
ENDBRANCH  35  38
ENDBRANCH  33  34
ENDBRANCH  32  33
ENDBRANCH   1  32
TORSDOF 17
ENDMDL
MODEL 2
REMARK VINA RESULT:      -9.2      6.642     13.444
REMARK SMILES O=C(CCC(=O)/[NH+]=C1\S[C@H]2CS(=O)(=O)C[C@@H]2N1c1ccc2c(c1)OCO2)NCCCCNC(=O)c1ccc(-c2c3nc(c(-c4c(F)cc(S(=O)(=O)[O-])cc4F)c4ccc([nH]4)c(-c4c(F)cc(S(=O)(=O)[O-])cc4F)c4nc(c(-c5c(F)cc(S(=O)(=O)[O-])cc5F)c5ccc2[nH]5)C=C4)C=C3)cc1
REMARK SMILES IDX 29 1 28 2 27 3 2 4 1 5 3 7 4 8 5 9 6 10 7 11 8 12 9 14 17 15
REMARK SMILES IDX 10 16 16 17 11 18 15 19 12 20 13 21 14 22 18 23 19 24 23 25
REMARK SMILES IDX 20 26 22 27 21 28 24 29 26 30 25 31 30 32 31 33 32 34 33 35
REMARK SMILES IDX 34 37 35 38 36 39 100 40 37 41 99 42 38 43 39 44 40 45 93 46
REMARK SMILES IDX 41 47 98 48 92 49 94 50 42 51 97 52 91 53 90 54 43 56 77 57
REMARK SMILES IDX 56 58 76 59 57 60 60 61 75 62 95 63 58 64 59 65 74 67 96 68
REMARK SMILES IDX 61 69 44 70 45 71 54 72 46 73 47 74 53 75 55 76 48 77 49 78
REMARK SMILES IDX 50 79 51 80 52 81 78 82 79 83 88 84 80 85 81 86 87 87 89 88
REMARK SMILES IDX 82 89 83 90 84 91 85 92 86 93 62 94 63 95 72 96 64 97 65 98
REMARK SMILES IDX 71 99 73 100 66 101 67 102 68 103 69 104 70 105
REMARK H PARENT 27 6 7 13 32 36 94 55 60 66
REMARK Flexibility Score: inf
ROOT
ATOM      1  C   UNL A   1      44.092  39.136  28.376  1.00  0.00     0.023 C 
ENDROOT
BRANCH   1   2
ATOM      2  C   UNL A   1      44.151  39.379  26.866  1.00  0.00     0.116 C 
BRANCH   2   3
ATOM      3  N   UNL A   1      42.939  39.947  26.306  1.00  0.00    -0.356 N 
ATOM      4  C   UNL A   1      42.746  41.094  25.604  1.00  0.00     0.220 C 
ATOM      5  O   UNL A   1      41.624  41.340  25.157  1.00  0.00    -0.275 OA
ATOM      6  H   UNL A   1      42.124  39.416  26.459  1.00  0.00     0.163 HD
BRANCH   4   7
ATOM      7  C   UNL A   1      43.892  42.042  25.372  1.00  0.00     0.112 C 
BRANCH   7   8
ATOM      8  C   UNL A   1      44.028  42.698  24.004  1.00  0.00     0.138 C 
BRANCH   8   9
ATOM      9  C   UNL A   1      45.287  42.616  23.145  1.00  0.00     0.308 C 
ATOM     10  O   UNL A   1      46.063  41.679  23.335  1.00  0.00    -0.247 OA
ATOM     11  N   UNL A   1      45.562  43.582  22.224  1.00  0.00    -0.204 N 
ATOM     12  C   UNL A   1      44.865  43.736  21.149  1.00  0.00     0.319 C 
ATOM     13  H   UNL A   1      46.324  44.186  22.384  1.00  0.00     0.316 HD
ATOM     14  S   UNL A   1      43.416  42.773  20.731  1.00  0.00    -0.029 SA
ATOM     15  N   UNL A   1      45.057  44.725  20.186  1.00  0.00    -0.216 N 
ATOM     16  C   UNL A   1      43.231  43.677  19.178  1.00  0.00     0.120 C 
ATOM     17  C   UNL A   1      43.835  45.056  19.474  1.00  0.00     0.212 C 
ATOM     18  C   UNL A   1      41.866  43.969  18.619  1.00  0.00     0.156 C 
ATOM     19  C   UNL A   1      43.861  45.744  18.129  1.00  0.00     0.188 C 
ATOM     20  S   UNL A   1      42.247  45.290  17.457  1.00  0.00     0.155 S 
ATOM     21  O   UNL A   1      42.443  44.688  16.151  1.00  0.00    -0.229 OA
ATOM     22  O   UNL A   1      41.317  46.369  17.682  1.00  0.00    -0.229 OA
BRANCH  15  23
ATOM     23  C   UNL A   1      46.278  45.337  19.913  1.00  0.00     0.132 A 
ATOM     24  C   UNL A   1      46.614  46.610  20.430  1.00  0.00     0.056 A 
ATOM     25  C   UNL A   1      47.223  44.660  19.121  1.00  0.00     0.102 A 
ATOM     26  C   UNL A   1      47.874  47.180  20.200  1.00  0.00     0.055 A 
ATOM     27  C   UNL A   1      48.456  45.236  18.918  1.00  0.00     0.170 A 
ATOM     28  C   UNL A   1      48.779  46.453  19.460  1.00  0.00     0.166 A 
ATOM     29  O   UNL A   1      49.484  44.683  18.222  1.00  0.00    -0.453 OA
ATOM     30  O   UNL A   1      50.066  46.798  19.207  1.00  0.00    -0.454 OA
ATOM     31  C   UNL A   1      50.538  45.621  18.519  1.00  0.00     0.468 C 
ENDBRANCH  15  23
ENDBRANCH   8   9
ENDBRANCH   7   8
ENDBRANCH   4   7
ENDBRANCH   2   3
ENDBRANCH   1   2
BRANCH   1  32
ATOM     32  C   UNL A   1      44.581  37.763  28.832  1.00  0.00     0.023 C 
BRANCH  32  33
ATOM     33  C   UNL A   1      45.735  37.785  29.821  1.00  0.00     0.116 C 
BRANCH  33  34
ATOM     34  N   UNL A   1      47.012  37.917  29.149  1.00  0.00    -0.352 N 
ATOM     35  C   UNL A   1      47.846  36.935  28.677  1.00  0.00     0.251 C 
ATOM     36  H   UNL A   1      47.325  38.841  29.013  1.00  0.00     0.163 HD
ATOM     37  O   UNL A   1      49.006  37.219  28.393  1.00  0.00    -0.269 OA
BRANCH  35  38
ATOM     38  C   UNL A   1      47.359  35.544  28.506  1.00  0.00     0.039 A 
ATOM     39  C   UNL A   1      47.527  34.639  29.559  1.00  0.00     0.014 A 
ATOM     40  C   UNL A   1      46.801  35.107  27.301  1.00  0.00     0.014 A 
ATOM     41  C   UNL A   1      47.116  33.311  29.410  1.00  0.00     0.010 A 
ATOM     42  C   UNL A   1      46.314  33.806  27.186  1.00  0.00     0.010 A 
ATOM     43  C   UNL A   1      46.488  32.884  28.229  1.00  0.00    -0.014 A 
BRANCH  43  44
ATOM     44  C   UNL A   1      46.044  31.473  28.054  1.00  0.00     0.031 A 
ATOM     45  C   UNL A   1      44.636  31.075  28.412  1.00  0.00     0.074 A 
ATOM     46  C   UNL A   1      46.915  30.541  27.621  1.00  0.00     0.049 A 
ATOM     47  N   UNL A   1      44.080  29.891  28.381  1.00  0.00    -0.248 NA
ATOM     48  C   UNL A   1      43.741  32.142  28.892  1.00  0.00     0.031 C 
ATOM     49  C   UNL A   1      48.310  30.794  27.267  1.00  0.00     0.029 A 
ATOM     50  N   UNL A   1      46.766  29.192  27.412  1.00  0.00    -0.354 N 
ATOM     51  C   UNL A   1      42.779  30.070  28.840  1.00  0.00     0.074 A 
ATOM     52  C   UNL A   1      42.649  31.462  29.209  1.00  0.00     0.031 C 
ATOM     53  C   UNL A   1      48.893  29.646  26.890  1.00  0.00     0.029 A 
ATOM     54  C   UNL A   1      47.917  28.568  26.988  1.00  0.00     0.049 A 
ATOM     55  H   UNL A   1      45.916  28.716  27.553  1.00  0.00     0.167 HD
ATOM     56  C   UNL A   1      41.775  29.165  28.913  1.00  0.00     0.037 A 
ATOM     57  C   UNL A   1      48.161  27.274  26.704  1.00  0.00     0.037 A 
ATOM     58  C   UNL A   1      41.904  27.788  28.513  1.00  0.00     0.049 A 
ATOM     59  C   UNL A   1      47.034  26.285  26.801  1.00  0.00     0.074 A 
ATOM     60  C   UNL A   1      40.931  26.804  28.488  1.00  0.00     0.029 A 
ATOM     61  N   UNL A   1      43.079  27.198  28.068  1.00  0.00    -0.354 N 
ATOM     62  N   UNL A   1      45.791  26.488  27.169  1.00  0.00    -0.248 NA
ATOM     63  C   UNL A   1      47.333  24.895  26.428  1.00  0.00     0.031 C 
ATOM     64  C   UNL A   1      41.529  25.609  28.075  1.00  0.00     0.029 A 
ATOM     65  C   UNL A   1      42.861  25.859  27.791  1.00  0.00     0.049 A 
ATOM     66  H   UNL A   1      43.940  27.664  27.966  1.00  0.00     0.167 HD
ATOM     67  C   UNL A   1      45.152  25.261  27.040  1.00  0.00     0.074 A 
ATOM     68  C   UNL A   1      46.143  24.324  26.551  1.00  0.00     0.031 C 
ATOM     69  C   UNL A   1      43.859  24.941  27.300  1.00  0.00     0.037 A 
BRANCH  56  70
ATOM     70  C   UNL A   1      40.444  29.637  29.437  1.00  0.00     0.058 A 
ATOM     71  C   UNL A   1      40.236  29.893  30.803  1.00  0.00     0.135 A 
ATOM     72  C   UNL A   1      39.371  29.867  28.559  1.00  0.00     0.135 A 
ATOM     73  F   UNL A   1      41.221  29.676  31.689  1.00  0.00    -0.206 F 
ATOM     74  C   UNL A   1      39.005  30.327  31.284  1.00  0.00     0.059 A 
ATOM     75  C   UNL A   1      38.140  30.331  29.015  1.00  0.00     0.059 A 
ATOM     76  F   UNL A   1      39.512  29.640  27.244  1.00  0.00    -0.206 F 
ATOM     77  C   UNL A   1      37.962  30.543  30.382  1.00  0.00     0.060 A 
BRANCH  77  78
ATOM     78  S   UNL A   1      36.372  31.108  31.024  1.00  0.00     0.124 S 
ATOM     79  O   UNL A   1      36.758  32.338  31.709  1.00  0.00    -0.237 OA
ATOM     80  O   UNL A   1      35.588  31.281  29.806  1.00  0.00    -0.237 OA
ATOM     81  O   UNL A   1      35.947  30.014  31.891  1.00  0.00    -0.744 OA
ENDBRANCH  77  78
ENDBRANCH  56  70
BRANCH  57  82
ATOM     82  C   UNL A   1      49.518  26.853  26.263  1.00  0.00     0.058 A 
ATOM     83  C   UNL A   1      50.429  26.288  27.169  1.00  0.00     0.135 A 
ATOM     84  C   UNL A   1      49.925  26.985  24.926  1.00  0.00     0.135 A 
ATOM     85  F   UNL A   1      50.088  26.141  28.458  1.00  0.00    -0.206 F 
ATOM     86  C   UNL A   1      51.700  25.887  26.771  1.00  0.00     0.059 A 
ATOM     87  C   UNL A   1      51.182  26.568  24.499  1.00  0.00     0.059 A 
ATOM     88  F   UNL A   1      49.084  27.500  24.015  1.00  0.00    -0.206 F 
ATOM     89  C   UNL A   1      52.067  26.029  25.432  1.00  0.00     0.060 A 
BRANCH  89  90
ATOM     90  S   UNL A   1      53.703  25.462  24.919  1.00  0.00     0.124 S 
ATOM     91  O   UNL A   1      53.682  25.756  23.490  1.00  0.00    -0.237 OA
ATOM     92  O   UNL A   1      54.584  26.297  25.730  1.00  0.00    -0.237 OA
ATOM     93  O   UNL A   1      53.694  24.046  25.273  1.00  0.00    -0.744 OA
ENDBRANCH  89  90
ENDBRANCH  57  82
BRANCH  69  94
ATOM     94  C   UNL A   1      43.432  23.524  27.030  1.00  0.00     0.058 A 
ATOM     95  C   UNL A   1      43.203  22.612  28.071  1.00  0.00     0.135 A 
ATOM     96  C   UNL A   1      43.200  23.092  25.714  1.00  0.00     0.135 A 
ATOM     97  F   UNL A   1      43.417  22.972  29.346  1.00  0.00    -0.206 F 
ATOM     98  C   UNL A   1      42.782  21.310  27.815  1.00  0.00     0.059 A 
ATOM     99  C   UNL A   1      42.749  21.806  25.437  1.00  0.00     0.059 A 
ATOM    100  F   UNL A   1      43.394  23.929  24.682  1.00  0.00    -0.206 F 
ATOM    101  C   UNL A   1      42.554  20.918  26.494  1.00  0.00     0.060 A 
BRANCH 101 102
ATOM    102  S   UNL A   1      41.973  19.239  26.180  1.00  0.00     0.124 S 
ATOM    103  O   UNL A   1      42.332  18.566  27.424  1.00  0.00    -0.237 OA
ATOM    104  O   UNL A   1      40.545  19.441  25.957  1.00  0.00    -0.237 OA
ATOM    105  O   UNL A   1      42.734  18.831  25.003  1.00  0.00    -0.744 OA
ENDBRANCH 101 102
ENDBRANCH  69  94
ENDBRANCH  43  44
ENDBRANCH  35  38
ENDBRANCH  33  34
ENDBRANCH  32  33
ENDBRANCH   1  32
TORSDOF 17
ENDMDL
MODEL 3
REMARK VINA RESULT:      -9.0      4.436     12.527
REMARK SMILES O=C(CCC(=O)/[NH+]=C1\S[C@H]2CS(=O)(=O)C[C@@H]2N1c1ccc2c(c1)OCO2)NCCCCNC(=O)c1ccc(-c2c3nc(c(-c4c(F)cc(S(=O)(=O)[O-])cc4F)c4ccc([nH]4)c(-c4c(F)cc(S(=O)(=O)[O-])cc4F)c4nc(c(-c5c(F)cc(S(=O)(=O)[O-])cc5F)c5ccc2[nH]5)C=C4)C=C3)cc1
REMARK SMILES IDX 29 1 28 2 27 3 2 4 1 5 3 7 4 8 5 9 6 10 7 11 8 12 9 14 17 15
REMARK SMILES IDX 10 16 16 17 11 18 15 19 12 20 13 21 14 22 18 23 19 24 23 25
REMARK SMILES IDX 20 26 22 27 21 28 24 29 26 30 25 31 30 32 31 33 32 34 33 35
REMARK SMILES IDX 34 37 35 38 36 39 100 40 37 41 99 42 38 43 39 44 40 45 93 46
REMARK SMILES IDX 41 47 98 48 92 49 94 50 42 51 97 52 91 53 90 54 43 56 77 57
REMARK SMILES IDX 56 58 76 59 57 60 60 61 75 62 95 63 58 64 59 65 74 67 96 68
REMARK SMILES IDX 61 69 44 70 45 71 54 72 46 73 47 74 53 75 55 76 48 77 49 78
REMARK SMILES IDX 50 79 51 80 52 81 78 82 79 83 88 84 80 85 81 86 87 87 89 88
REMARK SMILES IDX 82 89 83 90 84 91 85 92 86 93 62 94 63 95 72 96 64 97 65 98
REMARK SMILES IDX 71 99 73 100 66 101 67 102 68 103 69 104 70 105
REMARK H PARENT 27 6 7 13 32 36 94 55 60 66
REMARK Flexibility Score: inf
ROOT
ATOM      1  C   UNL A   1      44.356  25.420  25.828  1.00  0.00     0.023 C 
ENDROOT
BRANCH   1   2
ATOM      2  C   UNL A   1      45.882  25.473  25.917  1.00  0.00     0.116 C 
BRANCH   2   3
ATOM      3  N   UNL A   1      46.526  26.080  24.767  1.00  0.00    -0.356 N 
ATOM      4  C   UNL A   1      47.833  26.096  24.396  1.00  0.00     0.220 C 
ATOM      5  O   UNL A   1      48.143  26.617  23.322  1.00  0.00    -0.275 OA
ATOM      6  H   UNL A   1      45.918  26.556  24.157  1.00  0.00     0.163 HD
BRANCH   4   7
ATOM      7  C   UNL A   1      48.881  25.479  25.282  1.00  0.00     0.112 C 
BRANCH   7   8
ATOM      8  C   UNL A   1      49.880  26.395  25.975  1.00  0.00     0.138 C 
BRANCH   8   9
ATOM      9  C   UNL A   1      49.896  26.651  27.480  1.00  0.00     0.308 C 
ATOM     10  O   UNL A   1      50.986  26.779  28.039  1.00  0.00    -0.247 OA
ATOM     11  N   UNL A   1      48.732  26.692  28.188  1.00  0.00    -0.204 N 
ATOM     12  C   UNL A   1      47.871  27.645  28.056  1.00  0.00     0.319 C 
ATOM     13  H   UNL A   1      48.540  25.967  28.827  1.00  0.00     0.316 HD
ATOM     14  S   UNL A   1      48.028  29.003  26.903  1.00  0.00    -0.029 SA
ATOM     15  N   UNL A   1      46.644  27.732  28.710  1.00  0.00    -0.216 N 
ATOM     16  C   UNL A   1      46.469  29.708  27.481  1.00  0.00     0.120 C 
ATOM     17  C   UNL A   1      45.663  28.493  27.957  1.00  0.00     0.212 C 
ATOM     18  C   UNL A   1      45.552  30.426  26.529  1.00  0.00     0.156 C 
ATOM     19  C   UNL A   1      44.444  29.094  28.619  1.00  0.00     0.188 C 
ATOM     20  S   UNL A   1      44.011  30.407  27.458  1.00  0.00     0.155 S 
ATOM     21  O   UNL A   1      43.919  31.658  28.189  1.00  0.00    -0.229 OA
ATOM     22  O   UNL A   1      42.963  29.942  26.583  1.00  0.00    -0.229 OA
BRANCH  15  23
ATOM     23  C   UNL A   1      46.368  27.167  29.954  1.00  0.00     0.132 A 
ATOM     24  C   UNL A   1      46.755  27.788  31.164  1.00  0.00     0.056 A 
ATOM     25  C   UNL A   1      45.656  25.956  30.015  1.00  0.00     0.102 A 
ATOM     26  C   UNL A   1      46.409  27.239  32.407  1.00  0.00     0.055 A 
ATOM     27  C   UNL A   1      45.320  25.442  31.246  1.00  0.00     0.170 A 
ATOM     28  C   UNL A   1      45.670  26.078  32.410  1.00  0.00     0.166 A 
ATOM     29  O   UNL A   1      44.596  24.313  31.463  1.00  0.00    -0.453 OA
ATOM     30  O   UNL A   1      45.172  25.449  33.503  1.00  0.00    -0.454 OA
ATOM     31  C   UNL A   1      44.399  24.396  32.889  1.00  0.00     0.468 C 
ENDBRANCH  15  23
ENDBRANCH   8   9
ENDBRANCH   7   8
ENDBRANCH   4   7
ENDBRANCH   2   3
ENDBRANCH   1   2
BRANCH   1  32
ATOM     32  C   UNL A   1      43.742  24.031  25.992  1.00  0.00     0.023 C 
BRANCH  32  33
ATOM     33  C   UNL A   1      42.542  23.962  26.922  1.00  0.00     0.116 C 
BRANCH  33  34
ATOM     34  N   UNL A   1      41.294  24.080  26.194  1.00  0.00    -0.352 N 
ATOM     35  C   UNL A   1      40.150  24.753  26.544  1.00  0.00     0.251 C 
ATOM     36  H   UNL A   1      41.263  23.612  25.328  1.00  0.00     0.163 HD
ATOM     37  O   UNL A   1      39.106  24.511  25.945  1.00  0.00    -0.269 OA
BRANCH  35  38
ATOM     38  C   UNL A   1      40.166  25.763  27.631  1.00  0.00     0.039 A 
ATOM     39  C   UNL A   1      39.319  25.582  28.728  1.00  0.00     0.014 A 
ATOM     40  C   UNL A   1      40.955  26.914  27.549  1.00  0.00     0.014 A 
ATOM     41  C   UNL A   1      39.282  26.539  29.747  1.00  0.00     0.010 A 
ATOM     42  C   UNL A   1      40.980  27.823  28.605  1.00  0.00     0.010 A 
ATOM     43  C   UNL A   1      40.125  27.661  29.706  1.00  0.00    -0.014 A 
BRANCH  43  44
ATOM     44  C   UNL A   1      40.100  28.689  30.783  1.00  0.00     0.031 A 
ATOM     45  C   UNL A   1      41.000  28.550  31.982  1.00  0.00     0.074 A 
ATOM     46  C   UNL A   1      39.236  29.722  30.709  1.00  0.00     0.049 A 
ATOM     47  N   UNL A   1      41.084  29.311  33.044  1.00  0.00    -0.248 NA
ATOM     48  C   UNL A   1      41.909  27.393  32.004  1.00  0.00     0.031 C 
ATOM     49  C   UNL A   1      38.295  29.953  29.614  1.00  0.00     0.029 A 
ATOM     50  N   UNL A   1      38.995  30.763  31.569  1.00  0.00    -0.354 N 
ATOM     51  C   UNL A   1      42.046  28.722  33.858  1.00  0.00     0.074 A 
ATOM     52  C   UNL A   1      42.466  27.505  33.201  1.00  0.00     0.031 C 
ATOM     53  C   UNL A   1      37.577  31.058  29.865  1.00  0.00     0.029 A 
ATOM     54  C   UNL A   1      37.996  31.610  31.148  1.00  0.00     0.049 A 
ATOM     55  H   UNL A   1      39.492  30.892  32.410  1.00  0.00     0.167 HD
ATOM     56  C   UNL A   1      42.556  29.172  35.028  1.00  0.00     0.037 A 
ATOM     57  C   UNL A   1      37.475  32.710  31.725  1.00  0.00     0.037 A 
ATOM     58  C   UNL A   1      42.153  30.402  35.659  1.00  0.00     0.049 A 
ATOM     59  C   UNL A   1      38.051  33.188  33.028  1.00  0.00     0.074 A 
ATOM     60  C   UNL A   1      42.653  30.981  36.813  1.00  0.00     0.029 A 
ATOM     61  N   UNL A   1      41.154  31.243  35.191  1.00  0.00    -0.354 N 
ATOM     62  N   UNL A   1      39.011  32.655  33.747  1.00  0.00    -0.248 NA
ATOM     63  C   UNL A   1      37.490  34.423  33.591  1.00  0.00     0.031 C 
ATOM     64  C   UNL A   1      41.921  32.146  37.068  1.00  0.00     0.029 A 
ATOM     65  C   UNL A   1      41.004  32.323  36.045  1.00  0.00     0.049 A 
ATOM     66  H   UNL A   1      40.628  31.093  34.372  1.00  0.00     0.167 HD
ATOM     67  C   UNL A   1      39.191  33.507  34.830  1.00  0.00     0.074 A 
ATOM     68  C   UNL A   1      38.248  34.595  34.665  1.00  0.00     0.031 C 
ATOM     69  C   UNL A   1      40.062  33.400  35.864  1.00  0.00     0.037 A 
BRANCH  56  70
ATOM     70  C   UNL A   1      43.614  28.336  35.698  1.00  0.00     0.058 A 
ATOM     71  C   UNL A   1      44.983  28.545  35.458  1.00  0.00     0.135 A 
ATOM     72  C   UNL A   1      43.258  27.333  36.616  1.00  0.00     0.135 A 
ATOM     73  F   UNL A   1      45.380  29.479  34.579  1.00  0.00    -0.206 F 
ATOM     74  C   UNL A   1      45.958  27.769  36.076  1.00  0.00     0.059 A 
ATOM     75  C   UNL A   1      44.219  26.566  37.270  1.00  0.00     0.059 A 
ATOM     76  F   UNL A   1      41.966  27.090  36.884  1.00  0.00    -0.206 F 
ATOM     77  C   UNL A   1      45.566  26.781  36.980  1.00  0.00     0.060 A 
BRANCH  77  78
ATOM     78  S   UNL A   1      46.845  25.785  37.775  1.00  0.00     0.124 S 
ATOM     79  O   UNL A   1      48.060  26.390  37.235  1.00  0.00    -0.237 OA
ATOM     80  O   UNL A   1      46.594  26.027  39.191  1.00  0.00    -0.237 OA
ATOM     81  O   UNL A   1      46.559  24.431  37.312  1.00  0.00    -0.744 OA
ENDBRANCH  77  78
ENDBRANCH  56  70
BRANCH  57  82
ATOM     82  C   UNL A   1      36.377  33.454  31.050  1.00  0.00     0.058 A 
ATOM     83  C   UNL A   1      35.075  33.449  31.572  1.00  0.00     0.135 A 
ATOM     84  C   UNL A   1      36.610  34.202  29.886  1.00  0.00     0.135 A 
ATOM     85  F   UNL A   1      34.801  32.749  32.683  1.00  0.00    -0.206 F 
ATOM     86  C   UNL A   1      34.039  34.142  30.955  1.00  0.00     0.059 A 
ATOM     87  C   UNL A   1      35.595  34.924  29.264  1.00  0.00     0.059 A 
ATOM     88  F   UNL A   1      37.843  34.257  29.357  1.00  0.00    -0.206 F 
ATOM     89  C   UNL A   1      34.309  34.879  29.801  1.00  0.00     0.060 A 
BRANCH  89  90
ATOM     90  S   UNL A   1      32.965  35.811  29.035  1.00  0.00     0.124 S 
ATOM     91  O   UNL A   1      32.358  34.799  28.178  1.00  0.00    -0.237 OA
ATOM     92  O   UNL A   1      32.179  36.222  30.195  1.00  0.00    -0.237 OA
ATOM     93  O   UNL A   1      33.659  36.893  28.342  1.00  0.00    -0.744 OA
ENDBRANCH  89  90
ENDBRANCH  57  82
BRANCH  69  94
ATOM     94  C   UNL A   1      40.060  34.504  36.885  1.00  0.00     0.058 A 
ATOM     95  C   UNL A   1      39.163  34.510  37.964  1.00  0.00     0.135 A 
ATOM     96  C   UNL A   1      41.002  35.543  36.809  1.00  0.00     0.135 A 
ATOM     97  F   UNL A   1      38.237  33.545  38.079  1.00  0.00    -0.206 F 
ATOM     98  C   UNL A   1      39.184  35.520  38.920  1.00  0.00     0.059 A 
ATOM     99  C   UNL A   1      41.062  36.546  37.770  1.00  0.00     0.059 A 
ATOM    100  F   UNL A   1      41.890  35.579  35.802  1.00  0.00    -0.206 F 
ATOM    101  C   UNL A   1      40.141  36.533  38.816  1.00  0.00     0.060 A 
BRANCH 101 102
ATOM    102  S   UNL A   1      40.180  37.817  40.083  1.00  0.00     0.124 S 
ATOM    103  O   UNL A   1      40.317  37.025  41.300  1.00  0.00    -0.237 OA
ATOM    104  O   UNL A   1      41.351  38.598  39.698  1.00  0.00    -0.237 OA
ATOM    105  O   UNL A   1      38.899  38.497  39.918  1.00  0.00    -0.744 OA
ENDBRANCH 101 102
ENDBRANCH  69  94
ENDBRANCH  43  44
ENDBRANCH  35  38
ENDBRANCH  33  34
ENDBRANCH  32  33
ENDBRANCH   1  32
TORSDOF 17
ENDMDL
