MODEL 1
REMARK VINA RESULT:     -11.0      0.000      0.000
REMARK SMILES CN(c1ccc(C(=O)NCCCCNC(=O)c2ccc(-c3c4nc(c(-c5c(F)cc(S(=O)(=O)[O-])cc5F)c5ccc([nH]5)c(-c5c(F)cc(S(=O)(=O)[O-])cc5F)c5nc(c(-c6c(F)cc(S(=O)(=O)[O-])cc6F)c6ccc3[nH]6)C=C5)C=C4)cc2)cc1)S(C)(=O)=O
REMARK SMILES IDX 12 1 11 2 10 3 9 4 7 5 8 6 6 8 3 9 4 10 84 11 5 12 83 13
REMARK SMILES IDX 2 14 1 15 85 16 86 17 87 18 88 19 13 20 14 21 15 22 16 24
REMARK SMILES IDX 17 25 18 26 82 27 19 28 81 29 20 30 21 31 22 32 75 33 23 34
REMARK SMILES IDX 80 35 74 36 76 37 24 38 79 39 73 40 72 41 25 43 59 44 38 45
REMARK SMILES IDX 58 46 39 47 42 48 57 49 77 50 40 51 41 52 56 54 78 55 43 56
REMARK SMILES IDX 26 57 27 58 36 59 28 60 29 61 35 62 37 63 30 64 31 65 32 66
REMARK SMILES IDX 33 67 34 68 60 69 61 70 70 71 62 72 63 73 69 74 71 75 64 76
REMARK SMILES IDX 65 77 66 78 67 79 68 80 44 81 45 82 54 83 46 84 47 85 53 86
REMARK SMILES IDX 55 87 48 88 49 89 50 90 51 91 52 92
REMARK H PARENT 9 7 14 23 76 42 42 53
REMARK Flexibility Score: inf
ROOT
ATOM      1  C   UNL A   1      33.536  27.449  26.514  1.00  0.00     0.023 C 
ENDROOT
BRANCH   1   2
ATOM      2  C   UNL A   1      32.007  27.511  26.483  1.00  0.00     0.023 C 
BRANCH   2   3
ATOM      3  C   UNL A   1      31.333  26.141  26.385  1.00  0.00     0.116 C 
BRANCH   3   4
ATOM      4  N   UNL A   1      31.711  25.487  25.150  1.00  0.00    -0.352 N 
ATOM      5  C   UNL A   1      31.370  25.726  23.845  1.00  0.00     0.251 C 
ATOM      6  O   UNL A   1      31.857  24.992  22.984  1.00  0.00    -0.269 OA
ATOM      7  H   UNL A   1      32.329  24.730  25.271  1.00  0.00     0.163 HD
BRANCH   5   8
ATOM      8  C   UNL A   1      30.501  26.860  23.418  1.00  0.00     0.039 A 
ATOM      9  C   UNL A   1      29.056  29.146  22.624  1.00  0.00     0.051 A 
ATOM     10  C   UNL A   1      30.420  29.046  22.349  1.00  0.00     0.028 A 
ATOM     11  C   UNL A   1      28.401  28.080  23.238  1.00  0.00     0.028 A 
ATOM     12  C   UNL A   1      31.136  27.913  22.745  1.00  0.00     0.016 A 
ATOM     13  C   UNL A   1      29.118  26.934  23.612  1.00  0.00     0.016 A 
BRANCH   9  14
ATOM     14  N   UNL A   1      28.361  30.349  22.290  1.00  0.00    -0.274 N 
ATOM     15  C   UNL A   1      28.071  30.641  20.881  1.00  0.00     0.163 C 
BRANCH  14  16
ATOM     16  S   UNL A   1      28.270  31.604  23.419  1.00  0.00     0.231 S 
ATOM     17  C   UNL A   1      28.490  33.040  22.389  1.00  0.00     0.183 C 
ATOM     18  O   UNL A   1      26.907  31.653  23.917  1.00  0.00    -0.207 OA
ATOM     19  O   UNL A   1      29.389  31.544  24.333  1.00  0.00    -0.207 OA
ENDBRANCH  14  16
ENDBRANCH   9  14
ENDBRANCH   5   8
ENDBRANCH   3   4
ENDBRANCH   2   3
ENDBRANCH   1   2
BRANCH   1  20
ATOM     20  C   UNL A   1      34.232  28.598  25.797  1.00  0.00     0.116 C 
BRANCH  20  21
ATOM     21  N   UNL A   1      33.816  29.906  26.279  1.00  0.00    -0.352 N 
ATOM     22  C   UNL A   1      34.374  30.657  27.283  1.00  0.00     0.251 C 
ATOM     23  H   UNL A   1      33.035  30.303  25.828  1.00  0.00     0.163 HD
ATOM     24  O   UNL A   1      33.825  31.684  27.667  1.00  0.00    -0.269 OA
BRANCH  22  25
ATOM     25  C   UNL A   1      35.624  30.188  27.914  1.00  0.00     0.039 A 
ATOM     26  C   UNL A   1      36.841  30.426  27.273  1.00  0.00     0.014 A 
ATOM     27  C   UNL A   1      35.591  29.551  29.158  1.00  0.00     0.014 A 
ATOM     28  C   UNL A   1      38.031  30.065  27.905  1.00  0.00     0.010 A 
ATOM     29  C   UNL A   1      36.779  29.274  29.822  1.00  0.00     0.010 A 
ATOM     30  C   UNL A   1      38.011  29.509  29.194  1.00  0.00    -0.014 A 
BRANCH  30  31
ATOM     31  C   UNL A   1      39.267  29.129  29.889  1.00  0.00     0.031 A 
ATOM     32  C   UNL A   1      39.682  29.864  31.137  1.00  0.00     0.074 A 
ATOM     33  C   UNL A   1      40.056  28.164  29.374  1.00  0.00     0.049 A 
ATOM     34  N   UNL A   1      40.762  29.722  31.860  1.00  0.00    -0.248 NA
ATOM     35  C   UNL A   1      38.775  30.920  31.618  1.00  0.00     0.031 C 
ATOM     36  C   UNL A   1      39.786  27.417  28.144  1.00  0.00     0.029 A 
ATOM     37  N   UNL A   1      41.248  27.652  29.817  1.00  0.00    -0.354 N 
ATOM     38  C   UNL A   1      40.671  30.674  32.867  1.00  0.00     0.074 A 
ATOM     39  C   UNL A   1      39.465  31.434  32.624  1.00  0.00     0.031 C 
ATOM     40  C   UNL A   1      40.769  26.523  27.948  1.00  0.00     0.029 A 
ATOM     41  C   UNL A   1      41.757  26.659  29.012  1.00  0.00     0.049 A 
ATOM     42  H   UNL A   1      41.699  27.965  30.635  1.00  0.00     0.167 HD
ATOM     43  C   UNL A   1      41.499  30.878  33.919  1.00  0.00     0.037 A 
ATOM     44  C   UNL A   1      42.895  25.944  29.121  1.00  0.00     0.037 A 
ATOM     45  C   UNL A   1      42.685  30.102  34.165  1.00  0.00     0.049 A 
ATOM     46  C   UNL A   1      43.801  26.190  30.298  1.00  0.00     0.074 A 
ATOM     47  C   UNL A   1      43.569  30.194  35.226  1.00  0.00     0.029 A 
ATOM     48  N   UNL A   1      43.154  29.088  33.342  1.00  0.00    -0.354 N 
ATOM     49  N   UNL A   1      43.670  27.055  31.276  1.00  0.00    -0.248 NA
ATOM     50  C   UNL A   1      45.005  25.352  30.395  1.00  0.00     0.031 C 
ATOM     51  C   UNL A   1      44.600  29.273  35.016  1.00  0.00     0.029 A 
ATOM     52  C   UNL A   1      44.324  28.559  33.861  1.00  0.00     0.049 A 
ATOM     53  H   UNL A   1      42.719  28.790  32.509  1.00  0.00     0.167 HD
ATOM     54  C   UNL A   1      44.749  26.836  32.125  1.00  0.00     0.074 A 
ATOM     55  C   UNL A   1      45.520  25.754  31.549  1.00  0.00     0.031 C 
ATOM     56  C   UNL A   1      45.070  27.469  33.282  1.00  0.00     0.037 A 
BRANCH  43  57
ATOM     57  C   UNL A   1      41.149  31.984  34.880  1.00  0.00     0.058 A 
ATOM     58  C   UNL A   1      40.258  31.781  35.947  1.00  0.00     0.135 A 
ATOM     59  C   UNL A   1      41.732  33.253  34.750  1.00  0.00     0.135 A 
ATOM     60  F   UNL A   1      39.656  30.591  36.111  1.00  0.00    -0.206 F 
ATOM     61  C   UNL A   1      39.933  32.805  36.830  1.00  0.00     0.059 A 
ATOM     62  C   UNL A   1      41.448  34.285  35.642  1.00  0.00     0.059 A 
ATOM     63  F   UNL A   1      42.589  33.506  33.748  1.00  0.00    -0.206 F 
ATOM     64  C   UNL A   1      40.535  34.054  36.670  1.00  0.00     0.060 A 
BRANCH  64  65
ATOM     65  S   UNL A   1      40.106  35.370  37.829  1.00  0.00     0.124 S 
ATOM     66  O   UNL A   1      39.786  36.466  36.919  1.00  0.00    -0.237 OA
ATOM     67  O   UNL A   1      38.976  34.793  38.549  1.00  0.00    -0.237 OA
ATOM     68  O   UNL A   1      41.325  35.543  38.613  1.00  0.00    -0.744 OA
ENDBRANCH  64  65
ENDBRANCH  43  57
BRANCH  44  69
ATOM     69  C   UNL A   1      43.223  24.908  28.105  1.00  0.00     0.058 A 
ATOM     70  C   UNL A   1      44.023  25.212  26.992  1.00  0.00     0.135 A 
ATOM     71  C   UNL A   1      42.751  23.592  28.226  1.00  0.00     0.135 A 
ATOM     72  F   UNL A   1      44.497  26.456  26.828  1.00  0.00    -0.206 F 
ATOM     73  C   UNL A   1      44.323  24.259  26.025  1.00  0.00     0.059 A 
ATOM     74  C   UNL A   1      43.061  22.612  27.287  1.00  0.00     0.059 A 
ATOM     75  F   UNL A   1      41.997  23.242  29.280  1.00  0.00    -0.206 F 
ATOM     76  C   UNL A   1      43.839  22.959  26.182  1.00  0.00     0.060 A 
BRANCH  76  77
ATOM     77  S   UNL A   1      44.269  21.719  24.942  1.00  0.00     0.124 S 
ATOM     78  O   UNL A   1      45.675  21.479  25.243  1.00  0.00    -0.237 OA
ATOM     79  O   UNL A   1      43.351  20.631  25.268  1.00  0.00    -0.237 OA
ATOM     80  O   UNL A   1      44.000  22.399  23.679  1.00  0.00    -0.744 OA
ENDBRANCH  76  77
ENDBRANCH  44  69
BRANCH  56  81
ATOM     81  C   UNL A   1      46.270  26.966  34.040  1.00  0.00     0.058 A 
ATOM     82  C   UNL A   1      47.554  27.499  33.846  1.00  0.00     0.135 A 
ATOM     83  C   UNL A   1      46.117  25.961  35.010  1.00  0.00     0.135 A 
ATOM     84  F   UNL A   1      47.757  28.459  32.931  1.00  0.00    -0.206 F 
ATOM     85  C   UNL A   1      48.650  27.027  34.562  1.00  0.00     0.059 A 
ATOM     86  C   UNL A   1      47.193  25.500  35.761  1.00  0.00     0.059 A 
ATOM     87  F   UNL A   1      44.908  25.427  35.246  1.00  0.00    -0.206 F 
ATOM     88  C   UNL A   1      48.459  26.027  35.517  1.00  0.00     0.060 A 
BRANCH  88  89
ATOM     89  S   UNL A   1      49.886  25.436  36.451  1.00  0.00     0.124 S 
ATOM     90  O   UNL A   1      50.925  25.427  35.426  1.00  0.00    -0.237 OA
ATOM     91  O   UNL A   1      50.026  26.457  37.486  1.00  0.00    -0.237 OA
ATOM     92  O   UNL A   1      49.463  24.123  36.927  1.00  0.00    -0.744 OA
ENDBRANCH  88  89
ENDBRANCH  56  81
ENDBRANCH  30  31
ENDBRANCH  22  25
ENDBRANCH  20  21
ENDBRANCH   1  20
TORSDOF 16
ENDMDL
MODEL 2
REMARK VINA RESULT:     -11.0      4.951     11.356
REMARK SMILES CN(c1ccc(C(=O)NCCCCNC(=O)c2ccc(-c3c4nc(c(-c5c(F)cc(S(=O)(=O)[O-])cc5F)c5ccc([nH]5)c(-c5c(F)cc(S(=O)(=O)[O-])cc5F)c5nc(c(-c6c(F)cc(S(=O)(=O)[O-])cc6F)c6ccc3[nH]6)C=C5)C=C4)cc2)cc1)S(C)(=O)=O
REMARK SMILES IDX 12 1 11 2 10 3 9 4 7 5 8 6 6 8 3 9 4 10 84 11 5 12 83 13
REMARK SMILES IDX 2 14 1 15 85 16 86 17 87 18 88 19 13 20 14 21 15 22 16 24
REMARK SMILES IDX 17 25 18 26 82 27 19 28 81 29 20 30 21 31 22 32 75 33 23 34
REMARK SMILES IDX 80 35 74 36 76 37 24 38 79 39 73 40 72 41 25 43 59 44 38 45
REMARK SMILES IDX 58 46 39 47 42 48 57 49 77 50 40 51 41 52 56 54 78 55 43 56
REMARK SMILES IDX 26 57 27 58 36 59 28 60 29 61 35 62 37 63 30 64 31 65 32 66
REMARK SMILES IDX 33 67 34 68 60 69 61 70 70 71 62 72 63 73 69 74 71 75 64 76
REMARK SMILES IDX 65 77 66 78 67 79 68 80 44 81 45 82 54 83 46 84 47 85 53 86
REMARK SMILES IDX 55 87 48 88 49 89 50 90 51 91 52 92
REMARK H PARENT 9 7 14 23 76 42 42 53
REMARK Flexibility Score: inf
ROOT
ATOM      1  C   UNL A   1      41.956  22.319  27.063  1.00  0.00     0.023 C 
ENDROOT
BRANCH   1   2
ATOM      2  C   UNL A   1      42.472  23.279  28.139  1.00  0.00     0.023 C 
BRANCH   2   3
ATOM      3  C   UNL A   1      43.856  22.918  28.681  1.00  0.00     0.116 C 
BRANCH   3   4
ATOM      4  N   UNL A   1      44.789  22.744  27.588  1.00  0.00    -0.352 N 
ATOM      5  C   UNL A   1      45.443  23.645  26.788  1.00  0.00     0.251 C 
ATOM      6  O   UNL A   1      46.194  23.198  25.921  1.00  0.00    -0.269 OA
ATOM      7  H   UNL A   1      44.993  21.804  27.381  1.00  0.00     0.163 HD
BRANCH   5   8
ATOM      8  C   UNL A   1      45.339  25.123  26.962  1.00  0.00     0.039 A 
ATOM      9  C   UNL A   1      45.034  27.922  27.071  1.00  0.00     0.051 A 
ATOM     10  C   UNL A   1      44.134  27.145  26.342  1.00  0.00     0.028 A 
ATOM     11  C   UNL A   1      46.048  27.298  27.796  1.00  0.00     0.028 A 
ATOM     12  C   UNL A   1      44.287  25.757  26.287  1.00  0.00     0.016 A 
ATOM     13  C   UNL A   1      46.184  25.903  27.758  1.00  0.00     0.016 A 
BRANCH   9  14
ATOM     14  N   UNL A   1      44.913  29.346  27.043  1.00  0.00    -0.274 N 
ATOM     15  C   UNL A   1      43.664  29.967  27.504  1.00  0.00     0.163 C 
BRANCH  14  16
ATOM     16  S   UNL A   1      45.980  30.259  26.102  1.00  0.00     0.231 S 
ATOM     17  C   UNL A   1      47.314  30.553  27.244  1.00  0.00     0.183 C 
ATOM     18  O   UNL A   1      46.504  29.392  25.062  1.00  0.00    -0.207 OA
ATOM     19  O   UNL A   1      45.394  31.538  25.771  1.00  0.00    -0.207 OA
ENDBRANCH  14  16
ENDBRANCH   9  14
ENDBRANCH   5   8
ENDBRANCH   3   4
ENDBRANCH   2   3
ENDBRANCH   1   2
BRANCH   1  20
ATOM     20  C   UNL A   1      40.579  21.733  27.344  1.00  0.00     0.116 C 
BRANCH  20  21
ATOM     21  N   UNL A   1      39.624  21.987  26.276  1.00  0.00    -0.352 N 
ATOM     22  C   UNL A   1      38.948  23.150  26.002  1.00  0.00     0.251 C 
ATOM     23  H   UNL A   1      39.440  21.229  25.673  1.00  0.00     0.163 HD
ATOM     24  O   UNL A   1      38.070  23.168  25.146  1.00  0.00    -0.269 OA
BRANCH  22  25
ATOM     25  C   UNL A   1      39.270  24.362  26.779  1.00  0.00     0.039 A 
ATOM     26  C   UNL A   1      38.799  24.476  28.088  1.00  0.00     0.014 A 
ATOM     27  C   UNL A   1      40.072  25.364  26.225  1.00  0.00     0.014 A 
ATOM     28  C   UNL A   1      39.174  25.578  28.859  1.00  0.00     0.010 A 
ATOM     29  C   UNL A   1      40.514  26.413  27.022  1.00  0.00     0.010 A 
ATOM     30  C   UNL A   1      40.054  26.541  28.341  1.00  0.00    -0.014 A 
BRANCH  30  31
ATOM     31  C   UNL A   1      40.474  27.714  29.148  1.00  0.00     0.031 A 
ATOM     32  C   UNL A   1      41.809  27.700  29.846  1.00  0.00     0.074 A 
ATOM     33  C   UNL A   1      39.641  28.764  29.295  1.00  0.00     0.049 A 
ATOM     34  N   UNL A   1      42.338  28.597  30.636  1.00  0.00    -0.248 NA
ATOM     35  C   UNL A   1      42.647  26.505  29.652  1.00  0.00     0.031 C 
ATOM     36  C   UNL A   1      38.303  28.871  28.709  1.00  0.00     0.029 A 
ATOM     37  N   UNL A   1      39.794  29.938  29.986  1.00  0.00    -0.354 N 
ATOM     38  C   UNL A   1      43.558  28.071  31.043  1.00  0.00     0.074 A 
ATOM     39  C   UNL A   1      43.661  26.748  30.468  1.00  0.00     0.031 C 
ATOM     40  C   UNL A   1      37.771  30.058  29.043  1.00  0.00     0.029 A 
ATOM     41  C   UNL A   1      38.709  30.779  29.897  1.00  0.00     0.049 A 
ATOM     42  H   UNL A   1      40.605  30.160  30.500  1.00  0.00     0.167 HD
ATOM     43  C   UNL A   1      44.520  28.648  31.801  1.00  0.00     0.037 A 
ATOM     44  C   UNL A   1      38.496  31.991  30.445  1.00  0.00     0.037 A 
ATOM     45  C   UNL A   1      44.418  29.974  32.351  1.00  0.00     0.049 A 
ATOM     46  C   UNL A   1      39.580  32.613  31.286  1.00  0.00     0.074 A 
ATOM     47  C   UNL A   1      45.354  30.671  33.093  1.00  0.00     0.029 A 
ATOM     48  N   UNL A   1      43.314  30.804  32.217  1.00  0.00    -0.354 N 
ATOM     49  N   UNL A   1      40.754  32.125  31.613  1.00  0.00    -0.248 NA
ATOM     50  C   UNL A   1      39.317  33.955  31.822  1.00  0.00     0.031 C 
ATOM     51  C   UNL A   1      44.796  31.903  33.452  1.00  0.00     0.029 A 
ATOM     52  C   UNL A   1      43.539  32.000  32.878  1.00  0.00     0.049 A 
ATOM     53  H   UNL A   1      42.492  30.575  31.725  1.00  0.00     0.167 HD
ATOM     54  C   UNL A   1      41.385  33.118  32.355  1.00  0.00     0.074 A 
ATOM     55  C   UNL A   1      40.465  34.234  32.425  1.00  0.00     0.031 C 
ATOM     56  C   UNL A   1      42.617  33.109  32.922  1.00  0.00     0.037 A 
BRANCH  43  57
ATOM     57  C   UNL A   1      45.765  27.847  32.079  1.00  0.00     0.058 A 
ATOM     58  C   UNL A   1      45.801  26.858  33.076  1.00  0.00     0.135 A 
ATOM     59  C   UNL A   1      46.929  28.051  31.321  1.00  0.00     0.135 A 
ATOM     60  F   UNL A   1      44.723  26.630  33.845  1.00  0.00    -0.206 F 
ATOM     61  C   UNL A   1      46.954  26.123  33.333  1.00  0.00     0.059 A 
ATOM     62  C   UNL A   1      48.085  27.305  31.539  1.00  0.00     0.059 A 
ATOM     63  F   UNL A   1      46.954  28.984  30.357  1.00  0.00    -0.206 F 
ATOM     64  C   UNL A   1      48.091  26.354  32.557  1.00  0.00     0.060 A 
BRANCH  64  65
ATOM     65  S   UNL A   1      49.577  25.388  32.901  1.00  0.00     0.124 S 
ATOM     66  O   UNL A   1      49.020  24.245  33.620  1.00  0.00    -0.237 OA
ATOM     67  O   UNL A   1      50.082  25.108  31.561  1.00  0.00    -0.237 OA
ATOM     68  O   UNL A   1      50.394  26.294  33.702  1.00  0.00    -0.744 OA
ENDBRANCH  64  65
ENDBRANCH  43  57
BRANCH  44  69
ATOM     69  C   UNL A   1      37.218  32.711  30.191  1.00  0.00     0.058 A 
ATOM     70  C   UNL A   1      37.092  33.606  29.118  1.00  0.00     0.135 A 
ATOM     71  C   UNL A   1      36.095  32.515  31.010  1.00  0.00     0.135 A 
ATOM     72  F   UNL A   1      38.138  33.832  28.307  1.00  0.00    -0.206 F 
ATOM     73  C   UNL A   1      35.911  34.300  28.879  1.00  0.00     0.059 A 
ATOM     74  C   UNL A   1      34.892  33.175  30.775  1.00  0.00     0.059 A 
ATOM     75  F   UNL A   1      36.155  31.656  32.040  1.00  0.00    -0.206 F 
ATOM     76  C   UNL A   1      34.813  34.076  29.713  1.00  0.00     0.060 A 
BRANCH  76  77
ATOM     77  S   UNL A   1      33.272  34.949  29.368  1.00  0.00     0.124 S 
ATOM     78  O   UNL A   1      32.651  34.981  30.688  1.00  0.00    -0.237 OA
ATOM     79  O   UNL A   1      33.754  36.229  28.858  1.00  0.00    -0.237 OA
ATOM     80  O   UNL A   1      32.614  34.097  28.383  1.00  0.00    -0.744 OA
ENDBRANCH  76  77
ENDBRANCH  44  69
BRANCH  56  81
ATOM     81  C   UNL A   1      43.074  34.367  33.613  1.00  0.00     0.058 A 
ATOM     82  C   UNL A   1      43.670  35.429  32.915  1.00  0.00     0.135 A 
ATOM     83  C   UNL A   1      42.869  34.523  34.994  1.00  0.00     0.135 A 
ATOM     84  F   UNL A   1      43.891  35.332  31.594  1.00  0.00    -0.206 F 
ATOM     85  C   UNL A   1      44.079  36.587  33.569  1.00  0.00     0.059 A 
ATOM     86  C   UNL A   1      43.239  35.686  35.661  1.00  0.00     0.059 A 
ATOM     87  F   UNL A   1      42.291  33.545  35.708  1.00  0.00    -0.206 F 
ATOM     88  C   UNL A   1      43.859  36.706  34.942  1.00  0.00     0.060 A 
BRANCH  88  89
ATOM     89  S   UNL A   1      44.379  38.221  35.775  1.00  0.00     0.124 S 
ATOM     90  O   UNL A   1      43.788  38.045  37.098  1.00  0.00    -0.237 OA
ATOM     91  O   UNL A   1      45.835  38.128  35.712  1.00  0.00    -0.237 OA
ATOM     92  O   UNL A   1      43.788  39.278  34.960  1.00  0.00    -0.744 OA
ENDBRANCH  88  89
ENDBRANCH  56  81
ENDBRANCH  30  31
ENDBRANCH  22  25
ENDBRANCH  20  21
ENDBRANCH   1  20
TORSDOF 16
ENDMDL
MODEL 3
REMARK VINA RESULT:     -11.0      3.540      5.071
REMARK SMILES CN(c1ccc(C(=O)NCCCCNC(=O)c2ccc(-c3c4nc(c(-c5c(F)cc(S(=O)(=O)[O-])cc5F)c5ccc([nH]5)c(-c5c(F)cc(S(=O)(=O)[O-])cc5F)c5nc(c(-c6c(F)cc(S(=O)(=O)[O-])cc6F)c6ccc3[nH]6)C=C5)C=C4)cc2)cc1)S(C)(=O)=O
REMARK SMILES IDX 12 1 11 2 10 3 9 4 7 5 8 6 6 8 3 9 4 10 84 11 5 12 83 13
REMARK SMILES IDX 2 14 1 15 85 16 86 17 87 18 88 19 13 20 14 21 15 22 16 24
REMARK SMILES IDX 17 25 18 26 82 27 19 28 81 29 20 30 21 31 22 32 75 33 23 34
REMARK SMILES IDX 80 35 74 36 76 37 24 38 79 39 73 40 72 41 25 43 59 44 38 45
REMARK SMILES IDX 58 46 39 47 42 48 57 49 77 50 40 51 41 52 56 54 78 55 43 56
REMARK SMILES IDX 26 57 27 58 36 59 28 60 29 61 35 62 37 63 30 64 31 65 32 66
REMARK SMILES IDX 33 67 34 68 60 69 61 70 70 71 62 72 63 73 69 74 71 75 64 76
REMARK SMILES IDX 65 77 66 78 67 79 68 80 44 81 45 82 54 83 46 84 47 85 53 86
REMARK SMILES IDX 55 87 48 88 49 89 50 90 51 91 52 92
REMARK H PARENT 9 7 14 23 76 42 42 53
REMARK Flexibility Score: inf
ROOT
ATOM      1  C   UNL A   1      33.052  27.301  26.593  1.00  0.00     0.023 C 
ENDROOT
BRANCH   1   2
ATOM      2  C   UNL A   1      31.576  27.666  26.407  1.00  0.00     0.023 C 
BRANCH   2   3
ATOM      3  C   UNL A   1      30.806  26.693  25.512  1.00  0.00     0.116 C 
BRANCH   3   4
ATOM      4  N   UNL A   1      30.133  25.699  26.321  1.00  0.00    -0.352 N 
ATOM      5  C   UNL A   1      30.391  24.373  26.547  1.00  0.00     0.251 C 
ATOM      6  O   UNL A   1      29.631  23.763  27.301  1.00  0.00    -0.269 OA
ATOM      7  H   UNL A   1      29.342  26.040  26.798  1.00  0.00     0.163 HD
BRANCH   5   8
ATOM      8  C   UNL A   1      31.573  23.659  25.983  1.00  0.00     0.039 A 
ATOM      9  C   UNL A   1      33.929  22.375  25.119  1.00  0.00     0.051 A 
ATOM     10  C   UNL A   1      33.666  22.521  26.481  1.00  0.00     0.028 A 
ATOM     11  C   UNL A   1      32.987  22.814  24.190  1.00  0.00     0.028 A 
ATOM     12  C   UNL A   1      32.500  23.159  26.908  1.00  0.00     0.016 A 
ATOM     13  C   UNL A   1      31.805  23.432  24.622  1.00  0.00     0.016 A 
BRANCH   9  14
ATOM     14  N   UNL A   1      35.168  21.799  24.701  1.00  0.00    -0.274 N 
ATOM     15  C   UNL A   1      35.427  20.380  24.976  1.00  0.00     0.163 C 
BRANCH  14  16
ATOM     16  S   UNL A   1      36.469  22.805  24.311  1.00  0.00     0.231 S 
ATOM     17  C   UNL A   1      37.850  21.885  24.956  1.00  0.00     0.183 C 
ATOM     18  O   UNL A   1      36.608  22.807  22.866  1.00  0.00    -0.207 OA
ATOM     19  O   UNL A   1      36.386  24.047  25.046  1.00  0.00    -0.207 OA
ENDBRANCH  14  16
ENDBRANCH   9  14
ENDBRANCH   5   8
ENDBRANCH   3   4
ENDBRANCH   2   3
ENDBRANCH   1   2
BRANCH   1  20
ATOM     20  C   UNL A   1      34.029  28.421  26.262  1.00  0.00     0.116 C 
BRANCH  20  21
ATOM     21  N   UNL A   1      33.712  29.671  26.936  1.00  0.00    -0.352 N 
ATOM     22  C   UNL A   1      34.486  30.374  27.826  1.00  0.00     0.251 C 
ATOM     23  H   UNL A   1      32.832  30.061  26.728  1.00  0.00     0.163 HD
ATOM     24  O   UNL A   1      34.023  31.345  28.416  1.00  0.00    -0.269 OA
BRANCH  22  25
ATOM     25  C   UNL A   1      35.866  29.921  28.085  1.00  0.00     0.039 A 
ATOM     26  C   UNL A   1      36.830  30.072  27.087  1.00  0.00     0.014 A 
ATOM     27  C   UNL A   1      36.212  29.385  29.329  1.00  0.00     0.014 A 
ATOM     28  C   UNL A   1      38.155  29.728  27.356  1.00  0.00     0.010 A 
ATOM     29  C   UNL A   1      37.545  29.127  29.622  1.00  0.00     0.010 A 
ATOM     30  C   UNL A   1      38.528  29.277  28.632  1.00  0.00    -0.014 A 
BRANCH  30  31
ATOM     31  C   UNL A   1      39.935  28.917  28.942  1.00  0.00     0.031 A 
ATOM     32  C   UNL A   1      40.843  29.936  29.580  1.00  0.00     0.074 A 
ATOM     33  C   UNL A   1      40.408  27.700  28.607  1.00  0.00     0.049 A 
ATOM     34  N   UNL A   1      42.111  29.839  29.882  1.00  0.00    -0.248 NA
ATOM     35  C   UNL A   1      40.252  31.249  29.892  1.00  0.00     0.031 C 
ATOM     36  C   UNL A   1      39.639  26.647  27.940  1.00  0.00     0.029 A 
ATOM     37  N   UNL A   1      41.651  27.145  28.775  1.00  0.00    -0.354 N 
ATOM     38  C   UNL A   1      42.471  31.076  30.403  1.00  0.00     0.074 A 
ATOM     39  C   UNL A   1      41.307  31.928  30.314  1.00  0.00     0.031 C 
ATOM     40  C   UNL A   1      40.419  25.565  27.783  1.00  0.00     0.029 A 
ATOM     41  C   UNL A   1      41.752  25.859  28.299  1.00  0.00     0.049 A 
ATOM     42  H   UNL A   1      42.402  27.623  29.198  1.00  0.00     0.167 HD
ATOM     43  C   UNL A   1      43.655  31.458  30.938  1.00  0.00     0.037 A 
ATOM     44  C   UNL A   1      42.802  25.015  28.280  1.00  0.00     0.037 A 
ATOM     45  C   UNL A   1      44.802  30.595  31.043  1.00  0.00     0.049 A 
ATOM     46  C   UNL A   1      44.109  25.463  28.878  1.00  0.00     0.074 A 
ATOM     47  C   UNL A   1      46.034  30.867  31.609  1.00  0.00     0.029 A 
ATOM     48  N   UNL A   1      44.857  29.291  30.573  1.00  0.00    -0.354 N 
ATOM     49  N   UNL A   1      44.417  26.617  29.422  1.00  0.00    -0.248 NA
ATOM     50  C   UNL A   1      45.210  24.489  28.874  1.00  0.00     0.031 C 
ATOM     51  C   UNL A   1      46.852  29.746  31.435  1.00  0.00     0.029 A 
ATOM     52  C   UNL A   1      46.109  28.751  30.820  1.00  0.00     0.049 A 
ATOM     53  H   UNL A   1      44.116  28.819  30.127  1.00  0.00     0.167 HD
ATOM     54  C   UNL A   1      45.730  26.493  29.862  1.00  0.00     0.074 A 
ATOM     55  C   UNL A   1      46.157  25.150  29.526  1.00  0.00     0.031 C 
ATOM     56  C   UNL A   1      46.511  27.405  30.494  1.00  0.00     0.037 A 
BRANCH  43  57
ATOM     57  C   UNL A   1      43.768  32.871  31.449  1.00  0.00     0.058 A 
ATOM     58  C   UNL A   1      43.523  33.191  32.795  1.00  0.00     0.135 A 
ATOM     59  C   UNL A   1      44.151  33.912  30.590  1.00  0.00     0.135 A 
ATOM     60  F   UNL A   1      43.136  32.239  33.659  1.00  0.00    -0.206 F 
ATOM     61  C   UNL A   1      43.623  34.497  33.263  1.00  0.00     0.059 A 
ATOM     62  C   UNL A   1      44.290  35.222  31.043  1.00  0.00     0.059 A 
ATOM     63  F   UNL A   1      44.395  33.665  29.294  1.00  0.00    -0.206 F 
ATOM     64  C   UNL A   1      44.009  35.506  32.378  1.00  0.00     0.060 A 
BRANCH  64  65
ATOM     65  S   UNL A   1      44.139  37.194  33.004  1.00  0.00     0.124 S 
ATOM     66  O   UNL A   1      42.948  37.285  33.844  1.00  0.00    -0.237 OA
ATOM     67  O   UNL A   1      45.413  37.165  33.714  1.00  0.00    -0.237 OA
ATOM     68  O   UNL A   1      44.115  38.009  31.793  1.00  0.00    -0.744 OA
ENDBRANCH  64  65
ENDBRANCH  43  57
BRANCH  44  69
ATOM     69  C   UNL A   1      42.653  23.652  27.702  1.00  0.00     0.058 A 
ATOM     70  C   UNL A   1      42.391  22.542  28.521  1.00  0.00     0.135 A 
ATOM     71  C   UNL A   1      42.763  23.429  26.320  1.00  0.00     0.135 A 
ATOM     72  F   UNL A   1      42.280  22.701  29.848  1.00  0.00    -0.206 F 
ATOM     73  C   UNL A   1      42.267  21.260  27.997  1.00  0.00     0.059 A 
ATOM     74  C   UNL A   1      42.615  22.159  25.768  1.00  0.00     0.059 A 
ATOM     75  F   UNL A   1      42.995  24.457  25.489  1.00  0.00    -0.206 F 
ATOM     76  C   UNL A   1      42.379  21.078  26.617  1.00  0.00     0.060 A 
BRANCH  76  77
ATOM     77  S   UNL A   1      42.175  19.415  25.944  1.00  0.00     0.124 S 
ATOM     78  O   UNL A   1      43.016  19.476  24.754  1.00  0.00    -0.237 OA
ATOM     79  O   UNL A   1      42.670  18.582  27.035  1.00  0.00    -0.237 OA
ATOM     80  O   UNL A   1      40.739  19.326  25.697  1.00  0.00    -0.744 OA
ENDBRANCH  76  77
ENDBRANCH  44  69
BRANCH  56  81
ATOM     81  C   UNL A   1      47.885  26.965  30.925  1.00  0.00     0.058 A 
ATOM     82  C   UNL A   1      48.127  26.394  32.184  1.00  0.00     0.135 A 
ATOM     83  C   UNL A   1      48.969  27.081  30.038  1.00  0.00     0.135 A 
ATOM     84  F   UNL A   1      47.127  26.262  33.071  1.00  0.00    -0.206 F 
ATOM     85  C   UNL A   1      49.402  25.986  32.562  1.00  0.00     0.059 A 
ATOM     86  C   UNL A   1      50.245  26.648  30.384  1.00  0.00     0.059 A 
ATOM     87  F   UNL A   1      48.792  27.607  28.817  1.00  0.00    -0.206 F 
ATOM     88  C   UNL A   1      50.455  26.117  31.655  1.00  0.00     0.060 A 
BRANCH  88  89
ATOM     89  S   UNL A   1      52.101  25.568  32.152  1.00  0.00     0.124 S 
ATOM     90  O   UNL A   1      52.284  26.287  33.409  1.00  0.00    -0.237 OA
ATOM     91  O   UNL A   1      51.926  24.123  32.267  1.00  0.00    -0.237 OA
ATOM     92  O   UNL A   1      52.954  26.005  31.050  1.00  0.00    -0.744 OA
ENDBRANCH  88  89
ENDBRANCH  56  81
ENDBRANCH  30  31
ENDBRANCH  22  25
ENDBRANCH  20  21
ENDBRANCH   1  20
TORSDOF 16
ENDMDL
