MODEL 1
REMARK VINA RESULT:     -10.6      0.000      0.000
REMARK SMILES C[C@@](NC(=O)CCOC1CC[NH2+]CC1)(C(=O)NCCCCNC(=O)c1ccc(-c2c3nc(c(-c4c(F)cc(S(=O)(=O)[O-])cc4F)c4ccc([nH]4)c(-c4c(F)cc(S(=O)(=O)[O-])cc4F)c4nc(c(-c5c(F)cc(S(=O)(=O)[O-])cc5F)c5ccc2[nH]5)C=C4)C=C3)cc1)C(F)(F)F
REMARK SMILES IDX 18 1 17 2 15 3 16 4 2 6 1 7 3 8 4 9 5 11 6 12 7 13 8 14 9 15
REMARK SMILES IDX 10 16 14 17 11 18 13 19 12 20 91 23 92 24 93 25 94 26 19 27
REMARK SMILES IDX 20 28 21 29 22 30 23 31 24 33 25 34 26 35 90 36 27 37 89 38
REMARK SMILES IDX 28 39 29 40 30 41 83 42 31 43 88 44 82 45 84 46 32 47 87 48
REMARK SMILES IDX 81 49 80 50 33 52 67 53 46 54 66 55 47 56 50 57 65 58 85 59
REMARK SMILES IDX 48 60 49 61 64 63 86 64 51 65 34 66 35 67 44 68 36 69 37 70
REMARK SMILES IDX 43 71 45 72 38 73 39 74 40 75 41 76 42 77 68 78 69 79 78 80
REMARK SMILES IDX 70 81 71 82 77 83 79 84 72 85 73 86 74 87 75 88 76 89 52 90
REMARK SMILES IDX 53 91 62 92 54 93 55 94 61 95 63 96 56 97 57 98 58 99 59 100
REMARK SMILES IDX 60 101
REMARK H PARENT 17 5 3 10 12 21 12 22 22 32 84 51 50 62
REMARK Flexibility Score: inf
ROOT
ATOM      1  C   UNL A   1      33.635  26.206  25.332  1.00  0.00     0.116 C 
ENDROOT
BRANCH   1   2
ATOM      2  N   UNL A   1      34.170  25.432  24.221  1.00  0.00    -0.354 N 
ATOM      3  C   UNL A   1      33.599  24.466  23.426  1.00  0.00     0.254 C 
ATOM      4  O   UNL A   1      34.056  24.416  22.279  1.00  0.00    -0.272 OA
ATOM      5  H   UNL A   1      35.108  25.636  24.000  1.00  0.00     0.163 HD
BRANCH   3   6
ATOM      6  C   UNL A   1      32.413  23.555  23.853  1.00  0.00     0.212 C 
ATOM      7  C   UNL A   1      32.257  22.361  22.906  1.00  0.00     0.056 C 
BRANCH   6   8
ATOM      8  N   UNL A   1      32.265  23.115  25.288  1.00  0.00    -0.334 N 
ATOM      9  C   UNL A   1      32.950  22.313  26.135  1.00  0.00     0.223 C 
ATOM     10  H   UNL A   1      31.472  23.511  25.715  1.00  0.00     0.164 HD
ATOM     11  O   UNL A   1      32.718  22.430  27.341  1.00  0.00    -0.275 OA
BRANCH   9  12
ATOM     12  C   UNL A   1      33.833  21.213  25.639  1.00  0.00     0.128 C 
BRANCH  12  13
ATOM     13  C   UNL A   1      35.255  21.577  26.047  1.00  0.00     0.170 C 
BRANCH  13  14
ATOM     14  O   UNL A   1      35.486  22.981  25.843  1.00  0.00    -0.377 OA
BRANCH  14  15
ATOM     15  C   UNL A   1      36.579  23.267  24.962  1.00  0.00     0.129 C 
ATOM     16  C   UNL A   1      36.949  21.996  24.202  1.00  0.00     0.093 C 
ATOM     17  C   UNL A   1      37.767  23.846  25.740  1.00  0.00     0.093 C 
ATOM     18  C   UNL A   1      37.795  21.023  25.012  1.00  0.00     0.263 C 
ATOM     19  C   UNL A   1      38.683  22.812  26.395  1.00  0.00     0.263 C 
ATOM     20  N   UNL A   1      38.992  21.663  25.548  1.00  0.00    -0.346 N 
ATOM     21  H   UNL A   1      39.571  21.977  24.770  1.00  0.00     0.346 HD
ATOM     22  H   UNL A   1      39.476  20.976  26.126  1.00  0.00     0.346 HD
ENDBRANCH  14  15
ENDBRANCH  13  14
ENDBRANCH  12  13
ENDBRANCH   9  12
ENDBRANCH   6   8
BRANCH   6  23
ATOM     23  C   UNL A   1      31.152  24.436  23.580  1.00  0.00     0.420 C 
ATOM     24  F   UNL A   1      31.381  25.437  22.705  1.00  0.00    -0.168 F 
ATOM     25  F   UNL A   1      30.182  23.649  23.016  1.00  0.00    -0.168 F 
ATOM     26  F   UNL A   1      30.591  24.944  24.697  1.00  0.00    -0.168 F 
ENDBRANCH   6  23
ENDBRANCH   3   6
ENDBRANCH   1   2
BRANCH   1  27
ATOM     27  C   UNL A   1      33.054  27.578  24.987  1.00  0.00     0.023 C 
BRANCH  27  28
ATOM     28  C   UNL A   1      33.675  28.776  25.698  1.00  0.00     0.023 C 
BRANCH  28  29
ATOM     29  C   UNL A   1      33.517  28.822  27.214  1.00  0.00     0.116 C 
BRANCH  29  30
ATOM     30  N   UNL A   1      33.568  30.161  27.783  1.00  0.00    -0.352 N 
ATOM     31  C   UNL A   1      34.627  30.811  28.396  1.00  0.00     0.251 C 
ATOM     32  H   UNL A   1      32.731  30.677  27.725  1.00  0.00     0.163 HD
ATOM     33  O   UNL A   1      34.481  31.918  28.874  1.00  0.00    -0.269 OA
BRANCH  31  34
ATOM     34  C   UNL A   1      35.932  30.109  28.506  1.00  0.00     0.039 A 
ATOM     35  C   UNL A   1      36.808  30.140  27.418  1.00  0.00     0.014 A 
ATOM     36  C   UNL A   1      36.321  29.514  29.706  1.00  0.00     0.014 A 
ATOM     37  C   UNL A   1      38.118  29.680  27.579  1.00  0.00     0.010 A 
ATOM     38  C   UNL A   1      37.652  29.154  29.892  1.00  0.00     0.010 A 
ATOM     39  C   UNL A   1      38.572  29.246  28.836  1.00  0.00    -0.014 A 
BRANCH  39  40
ATOM     40  C   UNL A   1      40.001  28.906  29.074  1.00  0.00     0.031 A 
ATOM     41  C   UNL A   1      40.946  29.946  29.617  1.00  0.00     0.074 A 
ATOM     42  C   UNL A   1      40.471  27.689  28.727  1.00  0.00     0.049 A 
ATOM     43  N   UNL A   1      42.237  29.869  29.813  1.00  0.00    -0.248 NA
ATOM     44  C   UNL A   1      40.368  31.257  29.952  1.00  0.00     0.031 C 
ATOM     45  C   UNL A   1      39.678  26.612  28.129  1.00  0.00     0.029 A 
ATOM     46  N   UNL A   1      41.734  27.155  28.814  1.00  0.00    -0.354 N 
ATOM     47  C   UNL A   1      42.625  31.119  30.278  1.00  0.00     0.074 A 
ATOM     48  C   UNL A   1      41.446  31.956  30.270  1.00  0.00     0.031 C 
ATOM     49  C   UNL A   1      40.463  25.542  27.928  1.00  0.00     0.029 A 
ATOM     50  C   UNL A   1      41.824  25.864  28.342  1.00  0.00     0.049 A 
ATOM     51  H   UNL A   1      42.503  27.649  29.179  1.00  0.00     0.167 HD
ATOM     52  C   UNL A   1      43.846  31.528  30.701  1.00  0.00     0.037 A 
ATOM     53  C   UNL A   1      42.884  25.036  28.248  1.00  0.00     0.037 A 
ATOM     54  C   UNL A   1      45.011  30.685  30.732  1.00  0.00     0.049 A 
ATOM     55  C   UNL A   1      44.229  25.506  28.733  1.00  0.00     0.074 A 
ATOM     56  C   UNL A   1      46.280  30.987  31.197  1.00  0.00     0.029 A 
ATOM     57  N   UNL A   1      45.053  29.374  30.279  1.00  0.00    -0.354 N 
ATOM     58  N   UNL A   1      44.561  26.672  29.236  1.00  0.00    -0.248 NA
ATOM     59  C   UNL A   1      45.341  24.550  28.649  1.00  0.00     0.031 C 
ATOM     60  C   UNL A   1      47.098  29.872  30.986  1.00  0.00     0.029 A 
ATOM     61  C   UNL A   1      46.329  28.859  30.438  1.00  0.00     0.049 A 
ATOM     62  H   UNL A   1      44.288  28.882  29.901  1.00  0.00     0.167 HD
ATOM     63  C   UNL A   1      45.912  26.580  29.550  1.00  0.00     0.074 A 
ATOM     64  C   UNL A   1      46.333  25.240  29.195  1.00  0.00     0.031 C 
ATOM     65  C   UNL A   1      46.731  27.519  30.087  1.00  0.00     0.037 A 
BRANCH  52  66
ATOM     66  C   UNL A   1      43.973  32.948  31.181  1.00  0.00     0.058 A 
ATOM     67  C   UNL A   1      43.702  33.302  32.513  1.00  0.00     0.135 A 
ATOM     68  C   UNL A   1      44.392  33.966  30.308  1.00  0.00     0.135 A 
ATOM     69  F   UNL A   1      43.281  32.373  33.387  1.00  0.00    -0.206 F 
ATOM     70  C   UNL A   1      43.805  34.617  32.954  1.00  0.00     0.059 A 
ATOM     71  C   UNL A   1      44.533  35.283  30.735  1.00  0.00     0.059 A 
ATOM     72  F   UNL A   1      44.666  33.685  29.024  1.00  0.00    -0.206 F 
ATOM     73  C   UNL A   1      44.220  35.601  32.056  1.00  0.00     0.060 A 
BRANCH  73  74
ATOM     74  S   UNL A   1      44.346  37.302  32.646  1.00  0.00     0.124 S 
ATOM     75  O   UNL A   1      45.781  37.420  32.887  1.00  0.00    -0.237 OA
ATOM     76  O   UNL A   1      43.830  38.064  31.514  1.00  0.00    -0.237 OA
ATOM     77  O   UNL A   1      43.506  37.312  33.840  1.00  0.00    -0.744 OA
ENDBRANCH  73  74
ENDBRANCH  52  66
BRANCH  53  78
ATOM     78  C   UNL A   1      42.711  23.665  27.692  1.00  0.00     0.058 A 
ATOM     79  C   UNL A   1      42.853  23.418  26.318  1.00  0.00     0.135 A 
ATOM     80  C   UNL A   1      42.412  22.573  28.522  1.00  0.00     0.135 A 
ATOM     81  F   UNL A   1      43.130  24.429  25.481  1.00  0.00    -0.206 F 
ATOM     82  C   UNL A   1      42.691  22.143  25.784  1.00  0.00     0.059 A 
ATOM     83  C   UNL A   1      42.271  21.285  28.016  1.00  0.00     0.059 A 
ATOM     84  F   UNL A   1      42.282  22.751  29.846  1.00  0.00    -0.206 F 
ATOM     85  C   UNL A   1      42.404  21.081  26.643  1.00  0.00     0.060 A 
BRANCH  85  86
ATOM     86  S   UNL A   1      42.251  19.421  25.947  1.00  0.00     0.124 S 
ATOM     87  O   UNL A   1      40.809  19.311  25.760  1.00  0.00    -0.237 OA
ATOM     88  O   UNL A   1      43.048  19.525  24.729  1.00  0.00    -0.237 OA
ATOM     89  O   UNL A   1      42.821  18.568  26.987  1.00  0.00    -0.744 OA
ENDBRANCH  85  86
ENDBRANCH  53  78
BRANCH  65  90
ATOM     90  C   UNL A   1      48.157  27.126  30.357  1.00  0.00     0.058 A 
ATOM     91  C   UNL A   1      49.183  27.385  29.435  1.00  0.00     0.135 A 
ATOM     92  C   UNL A   1      48.509  26.535  31.581  1.00  0.00     0.135 A 
ATOM     93  F   UNL A   1      48.900  27.942  28.248  1.00  0.00    -0.206 F 
ATOM     94  C   UNL A   1      50.506  27.052  29.708  1.00  0.00     0.059 A 
ATOM     95  C   UNL A   1      49.830  26.220  31.888  1.00  0.00     0.059 A 
ATOM     96  F   UNL A   1      47.569  26.276  32.503  1.00  0.00    -0.206 F 
ATOM     97  C   UNL A   1      50.820  26.472  30.939  1.00  0.00     0.060 A 
BRANCH  97  98
ATOM     98  S   UNL A   1      52.545  26.078  31.296  1.00  0.00     0.124 S 
ATOM     99  O   UNL A   1      52.422  24.774  31.941  1.00  0.00    -0.237 OA
ATOM    100  O   UNL A   1      53.146  26.072  29.966  1.00  0.00    -0.237 OA
ATOM    101  O   UNL A   1      52.971  27.170  32.165  1.00  0.00    -0.744 OA
ENDBRANCH  97  98
ENDBRANCH  65  90
ENDBRANCH  39  40
ENDBRANCH  31  34
ENDBRANCH  29  30
ENDBRANCH  28  29
ENDBRANCH  27  28
ENDBRANCH   1  27
TORSDOF 20
ENDMDL
MODEL 2
REMARK VINA RESULT:     -10.5      4.835     10.510
REMARK SMILES C[C@@](NC(=O)CCOC1CC[NH2+]CC1)(C(=O)NCCCCNC(=O)c1ccc(-c2c3nc(c(-c4c(F)cc(S(=O)(=O)[O-])cc4F)c4ccc([nH]4)c(-c4c(F)cc(S(=O)(=O)[O-])cc4F)c4nc(c(-c5c(F)cc(S(=O)(=O)[O-])cc5F)c5ccc2[nH]5)C=C4)C=C3)cc1)C(F)(F)F
REMARK SMILES IDX 18 1 17 2 15 3 16 4 2 6 1 7 3 8 4 9 5 11 6 12 7 13 8 14 9 15
REMARK SMILES IDX 10 16 14 17 11 18 13 19 12 20 91 23 92 24 93 25 94 26 19 27
REMARK SMILES IDX 20 28 21 29 22 30 23 31 24 33 25 34 26 35 90 36 27 37 89 38
REMARK SMILES IDX 28 39 29 40 30 41 83 42 31 43 88 44 82 45 84 46 32 47 87 48
REMARK SMILES IDX 81 49 80 50 33 52 67 53 46 54 66 55 47 56 50 57 65 58 85 59
REMARK SMILES IDX 48 60 49 61 64 63 86 64 51 65 34 66 35 67 44 68 36 69 37 70
REMARK SMILES IDX 43 71 45 72 38 73 39 74 40 75 41 76 42 77 68 78 69 79 78 80
REMARK SMILES IDX 70 81 71 82 77 83 79 84 72 85 73 86 74 87 75 88 76 89 52 90
REMARK SMILES IDX 53 91 62 92 54 93 55 94 61 95 63 96 56 97 57 98 58 99 59 100
REMARK SMILES IDX 60 101
REMARK H PARENT 17 5 3 10 12 21 12 22 22 32 84 51 50 62
REMARK Flexibility Score: inf
ROOT
ATOM      1  C   UNL A   1      36.639  21.086  25.362  1.00  0.00     0.116 C 
ENDROOT
BRANCH   1   2
ATOM      2  N   UNL A   1      35.685  21.515  26.375  1.00  0.00    -0.354 N 
ATOM      3  C   UNL A   1      34.311  21.463  26.411  1.00  0.00     0.254 C 
ATOM      4  O   UNL A   1      33.837  21.356  27.548  1.00  0.00    -0.272 OA
ATOM      5  H   UNL A   1      36.097  21.914  27.175  1.00  0.00     0.163 HD
BRANCH   3   6
ATOM      6  C   UNL A   1      33.391  21.439  25.158  1.00  0.00     0.212 C 
ATOM      7  C   UNL A   1      31.965  21.878  25.503  1.00  0.00     0.056 C 
BRANCH   6   8
ATOM      8  N   UNL A   1      33.844  22.073  23.866  1.00  0.00    -0.334 N 
ATOM      9  C   UNL A   1      34.304  23.288  23.489  1.00  0.00     0.223 C 
ATOM     10  H   UNL A   1      33.791  21.447  23.109  1.00  0.00     0.164 HD
ATOM     11  O   UNL A   1      34.882  23.364  22.401  1.00  0.00    -0.275 OA
BRANCH   9  12
ATOM     12  C   UNL A   1      33.992  24.526  24.266  1.00  0.00     0.128 C 
BRANCH  12  13
ATOM     13  C   UNL A   1      33.068  25.368  23.395  1.00  0.00     0.170 C 
BRANCH  13  14
ATOM     14  O   UNL A   1      33.509  26.736  23.382  1.00  0.00    -0.377 OA
BRANCH  14  15
ATOM     15  C   UNL A   1      32.438  27.690  23.376  1.00  0.00     0.129 C 
ATOM     16  C   UNL A   1      32.977  29.042  23.831  1.00  0.00     0.093 C 
ATOM     17  C   UNL A   1      31.273  27.204  24.246  1.00  0.00     0.093 C 
ATOM     18  C   UNL A   1      33.136  29.161  25.341  1.00  0.00     0.263 C 
ATOM     19  C   UNL A   1      31.408  27.501  25.740  1.00  0.00     0.263 C 
ATOM     20  N   UNL A   1      31.897  28.843  26.043  1.00  0.00    -0.346 N 
ATOM     21  H   UNL A   1      31.185  29.519  25.770  1.00  0.00     0.346 HD
ATOM     22  H   UNL A   1      32.091  28.882  27.044  1.00  0.00     0.346 HD
ENDBRANCH  14  15
ENDBRANCH  13  14
ENDBRANCH  12  13
ENDBRANCH   9  12
ENDBRANCH   6   8
BRANCH   6  23
ATOM     23  C   UNL A   1      33.261  19.918  24.823  1.00  0.00     0.420 C 
ATOM     24  F   UNL A   1      32.569  19.226  25.752  1.00  0.00    -0.168 F 
ATOM     25  F   UNL A   1      32.565  19.787  23.650  1.00  0.00    -0.168 F 
ATOM     26  F   UNL A   1      34.443  19.306  24.605  1.00  0.00    -0.168 F 
ENDBRANCH   6  23
ENDBRANCH   3   6
ENDBRANCH   1   2
BRANCH   1  27
ATOM     27  C   UNL A   1      37.537  22.173  24.770  1.00  0.00     0.023 C 
BRANCH  27  28
ATOM     28  C   UNL A   1      37.479  23.542  25.441  1.00  0.00     0.023 C 
BRANCH  28  29
ATOM     29  C   UNL A   1      38.386  23.744  26.649  1.00  0.00     0.116 C 
BRANCH  29  30
ATOM     30  N   UNL A   1      39.809  23.669  26.351  1.00  0.00    -0.352 N 
ATOM     31  C   UNL A   1      40.829  24.525  26.734  1.00  0.00     0.251 C 
ATOM     32  H   UNL A   1      40.085  22.902  25.798  1.00  0.00     0.163 HD
ATOM     33  O   UNL A   1      41.965  24.346  26.345  1.00  0.00    -0.269 OA
BRANCH  31  34
ATOM     34  C   UNL A   1      40.500  25.696  27.586  1.00  0.00     0.039 A 
ATOM     35  C   UNL A   1      39.517  25.559  28.570  1.00  0.00     0.014 A 
ATOM     36  C   UNL A   1      41.225  26.883  27.476  1.00  0.00     0.014 A 
ATOM     37  C   UNL A   1      39.350  26.571  29.519  1.00  0.00     0.010 A 
ATOM     38  C   UNL A   1      41.127  27.840  28.482  1.00  0.00     0.010 A 
ATOM     39  C   UNL A   1      40.200  27.691  29.525  1.00  0.00    -0.014 A 
BRANCH  39  40
ATOM     40  C   UNL A   1      40.152  28.701  30.617  1.00  0.00     0.031 A 
ATOM     41  C   UNL A   1      41.033  28.547  31.828  1.00  0.00     0.074 A 
ATOM     42  C   UNL A   1      39.260  29.713  30.560  1.00  0.00     0.049 A 
ATOM     43  N   UNL A   1      41.077  29.272  32.916  1.00  0.00    -0.248 NA
ATOM     44  C   UNL A   1      41.965  27.408  31.830  1.00  0.00     0.031 C 
ATOM     45  C   UNL A   1      38.301  29.939  29.475  1.00  0.00     0.029 A 
ATOM     46  N   UNL A   1      39.002  30.734  31.441  1.00  0.00    -0.354 N 
ATOM     47  C   UNL A   1      42.025  28.670  33.735  1.00  0.00     0.074 A 
ATOM     48  C   UNL A   1      42.484  27.484  33.046  1.00  0.00     0.031 C 
ATOM     49  C   UNL A   1      37.582  31.040  29.742  1.00  0.00     0.029 A 
ATOM     50  C   UNL A   1      37.994  31.579  31.033  1.00  0.00     0.049 A 
ATOM     51  H   UNL A   1      39.492  30.851  32.287  1.00  0.00     0.167 HD
ATOM     52  C   UNL A   1      42.495  29.082  34.937  1.00  0.00     0.037 A 
ATOM     53  C   UNL A   1      37.458  32.661  31.634  1.00  0.00     0.037 A 
ATOM     54  C   UNL A   1      42.056  30.277  35.607  1.00  0.00     0.049 A 
ATOM     55  C   UNL A   1      38.002  33.107  32.964  1.00  0.00     0.074 A 
ATOM     56  C   UNL A   1      42.511  30.812  36.800  1.00  0.00     0.029 A 
ATOM     57  N   UNL A   1      41.059  31.124  35.143  1.00  0.00    -0.354 N 
ATOM     58  N   UNL A   1      38.950  32.563  33.691  1.00  0.00    -0.248 NA
ATOM     59  C   UNL A   1      37.413  34.317  33.554  1.00  0.00     0.031 C 
ATOM     60  C   UNL A   1      41.760  31.959  37.079  1.00  0.00     0.029 A 
ATOM     61  C   UNL A   1      40.874  32.168  36.035  1.00  0.00     0.049 A 
ATOM     62  H   UNL A   1      40.558  31.002  34.305  1.00  0.00     0.167 HD
ATOM     63  C   UNL A   1      39.087  33.378  34.809  1.00  0.00     0.074 A 
ATOM     64  C   UNL A   1      38.136  34.459  34.656  1.00  0.00     0.031 C 
ATOM     65  C   UNL A   1      39.927  33.243  35.865  1.00  0.00     0.037 A 
BRANCH  52  66
ATOM     66  C   UNL A   1      43.553  28.237  35.594  1.00  0.00     0.058 A 
ATOM     67  C   UNL A   1      43.223  27.237  36.524  1.00  0.00     0.135 A 
ATOM     68  C   UNL A   1      44.910  28.412  35.278  1.00  0.00     0.135 A 
ATOM     69  F   UNL A   1      41.942  27.038  36.877  1.00  0.00    -0.206 F 
ATOM     70  C   UNL A   1      44.201  26.467  37.144  1.00  0.00     0.059 A 
ATOM     71  C   UNL A   1      45.902  27.631  35.862  1.00  0.00     0.059 A 
ATOM     72  F   UNL A   1      45.283  29.352  34.395  1.00  0.00    -0.206 F 
ATOM     73  C   UNL A   1      45.539  26.672  36.807  1.00  0.00     0.060 A 
BRANCH  73  74
ATOM     74  S   UNL A   1      46.794  25.663  37.622  1.00  0.00     0.124 S 
ATOM     75  O   UNL A   1      46.676  26.115  39.005  1.00  0.00    -0.237 OA
ATOM     76  O   UNL A   1      46.325  24.308  37.357  1.00  0.00    -0.237 OA
ATOM     77  O   UNL A   1      48.029  26.041  36.941  1.00  0.00    -0.744 OA
ENDBRANCH  73  74
ENDBRANCH  52  66
BRANCH  53  78
ATOM     78  C   UNL A   1      36.359  33.413  30.968  1.00  0.00     0.058 A 
ATOM     79  C   UNL A   1      35.049  33.374  31.469  1.00  0.00     0.135 A 
ATOM     80  C   UNL A   1      36.596  34.195  29.826  1.00  0.00     0.135 A 
ATOM     81  F   UNL A   1      34.767  32.635  32.553  1.00  0.00    -0.206 F 
ATOM     82  C   UNL A   1      34.011  34.070  30.855  1.00  0.00     0.059 A 
ATOM     83  C   UNL A   1      35.581  34.921  29.211  1.00  0.00     0.059 A 
ATOM     84  F   UNL A   1      37.834  34.281  29.316  1.00  0.00    -0.206 F 
ATOM     85  C   UNL A   1      34.288  34.844  29.728  1.00  0.00     0.060 A 
BRANCH  85  86
ATOM     86  S   UNL A   1      32.946  35.788  28.973  1.00  0.00     0.124 S 
ATOM     87  O   UNL A   1      33.676  36.872  28.326  1.00  0.00    -0.237 OA
ATOM     88  O   UNL A   1      32.341  34.802  28.083  1.00  0.00    -0.237 OA
ATOM     89  O   UNL A   1      32.123  36.175  30.117  1.00  0.00    -0.744 OA
ENDBRANCH  85  86
ENDBRANCH  53  78
BRANCH  65  90
ATOM     90  C   UNL A   1      39.884  34.308  36.927  1.00  0.00     0.058 A 
ATOM     91  C   UNL A   1      40.564  35.526  36.782  1.00  0.00     0.135 A 
ATOM     92  C   UNL A   1      39.101  34.127  38.079  1.00  0.00     0.135 A 
ATOM     93  F   UNL A   1      41.331  35.747  35.702  1.00  0.00    -0.206 F 
ATOM     94  C   UNL A   1      40.490  36.520  37.751  1.00  0.00     0.059 A 
ATOM     95  C   UNL A   1      38.988  35.120  39.049  1.00  0.00     0.059 A 
ATOM     96  F   UNL A   1      38.421  32.985  38.263  1.00  0.00    -0.206 F 
ATOM     97  C   UNL A   1      39.696  36.309  38.881  1.00  0.00     0.060 A 
BRANCH  97  98
ATOM     98  S   UNL A   1      39.577  37.621  40.114  1.00  0.00     0.124 S 
ATOM     99  O   UNL A   1      39.143  36.879  41.293  1.00  0.00    -0.237 OA
ATOM    100  O   UNL A   1      40.944  38.134  40.157  1.00  0.00    -0.237 OA
ATOM    101  O   UNL A   1      38.589  38.534  39.548  1.00  0.00    -0.744 OA
ENDBRANCH  97  98
ENDBRANCH  65  90
ENDBRANCH  39  40
ENDBRANCH  31  34
ENDBRANCH  29  30
ENDBRANCH  28  29
ENDBRANCH  27  28
ENDBRANCH   1  27
TORSDOF 20
ENDMDL
MODEL 3
REMARK VINA RESULT:     -10.4      1.226      1.997
REMARK SMILES C[C@@](NC(=O)CCOC1CC[NH2+]CC1)(C(=O)NCCCCNC(=O)c1ccc(-c2c3nc(c(-c4c(F)cc(S(=O)(=O)[O-])cc4F)c4ccc([nH]4)c(-c4c(F)cc(S(=O)(=O)[O-])cc4F)c4nc(c(-c5c(F)cc(S(=O)(=O)[O-])cc5F)c5ccc2[nH]5)C=C4)C=C3)cc1)C(F)(F)F
REMARK SMILES IDX 18 1 17 2 15 3 16 4 2 6 1 7 3 8 4 9 5 11 6 12 7 13 8 14 9 15
REMARK SMILES IDX 10 16 14 17 11 18 13 19 12 20 91 23 92 24 93 25 94 26 19 27
REMARK SMILES IDX 20 28 21 29 22 30 23 31 24 33 25 34 26 35 90 36 27 37 89 38
REMARK SMILES IDX 28 39 29 40 30 41 83 42 31 43 88 44 82 45 84 46 32 47 87 48
REMARK SMILES IDX 81 49 80 50 33 52 67 53 46 54 66 55 47 56 50 57 65 58 85 59
REMARK SMILES IDX 48 60 49 61 64 63 86 64 51 65 34 66 35 67 44 68 36 69 37 70
REMARK SMILES IDX 43 71 45 72 38 73 39 74 40 75 41 76 42 77 68 78 69 79 78 80
REMARK SMILES IDX 70 81 71 82 77 83 79 84 72 85 73 86 74 87 75 88 76 89 52 90
REMARK SMILES IDX 53 91 62 92 54 93 55 94 61 95 63 96 56 97 57 98 58 99 59 100
REMARK SMILES IDX 60 101
REMARK H PARENT 17 5 3 10 12 21 12 22 22 32 84 51 50 62
REMARK Flexibility Score: inf
ROOT
ATOM      1  C   UNL A   1      32.287  26.880  25.014  1.00  0.00     0.116 C 
ENDROOT
BRANCH   1   2
ATOM      2  N   UNL A   1      33.271  26.174  24.204  1.00  0.00    -0.354 N 
ATOM      3  C   UNL A   1      33.194  24.995  23.501  1.00  0.00     0.254 C 
ATOM      4  O   UNL A   1      33.925  24.948  22.505  1.00  0.00    -0.272 OA
ATOM      5  H   UNL A   1      34.147  26.620  24.152  1.00  0.00     0.163 HD
BRANCH   3   6
ATOM      6  C   UNL A   1      32.218  23.829  23.829  1.00  0.00     0.212 C 
ATOM      7  C   UNL A   1      32.492  22.606  22.948  1.00  0.00     0.056 C 
BRANCH   6   8
ATOM      8  N   UNL A   1      31.982  23.410  25.259  1.00  0.00    -0.334 N 
ATOM      9  C   UNL A   1      32.749  22.972  26.283  1.00  0.00     0.223 C 
ATOM     10  H   UNL A   1      31.032  23.472  25.510  1.00  0.00     0.164 HD
ATOM     11  O   UNL A   1      32.267  23.023  27.417  1.00  0.00    -0.275 OA
BRANCH   9  12
ATOM     12  C   UNL A   1      34.064  22.298  26.051  1.00  0.00     0.128 C 
BRANCH  12  13
ATOM     13  C   UNL A   1      33.852  20.816  26.337  1.00  0.00     0.170 C 
BRANCH  13  14
ATOM     14  O   UNL A   1      33.830  20.071  25.108  1.00  0.00    -0.377 OA
BRANCH  14  15
ATOM     15  C   UNL A   1      32.612  19.348  24.890  1.00  0.00     0.129 C 
ATOM     16  C   UNL A   1      32.593  18.124  25.800  1.00  0.00     0.093 C 
ATOM     17  C   UNL A   1      32.458  18.976  23.410  1.00  0.00     0.093 C 
ATOM     18  C   UNL A   1      33.430  16.962  25.281  1.00  0.00     0.263 C 
ATOM     19  C   UNL A   1      33.186  17.702  22.980  1.00  0.00     0.263 C 
ATOM     20  N   UNL A   1      33.058  16.592  23.920  1.00  0.00    -0.346 N 
ATOM     21  H   UNL A   1      32.089  16.276  23.921  1.00  0.00     0.346 HD
ATOM     22  H   UNL A   1      33.695  15.855  23.616  1.00  0.00     0.346 HD
ENDBRANCH  14  15
ENDBRANCH  13  14
ENDBRANCH  12  13
ENDBRANCH   9  12
ENDBRANCH   6   8
BRANCH   6  23
ATOM     23  C   UNL A   1      30.831  24.359  23.341  1.00  0.00     0.420 C 
ATOM     24  F   UNL A   1      30.146  25.018  24.299  1.00  0.00    -0.168 F 
ATOM     25  F   UNL A   1      31.038  25.259  22.329  1.00  0.00    -0.168 F 
ATOM     26  F   UNL A   1      30.041  23.404  22.809  1.00  0.00    -0.168 F 
ENDBRANCH   6  23
ENDBRANCH   3   6
ENDBRANCH   1   2
BRANCH   1  27
ATOM     27  C   UNL A   1      32.474  26.804  26.529  1.00  0.00     0.023 C 
BRANCH  27  28
ATOM     28  C   UNL A   1      32.511  28.134  27.276  1.00  0.00     0.023 C 
BRANCH  28  29
ATOM     29  C   UNL A   1      33.663  29.072  26.935  1.00  0.00     0.116 C 
BRANCH  29  30
ATOM     30  N   UNL A   1      33.660  30.322  27.681  1.00  0.00    -0.352 N 
ATOM     31  C   UNL A   1      34.666  30.882  28.453  1.00  0.00     0.251 C 
ATOM     32  H   UNL A   1      32.826  30.843  27.630  1.00  0.00     0.163 HD
ATOM     33  O   UNL A   1      34.475  31.915  29.062  1.00  0.00    -0.269 OA
BRANCH  31  34
ATOM     34  C   UNL A   1      35.964  30.170  28.566  1.00  0.00     0.039 A 
ATOM     35  C   UNL A   1      36.840  30.187  27.477  1.00  0.00     0.014 A 
ATOM     36  C   UNL A   1      36.349  29.577  29.769  1.00  0.00     0.014 A 
ATOM     37  C   UNL A   1      38.146  29.717  27.639  1.00  0.00     0.010 A 
ATOM     38  C   UNL A   1      37.678  29.206  29.955  1.00  0.00     0.010 A 
ATOM     39  C   UNL A   1      38.597  29.284  28.898  1.00  0.00    -0.014 A 
BRANCH  39  40
ATOM     40  C   UNL A   1      40.024  28.933  29.137  1.00  0.00     0.031 A 
ATOM     41  C   UNL A   1      40.975  29.964  29.686  1.00  0.00     0.074 A 
ATOM     42  C   UNL A   1      40.485  27.715  28.784  1.00  0.00     0.049 A 
ATOM     43  N   UNL A   1      42.265  29.876  29.883  1.00  0.00    -0.248 NA
ATOM     44  C   UNL A   1      40.405  31.277  30.027  1.00  0.00     0.031 C 
ATOM     45  C   UNL A   1      39.685  26.647  28.179  1.00  0.00     0.029 A 
ATOM     46  N   UNL A   1      41.744  27.171  28.870  1.00  0.00    -0.354 N 
ATOM     47  C   UNL A   1      42.661  31.122  30.355  1.00  0.00     0.074 A 
ATOM     48  C   UNL A   1      41.488  31.967  30.351  1.00  0.00     0.031 C 
ATOM     49  C   UNL A   1      40.463  25.572  27.973  1.00  0.00     0.029 A 
ATOM     50  C   UNL A   1      41.826  25.882  28.392  1.00  0.00     0.049 A 
ATOM     51  H   UNL A   1      42.516  27.658  29.238  1.00  0.00     0.167 HD
ATOM     52  C   UNL A   1      43.883  31.519  30.783  1.00  0.00     0.037 A 
ATOM     53  C   UNL A   1      42.880  25.047  28.295  1.00  0.00     0.037 A 
ATOM     54  C   UNL A   1      45.043  30.668  30.811  1.00  0.00     0.049 A 
ATOM     55  C   UNL A   1      44.227  25.505  28.785  1.00  0.00     0.074 A 
ATOM     56  C   UNL A   1      46.313  30.959  31.280  1.00  0.00     0.029 A 
ATOM     57  N   UNL A   1      45.076  29.359  30.352  1.00  0.00    -0.354 N 
ATOM     58  N   UNL A   1      44.567  26.667  29.294  1.00  0.00    -0.248 NA
ATOM     59  C   UNL A   1      45.333  24.541  28.697  1.00  0.00     0.031 C 
ATOM     60  C   UNL A   1      47.124  29.839  31.065  1.00  0.00     0.029 A 
ATOM     61  C   UNL A   1      46.348  28.834  30.510  1.00  0.00     0.049 A 
ATOM     62  H   UNL A   1      44.309  28.875  29.970  1.00  0.00     0.167 HD
ATOM     63  C   UNL A   1      45.917  26.562  29.610  1.00  0.00     0.074 A 
ATOM     64  C   UNL A   1      46.328  25.222  29.248  1.00  0.00     0.031 C 
ATOM     65  C   UNL A   1      46.741  27.493  30.153  1.00  0.00     0.037 A 
BRANCH  52  66
ATOM     66  C   UNL A   1      44.021  32.936  31.271  1.00  0.00     0.058 A 
ATOM     67  C   UNL A   1      43.942  33.255  32.637  1.00  0.00     0.135 A 
ATOM     68  C   UNL A   1      44.254  33.986  30.368  1.00  0.00     0.135 A 
ATOM     69  F   UNL A   1      43.703  32.293  33.543  1.00  0.00    -0.206 F 
ATOM     70  C   UNL A   1      44.053  34.567  33.087  1.00  0.00     0.059 A 
ATOM     71  C   UNL A   1      44.400  35.302  30.799  1.00  0.00     0.059 A 
ATOM     72  F   UNL A   1      44.340  33.740  29.051  1.00  0.00    -0.206 F 
ATOM     73  C   UNL A   1      44.281  35.584  32.159  1.00  0.00     0.060 A 
BRANCH  73  74
ATOM     74  S   UNL A   1      44.421  37.279  32.762  1.00  0.00     0.124 S 
ATOM     75  O   UNL A   1      45.558  37.171  33.671  1.00  0.00    -0.237 OA
ATOM     76  O   UNL A   1      44.662  38.028  31.533  1.00  0.00    -0.237 OA
ATOM     77  O   UNL A   1      43.130  37.522  33.398  1.00  0.00    -0.744 OA
ENDBRANCH  73  74
ENDBRANCH  52  66
BRANCH  53  78
ATOM     78  C   UNL A   1      42.698  23.681  27.732  1.00  0.00     0.058 A 
ATOM     79  C   UNL A   1      42.750  23.456  26.347  1.00  0.00     0.135 A 
ATOM     80  C   UNL A   1      42.479  22.571  28.564  1.00  0.00     0.135 A 
ATOM     81  F   UNL A   1      42.949  24.483  25.508  1.00  0.00    -0.206 F 
ATOM     82  C   UNL A   1      42.579  22.184  25.807  1.00  0.00     0.059 A 
ATOM     83  C   UNL A   1      42.332  21.287  28.049  1.00  0.00     0.059 A 
ATOM     84  F   UNL A   1      42.437  22.728  29.896  1.00  0.00    -0.206 F 
ATOM     85  C   UNL A   1      42.374  21.105  26.667  1.00  0.00     0.060 A 
BRANCH  85  86
ATOM     86  S   UNL A   1      42.209  19.451  25.959  1.00  0.00     0.124 S 
ATOM     87  O   UNL A   1      42.722  18.616  27.038  1.00  0.00    -0.237 OA
ATOM     88  O   UNL A   1      40.773  19.366  25.711  1.00  0.00    -0.237 OA
ATOM     89  O   UNL A   1      43.040  19.515  24.759  1.00  0.00    -0.744 OA
ENDBRANCH  85  86
ENDBRANCH  53  78
BRANCH  65  90
ATOM     90  C   UNL A   1      48.164  27.088  30.423  1.00  0.00     0.058 A 
ATOM     91  C   UNL A   1      49.202  27.391  29.529  1.00  0.00     0.135 A 
ATOM     92  C   UNL A   1      48.501  26.441  31.623  1.00  0.00     0.135 A 
ATOM     93  F   UNL A   1      48.934  28.004  28.365  1.00  0.00    -0.206 F 
ATOM     94  C   UNL A   1      50.521  27.046  29.803  1.00  0.00     0.059 A 
ATOM     95  C   UNL A   1      49.818  26.113  31.932  1.00  0.00     0.059 A 
ATOM     96  F   UNL A   1      47.548  26.138  32.518  1.00  0.00    -0.206 F 
ATOM     97  C   UNL A   1      50.820  26.409  31.009  1.00  0.00     0.060 A 
BRANCH  97  98
ATOM     98  S   UNL A   1      52.540  26.000  31.371  1.00  0.00     0.124 S 
ATOM     99  O   UNL A   1      52.923  27.094  32.258  1.00  0.00    -0.237 OA
ATOM    100  O   UNL A   1      52.424  24.687  31.999  1.00  0.00    -0.237 OA
ATOM    101  O   UNL A   1      53.175  26.005  30.057  1.00  0.00    -0.744 OA
ENDBRANCH  97  98
ENDBRANCH  65  90
ENDBRANCH  39  40
ENDBRANCH  31  34
ENDBRANCH  29  30
ENDBRANCH  28  29
ENDBRANCH  27  28
ENDBRANCH   1  27
TORSDOF 20
ENDMDL
