MODEL 1
REMARK VINA RESULT:     -11.5      0.000      0.000
REMARK SMILES O=C(NCCCCNC(=O)[C@@H](NC(=O)[C@H]1CC[C@@H]2CCCC[C@H]2[NH2+]1)C1CC1)c1ccc(-c2c3nc(c(-c4c(F)cc(S(=O)(=O)[O-])cc4F)c4ccc([nH]4)c(-c4c(F)cc(S(=O)(=O)[O-])cc4F)c4nc(c(-c5c(F)cc(S(=O)(=O)[O-])cc5F)c5ccc2[nH]5)C=C4)C=C3)cc1
REMARK SMILES IDX 5 1 4 2 3 3 1 4 2 5 28 7 29 8 93 9 30 10 92 11 31 12 32 13
REMARK SMILES IDX 33 14 86 15 34 16 91 17 85 18 87 19 35 20 90 21 84 22 83 23
REMARK SMILES IDX 36 25 70 26 49 27 69 28 50 29 53 30 68 31 88 32 51 33 52 34
REMARK SMILES IDX 67 36 89 37 54 38 37 39 38 40 47 41 39 42 40 43 46 44 48 45
REMARK SMILES IDX 41 46 42 47 43 48 44 49 45 50 71 51 72 52 81 53 73 54 74 55
REMARK SMILES IDX 80 56 82 57 75 58 76 59 77 60 78 61 79 62 55 63 56 64 65 65
REMARK SMILES IDX 57 66 58 67 64 68 66 69 59 70 60 71 61 72 62 73 63 74 6 75
REMARK SMILES IDX 7 76 8 77 9 78 10 80 11 81 12 82 13 83 14 85 15 86 16 87
REMARK SMILES IDX 24 88 17 89 23 90 18 93 22 94 19 95 21 96 20 97 25 98 26 99
REMARK SMILES IDX 27 100
REMARK H PARENT 3 6 87 24 53 35 8 79 12 84 24 91 24 92
REMARK Flexibility Score: inf
ROOT
ATOM      1  C   UNL A   1      33.330  27.945  25.670  1.00  0.00     0.023 C 
ENDROOT
BRANCH   1   2
ATOM      2  C   UNL A   1      34.128  28.340  26.904  1.00  0.00     0.116 C 
BRANCH   2   3
ATOM      3  N   UNL A   1      33.780  29.656  27.418  1.00  0.00    -0.352 N 
ATOM      4  O   UNL A   1      34.037  31.524  28.660  1.00  0.00    -0.269 OA
ATOM      5  C   UNL A   1      34.538  30.523  28.180  1.00  0.00     0.251 C 
ATOM      6  H   UNL A   1      32.876  29.974  27.188  1.00  0.00     0.163 HD
BRANCH   5   7
ATOM      7  C   UNL A   1      35.962  30.200  28.422  1.00  0.00     0.039 A 
ATOM      8  C   UNL A   1      36.904  30.406  27.414  1.00  0.00     0.014 A 
ATOM      9  C   UNL A   1      36.348  29.665  29.653  1.00  0.00     0.014 A 
ATOM     10  C   UNL A   1      38.197  29.927  27.575  1.00  0.00     0.010 A 
ATOM     11  C   UNL A   1      37.677  29.270  29.847  1.00  0.00     0.010 A 
ATOM     12  C   UNL A   1      38.606  29.371  28.799  1.00  0.00    -0.014 A 
BRANCH  12  13
ATOM     13  C   UNL A   1      40.033  29.008  28.984  1.00  0.00     0.031 A 
ATOM     14  C   UNL A   1      40.566  27.662  28.572  1.00  0.00     0.074 A 
ATOM     15  C   UNL A   1      40.855  29.934  29.520  1.00  0.00     0.049 A 
ATOM     16  N   UNL A   1      41.787  27.199  28.677  1.00  0.00    -0.248 NA
ATOM     17  C   UNL A   1      39.616  26.710  27.973  1.00  0.00     0.031 C 
ATOM     18  C   UNL A   1      40.436  31.264  29.973  1.00  0.00     0.029 A 
ATOM     19  N   UNL A   1      42.203  29.910  29.768  1.00  0.00    -0.354 N 
ATOM     20  C   UNL A   1      41.749  25.900  28.183  1.00  0.00     0.074 A 
ATOM     21  C   UNL A   1      40.383  25.642  27.785  1.00  0.00     0.031 C 
ATOM     22  C   UNL A   1      41.508  31.939  30.410  1.00  0.00     0.029 A 
ATOM     23  C   UNL A   1      42.674  31.068  30.337  1.00  0.00     0.049 A 
ATOM     24  H   UNL A   1      42.777  29.139  29.558  1.00  0.00     0.167 HD
ATOM     25  C   UNL A   1      42.768  25.013  28.073  1.00  0.00     0.037 A 
ATOM     26  C   UNL A   1      43.901  31.388  30.789  1.00  0.00     0.037 A 
ATOM     27  C   UNL A   1      44.132  25.297  28.450  1.00  0.00     0.049 A 
ATOM     28  C   UNL A   1      45.001  30.374  30.671  1.00  0.00     0.074 A 
ATOM     29  C   UNL A   1      45.246  24.487  28.311  1.00  0.00     0.029 A 
ATOM     30  N   UNL A   1      44.566  26.473  29.044  1.00  0.00    -0.354 N 
ATOM     31  N   UNL A   1      44.957  29.172  30.148  1.00  0.00    -0.248 NA
ATOM     32  C   UNL A   1      46.313  30.753  31.210  1.00  0.00     0.031 C 
ATOM     33  C   UNL A   1      46.343  25.151  28.871  1.00  0.00     0.029 A 
ATOM     34  C   UNL A   1      45.924  26.395  29.313  1.00  0.00     0.049 A 
ATOM     35  H   UNL A   1      43.994  27.249  29.246  1.00  0.00     0.167 HD
ATOM     36  C   UNL A   1      46.237  28.652  30.292  1.00  0.00     0.074 A 
ATOM     37  C   UNL A   1      47.039  29.682  30.920  1.00  0.00     0.031 C 
ATOM     38  C   UNL A   1      46.703  27.428  29.944  1.00  0.00     0.037 A 
BRANCH  25  39
ATOM     39  C   UNL A   1      42.472  23.637  27.541  1.00  0.00     0.058 A 
ATOM     40  C   UNL A   1      42.494  23.353  26.168  1.00  0.00     0.135 A 
ATOM     41  C   UNL A   1      42.283  22.562  28.428  1.00  0.00     0.135 A 
ATOM     42  F   UNL A   1      42.657  24.343  25.276  1.00  0.00    -0.206 F 
ATOM     43  C   UNL A   1      42.343  22.053  25.691  1.00  0.00     0.059 A 
ATOM     44  C   UNL A   1      42.151  21.252  27.975  1.00  0.00     0.059 A 
ATOM     45  F   UNL A   1      42.252  22.778  29.753  1.00  0.00    -0.206 F 
ATOM     46  C   UNL A   1      42.182  21.008  26.604  1.00  0.00     0.060 A 
BRANCH  46  47
ATOM     47  S   UNL A   1      42.045  19.322  25.970  1.00  0.00     0.124 S 
ATOM     48  O   UNL A   1      42.928  19.374  24.809  1.00  0.00    -0.237 OA
ATOM     49  O   UNL A   1      42.525  18.526  27.095  1.00  0.00    -0.237 OA
ATOM     50  O   UNL A   1      40.623  19.185  25.670  1.00  0.00    -0.744 OA
ENDBRANCH  46  47
ENDBRANCH  25  39
BRANCH  26  51
ATOM     51  C   UNL A   1      44.134  32.703  31.440  1.00  0.00     0.058 A 
ATOM     52  C   UNL A   1      44.514  33.828  30.695  1.00  0.00     0.135 A 
ATOM     53  C   UNL A   1      43.980  32.858  32.828  1.00  0.00     0.135 A 
ATOM     54  F   UNL A   1      44.674  33.730  29.366  1.00  0.00    -0.206 F 
ATOM     55  C   UNL A   1      44.762  35.053  31.304  1.00  0.00     0.059 A 
ATOM     56  C   UNL A   1      44.191  34.080  33.455  1.00  0.00     0.059 A 
ATOM     57  F   UNL A   1      43.595  31.817  33.583  1.00  0.00    -0.206 F 
ATOM     58  C   UNL A   1      44.602  35.167  32.686  1.00  0.00     0.060 A 
BRANCH  58  59
ATOM     59  S   UNL A   1      44.911  36.763  33.471  1.00  0.00     0.124 S 
ATOM     60  O   UNL A   1      46.315  36.981  33.141  1.00  0.00    -0.237 OA
ATOM     61  O   UNL A   1      43.953  37.632  32.793  1.00  0.00    -0.237 OA
ATOM     62  O   UNL A   1      44.626  36.505  34.878  1.00  0.00    -0.744 OA
ENDBRANCH  58  59
ENDBRANCH  26  51
BRANCH  38  63
ATOM     63  C   UNL A   1      48.151  27.145  30.231  1.00  0.00     0.058 A 
ATOM     64  C   UNL A   1      49.164  27.551  29.349  1.00  0.00     0.135 A 
ATOM     65  C   UNL A   1      48.530  26.486  31.411  1.00  0.00     0.135 A 
ATOM     66  F   UNL A   1      48.851  28.172  28.200  1.00  0.00    -0.206 F 
ATOM     67  C   UNL A   1      50.503  27.293  29.614  1.00  0.00     0.059 A 
ATOM     68  C   UNL A   1      49.866  26.243  31.711  1.00  0.00     0.059 A 
ATOM     69  F   UNL A   1      47.600  26.084  32.291  1.00  0.00    -0.206 F 
ATOM     70  C   UNL A   1      50.845  26.639  30.800  1.00  0.00     0.060 A 
BRANCH  70  71
ATOM     71  S   UNL A   1      52.590  26.334  31.147  1.00  0.00     0.124 S 
ATOM     72  O   UNL A   1      52.522  25.111  31.939  1.00  0.00    -0.237 OA
ATOM     73  O   UNL A   1      53.154  26.193  29.808  1.00  0.00    -0.237 OA
ATOM     74  O   UNL A   1      53.005  27.531  31.874  1.00  0.00    -0.744 OA
ENDBRANCH  70  71
ENDBRANCH  38  63
ENDBRANCH  12  13
ENDBRANCH   5   7
ENDBRANCH   2   3
ENDBRANCH   1   2
BRANCH   1  75
ATOM     75  C   UNL A   1      31.898  28.469  25.615  1.00  0.00     0.023 C 
BRANCH  75  76
ATOM     76  C   UNL A   1      31.289  28.610  24.224  1.00  0.00     0.116 C 
BRANCH  76  77
ATOM     77  N   UNL A   1      30.007  27.945  24.063  1.00  0.00    -0.354 N 
ATOM     78  C   UNL A   1      29.740  26.601  23.967  1.00  0.00     0.242 C 
ATOM     79  H   UNL A   1      29.223  28.539  24.016  1.00  0.00     0.163 HD
ATOM     80  O   UNL A   1      28.557  26.255  23.899  1.00  0.00    -0.273 OA
BRANCH  78  81
ATOM     81  C   UNL A   1      30.886  25.545  24.074  1.00  0.00     0.174 C 
BRANCH  81  82
ATOM     82  N   UNL A   1      30.419  24.510  25.017  1.00  0.00    -0.339 N 
ATOM     83  C   UNL A   1      30.895  23.898  26.123  1.00  0.00     0.278 C 
ATOM     84  H   UNL A   1      29.525  24.178  24.776  1.00  0.00     0.164 HD
ATOM     85  O   UNL A   1      30.152  23.977  27.116  1.00  0.00    -0.268 OA
BRANCH  83  86
ATOM     86  C   UNL A   1      32.110  22.955  26.177  1.00  0.00     0.272 C 
ATOM     87  C   UNL A   1      32.149  21.749  25.242  1.00  0.00     0.076 C 
ATOM     88  N   UNL A   1      33.351  23.741  26.321  1.00  0.00    -0.333 N 
ATOM     89  C   UNL A   1      33.224  21.768  24.153  1.00  0.00     0.016 C 
ATOM     90  C   UNL A   1      34.536  23.032  25.844  1.00  0.00     0.186 C 
ATOM     91  H   UNL A   1      33.481  23.963  27.308  1.00  0.00     0.347 HD
ATOM     92  H   UNL A   1      33.248  24.580  25.751  1.00  0.00     0.347 HD
ATOM     93  C   UNL A   1      34.307  22.829  24.345  1.00  0.00     0.048 C 
ATOM     94  C   UNL A   1      35.810  23.817  26.158  1.00  0.00     0.065 C 
ATOM     95  C   UNL A   1      35.550  22.454  23.533  1.00  0.00     0.010 C 
ATOM     96  C   UNL A   1      37.005  23.223  25.418  1.00  0.00     0.006 C 
ATOM     97  C   UNL A   1      36.772  23.277  23.914  1.00  0.00     0.001 C 
ENDBRANCH  83  86
ENDBRANCH  81  82
BRANCH  81  98
ATOM     98  C   UNL A   1      31.488  25.152  22.746  1.00  0.00     0.021 C 
ATOM     99  C   UNL A   1      31.831  26.026  21.548  1.00  0.00     0.006 C 
ATOM    100  C   UNL A   1      32.929  25.552  22.434  1.00  0.00     0.006 C 
ENDBRANCH  81  98
ENDBRANCH  78  81
ENDBRANCH  76  77
ENDBRANCH  75  76
ENDBRANCH   1  75
TORSDOF 17
ENDMDL
MODEL 2
REMARK VINA RESULT:     -11.3      2.603      8.671
REMARK SMILES O=C(NCCCCNC(=O)[C@@H](NC(=O)[C@H]1CC[C@@H]2CCCC[C@H]2[NH2+]1)C1CC1)c1ccc(-c2c3nc(c(-c4c(F)cc(S(=O)(=O)[O-])cc4F)c4ccc([nH]4)c(-c4c(F)cc(S(=O)(=O)[O-])cc4F)c4nc(c(-c5c(F)cc(S(=O)(=O)[O-])cc5F)c5ccc2[nH]5)C=C4)C=C3)cc1
REMARK SMILES IDX 5 1 4 2 3 3 1 4 2 5 28 7 29 8 93 9 30 10 92 11 31 12 32 13
REMARK SMILES IDX 33 14 86 15 34 16 91 17 85 18 87 19 35 20 90 21 84 22 83 23
REMARK SMILES IDX 36 25 70 26 49 27 69 28 50 29 53 30 68 31 88 32 51 33 52 34
REMARK SMILES IDX 67 36 89 37 54 38 37 39 38 40 47 41 39 42 40 43 46 44 48 45
REMARK SMILES IDX 41 46 42 47 43 48 44 49 45 50 71 51 72 52 81 53 73 54 74 55
REMARK SMILES IDX 80 56 82 57 75 58 76 59 77 60 78 61 79 62 55 63 56 64 65 65
REMARK SMILES IDX 57 66 58 67 64 68 66 69 59 70 60 71 61 72 62 73 63 74 6 75
REMARK SMILES IDX 7 76 8 77 9 78 10 80 11 81 12 82 13 83 14 85 15 86 16 87
REMARK SMILES IDX 24 88 17 89 23 90 18 93 22 94 19 95 21 96 20 97 25 98 26 99
REMARK SMILES IDX 27 100
REMARK H PARENT 3 6 87 24 53 35 8 79 12 84 24 91 24 92
REMARK Flexibility Score: inf
ROOT
ATOM      1  C   UNL A   1      33.966  29.294  26.841  1.00  0.00     0.023 C 
ENDROOT
BRANCH   1   2
ATOM      2  C   UNL A   1      35.282  29.274  27.604  1.00  0.00     0.116 C 
BRANCH   2   3
ATOM      3  N   UNL A   1      35.250  30.060  28.828  1.00  0.00    -0.352 N 
ATOM      4  O   UNL A   1      36.034  30.872  30.784  1.00  0.00    -0.269 OA
ATOM      5  C   UNL A   1      36.269  30.323  29.722  1.00  0.00     0.251 C 
ATOM      6  H   UNL A   1      34.378  30.461  29.050  1.00  0.00     0.163 HD
BRANCH   5   7
ATOM      7  C   UNL A   1      37.646  29.905  29.377  1.00  0.00     0.039 A 
ATOM      8  C   UNL A   1      38.528  29.513  30.384  1.00  0.00     0.014 A 
ATOM      9  C   UNL A   1      38.062  29.931  28.044  1.00  0.00     0.014 A 
ATOM     10  C   UNL A   1      39.867  29.307  30.081  1.00  0.00     0.010 A 
ATOM     11  C   UNL A   1      39.391  29.629  27.729  1.00  0.00     0.010 A 
ATOM     12  C   UNL A   1      40.312  29.341  28.749  1.00  0.00    -0.014 A 
BRANCH  12  13
ATOM     13  C   UNL A   1      41.718  28.968  28.449  1.00  0.00     0.031 A 
ATOM     14  C   UNL A   1      42.831  29.980  28.493  1.00  0.00     0.074 A 
ATOM     15  C   UNL A   1      41.977  27.679  28.151  1.00  0.00     0.049 A 
ATOM     16  N   UNL A   1      44.105  29.804  28.250  1.00  0.00    -0.248 NA
ATOM     17  C   UNL A   1      42.477  31.364  28.849  1.00  0.00     0.031 C 
ATOM     18  C   UNL A   1      40.967  26.619  28.059  1.00  0.00     0.029 A 
ATOM     19  N   UNL A   1      43.156  27.034  27.878  1.00  0.00    -0.354 N 
ATOM     20  C   UNL A   1      44.701  31.052  28.397  1.00  0.00     0.074 A 
ATOM     21  C   UNL A   1      43.648  31.981  28.744  1.00  0.00     0.031 C 
ATOM     22  C   UNL A   1      41.572  25.455  27.788  1.00  0.00     0.029 A 
ATOM     23  C   UNL A   1      42.998  25.695  27.613  1.00  0.00     0.049 A 
ATOM     24  H   UNL A   1      44.029  27.487  27.873  1.00  0.00     0.167 HD
ATOM     25  C   UNL A   1      46.008  31.381  28.256  1.00  0.00     0.037 A 
ATOM     26  C   UNL A   1      43.893  24.764  27.233  1.00  0.00     0.037 A 
ATOM     27  C   UNL A   1      47.050  30.436  27.938  1.00  0.00     0.049 A 
ATOM     28  C   UNL A   1      45.328  25.168  27.067  1.00  0.00     0.074 A 
ATOM     29  C   UNL A   1      48.414  30.661  27.843  1.00  0.00     0.029 A 
ATOM     30  N   UNL A   1      46.849  29.092  27.654  1.00  0.00    -0.354 N 
ATOM     31  N   UNL A   1      45.880  26.342  27.267  1.00  0.00    -0.248 NA
ATOM     32  C   UNL A   1      46.262  24.129  26.616  1.00  0.00     0.031 C 
ATOM     33  C   UNL A   1      49.029  29.468  27.448  1.00  0.00     0.029 A 
ATOM     34  C   UNL A   1      48.057  28.486  27.347  1.00  0.00     0.049 A 
ATOM     35  H   UNL A   1      45.976  28.637  27.667  1.00  0.00     0.167 HD
ATOM     36  C   UNL A   1      47.227  26.179  26.969  1.00  0.00     0.074 A 
ATOM     37  C   UNL A   1      47.412  24.789  26.608  1.00  0.00     0.031 C 
ATOM     38  C   UNL A   1      48.220  27.102  26.984  1.00  0.00     0.037 A 
BRANCH  25  39
ATOM     39  C   UNL A   1      46.411  32.820  28.426  1.00  0.00     0.058 A 
ATOM     40  C   UNL A   1      46.921  33.310  29.638  1.00  0.00     0.135 A 
ATOM     41  C   UNL A   1      46.401  33.692  27.322  1.00  0.00     0.135 A 
ATOM     42  F   UNL A   1      46.942  32.525  30.727  1.00  0.00    -0.206 F 
ATOM     43  C   UNL A   1      47.409  34.609  29.751  1.00  0.00     0.059 A 
ATOM     44  C   UNL A   1      46.903  34.988  27.406  1.00  0.00     0.059 A 
ATOM     45  F   UNL A   1      45.923  33.276  26.139  1.00  0.00    -0.206 F 
ATOM     46  C   UNL A   1      47.404  35.438  28.626  1.00  0.00     0.060 A 
BRANCH  46  47
ATOM     47  S   UNL A   1      48.093  37.101  28.776  1.00  0.00     0.124 S 
ATOM     48  O   UNL A   1      49.140  37.076  27.760  1.00  0.00    -0.237 OA
ATOM     49  O   UNL A   1      46.940  37.944  28.476  1.00  0.00    -0.237 OA
ATOM     50  O   UNL A   1      48.561  37.153  30.158  1.00  0.00    -0.744 OA
ENDBRANCH  46  47
ENDBRANCH  25  39
BRANCH  26  51
ATOM     51  C   UNL A   1      43.443  23.380  26.934  1.00  0.00     0.058 A 
ATOM     52  C   UNL A   1      43.059  22.502  27.957  1.00  0.00     0.135 A 
ATOM     53  C   UNL A   1      43.391  22.909  25.612  1.00  0.00     0.135 A 
ATOM     54  F   UNL A   1      43.093  22.906  29.237  1.00  0.00    -0.206 F 
ATOM     55  C   UNL A   1      42.667  21.195  27.684  1.00  0.00     0.059 A 
ATOM     56  C   UNL A   1      42.972  21.618  25.311  1.00  0.00     0.059 A 
ATOM     57  F   UNL A   1      43.727  23.717  24.595  1.00  0.00    -0.206 F 
ATOM     58  C   UNL A   1      42.631  20.762  26.358  1.00  0.00     0.060 A 
BRANCH  58  59
ATOM     59  S   UNL A   1      42.108  19.071  26.007  1.00  0.00     0.124 S 
ATOM     60  O   UNL A   1      42.822  18.798  24.766  1.00  0.00    -0.237 OA
ATOM     61  O   UNL A   1      42.578  18.351  27.187  1.00  0.00    -0.237 OA
ATOM     62  O   UNL A   1      40.658  19.187  25.890  1.00  0.00    -0.744 OA
ENDBRANCH  58  59
ENDBRANCH  26  51
BRANCH  38  63
ATOM     63  C   UNL A   1      49.594  26.628  26.606  1.00  0.00     0.058 A 
ATOM     64  C   UNL A   1      50.445  26.027  27.546  1.00  0.00     0.135 A 
ATOM     65  C   UNL A   1      50.055  26.751  25.286  1.00  0.00     0.135 A 
ATOM     66  F   UNL A   1      50.056  25.899  28.825  1.00  0.00    -0.206 F 
ATOM     67  C   UNL A   1      51.715  25.585  27.197  1.00  0.00     0.059 A 
ATOM     68  C   UNL A   1      51.311  26.290  24.907  1.00  0.00     0.059 A 
ATOM     69  F   UNL A   1      49.276  27.312  24.346  1.00  0.00    -0.206 F 
ATOM     70  C   UNL A   1      52.140  25.720  25.873  1.00  0.00     0.060 A 
BRANCH  70  71
ATOM     71  S   UNL A   1      53.781  25.117  25.426  1.00  0.00     0.124 S 
ATOM     72  O   UNL A   1      53.575  23.672  25.435  1.00  0.00    -0.237 OA
ATOM     73  O   UNL A   1      53.989  25.720  24.113  1.00  0.00    -0.237 OA
ATOM     74  O   UNL A   1      54.634  25.636  26.491  1.00  0.00    -0.744 OA
ENDBRANCH  70  71
ENDBRANCH  38  63
ENDBRANCH  12  13
ENDBRANCH   5   7
ENDBRANCH   2   3
ENDBRANCH   1   2
BRANCH   1  75
ATOM     75  C   UNL A   1      32.868  28.392  27.396  1.00  0.00     0.023 C 
BRANCH  75  76
ATOM     76  C   UNL A   1      32.421  27.247  26.493  1.00  0.00     0.116 C 
BRANCH  76  77
ATOM     77  N   UNL A   1      31.080  26.759  26.767  1.00  0.00    -0.354 N 
ATOM     78  C   UNL A   1      30.327  25.861  26.049  1.00  0.00     0.242 C 
ATOM     79  H   UNL A   1      30.652  27.121  27.577  1.00  0.00     0.163 HD
ATOM     80  O   UNL A   1      29.227  25.540  26.507  1.00  0.00    -0.273 OA
BRANCH  78  81
ATOM     81  C   UNL A   1      30.901  25.174  24.769  1.00  0.00     0.174 C 
BRANCH  81  82
ATOM     82  N   UNL A   1      30.513  23.752  24.844  1.00  0.00    -0.339 N 
ATOM     83  C   UNL A   1      31.113  22.582  25.148  1.00  0.00     0.278 C 
ATOM     84  H   UNL A   1      29.566  23.624  24.610  1.00  0.00     0.164 HD
ATOM     85  O   UNL A   1      30.556  21.936  26.052  1.00  0.00    -0.268 OA
BRANCH  83  86
ATOM     86  C   UNL A   1      32.235  21.909  24.339  1.00  0.00     0.272 C 
ATOM     87  C   UNL A   1      32.572  22.453  22.952  1.00  0.00     0.076 C 
ATOM     88  N   UNL A   1      33.366  21.574  25.227  1.00  0.00    -0.333 N 
ATOM     89  C   UNL A   1      33.945  23.108  22.794  1.00  0.00     0.016 C 
ATOM     90  C   UNL A   1      34.636  21.455  24.516  1.00  0.00     0.186 C 
ATOM     91  H   UNL A   1      33.165  20.685  25.685  1.00  0.00     0.347 HD
ATOM     92  H   UNL A   1      33.462  22.336  25.897  1.00  0.00     0.347 HD
ATOM     93  C   UNL A   1      34.912  22.849  23.949  1.00  0.00     0.048 C 
ATOM     94  C   UNL A   1      35.742  20.954  25.447  1.00  0.00     0.065 C 
ATOM     95  C   UNL A   1      36.350  23.100  23.487  1.00  0.00     0.010 C 
ATOM     96  C   UNL A   1      37.110  21.100  24.786  1.00  0.00     0.006 C 
ATOM     97  C   UNL A   1      37.385  22.563  24.466  1.00  0.00     0.001 C 
ENDBRANCH  83  86
ENDBRANCH  81  82
BRANCH  81  98
ATOM     98  C   UNL A   1      30.684  25.959  23.498  1.00  0.00     0.021 C 
ATOM     99  C   UNL A   1      30.502  27.459  23.312  1.00  0.00     0.006 C 
ATOM    100  C   UNL A   1      31.812  26.842  22.965  1.00  0.00     0.006 C 
ENDBRANCH  81  98
ENDBRANCH  78  81
ENDBRANCH  76  77
ENDBRANCH  75  76
ENDBRANCH   1  75
TORSDOF 17
ENDMDL
MODEL 3
REMARK VINA RESULT:     -11.1      3.509      7.899
REMARK SMILES O=C(NCCCCNC(=O)[C@@H](NC(=O)[C@H]1CC[C@@H]2CCCC[C@H]2[NH2+]1)C1CC1)c1ccc(-c2c3nc(c(-c4c(F)cc(S(=O)(=O)[O-])cc4F)c4ccc([nH]4)c(-c4c(F)cc(S(=O)(=O)[O-])cc4F)c4nc(c(-c5c(F)cc(S(=O)(=O)[O-])cc5F)c5ccc2[nH]5)C=C4)C=C3)cc1
REMARK SMILES IDX 5 1 4 2 3 3 1 4 2 5 28 7 29 8 93 9 30 10 92 11 31 12 32 13
REMARK SMILES IDX 33 14 86 15 34 16 91 17 85 18 87 19 35 20 90 21 84 22 83 23
REMARK SMILES IDX 36 25 70 26 49 27 69 28 50 29 53 30 68 31 88 32 51 33 52 34
REMARK SMILES IDX 67 36 89 37 54 38 37 39 38 40 47 41 39 42 40 43 46 44 48 45
REMARK SMILES IDX 41 46 42 47 43 48 44 49 45 50 71 51 72 52 81 53 73 54 74 55
REMARK SMILES IDX 80 56 82 57 75 58 76 59 77 60 78 61 79 62 55 63 56 64 65 65
REMARK SMILES IDX 57 66 58 67 64 68 66 69 59 70 60 71 61 72 62 73 63 74 6 75
REMARK SMILES IDX 7 76 8 77 9 78 10 80 11 81 12 82 13 83 14 85 15 86 16 87
REMARK SMILES IDX 24 88 17 89 23 90 18 93 22 94 19 95 21 96 20 97 25 98 26 99
REMARK SMILES IDX 27 100
REMARK H PARENT 3 6 87 24 53 35 8 79 12 84 24 91 24 92
REMARK Flexibility Score: inf
ROOT
ATOM      1  C   UNL A   1      37.921  19.973  24.982  1.00  0.00     0.023 C 
ENDROOT
BRANCH   1   2
ATOM      2  C   UNL A   1      39.036  20.346  25.948  1.00  0.00     0.116 C 
BRANCH   2   3
ATOM      3  N   UNL A   1      40.094  19.350  26.018  1.00  0.00    -0.352 N 
ATOM      4  O   UNL A   1      42.222  18.592  26.037  1.00  0.00    -0.269 OA
ATOM      5  C   UNL A   1      41.457  19.532  26.153  1.00  0.00     0.251 C 
ATOM      6  H   UNL A   1      39.797  18.412  25.961  1.00  0.00     0.163 HD
BRANCH   5   7
ATOM      7  C   UNL A   1      41.970  20.895  26.418  1.00  0.00     0.039 A 
ATOM      8  C   UNL A   1      42.148  21.789  25.363  1.00  0.00     0.014 A 
ATOM      9  C   UNL A   1      42.300  21.266  27.724  1.00  0.00     0.014 A 
ATOM     10  C   UNL A   1      42.806  22.992  25.586  1.00  0.00     0.010 A 
ATOM     11  C   UNL A   1      42.876  22.520  27.960  1.00  0.00     0.010 A 
ATOM     12  C   UNL A   1      43.159  23.381  26.889  1.00  0.00    -0.014 A 
BRANCH  12  13
ATOM     13  C   UNL A   1      43.724  24.737  27.106  1.00  0.00     0.031 A 
ATOM     14  C   UNL A   1      45.167  25.048  26.816  1.00  0.00     0.074 A 
ATOM     15  C   UNL A   1      42.895  25.700  27.558  1.00  0.00     0.049 A 
ATOM     16  N   UNL A   1      45.805  26.182  26.962  1.00  0.00    -0.248 NA
ATOM     17  C   UNL A   1      46.008  23.954  26.304  1.00  0.00     0.031 C 
ATOM     18  C   UNL A   1      41.481  25.501  27.892  1.00  0.00     0.029 A 
ATOM     19  N   UNL A   1      43.108  27.031  27.809  1.00  0.00    -0.354 N 
ATOM     20  C   UNL A   1      47.120  25.936  26.586  1.00  0.00     0.074 A 
ATOM     21  C   UNL A   1      47.195  24.541  26.211  1.00  0.00     0.031 C 
ATOM     22  C   UNL A   1      40.946  26.670  28.268  1.00  0.00     0.029 A 
ATOM     23  C   UNL A   1      41.992  27.685  28.274  1.00  0.00     0.049 A 
ATOM     24  H   UNL A   1      43.975  27.475  27.669  1.00  0.00     0.167 HD
ATOM     25  C   UNL A   1      48.163  26.803  26.557  1.00  0.00     0.037 A 
ATOM     26  C   UNL A   1      41.830  28.952  28.696  1.00  0.00     0.037 A 
ATOM     27  C   UNL A   1      48.064  28.199  26.907  1.00  0.00     0.049 A 
ATOM     28  C   UNL A   1      43.010  29.879  28.669  1.00  0.00     0.074 A 
ATOM     29  C   UNL A   1      49.047  29.171  26.842  1.00  0.00     0.029 A 
ATOM     30  N   UNL A   1      46.922  28.819  27.395  1.00  0.00    -0.354 N 
ATOM     31  N   UNL A   1      44.232  29.641  28.255  1.00  0.00    -0.248 NA
ATOM     32  C   UNL A   1      42.796  31.241  29.174  1.00  0.00     0.031 C 
ATOM     33  C   UNL A   1      48.517  30.366  27.342  1.00  0.00     0.029 A 
ATOM     34  C   UNL A   1      47.188  30.151  27.671  1.00  0.00     0.049 A 
ATOM     35  H   UNL A   1      46.052  28.378  27.527  1.00  0.00     0.167 HD
ATOM     36  C   UNL A   1      44.931  30.825  28.446  1.00  0.00     0.074 A 
ATOM     37  C   UNL A   1      43.988  31.786  28.981  1.00  0.00     0.031 C 
ATOM     38  C   UNL A   1      46.239  31.091  28.209  1.00  0.00     0.037 A 
BRANCH  25  39
ATOM     39  C   UNL A   1      49.516  26.288  26.148  1.00  0.00     0.058 A 
ATOM     40  C   UNL A   1      50.017  26.467  24.850  1.00  0.00     0.135 A 
ATOM     41  C   UNL A   1      50.372  25.715  27.106  1.00  0.00     0.135 A 
ATOM     42  F   UNL A   1      49.238  26.997  23.893  1.00  0.00    -0.206 F 
ATOM     43  C   UNL A   1      51.318  26.101  24.515  1.00  0.00     0.059 A 
ATOM     44  C   UNL A   1      51.683  25.362  26.799  1.00  0.00     0.059 A 
ATOM     45  F   UNL A   1      49.944  25.521  28.363  1.00  0.00    -0.206 F 
ATOM     46  C   UNL A   1      52.147  25.557  25.500  1.00  0.00     0.060 A 
BRANCH  46  47
ATOM     47  S   UNL A   1      53.849  25.141  25.061  1.00  0.00     0.124 S 
ATOM     48  O   UNL A   1      53.780  23.685  24.972  1.00  0.00    -0.237 OA
ATOM     49  O   UNL A   1      54.025  25.844  23.794  1.00  0.00    -0.237 OA
ATOM     50  O   UNL A   1      54.627  25.664  26.179  1.00  0.00    -0.744 OA
ENDBRANCH  46  47
ENDBRANCH  25  39
BRANCH  26  51
ATOM     51  C   UNL A   1      40.515  29.396  29.228  1.00  0.00     0.058 A 
ATOM     52  C   UNL A   1      39.437  29.665  28.374  1.00  0.00     0.135 A 
ATOM     53  C   UNL A   1      40.315  29.560  30.609  1.00  0.00     0.135 A 
ATOM     54  F   UNL A   1      39.581  29.524  27.047  1.00  0.00    -0.206 F 
ATOM     55  C   UNL A   1      38.214  30.110  28.865  1.00  0.00     0.059 A 
ATOM     56  C   UNL A   1      39.093  29.972  31.126  1.00  0.00     0.059 A 
ATOM     57  F   UNL A   1      41.308  29.293  31.470  1.00  0.00    -0.206 F 
ATOM     58  C   UNL A   1      38.054  30.264  30.244  1.00  0.00     0.060 A 
BRANCH  58  59
ATOM     59  S   UNL A   1      36.461  30.828  30.878  1.00  0.00     0.124 S 
ATOM     60  O   UNL A   1      36.847  32.033  31.601  1.00  0.00    -0.237 OA
ATOM     61  O   UNL A   1      35.696  31.035  29.652  1.00  0.00    -0.237 OA
ATOM     62  O   UNL A   1      36.016  29.710  31.704  1.00  0.00    -0.744 OA
ENDBRANCH  58  59
ENDBRANCH  26  51
BRANCH  38  63
ATOM     63  C   UNL A   1      46.719  32.480  28.521  1.00  0.00     0.058 A 
ATOM     64  C   UNL A   1      46.654  33.507  27.567  1.00  0.00     0.135 A 
ATOM     65  C   UNL A   1      47.223  32.793  29.793  1.00  0.00     0.135 A 
ATOM     66  F   UNL A   1      46.192  33.255  26.332  1.00  0.00    -0.206 F 
ATOM     67  C   UNL A   1      47.094  34.793  27.855  1.00  0.00     0.059 A 
ATOM     68  C   UNL A   1      47.643  34.080  30.113  1.00  0.00     0.059 A 
ATOM     69  F   UNL A   1      47.299  31.848  30.743  1.00  0.00    -0.206 F 
ATOM     70  C   UNL A   1      47.586  35.071  29.133  1.00  0.00     0.060 A 
BRANCH  70  71
ATOM     71  S   UNL A   1      48.129  36.752  29.503  1.00  0.00     0.124 S 
ATOM     72  O   UNL A   1      47.694  37.470  28.310  1.00  0.00    -0.237 OA
ATOM     73  O   UNL A   1      47.396  37.054  30.728  1.00  0.00    -0.237 OA
ATOM     74  O   UNL A   1      49.574  36.614  29.661  1.00  0.00    -0.744 OA
ENDBRANCH  70  71
ENDBRANCH  38  63
ENDBRANCH  12  13
ENDBRANCH   5   7
ENDBRANCH   2   3
ENDBRANCH   1   2
BRANCH   1  75
ATOM     75  C   UNL A   1      36.694  20.879  25.010  1.00  0.00     0.023 C 
BRANCH  75  76
ATOM     76  C   UNL A   1      36.756  22.119  24.124  1.00  0.00     0.116 C 
BRANCH  76  77
ATOM     77  N   UNL A   1      36.706  23.376  24.850  1.00  0.00    -0.354 N 
ATOM     78  C   UNL A   1      35.609  24.132  25.188  1.00  0.00     0.242 C 
ATOM     79  H   UNL A   1      37.576  23.734  25.141  1.00  0.00     0.163 HD
ATOM     80  O   UNL A   1      35.799  25.143  25.871  1.00  0.00    -0.273 OA
BRANCH  78  81
ATOM     81  C   UNL A   1      34.165  23.657  24.831  1.00  0.00     0.174 C 
BRANCH  81  82
ATOM     82  N   UNL A   1      33.615  23.029  26.048  1.00  0.00    -0.339 N 
ATOM     83  C   UNL A   1      33.493  21.778  26.542  1.00  0.00     0.278 C 
ATOM     84  H   UNL A   1      33.237  23.699  26.661  1.00  0.00     0.164 HD
ATOM     85  O   UNL A   1      33.988  21.618  27.671  1.00  0.00    -0.268 OA
BRANCH  83  86
ATOM     86  C   UNL A   1      32.622  20.657  25.948  1.00  0.00     0.272 C 
ATOM     87  C   UNL A   1      32.080  20.818  24.529  1.00  0.00     0.076 C 
ATOM     88  N   UNL A   1      33.177  19.340  26.315  1.00  0.00    -0.333 N 
ATOM     89  C   UNL A   1      32.631  19.852  23.478  1.00  0.00     0.016 C 
ATOM     90  C   UNL A   1      32.784  18.276  25.394  1.00  0.00     0.186 C 
ATOM     91  H   UNL A   1      32.848  19.098  27.250  1.00  0.00     0.347 HD
ATOM     92  H   UNL A   1      34.194  19.416  26.276  1.00  0.00     0.347 HD
ATOM     93  C   UNL A   1      33.401  18.661  24.048  1.00  0.00     0.048 C 
ATOM     94  C   UNL A   1      33.250  16.910  25.901  1.00  0.00     0.065 C 
ATOM     95  C   UNL A   1      33.466  17.540  23.007  1.00  0.00     0.010 C 
ATOM     96  C   UNL A   1      33.091  15.849  24.815  1.00  0.00     0.006 C 
ATOM     97  C   UNL A   1      33.929  16.216  23.597  1.00  0.00     0.001 C 
ENDBRANCH  83  86
ENDBRANCH  81  82
BRANCH  81  98
ATOM     98  C   UNL A   1      33.354  24.673  24.063  1.00  0.00     0.021 C 
ATOM     99  C   UNL A   1      33.678  25.370  22.750  1.00  0.00     0.006 C 
ATOM    100  C   UNL A   1      32.689  24.258  22.752  1.00  0.00     0.006 C 
ENDBRANCH  81  98
ENDBRANCH  78  81
ENDBRANCH  76  77
ENDBRANCH  75  76
ENDBRANCH   1  75
TORSDOF 17
ENDMDL
