MODEL 1
REMARK VINA RESULT:      -9.9      0.000      0.000
REMARK SMILES C[C@@H](CNC(=O)N(C)CC(C)(C)O)C(=O)NCCCCNC(=O)c1ccc(-c2c3nc(c(-c4c(F)cc(S(=O)(=O)[O-])cc4F)c4ccc([nH]4)c(-c4c(F)cc(S(=O)(=O)[O-])cc4F)c4nc(c(-c5c(F)cc(S(=O)(=O)[O-])cc5F)c5ccc2[nH]5)C=C4)C=C3)cc1
REMARK SMILES IDX 17 1 16 2 14 3 15 4 2 6 1 7 3 8 4 9 5 10 6 12 7 13 8 14 9 15
REMARK SMILES IDX 10 16 11 17 12 18 13 19 18 21 19 22 20 23 21 24 22 25 23 27
REMARK SMILES IDX 24 28 25 29 89 30 26 31 88 32 27 33 28 34 29 35 82 36 30 37
REMARK SMILES IDX 87 38 81 39 83 40 31 41 86 42 80 43 79 44 32 46 66 47 45 48
REMARK SMILES IDX 65 49 46 50 49 51 64 52 84 53 47 54 48 55 63 57 85 58 50 59
REMARK SMILES IDX 33 60 34 61 43 62 35 63 36 64 42 65 44 66 37 67 38 68 39 69
REMARK SMILES IDX 40 70 41 71 67 72 68 73 77 74 69 75 70 76 76 77 78 78 71 79
REMARK SMILES IDX 72 80 73 81 74 82 75 83 51 84 52 85 61 86 53 87 54 88 60 89
REMARK SMILES IDX 62 90 55 91 56 92 57 93 58 94 59 95
REMARK H PARENT 16 5 4 11 13 20 21 26 83 45 49 56
REMARK Flexibility Score: inf
ROOT
ATOM      1  C   UNL A   1      30.664  29.672  24.214  1.00  0.00     0.116 C 
ENDROOT
BRANCH   1   2
ATOM      2  N   UNL A   1      31.041  28.747  23.163  1.00  0.00    -0.356 N 
ATOM      3  C   UNL A   1      30.614  27.478  22.914  1.00  0.00     0.224 C 
ATOM      4  O   UNL A   1      30.855  27.006  21.797  1.00  0.00    -0.275 OA
ATOM      5  H   UNL A   1      31.713  29.089  22.530  1.00  0.00     0.163 HD
BRANCH   3   6
ATOM      6  C   UNL A   1      29.891  26.618  23.948  1.00  0.00     0.094 C 
ATOM      7  C   UNL A   1      28.365  26.728  23.879  1.00  0.00     0.020 C 
BRANCH   6   8
ATOM      8  C   UNL A   1      30.413  25.181  24.120  1.00  0.00     0.130 C 
BRANCH   8   9
ATOM      9  N   UNL A   1      30.782  24.807  25.468  1.00  0.00    -0.337 N 
ATOM     10  C   UNL A   1      31.404  23.776  26.066  1.00  0.00     0.317 C 
ATOM     11  H   UNL A   1      30.503  25.489  26.121  1.00  0.00     0.165 HD
ATOM     12  O   UNL A   1      31.205  23.724  27.285  1.00  0.00    -0.249 OA
BRANCH  10  13
ATOM     13  N   UNL A   1      32.165  22.853  25.417  1.00  0.00    -0.325 N 
ATOM     14  C   UNL A   1      31.897  21.429  25.295  1.00  0.00     0.148 C 
BRANCH  13  15
ATOM     15  C   UNL A   1      33.326  23.344  24.645  1.00  0.00     0.155 C 
BRANCH  15  16
ATOM     16  C   UNL A   1      34.525  23.928  25.458  1.00  0.00     0.077 C 
ATOM     17  C   UNL A   1      35.881  23.720  24.771  1.00  0.00     0.043 C 
ATOM     18  C   UNL A   1      34.311  25.438  25.646  1.00  0.00     0.043 C 
BRANCH  16  19
ATOM     19  O   UNL A   1      34.565  23.351  26.772  1.00  0.00    -0.389 OA
ATOM     20  H   UNL A   1      33.695  22.982  26.990  1.00  0.00     0.211 HD
ENDBRANCH  16  19
ENDBRANCH  15  16
ENDBRANCH  13  15
ENDBRANCH  10  13
ENDBRANCH   8   9
ENDBRANCH   6   8
ENDBRANCH   3   6
ENDBRANCH   1   2
BRANCH   1  21
ATOM     21  C   UNL A   1      31.529  29.585  25.464  1.00  0.00     0.023 C 
BRANCH  21  22
ATOM     22  C   UNL A   1      32.867  28.874  25.272  1.00  0.00     0.023 C 
BRANCH  22  23
ATOM     23  C   UNL A   1      33.876  29.015  26.412  1.00  0.00     0.116 C 
BRANCH  23  24
ATOM     24  N   UNL A   1      33.718  30.234  27.194  1.00  0.00    -0.352 N 
ATOM     25  C   UNL A   1      34.584  30.798  28.107  1.00  0.00     0.251 C 
ATOM     26  H   UNL A   1      32.875  30.723  27.052  1.00  0.00     0.163 HD
ATOM     27  O   UNL A   1      34.254  31.782  28.753  1.00  0.00    -0.269 OA
BRANCH  25  28
ATOM     28  C   UNL A   1      35.910  30.177  28.325  1.00  0.00     0.039 A 
ATOM     29  C   UNL A   1      36.867  30.251  27.310  1.00  0.00     0.014 A 
ATOM     30  C   UNL A   1      36.219  29.565  29.543  1.00  0.00     0.014 A 
ATOM     31  C   UNL A   1      38.165  29.793  27.553  1.00  0.00     0.010 A 
ATOM     32  C   UNL A   1      37.529  29.178  29.807  1.00  0.00     0.010 A 
ATOM     33  C   UNL A   1      38.519  29.298  28.819  1.00  0.00    -0.014 A 
BRANCH  33  34
ATOM     34  C   UNL A   1      39.922  28.928  29.141  1.00  0.00     0.031 A 
ATOM     35  C   UNL A   1      40.843  29.932  29.778  1.00  0.00     0.074 A 
ATOM     36  C   UNL A   1      40.389  27.714  28.786  1.00  0.00     0.049 A 
ATOM     37  N   UNL A   1      42.117  29.825  30.054  1.00  0.00    -0.248 NA
ATOM     38  C   UNL A   1      40.262  31.239  30.124  1.00  0.00     0.031 C 
ATOM     39  C   UNL A   1      39.612  26.671  28.111  1.00  0.00     0.029 A 
ATOM     40  N   UNL A   1      41.635  27.155  28.928  1.00  0.00    -0.354 N 
ATOM     41  C   UNL A   1      42.495  31.052  30.584  1.00  0.00     0.074 A 
ATOM     42  C   UNL A   1      41.327  31.905  30.550  1.00  0.00     0.031 C 
ATOM     43  C   UNL A   1      40.391  25.595  27.919  1.00  0.00     0.029 A 
ATOM     44  C   UNL A   1      41.731  25.879  28.422  1.00  0.00     0.049 A 
ATOM     45  H   UNL A   1      42.389  27.624  29.352  1.00  0.00     0.167 HD
ATOM     46  C   UNL A   1      43.701  31.428  31.073  1.00  0.00     0.037 A 
ATOM     47  C   UNL A   1      42.780  25.037  28.365  1.00  0.00     0.037 A 
ATOM     48  C   UNL A   1      44.851  30.565  31.140  1.00  0.00     0.049 A 
ATOM     49  C   UNL A   1      44.104  25.472  28.932  1.00  0.00     0.074 A 
ATOM     50  C   UNL A   1      46.095  30.830  31.686  1.00  0.00     0.029 A 
ATOM     51  N   UNL A   1      44.899  29.269  30.647  1.00  0.00    -0.354 N 
ATOM     52  N   UNL A   1      44.426  26.614  29.491  1.00  0.00    -0.248 NA
ATOM     53  C   UNL A   1      45.208  24.503  28.866  1.00  0.00     0.031 C 
ATOM     54  C   UNL A   1      46.907  29.708  31.491  1.00  0.00     0.029 A 
ATOM     55  C   UNL A   1      46.156  28.729  30.861  1.00  0.00     0.049 A 
ATOM     56  H   UNL A   1      44.150  28.804  30.210  1.00  0.00     0.167 HD
ATOM     57  C   UNL A   1      45.757  26.491  29.868  1.00  0.00     0.074 A 
ATOM     58  C   UNL A   1      46.181  25.161  29.480  1.00  0.00     0.031 C 
ATOM     59  C   UNL A   1      46.558  27.398  30.480  1.00  0.00     0.037 A 
BRANCH  46  60
ATOM     60  C   UNL A   1      43.836  32.836  31.585  1.00  0.00     0.058 A 
ATOM     61  C   UNL A   1      43.719  33.137  32.951  1.00  0.00     0.135 A 
ATOM     62  C   UNL A   1      44.119  33.892  30.704  1.00  0.00     0.135 A 
ATOM     63  F   UNL A   1      43.434  32.167  33.834  1.00  0.00    -0.206 F 
ATOM     64  C   UNL A   1      43.848  34.438  33.423  1.00  0.00     0.059 A 
ATOM     65  C   UNL A   1      44.279  35.199  31.156  1.00  0.00     0.059 A 
ATOM     66  F   UNL A   1      44.241  33.660  29.387  1.00  0.00    -0.206 F 
ATOM     67  C   UNL A   1      44.126  35.464  32.517  1.00  0.00     0.060 A 
BRANCH  67  68
ATOM     68  S   UNL A   1      44.295  37.148  33.145  1.00  0.00     0.124 S 
ATOM     69  O   UNL A   1      45.205  36.947  34.269  1.00  0.00    -0.237 OA
ATOM     70  O   UNL A   1      44.852  37.857  31.997  1.00  0.00    -0.237 OA
ATOM     71  O   UNL A   1      42.929  37.516  33.502  1.00  0.00    -0.744 OA
ENDBRANCH  67  68
ENDBRANCH  46  60
BRANCH  47  72
ATOM     72  C   UNL A   1      42.617  23.682  27.774  1.00  0.00     0.058 A 
ATOM     73  C   UNL A   1      42.409  22.562  28.593  1.00  0.00     0.135 A 
ATOM     74  C   UNL A   1      42.657  23.478  26.386  1.00  0.00     0.135 A 
ATOM     75  F   UNL A   1      42.369  22.706  29.927  1.00  0.00    -0.206 F 
ATOM     76  C   UNL A   1      42.264  21.285  28.061  1.00  0.00     0.059 A 
ATOM     77  C   UNL A   1      42.493  22.214  25.829  1.00  0.00     0.059 A 
ATOM     78  F   UNL A   1      42.836  24.519  25.558  1.00  0.00    -0.206 F 
ATOM     79  C   UNL A   1      42.308  21.121  26.675  1.00  0.00     0.060 A 
BRANCH  79  80
ATOM     80  S   UNL A   1      42.075  19.466  25.990  1.00  0.00     0.124 S 
ATOM     81  O   UNL A   1      42.509  18.627  27.100  1.00  0.00    -0.237 OA
ATOM     82  O   UNL A   1      40.645  19.452  25.699  1.00  0.00    -0.237 OA
ATOM     83  O   UNL A   1      42.945  19.465  24.818  1.00  0.00    -0.744 OA
ENDBRANCH  79  80
ENDBRANCH  47  72
BRANCH  59  84
ATOM     84  C   UNL A   1      47.963  26.973  30.804  1.00  0.00     0.058 A 
ATOM     85  C   UNL A   1      49.001  27.082  29.866  1.00  0.00     0.135 A 
ATOM     86  C   UNL A   1      48.283  26.502  32.087  1.00  0.00     0.135 A 
ATOM     87  F   UNL A   1      48.745  27.520  28.624  1.00  0.00    -0.206 F 
ATOM     88  C   UNL A   1      50.306  26.719  30.183  1.00  0.00     0.059 A 
ATOM     89  C   UNL A   1      49.585  26.156  32.434  1.00  0.00     0.059 A 
ATOM     90  F   UNL A   1      47.327  26.388  33.024  1.00  0.00    -0.206 F 
ATOM     91  C   UNL A   1      50.589  26.258  31.471  1.00  0.00     0.060 A 
BRANCH  91  92
ATOM     92  S   UNL A   1      52.293  25.825  31.882  1.00  0.00     0.124 S 
ATOM     93  O   UNL A   1      53.012  26.318  30.714  1.00  0.00    -0.237 OA
ATOM     94  O   UNL A   1      52.513  26.563  33.123  1.00  0.00    -0.237 OA
ATOM     95  O   UNL A   1      52.248  24.372  32.025  1.00  0.00    -0.744 OA
ENDBRANCH  91  92
ENDBRANCH  59  84
ENDBRANCH  33  34
ENDBRANCH  25  28
ENDBRANCH  23  24
ENDBRANCH  22  23
ENDBRANCH  21  22
ENDBRANCH   1  21
TORSDOF 20
ENDMDL
MODEL 2
REMARK VINA RESULT:      -9.8      2.798      9.280
REMARK SMILES C[C@@H](CNC(=O)N(C)CC(C)(C)O)C(=O)NCCCCNC(=O)c1ccc(-c2c3nc(c(-c4c(F)cc(S(=O)(=O)[O-])cc4F)c4ccc([nH]4)c(-c4c(F)cc(S(=O)(=O)[O-])cc4F)c4nc(c(-c5c(F)cc(S(=O)(=O)[O-])cc5F)c5ccc2[nH]5)C=C4)C=C3)cc1
REMARK SMILES IDX 17 1 16 2 14 3 15 4 2 6 1 7 3 8 4 9 5 10 6 12 7 13 8 14 9 15
REMARK SMILES IDX 10 16 11 17 12 18 13 19 18 21 19 22 20 23 21 24 22 25 23 27
REMARK SMILES IDX 24 28 25 29 89 30 26 31 88 32 27 33 28 34 29 35 82 36 30 37
REMARK SMILES IDX 87 38 81 39 83 40 31 41 86 42 80 43 79 44 32 46 66 47 45 48
REMARK SMILES IDX 65 49 46 50 49 51 64 52 84 53 47 54 48 55 63 57 85 58 50 59
REMARK SMILES IDX 33 60 34 61 43 62 35 63 36 64 42 65 44 66 37 67 38 68 39 69
REMARK SMILES IDX 40 70 41 71 67 72 68 73 77 74 69 75 70 76 76 77 78 78 71 79
REMARK SMILES IDX 72 80 73 81 74 82 75 83 51 84 52 85 61 86 53 87 54 88 60 89
REMARK SMILES IDX 62 90 55 91 56 92 57 93 58 94 59 95
REMARK H PARENT 16 5 4 11 13 20 21 26 83 45 49 56
REMARK Flexibility Score: inf
ROOT
ATOM      1  C   UNL A   1      33.706  24.241  25.784  1.00  0.00     0.116 C 
ENDROOT
BRANCH   1   2
ATOM      2  N   UNL A   1      32.944  24.003  24.574  1.00  0.00    -0.356 N 
ATOM      3  C   UNL A   1      31.647  24.297  24.278  1.00  0.00     0.224 C 
ATOM      4  O   UNL A   1      31.314  24.268  23.088  1.00  0.00    -0.275 OA
ATOM      5  H   UNL A   1      33.442  23.558  23.851  1.00  0.00     0.163 HD
BRANCH   3   6
ATOM      6  C   UNL A   1      30.599  24.624  25.340  1.00  0.00     0.094 C 
ATOM      7  C   UNL A   1      30.564  23.621  26.497  1.00  0.00     0.020 C 
BRANCH   6   8
ATOM      8  C   UNL A   1      30.515  26.097  25.779  1.00  0.00     0.130 C 
BRANCH   8   9
ATOM      9  N   UNL A   1      30.378  27.061  24.708  1.00  0.00    -0.337 N 
ATOM     10  C   UNL A   1      31.077  28.106  24.232  1.00  0.00     0.317 C 
ATOM     11  H   UNL A   1      29.554  26.912  24.191  1.00  0.00     0.165 HD
ATOM     12  O   UNL A   1      30.412  28.848  23.500  1.00  0.00    -0.249 OA
BRANCH  10  13
ATOM     13  N   UNL A   1      32.381  28.360  24.527  1.00  0.00    -0.325 N 
ATOM     14  C   UNL A   1      33.533  27.550  24.166  1.00  0.00     0.148 C 
BRANCH  13  15
ATOM     15  C   UNL A   1      32.697  29.651  25.176  1.00  0.00     0.155 C 
BRANCH  15  16
ATOM     16  C   UNL A   1      32.947  29.629  26.717  1.00  0.00     0.077 C 
ATOM     17  C   UNL A   1      31.907  28.805  27.488  1.00  0.00     0.043 C 
ATOM     18  C   UNL A   1      34.333  29.025  26.989  1.00  0.00     0.043 C 
BRANCH  16  19
ATOM     19  O   UNL A   1      32.973  30.967  27.237  1.00  0.00    -0.389 OA
ATOM     20  H   UNL A   1      32.622  30.969  28.141  1.00  0.00     0.211 HD
ENDBRANCH  16  19
ENDBRANCH  15  16
ENDBRANCH  13  15
ENDBRANCH  10  13
ENDBRANCH   8   9
ENDBRANCH   6   8
ENDBRANCH   3   6
ENDBRANCH   1   2
BRANCH   1  21
ATOM     21  C   UNL A   1      34.733  23.162  26.097  1.00  0.00     0.023 C 
BRANCH  21  22
ATOM     22  C   UNL A   1      35.692  22.834  24.954  1.00  0.00     0.023 C 
BRANCH  22  23
ATOM     23  C   UNL A   1      37.065  23.505  25.010  1.00  0.00     0.116 C 
BRANCH  23  24
ATOM     24  N   UNL A   1      38.161  22.587  25.289  1.00  0.00    -0.352 N 
ATOM     25  C   UNL A   1      39.311  22.803  26.018  1.00  0.00     0.251 C 
ATOM     26  H   UNL A   1      38.068  21.686  24.901  1.00  0.00     0.163 HD
ATOM     27  O   UNL A   1      40.182  21.948  26.075  1.00  0.00    -0.269 OA
BRANCH  25  28
ATOM     28  C   UNL A   1      39.497  24.101  26.705  1.00  0.00     0.039 A 
ATOM     29  C   UNL A   1      38.956  24.274  27.981  1.00  0.00     0.014 A 
ATOM     30  C   UNL A   1      40.241  25.122  26.109  1.00  0.00     0.014 A 
ATOM     31  C   UNL A   1      39.242  25.440  28.698  1.00  0.00     0.010 A 
ATOM     32  C   UNL A   1      40.583  26.248  26.851  1.00  0.00     0.010 A 
ATOM     33  C   UNL A   1      40.098  26.414  28.158  1.00  0.00    -0.014 A 
BRANCH  33  34
ATOM     34  C   UNL A   1      40.521  27.599  28.950  1.00  0.00     0.031 A 
ATOM     35  C   UNL A   1      41.839  27.594  29.674  1.00  0.00     0.074 A 
ATOM     36  C   UNL A   1      39.681  28.646  29.083  1.00  0.00     0.049 A 
ATOM     37  N   UNL A   1      42.340  28.493  30.482  1.00  0.00    -0.248 NA
ATOM     38  C   UNL A   1      42.692  26.410  29.490  1.00  0.00     0.031 C 
ATOM     39  C   UNL A   1      38.350  28.748  28.477  1.00  0.00     0.029 A 
ATOM     40  N   UNL A   1      39.813  29.819  29.783  1.00  0.00    -0.354 N 
ATOM     41  C   UNL A   1      43.554  27.976  30.918  1.00  0.00     0.074 A 
ATOM     42  C   UNL A   1      43.693  26.665  30.321  1.00  0.00     0.031 C 
ATOM     43  C   UNL A   1      37.802  29.926  28.814  1.00  0.00     0.029 A 
ATOM     44  C   UNL A   1      38.721  30.649  29.686  1.00  0.00     0.049 A 
ATOM     45  H   UNL A   1      40.615  30.044  30.307  1.00  0.00     0.167 HD
ATOM     46  C   UNL A   1      44.477  28.550  31.726  1.00  0.00     0.037 A 
ATOM     47  C   UNL A   1      38.483  31.852  30.242  1.00  0.00     0.037 A 
ATOM     48  C   UNL A   1      44.352  29.870  32.287  1.00  0.00     0.049 A 
ATOM     49  C   UNL A   1      39.533  32.476  31.121  1.00  0.00     0.074 A 
ATOM     50  C   UNL A   1      45.267  30.567  33.056  1.00  0.00     0.029 A 
ATOM     51  N   UNL A   1      43.245  30.692  32.139  1.00  0.00    -0.354 N 
ATOM     52  N   UNL A   1      40.705  32.002  31.468  1.00  0.00    -0.248 NA
ATOM     53  C   UNL A   1      39.232  33.802  31.680  1.00  0.00     0.031 C 
ATOM     54  C   UNL A   1      44.699  31.797  33.403  1.00  0.00     0.029 A 
ATOM     55  C   UNL A   1      43.446  31.883  32.816  1.00  0.00     0.049 A 
ATOM     56  H   UNL A   1      42.435  30.462  31.627  1.00  0.00     0.167 HD
ATOM     57  C   UNL A   1      41.292  32.980  32.261  1.00  0.00     0.074 A 
ATOM     58  C   UNL A   1      40.350  34.078  32.337  1.00  0.00     0.031 C 
ATOM     59  C   UNL A   1      42.503  32.971  32.872  1.00  0.00     0.037 A 
BRANCH  46  60
ATOM     60  C   UNL A   1      45.713  27.754  32.044  1.00  0.00     0.058 A 
ATOM     61  C   UNL A   1      45.781  26.919  33.170  1.00  0.00     0.135 A 
ATOM     62  C   UNL A   1      46.830  27.800  31.195  1.00  0.00     0.135 A 
ATOM     63  F   UNL A   1      44.747  26.849  34.023  1.00  0.00    -0.206 F 
ATOM     64  C   UNL A   1      46.923  26.181  33.461  1.00  0.00     0.059 A 
ATOM     65  C   UNL A   1      47.974  27.049  31.451  1.00  0.00     0.059 A 
ATOM     66  F   UNL A   1      46.819  28.582  30.104  1.00  0.00    -0.206 F 
ATOM     67  C   UNL A   1      48.016  26.254  32.595  1.00  0.00     0.060 A 
BRANCH  67  68
ATOM     68  S   UNL A   1      49.490  25.287  32.984  1.00  0.00     0.124 S 
ATOM     69  O   UNL A   1      48.925  24.212  33.795  1.00  0.00    -0.237 OA
ATOM     70  O   UNL A   1      49.967  24.897  31.660  1.00  0.00    -0.237 OA
ATOM     71  O   UNL A   1      50.339  26.234  33.699  1.00  0.00    -0.744 OA
ENDBRANCH  67  68
ENDBRANCH  46  60
BRANCH  47  72
ATOM     72  C   UNL A   1      37.209  32.565  29.961  1.00  0.00     0.058 A 
ATOM     73  C   UNL A   1      37.160  33.605  29.020  1.00  0.00     0.135 A 
ATOM     74  C   UNL A   1      36.017  32.220  30.617  1.00  0.00     0.135 A 
ATOM     75  F   UNL A   1      38.275  33.975  28.372  1.00  0.00    -0.206 F 
ATOM     76  C   UNL A   1      35.980  34.290  28.751  1.00  0.00     0.059 A 
ATOM     77  C   UNL A   1      34.820  32.876  30.348  1.00  0.00     0.059 A 
ATOM     78  F   UNL A   1      36.007  31.221  31.513  1.00  0.00    -0.206 F 
ATOM     79  C   UNL A   1      34.813  33.918  29.421  1.00  0.00     0.060 A 
BRANCH  79  80
ATOM     80  S   UNL A   1      33.276  34.784  29.033  1.00  0.00     0.124 S 
ATOM     81  O   UNL A   1      33.777  36.018  28.442  1.00  0.00    -0.237 OA
ATOM     82  O   UNL A   1      32.623  33.855  28.116  1.00  0.00    -0.237 OA
ATOM     83  O   UNL A   1      32.633  34.922  30.337  1.00  0.00    -0.744 OA
ENDBRANCH  79  80
ENDBRANCH  47  72
BRANCH  59  84
ATOM     84  C   UNL A   1      42.896  34.198  33.646  1.00  0.00     0.058 A 
ATOM     85  C   UNL A   1      42.651  34.311  35.023  1.00  0.00     0.135 A 
ATOM     86  C   UNL A   1      43.575  35.250  33.011  1.00  0.00     0.135 A 
ATOM     87  F   UNL A   1      41.999  33.335  35.675  1.00  0.00    -0.206 F 
ATOM     88  C   UNL A   1      43.048  35.434  35.741  1.00  0.00     0.059 A 
ATOM     89  C   UNL A   1      44.003  36.372  33.713  1.00  0.00     0.059 A 
ATOM     90  F   UNL A   1      43.842  35.186  31.696  1.00  0.00    -0.206 F 
ATOM     91  C   UNL A   1      43.725  36.459  35.077  1.00  0.00     0.060 A 
BRANCH  91  92
ATOM     92  S   UNL A   1      44.269  37.896  36.026  1.00  0.00     0.124 S 
ATOM     93  O   UNL A   1      43.502  37.744  37.256  1.00  0.00    -0.237 OA
ATOM     94  O   UNL A   1      45.707  37.670  36.142  1.00  0.00    -0.237 OA
ATOM     95  O   UNL A   1      43.885  39.024  35.181  1.00  0.00    -0.744 OA
ENDBRANCH  91  92
ENDBRANCH  59  84
ENDBRANCH  33  34
ENDBRANCH  25  28
ENDBRANCH  23  24
ENDBRANCH  22  23
ENDBRANCH  21  22
ENDBRANCH   1  21
TORSDOF 20
ENDMDL
MODEL 3
REMARK VINA RESULT:      -9.6      3.120      4.045
REMARK SMILES C[C@@H](CNC(=O)N(C)CC(C)(C)O)C(=O)NCCCCNC(=O)c1ccc(-c2c3nc(c(-c4c(F)cc(S(=O)(=O)[O-])cc4F)c4ccc([nH]4)c(-c4c(F)cc(S(=O)(=O)[O-])cc4F)c4nc(c(-c5c(F)cc(S(=O)(=O)[O-])cc5F)c5ccc2[nH]5)C=C4)C=C3)cc1
REMARK SMILES IDX 17 1 16 2 14 3 15 4 2 6 1 7 3 8 4 9 5 10 6 12 7 13 8 14 9 15
REMARK SMILES IDX 10 16 11 17 12 18 13 19 18 21 19 22 20 23 21 24 22 25 23 27
REMARK SMILES IDX 24 28 25 29 89 30 26 31 88 32 27 33 28 34 29 35 82 36 30 37
REMARK SMILES IDX 87 38 81 39 83 40 31 41 86 42 80 43 79 44 32 46 66 47 45 48
REMARK SMILES IDX 65 49 46 50 49 51 64 52 84 53 47 54 48 55 63 57 85 58 50 59
REMARK SMILES IDX 33 60 34 61 43 62 35 63 36 64 42 65 44 66 37 67 38 68 39 69
REMARK SMILES IDX 40 70 41 71 67 72 68 73 77 74 69 75 70 76 76 77 78 78 71 79
REMARK SMILES IDX 72 80 73 81 74 82 75 83 51 84 52 85 61 86 53 87 54 88 60 89
REMARK SMILES IDX 62 90 55 91 56 92 57 93 58 94 59 95
REMARK H PARENT 16 5 4 11 13 20 21 26 83 45 49 56
REMARK Flexibility Score: inf
ROOT
ATOM      1  C   UNL A   1      33.674  30.664  27.644  1.00  0.00     0.116 C 
ENDROOT
BRANCH   1   2
ATOM      2  N   UNL A   1      33.822  30.254  26.262  1.00  0.00    -0.356 N 
ATOM      3  C   UNL A   1      33.508  29.075  25.655  1.00  0.00     0.224 C 
ATOM      4  O   UNL A   1      33.449  29.069  24.420  1.00  0.00    -0.275 OA
ATOM      5  H   UNL A   1      34.211  30.935  25.667  1.00  0.00     0.163 HD
BRANCH   3   6
ATOM      6  C   UNL A   1      33.263  27.778  26.422  1.00  0.00     0.094 C 
ATOM      7  C   UNL A   1      31.861  27.680  27.030  1.00  0.00     0.020 C 
BRANCH   6   8
ATOM      8  C   UNL A   1      33.747  26.486  25.740  1.00  0.00     0.130 C 
BRANCH   8   9
ATOM      9  N   UNL A   1      32.805  25.869  24.831  1.00  0.00    -0.337 N 
ATOM     10  C   UNL A   1      32.740  24.745  24.097  1.00  0.00     0.317 C 
ATOM     11  H   UNL A   1      31.996  26.419  24.720  1.00  0.00     0.165 HD
ATOM     12  O   UNL A   1      31.881  24.787  23.209  1.00  0.00    -0.249 OA
BRANCH  10  13
ATOM     13  N   UNL A   1      33.542  23.660  24.276  1.00  0.00    -0.325 N 
ATOM     14  C   UNL A   1      34.858  23.441  23.699  1.00  0.00     0.148 C 
BRANCH  13  15
ATOM     15  C   UNL A   1      33.103  22.638  25.250  1.00  0.00     0.155 C 
BRANCH  15  16
ATOM     16  C   UNL A   1      32.809  21.207  24.697  1.00  0.00     0.077 C 
ATOM     17  C   UNL A   1      32.496  21.192  23.195  1.00  0.00     0.043 C 
ATOM     18  C   UNL A   1      34.038  20.317  24.938  1.00  0.00     0.043 C 
BRANCH  16  19
ATOM     19  O   UNL A   1      31.721  20.608  25.415  1.00  0.00    -0.389 OA
ATOM     20  H   UNL A   1      30.880  20.890  25.023  1.00  0.00     0.211 HD
ENDBRANCH  16  19
ENDBRANCH  15  16
ENDBRANCH  13  15
ENDBRANCH  10  13
ENDBRANCH   8   9
ENDBRANCH   6   8
ENDBRANCH   3   6
ENDBRANCH   1   2
BRANCH   1  21
ATOM     21  C   UNL A   1      34.232  32.047  27.949  1.00  0.00     0.023 C 
BRANCH  21  22
ATOM     22  C   UNL A   1      35.738  32.194  27.739  1.00  0.00     0.023 C 
BRANCH  22  23
ATOM     23  C   UNL A   1      36.574  32.442  28.995  1.00  0.00     0.116 C 
BRANCH  23  24
ATOM     24  N   UNL A   1      36.057  31.787  30.189  1.00  0.00    -0.352 N 
ATOM     25  C   UNL A   1      36.537  30.673  30.846  1.00  0.00     0.251 C 
ATOM     26  H   UNL A   1      35.251  32.195  30.580  1.00  0.00     0.163 HD
ATOM     27  O   UNL A   1      35.923  30.192  31.787  1.00  0.00    -0.269 OA
BRANCH  25  28
ATOM     28  C   UNL A   1      37.791  30.042  30.375  1.00  0.00     0.039 A 
ATOM     29  C   UNL A   1      37.993  29.878  29.004  1.00  0.00     0.014 A 
ATOM     30  C   UNL A   1      38.780  29.659  31.286  1.00  0.00     0.014 A 
ATOM     31  C   UNL A   1      39.227  29.413  28.539  1.00  0.00     0.010 A 
ATOM     32  C   UNL A   1      40.031  29.267  30.819  1.00  0.00     0.010 A 
ATOM     33  C   UNL A   1      40.272  29.151  29.440  1.00  0.00    -0.014 A 
BRANCH  33  34
ATOM     34  C   UNL A   1      41.631  28.783  28.964  1.00  0.00     0.031 A 
ATOM     35  C   UNL A   1      42.704  29.831  28.853  1.00  0.00     0.074 A 
ATOM     36  C   UNL A   1      41.874  27.521  28.555  1.00  0.00     0.049 A 
ATOM     37  N   UNL A   1      43.919  29.721  28.379  1.00  0.00    -0.248 NA
ATOM     38  C   UNL A   1      42.357  31.187  29.307  1.00  0.00     0.031 C 
ATOM     39  C   UNL A   1      40.901  26.426  28.560  1.00  0.00     0.029 A 
ATOM     40  N   UNL A   1      43.011  26.948  28.041  1.00  0.00    -0.354 N 
ATOM     41  C   UNL A   1      44.472  30.993  28.458  1.00  0.00     0.074 A 
ATOM     42  C   UNL A   1      43.446  31.869  28.982  1.00  0.00     0.031 C 
ATOM     43  C   UNL A   1      41.488  25.312  28.094  1.00  0.00     0.029 A 
ATOM     44  C   UNL A   1      42.866  25.618  27.724  1.00  0.00     0.049 A 
ATOM     45  H   UNL A   1      43.851  27.443  27.912  1.00  0.00     0.167 HD
ATOM     46  C   UNL A   1      45.727  31.392  28.140  1.00  0.00     0.037 A 
ATOM     47  C   UNL A   1      43.741  24.744  27.191  1.00  0.00     0.037 A 
ATOM     48  C   UNL A   1      46.757  30.510  27.654  1.00  0.00     0.049 A 
ATOM     49  C   UNL A   1      45.135  25.208  26.864  1.00  0.00     0.074 A 
ATOM     50  C   UNL A   1      48.080  30.805  27.375  1.00  0.00     0.029 A 
ATOM     51  N   UNL A   1      46.580  29.163  27.376  1.00  0.00    -0.354 N 
ATOM     52  N   UNL A   1      45.662  26.400  27.007  1.00  0.00    -0.248 NA
ATOM     53  C   UNL A   1      46.057  24.206  26.307  1.00  0.00     0.031 C 
ATOM     54  C   UNL A   1      48.694  29.644  26.895  1.00  0.00     0.029 A 
ATOM     55  C   UNL A   1      47.765  28.616  26.914  1.00  0.00     0.049 A 
ATOM     56  H   UNL A   1      45.736  28.669  27.492  1.00  0.00     0.167 HD
ATOM     57  C   UNL A   1      46.981  26.285  26.587  1.00  0.00     0.074 A 
ATOM     58  C   UNL A   1      47.176  24.906  26.190  1.00  0.00     0.031 C 
ATOM     59  C   UNL A   1      47.946  27.237  26.534  1.00  0.00     0.037 A 
BRANCH  46  60
ATOM     60  C   UNL A   1      46.061  32.848  28.318  1.00  0.00     0.058 A 
ATOM     61  C   UNL A   1      46.678  33.323  29.485  1.00  0.00     0.135 A 
ATOM     62  C   UNL A   1      45.792  33.772  27.295  1.00  0.00     0.135 A 
ATOM     63  F   UNL A   1      46.944  32.485  30.499  1.00  0.00    -0.206 F 
ATOM     64  C   UNL A   1      46.990  34.669  29.646  1.00  0.00     0.059 A 
ATOM     65  C   UNL A   1      46.119  35.119  27.423  1.00  0.00     0.059 A 
ATOM     66  F   UNL A   1      45.202  33.370  26.158  1.00  0.00    -0.206 F 
ATOM     67  C   UNL A   1      46.704  35.560  28.609  1.00  0.00     0.060 A 
BRANCH  67  68
ATOM     68  S   UNL A   1      47.118  37.303  28.831  1.00  0.00     0.124 S 
ATOM     69  O   UNL A   1      45.937  37.794  29.535  1.00  0.00    -0.237 OA
ATOM     70  O   UNL A   1      48.344  37.237  29.622  1.00  0.00    -0.237 OA
ATOM     71  O   UNL A   1      47.283  37.790  27.466  1.00  0.00    -0.744 OA
ENDBRANCH  67  68
ENDBRANCH  46  60
BRANCH  47  72
ATOM     72  C   UNL A   1      43.338  23.332  26.958  1.00  0.00     0.058 A 
ATOM     73  C   UNL A   1      43.145  22.846  25.655  1.00  0.00     0.135 A 
ATOM     74  C   UNL A   1      43.143  22.440  28.024  1.00  0.00     0.135 A 
ATOM     75  F   UNL A   1      43.313  23.662  24.604  1.00  0.00    -0.206 F 
ATOM     76  C   UNL A   1      42.758  21.532  25.417  1.00  0.00     0.059 A 
ATOM     77  C   UNL A   1      42.777  21.115  27.810  1.00  0.00     0.059 A 
ATOM     78  F   UNL A   1      43.331  22.851  29.287  1.00  0.00    -0.206 F 
ATOM     79  C   UNL A   1      42.576  20.673  26.503  1.00  0.00     0.060 A 
BRANCH  79  80
ATOM     80  S   UNL A   1      42.115  18.956  26.182  1.00  0.00     0.124 S 
ATOM     81  O   UNL A   1      42.334  18.345  27.487  1.00  0.00    -0.237 OA
ATOM     82  O   UNL A   1      40.723  19.084  25.762  1.00  0.00    -0.237 OA
ATOM     83  O   UNL A   1      43.043  18.552  25.130  1.00  0.00    -0.744 OA
ENDBRANCH  79  80
ENDBRANCH  47  72
BRANCH  59  84
ATOM     84  C   UNL A   1      49.310  26.815  26.065  1.00  0.00     0.058 A 
ATOM     85  C   UNL A   1      49.708  26.963  24.727  1.00  0.00     0.135 A 
ATOM     86  C   UNL A   1      50.247  26.306  26.977  1.00  0.00     0.135 A 
ATOM     87  F   UNL A   1      48.846  27.439  23.815  1.00  0.00    -0.206 F 
ATOM     88  C   UNL A   1      50.983  26.602  24.305  1.00  0.00     0.059 A 
ATOM     89  C   UNL A   1      51.536  25.961  26.583  1.00  0.00     0.059 A 
ATOM     90  F   UNL A   1      49.919  26.154  28.270  1.00  0.00    -0.206 F 
ATOM     91  C   UNL A   1      51.892  26.103  25.242  1.00  0.00     0.060 A 
BRANCH  91  92
ATOM     92  S   UNL A   1      53.556  25.672  24.691  1.00  0.00     0.124 S 
ATOM     93  O   UNL A   1      54.368  26.632  25.430  1.00  0.00    -0.237 OA
ATOM     94  O   UNL A   1      53.676  24.280  25.114  1.00  0.00    -0.237 OA
ATOM     95  O   UNL A   1      53.499  25.878  23.247  1.00  0.00    -0.744 OA
ENDBRANCH  91  92
ENDBRANCH  59  84
ENDBRANCH  33  34
ENDBRANCH  25  28
ENDBRANCH  23  24
ENDBRANCH  22  23
ENDBRANCH  21  22
ENDBRANCH   1  21
TORSDOF 20
ENDMDL
