MODEL 1
REMARK VINA RESULT:     -11.6      0.000      0.000
REMARK SMILES CC(=O)c1cc2c(cc1NC(=O)/C=C/C(=O)NCCCCNC(=O)c1ccc(-c3c4nc(c(-c5c(F)cc(S(=O)(=O)[O-])cc5F)c5ccc([nH]5)c(-c5c(F)cc(S(=O)(=O)[O-])cc5F)c5nc(c(-c6c(F)cc(S(=O)(=O)[O-])cc6F)c6ccc3[nH]6)C=C5)C=C4)cc1)OCO2
REMARK SMILES IDX 19 1 18 2 17 3 15 4 16 5 14 7 13 8 11 9 10 10 12 12 9 13
REMARK SMILES IDX 4 14 5 15 6 16 8 17 7 18 93 19 91 20 92 21 2 22 1 23 3 24
REMARK SMILES IDX 20 25 21 26 22 27 23 28 24 30 25 31 26 32 90 33 27 34 89 35
REMARK SMILES IDX 28 36 29 37 30 38 83 39 31 40 88 41 82 42 84 43 32 44 87 45
REMARK SMILES IDX 81 46 80 47 33 49 67 50 46 51 66 52 47 53 50 54 65 55 85 56
REMARK SMILES IDX 48 57 49 58 64 60 86 61 51 62 34 63 35 64 44 65 36 66 37 67
REMARK SMILES IDX 43 68 45 69 38 70 39 71 40 72 41 73 42 74 68 75 69 76 78 77
REMARK SMILES IDX 70 78 71 79 77 80 79 81 72 82 73 83 74 84 75 85 76 86 52 87
REMARK SMILES IDX 53 88 62 89 54 90 55 91 61 92 63 93 56 94 57 95 58 96 59 97
REMARK SMILES IDX 60 98
REMARK H PARENT 17 6 10 11 22 29 84 48 50 59
REMARK Flexibility Score: inf
ROOT
ATOM      1  C   UNL A   1      34.434  33.329  29.185  1.00  0.00     0.023 C 
ENDROOT
BRANCH   1   2
ATOM      2  C   UNL A   1      33.888  32.414  28.092  1.00  0.00     0.116 C 
BRANCH   2   3
ATOM      3  N   UNL A   1      34.423  31.072  28.201  1.00  0.00    -0.353 N 
ATOM      4  C   UNL A   1      34.231  30.007  27.382  1.00  0.00     0.244 C 
ATOM      5  O   UNL A   1      34.915  28.995  27.501  1.00  0.00    -0.270 OA
ATOM      6  H   UNL A   1      35.009  30.911  28.977  1.00  0.00     0.163 HD
BRANCH   4   7
ATOM      7  C   UNL A   1      33.195  30.058  26.332  1.00  0.00     0.077 C 
ATOM      8  C   UNL A   1      32.244  29.114  26.271  1.00  0.00     0.077 C 
BRANCH   8   9
ATOM      9  C   UNL A   1      31.389  29.015  25.081  1.00  0.00     0.248 C 
ATOM     10  N   UNL A   1      31.170  27.800  24.494  1.00  0.00    -0.322 N 
ATOM     11  H   UNL A   1      30.608  27.849  23.687  1.00  0.00     0.170 HD
ATOM     12  O   UNL A   1      30.880  30.039  24.630  1.00  0.00    -0.270 OA
BRANCH  10  13
ATOM     13  C   UNL A   1      31.592  26.484  24.813  1.00  0.00     0.056 A 
ATOM     14  C   UNL A   1      32.633  25.892  24.049  1.00  0.00     0.045 A 
ATOM     15  C   UNL A   1      33.275  24.714  24.466  1.00  0.00     0.064 A 
ATOM     16  C   UNL A   1      32.816  24.120  25.618  1.00  0.00     0.166 A 
ATOM     17  C   UNL A   1      31.059  25.742  25.872  1.00  0.00     0.077 A 
ATOM     18  C   UNL A   1      31.714  24.598  26.274  1.00  0.00     0.167 A 
ATOM     19  O   UNL A   1      33.339  23.022  26.225  1.00  0.00    -0.454 OA
ATOM     20  O   UNL A   1      31.378  23.840  27.351  1.00  0.00    -0.454 OA
ATOM     21  C   UNL A   1      32.517  22.962  27.416  1.00  0.00     0.468 C 
BRANCH  14  22
ATOM     22  C   UNL A   1      33.026  26.487  22.748  1.00  0.00     0.162 C 
ATOM     23  C   UNL A   1      32.675  25.703  21.510  1.00  0.00     0.093 C 
ATOM     24  O   UNL A   1      33.506  27.614  22.706  1.00  0.00    -0.294 OA
ENDBRANCH  14  22
ENDBRANCH  10  13
ENDBRANCH   8   9
ENDBRANCH   4   7
ENDBRANCH   2   3
ENDBRANCH   1   2
BRANCH   1  25
ATOM     25  C   UNL A   1      35.955  33.511  29.168  1.00  0.00     0.023 C 
BRANCH  25  26
ATOM     26  C   UNL A   1      36.672  33.133  30.461  1.00  0.00     0.116 C 
BRANCH  26  27
ATOM     27  N   UNL A   1      36.148  31.923  31.078  1.00  0.00    -0.352 N 
ATOM     28  C   UNL A   1      36.717  30.675  31.135  1.00  0.00     0.251 C 
ATOM     29  H   UNL A   1      35.270  32.011  31.511  1.00  0.00     0.163 HD
ATOM     30  O   UNL A   1      36.097  29.739  31.630  1.00  0.00    -0.269 OA
BRANCH  28  31
ATOM     31  C   UNL A   1      38.056  30.462  30.553  1.00  0.00     0.039 A 
ATOM     32  C   UNL A   1      39.145  30.347  31.418  1.00  0.00     0.014 A 
ATOM     33  C   UNL A   1      38.228  30.336  29.171  1.00  0.00     0.014 A 
ATOM     34  C   UNL A   1      40.403  30.039  30.898  1.00  0.00     0.010 A 
ATOM     35  C   UNL A   1      39.468  29.963  28.663  1.00  0.00     0.010 A 
ATOM     36  C   UNL A   1      40.565  29.809  29.522  1.00  0.00    -0.014 A 
BRANCH  36  37
ATOM     37  C   UNL A   1      41.878  29.382  28.981  1.00  0.00     0.031 A 
ATOM     38  C   UNL A   1      43.006  30.365  28.854  1.00  0.00     0.074 A 
ATOM     39  C   UNL A   1      42.033  28.111  28.561  1.00  0.00     0.049 A 
ATOM     40  N   UNL A   1      44.223  30.172  28.413  1.00  0.00    -0.248 NA
ATOM     41  C   UNL A   1      42.724  31.755  29.248  1.00  0.00     0.031 C 
ATOM     42  C   UNL A   1      40.987  27.085  28.567  1.00  0.00     0.029 A 
ATOM     43  N   UNL A   1      43.128  27.463  28.047  1.00  0.00    -0.354 N 
ATOM     44  C   UNL A   1      44.848  31.411  28.473  1.00  0.00     0.074 A 
ATOM     45  C   UNL A   1      43.860  32.361  28.935  1.00  0.00     0.031 C 
ATOM     46  C   UNL A   1      41.498  25.932  28.109  1.00  0.00     0.029 A 
ATOM     47  C   UNL A   1      42.898  26.140  27.755  1.00  0.00     0.049 A 
ATOM     48  H   UNL A   1      43.996  27.904  27.902  1.00  0.00     0.167 HD
ATOM     49  C   UNL A   1      46.137  31.722  28.196  1.00  0.00     0.037 A 
ATOM     50  C   UNL A   1      43.726  25.198  27.264  1.00  0.00     0.037 A 
ATOM     51  C   UNL A   1      47.117  30.766  27.751  1.00  0.00     0.049 A 
ATOM     52  C   UNL A   1      45.160  25.557  26.993  1.00  0.00     0.074 A 
ATOM     53  C   UNL A   1      48.462  30.965  27.492  1.00  0.00     0.029 A 
ATOM     54  N   UNL A   1      46.857  29.426  27.497  1.00  0.00    -0.354 N 
ATOM     55  N   UNL A   1      45.756  26.717  27.127  1.00  0.00    -0.248 NA
ATOM     56  C   UNL A   1      46.037  24.478  26.521  1.00  0.00     0.031 C 
ATOM     57  C   UNL A   1      49.007  29.754  27.048  1.00  0.00     0.029 A 
ATOM     58  C   UNL A   1      48.011  28.790  27.072  1.00  0.00     0.049 A 
ATOM     59  H   UNL A   1      45.980  28.991  27.604  1.00  0.00     0.167 HD
ATOM     60  C   UNL A   1      47.085  26.504  26.776  1.00  0.00     0.074 A 
ATOM     61  C   UNL A   1      47.206  25.099  26.439  1.00  0.00     0.031 C 
ATOM     62  C   UNL A   1      48.111  27.390  26.737  1.00  0.00     0.037 A 
BRANCH  49  63
ATOM     63  C   UNL A   1      46.555  33.157  28.374  1.00  0.00     0.058 A 
ATOM     64  C   UNL A   1      47.051  33.631  29.600  1.00  0.00     0.135 A 
ATOM     65  C   UNL A   1      46.467  34.067  27.309  1.00  0.00     0.135 A 
ATOM     66  F   UNL A   1      47.142  32.807  30.655  1.00  0.00    -0.206 F 
ATOM     67  C   UNL A   1      47.409  34.963  29.776  1.00  0.00     0.059 A 
ATOM     68  C   UNL A   1      46.846  35.399  27.453  1.00  0.00     0.059 A 
ATOM     69  F   UNL A   1      46.001  33.670  26.115  1.00  0.00    -0.206 F 
ATOM     70  C   UNL A   1      47.297  35.841  28.697  1.00  0.00     0.060 A 
BRANCH  70  71
ATOM     71  S   UNL A   1      47.751  37.571  28.943  1.00  0.00     0.124 S 
ATOM     72  O   UNL A   1      46.445  38.221  28.910  1.00  0.00    -0.237 OA
ATOM     73  O   UNL A   1      48.410  37.541  30.246  1.00  0.00    -0.237 OA
ATOM     74  O   UNL A   1      48.625  37.858  27.810  1.00  0.00    -0.744 OA
ENDBRANCH  70  71
ENDBRANCH  49  63
BRANCH  50  75
ATOM     75  C   UNL A   1      43.221  23.817  27.046  1.00  0.00     0.058 A 
ATOM     76  C   UNL A   1      42.924  23.353  25.756  1.00  0.00     0.135 A 
ATOM     77  C   UNL A   1      43.065  22.921  28.116  1.00  0.00     0.135 A 
ATOM     78  F   UNL A   1      43.053  24.173  24.702  1.00  0.00    -0.206 F 
ATOM     79  C   UNL A   1      42.484  22.052  25.533  1.00  0.00     0.059 A 
ATOM     80  C   UNL A   1      42.650  21.609  27.916  1.00  0.00     0.059 A 
ATOM     81  F   UNL A   1      43.356  23.312  29.366  1.00  0.00    -0.206 F 
ATOM     82  C   UNL A   1      42.355  21.185  26.620  1.00  0.00     0.060 A 
BRANCH  82  83
ATOM     83  S   UNL A   1      41.855  19.477  26.312  1.00  0.00     0.124 S 
ATOM     84  O   UNL A   1      42.622  19.158  25.114  1.00  0.00    -0.237 OA
ATOM     85  O   UNL A   1      42.276  18.808  27.539  1.00  0.00    -0.237 OA
ATOM     86  O   UNL A   1      40.410  19.581  26.129  1.00  0.00    -0.744 OA
ENDBRANCH  82  83
ENDBRANCH  50  75
BRANCH  62  87
ATOM     87  C   UNL A   1      49.460  26.859  26.340  1.00  0.00     0.058 A 
ATOM     88  C   UNL A   1      50.238  26.092  27.220  1.00  0.00     0.135 A 
ATOM     89  C   UNL A   1      49.963  27.090  25.049  1.00  0.00     0.135 A 
ATOM     90  F   UNL A   1      49.806  25.847  28.467  1.00  0.00    -0.206 F 
ATOM     91  C   UNL A   1      51.485  25.598  26.846  1.00  0.00     0.059 A 
ATOM     92  C   UNL A   1      51.194  26.584  24.644  1.00  0.00     0.059 A 
ATOM     93  F   UNL A   1      49.253  27.808  24.165  1.00  0.00    -0.206 F 
ATOM     94  C   UNL A   1      51.954  25.852  25.555  1.00  0.00     0.060 A 
BRANCH  94  95
ATOM     95  S   UNL A   1      53.564  25.193  25.074  1.00  0.00     0.124 S 
ATOM     96  O   UNL A   1      54.470  26.036  25.848  1.00  0.00    -0.237 OA
ATOM     97  O   UNL A   1      53.474  23.800  25.501  1.00  0.00    -0.237 OA
ATOM     98  O   UNL A   1      53.596  25.397  23.629  1.00  0.00    -0.744 OA
ENDBRANCH  94  95
ENDBRANCH  62  87
ENDBRANCH  36  37
ENDBRANCH  28  31
ENDBRANCH  26  27
ENDBRANCH  25  26
ENDBRANCH   1  25
TORSDOF 17
ENDMDL
MODEL 2
REMARK VINA RESULT:     -11.6      6.356     12.149
REMARK SMILES CC(=O)c1cc2c(cc1NC(=O)/C=C/C(=O)NCCCCNC(=O)c1ccc(-c3c4nc(c(-c5c(F)cc(S(=O)(=O)[O-])cc5F)c5ccc([nH]5)c(-c5c(F)cc(S(=O)(=O)[O-])cc5F)c5nc(c(-c6c(F)cc(S(=O)(=O)[O-])cc6F)c6ccc3[nH]6)C=C5)C=C4)cc1)OCO2
REMARK SMILES IDX 19 1 18 2 17 3 15 4 16 5 14 7 13 8 11 9 10 10 12 12 9 13
REMARK SMILES IDX 4 14 5 15 6 16 8 17 7 18 93 19 91 20 92 21 2 22 1 23 3 24
REMARK SMILES IDX 20 25 21 26 22 27 23 28 24 30 25 31 26 32 90 33 27 34 89 35
REMARK SMILES IDX 28 36 29 37 30 38 83 39 31 40 88 41 82 42 84 43 32 44 87 45
REMARK SMILES IDX 81 46 80 47 33 49 67 50 46 51 66 52 47 53 50 54 65 55 85 56
REMARK SMILES IDX 48 57 49 58 64 60 86 61 51 62 34 63 35 64 44 65 36 66 37 67
REMARK SMILES IDX 43 68 45 69 38 70 39 71 40 72 41 73 42 74 68 75 69 76 78 77
REMARK SMILES IDX 70 78 71 79 77 80 79 81 72 82 73 83 74 84 75 85 76 86 52 87
REMARK SMILES IDX 53 88 62 89 54 90 55 91 61 92 63 93 56 94 57 95 58 96 59 97
REMARK SMILES IDX 60 98
REMARK H PARENT 17 6 10 11 22 29 84 48 50 59
REMARK Flexibility Score: inf
ROOT
ATOM      1  C   UNL A   1      41.479  21.370  26.789  1.00  0.00     0.023 C 
ENDROOT
BRANCH   1   2
ATOM      2  C   UNL A   1      39.986  21.307  26.480  1.00  0.00     0.116 C 
BRANCH   2   3
ATOM      3  N   UNL A   1      39.402  22.630  26.393  1.00  0.00    -0.353 N 
ATOM      4  C   UNL A   1      38.162  22.990  25.973  1.00  0.00     0.244 C 
ATOM      5  O   UNL A   1      37.750  24.132  26.148  1.00  0.00    -0.270 OA
ATOM      6  H   UNL A   1      39.985  23.370  26.680  1.00  0.00     0.163 HD
BRANCH   4   7
ATOM      7  C   UNL A   1      37.294  22.005  25.300  1.00  0.00     0.077 C 
ATOM      8  C   UNL A   1      35.974  22.223  25.194  1.00  0.00     0.077 C 
BRANCH   8   9
ATOM      9  C   UNL A   1      35.085  21.133  24.772  1.00  0.00     0.248 C 
ATOM     10  N   UNL A   1      33.904  21.416  24.144  1.00  0.00    -0.322 N 
ATOM     11  H   UNL A   1      33.371  20.616  23.930  1.00  0.00     0.170 HD
ATOM     12  O   UNL A   1      35.423  19.973  24.996  1.00  0.00    -0.270 OA
BRANCH  10  13
ATOM     13  C   UNL A   1      33.294  22.630  23.739  1.00  0.00     0.056 A 
ATOM     14  C   UNL A   1      32.250  23.173  24.535  1.00  0.00     0.045 A 
ATOM     15  C   UNL A   1      31.785  24.485  24.345  1.00  0.00     0.064 A 
ATOM     16  C   UNL A   1      32.339  25.209  23.317  1.00  0.00     0.166 A 
ATOM     17  C   UNL A   1      33.689  23.350  22.606  1.00  0.00     0.077 A 
ATOM     18  C   UNL A   1      33.233  24.640  22.448  1.00  0.00     0.167 A 
ATOM     19  O   UNL A   1      32.081  26.507  23.009  1.00  0.00    -0.454 OA
ATOM     20  O   UNL A   1      33.618  25.493  21.463  1.00  0.00    -0.454 OA
ATOM     21  C   UNL A   1      33.030  26.719  21.935  1.00  0.00     0.468 C 
BRANCH  14  22
ATOM     22  C   UNL A   1      31.584  22.330  25.557  1.00  0.00     0.162 C 
ATOM     23  C   UNL A   1      31.024  23.040  26.763  1.00  0.00     0.093 C 
ATOM     24  O   UNL A   1      31.410  21.133  25.351  1.00  0.00    -0.294 OA
ENDBRANCH  14  22
ENDBRANCH  10  13
ENDBRANCH   8   9
ENDBRANCH   4   7
ENDBRANCH   2   3
ENDBRANCH   1   2
BRANCH   1  25
ATOM     25  C   UNL A   1      41.833  22.072  28.105  1.00  0.00     0.023 C 
BRANCH  25  26
ATOM     26  C   UNL A   1      42.644  23.356  27.961  1.00  0.00     0.116 C 
BRANCH  26  27
ATOM     27  N   UNL A   1      42.614  23.910  26.615  1.00  0.00    -0.352 N 
ATOM     28  C   UNL A   1      42.261  25.175  26.216  1.00  0.00     0.251 C 
ATOM     29  H   UNL A   1      42.881  23.295  25.895  1.00  0.00     0.163 HD
ATOM     30  O   UNL A   1      42.216  25.453  25.022  1.00  0.00    -0.269 OA
BRANCH  28  31
ATOM     31  C   UNL A   1      41.892  26.178  27.233  1.00  0.00     0.039 A 
ATOM     32  C   UNL A   1      40.818  25.899  28.081  1.00  0.00     0.014 A 
ATOM     33  C   UNL A   1      42.624  27.360  27.378  1.00  0.00     0.014 A 
ATOM     34  C   UNL A   1      40.518  26.781  29.119  1.00  0.00     0.010 A 
ATOM     35  C   UNL A   1      42.365  28.203  28.454  1.00  0.00     0.010 A 
ATOM     36  C   UNL A   1      41.312  27.920  29.335  1.00  0.00    -0.014 A 
BRANCH  36  37
ATOM     37  C   UNL A   1      41.058  28.804  30.498  1.00  0.00     0.031 A 
ATOM     38  C   UNL A   1      41.889  28.681  31.744  1.00  0.00     0.074 A 
ATOM     39  C   UNL A   1      40.043  29.688  30.442  1.00  0.00     0.049 A 
ATOM     40  N   UNL A   1      41.820  29.372  32.852  1.00  0.00    -0.248 NA
ATOM     41  C   UNL A   1      42.917  27.627  31.756  1.00  0.00     0.031 C 
ATOM     42  C   UNL A   1      39.123  29.846  29.313  1.00  0.00     0.029 A 
ATOM     43  N   UNL A   1      39.613  30.619  31.353  1.00  0.00    -0.354 N 
ATOM     44  C   UNL A   1      42.786  28.836  33.693  1.00  0.00     0.074 A 
ATOM     45  C   UNL A   1      43.388  27.723  32.991  1.00  0.00     0.031 C 
ATOM     46  C   UNL A   1      38.257  30.835  29.587  1.00  0.00     0.029 A 
ATOM     47  C   UNL A   1      38.545  31.364  30.916  1.00  0.00     0.049 A 
ATOM     48  H   UNL A   1      40.031  30.742  32.236  1.00  0.00     0.167 HD
ATOM     49  C   UNL A   1      43.157  29.251  34.928  1.00  0.00     0.037 A 
ATOM     50  C   UNL A   1      37.876  32.368  31.516  1.00  0.00     0.037 A 
ATOM     51  C   UNL A   1      42.562  30.369  35.614  1.00  0.00     0.049 A 
ATOM     52  C   UNL A   1      38.325  32.833  32.873  1.00  0.00     0.074 A 
ATOM     53  C   UNL A   1      42.898  30.906  36.844  1.00  0.00     0.029 A 
ATOM     54  N   UNL A   1      41.503  31.122  35.126  1.00  0.00    -0.354 N 
ATOM     55  N   UNL A   1      39.292  32.365  33.625  1.00  0.00    -0.248 NA
ATOM     56  C   UNL A   1      37.606  33.974  33.455  1.00  0.00     0.031 C 
ATOM     57  C   UNL A   1      42.020  31.961  37.116  1.00  0.00     0.029 A 
ATOM     58  C   UNL A   1      41.164  32.110  36.036  1.00  0.00     0.049 A 
ATOM     59  H   UNL A   1      41.058  30.976  34.260  1.00  0.00     0.167 HD
ATOM     60  C   UNL A   1      39.312  33.166  34.761  1.00  0.00     0.074 A 
ATOM     61  C   UNL A   1      38.269  34.158  34.589  1.00  0.00     0.031 C 
ATOM     62  C   UNL A   1      40.120  33.088  35.848  1.00  0.00     0.037 A 
BRANCH  49  63
ATOM     63  C   UNL A   1      44.264  28.492  35.609  1.00  0.00     0.058 A 
ATOM     64  C   UNL A   1      45.614  28.832  35.418  1.00  0.00     0.135 A 
ATOM     65  C   UNL A   1      43.976  27.419  36.466  1.00  0.00     0.135 A 
ATOM     66  F   UNL A   1      45.946  29.840  34.596  1.00  0.00    -0.206 F 
ATOM     67  C   UNL A   1      46.640  28.112  36.021  1.00  0.00     0.059 A 
ATOM     68  C   UNL A   1      44.985  26.701  37.104  1.00  0.00     0.059 A 
ATOM     69  F   UNL A   1      42.704  27.049  36.686  1.00  0.00    -0.206 F 
ATOM     70  C   UNL A   1      46.315  27.044  36.859  1.00  0.00     0.060 A 
BRANCH  70  71
ATOM     71  S   UNL A   1      47.657  26.110  37.624  1.00  0.00     0.124 S 
ATOM     72  O   UNL A   1      48.110  27.041  38.652  1.00  0.00    -0.237 OA
ATOM     73  O   UNL A   1      46.970  24.916  38.110  1.00  0.00    -0.237 OA
ATOM     74  O   UNL A   1      48.587  25.888  36.522  1.00  0.00    -0.744 OA
ENDBRANCH  70  71
ENDBRANCH  49  63
BRANCH  50  75
ATOM     75  C   UNL A   1      36.745  33.023  30.810  1.00  0.00     0.058 A 
ATOM     76  C   UNL A   1      35.419  32.805  31.212  1.00  0.00     0.135 A 
ATOM     77  C   UNL A   1      36.967  33.913  29.747  1.00  0.00     0.135 A 
ATOM     78  F   UNL A   1      35.155  31.960  32.221  1.00  0.00    -0.206 F 
ATOM     79  C   UNL A   1      34.352  33.439  30.583  1.00  0.00     0.059 A 
ATOM     80  C   UNL A   1      35.919  34.577  29.117  1.00  0.00     0.059 A 
ATOM     81  F   UNL A   1      38.219  34.171  29.338  1.00  0.00    -0.206 F 
ATOM     82  C   UNL A   1      34.614  34.328  29.539  1.00  0.00     0.060 A 
BRANCH  82  83
ATOM     83  S   UNL A   1      33.229  35.202  28.778  1.00  0.00     0.124 S 
ATOM     84  O   UNL A   1      33.919  36.204  27.974  1.00  0.00    -0.237 OA
ATOM     85  O   UNL A   1      32.563  34.136  28.036  1.00  0.00    -0.237 OA
ATOM     86  O   UNL A   1      32.486  35.715  29.925  1.00  0.00    -0.744 OA
ENDBRANCH  82  83
ENDBRANCH  50  75
BRANCH  62  87
ATOM     87  C   UNL A   1      39.923  34.119  36.923  1.00  0.00     0.058 A 
ATOM     88  C   UNL A   1      40.617  35.340  36.909  1.00  0.00     0.135 A 
ATOM     89  C   UNL A   1      39.003  33.898  37.960  1.00  0.00     0.135 A 
ATOM     90  F   UNL A   1      41.512  35.597  35.943  1.00  0.00    -0.206 F 
ATOM     91  C   UNL A   1      40.428  36.293  37.905  1.00  0.00     0.059 A 
ATOM     92  C   UNL A   1      38.777  34.849  38.951  1.00  0.00     0.059 A 
ATOM     93  F   UNL A   1      38.305  32.753  38.013  1.00  0.00    -0.206 F 
ATOM     94  C   UNL A   1      39.507  36.037  38.922  1.00  0.00     0.060 A 
BRANCH  94  95
ATOM     95  S   UNL A   1      39.257  37.288  40.199  1.00  0.00     0.124 S 
ATOM     96  O   UNL A   1      40.610  37.809  40.369  1.00  0.00    -0.237 OA
ATOM     97  O   UNL A   1      38.303  38.195  39.569  1.00  0.00    -0.237 OA
ATOM     98  O   UNL A   1      38.732  36.522  41.326  1.00  0.00    -0.744 OA
ENDBRANCH  94  95
ENDBRANCH  62  87
ENDBRANCH  36  37
ENDBRANCH  28  31
ENDBRANCH  26  27
ENDBRANCH  25  26
ENDBRANCH   1  25
TORSDOF 17
ENDMDL
MODEL 3
REMARK VINA RESULT:     -11.6      4.632     10.323
REMARK SMILES CC(=O)c1cc2c(cc1NC(=O)/C=C/C(=O)NCCCCNC(=O)c1ccc(-c3c4nc(c(-c5c(F)cc(S(=O)(=O)[O-])cc5F)c5ccc([nH]5)c(-c5c(F)cc(S(=O)(=O)[O-])cc5F)c5nc(c(-c6c(F)cc(S(=O)(=O)[O-])cc6F)c6ccc3[nH]6)C=C5)C=C4)cc1)OCO2
REMARK SMILES IDX 19 1 18 2 17 3 15 4 16 5 14 7 13 8 11 9 10 10 12 12 9 13
REMARK SMILES IDX 4 14 5 15 6 16 8 17 7 18 93 19 91 20 92 21 2 22 1 23 3 24
REMARK SMILES IDX 20 25 21 26 22 27 23 28 24 30 25 31 26 32 90 33 27 34 89 35
REMARK SMILES IDX 28 36 29 37 30 38 83 39 31 40 88 41 82 42 84 43 32 44 87 45
REMARK SMILES IDX 81 46 80 47 33 49 67 50 46 51 66 52 47 53 50 54 65 55 85 56
REMARK SMILES IDX 48 57 49 58 64 60 86 61 51 62 34 63 35 64 44 65 36 66 37 67
REMARK SMILES IDX 43 68 45 69 38 70 39 71 40 72 41 73 42 74 68 75 69 76 78 77
REMARK SMILES IDX 70 78 71 79 77 80 79 81 72 82 73 83 74 84 75 85 76 86 52 87
REMARK SMILES IDX 53 88 62 89 54 90 55 91 61 92 63 93 56 94 57 95 58 96 59 97
REMARK SMILES IDX 60 98
REMARK H PARENT 17 6 10 11 22 29 84 48 50 59
REMARK Flexibility Score: inf
ROOT
ATOM      1  C   UNL A   1      34.989  21.969  25.472  1.00  0.00     0.023 C 
ENDROOT
BRANCH   1   2
ATOM      2  C   UNL A   1      34.024  22.167  24.306  1.00  0.00     0.116 C 
BRANCH   2   3
ATOM      3  N   UNL A   1      32.710  22.571  24.763  1.00  0.00    -0.353 N 
ATOM      4  C   UNL A   1      31.814  23.394  24.161  1.00  0.00     0.244 C 
ATOM      5  O   UNL A   1      30.663  23.479  24.580  1.00  0.00    -0.270 OA
ATOM      6  H   UNL A   1      32.428  22.196  25.629  1.00  0.00     0.163 HD
BRANCH   4   7
ATOM      7  C   UNL A   1      32.215  24.198  22.990  1.00  0.00     0.077 C 
ATOM      8  C   UNL A   1      32.806  25.390  23.155  1.00  0.00     0.077 C 
BRANCH   8   9
ATOM      9  C   UNL A   1      32.955  26.296  22.009  1.00  0.00     0.248 C 
ATOM     10  N   UNL A   1      32.855  27.649  22.186  1.00  0.00    -0.322 N 
ATOM     11  H   UNL A   1      32.941  28.162  21.351  1.00  0.00     0.170 HD
ATOM     12  O   UNL A   1      33.168  25.816  20.898  1.00  0.00    -0.270 OA
BRANCH  10  13
ATOM     13  C   UNL A   1      32.653  28.458  23.333  1.00  0.00     0.056 A 
ATOM     14  C   UNL A   1      31.329  28.840  23.678  1.00  0.00     0.045 A 
ATOM     15  C   UNL A   1      31.028  29.411  24.926  1.00  0.00     0.064 A 
ATOM     16  C   UNL A   1      32.078  29.643  25.783  1.00  0.00     0.166 A 
ATOM     17  C   UNL A   1      33.690  28.879  24.170  1.00  0.00     0.077 A 
ATOM     18  C   UNL A   1      33.373  29.423  25.396  1.00  0.00     0.167 A 
ATOM     19  O   UNL A   1      31.997  30.120  27.053  1.00  0.00    -0.454 OA
ATOM     20  O   UNL A   1      34.271  29.771  26.355  1.00  0.00    -0.454 OA
ATOM     21  C   UNL A   1      33.384  30.033  27.458  1.00  0.00     0.468 C 
BRANCH  14  22
ATOM     22  C   UNL A   1      30.234  28.691  22.689  1.00  0.00     0.162 C 
ATOM     23  C   UNL A   1      29.027  27.902  23.126  1.00  0.00     0.093 C 
ATOM     24  O   UNL A   1      30.284  29.289  21.620  1.00  0.00    -0.294 OA
ENDBRANCH  14  22
ENDBRANCH  10  13
ENDBRANCH   8   9
ENDBRANCH   4   7
ENDBRANCH   2   3
ENDBRANCH   1   2
BRANCH   1  25
ATOM     25  C   UNL A   1      35.609  23.259  26.018  1.00  0.00     0.023 C 
BRANCH  25  26
ATOM     26  C   UNL A   1      36.877  23.725  25.309  1.00  0.00     0.116 C 
BRANCH  26  27
ATOM     27  N   UNL A   1      37.996  22.806  25.466  1.00  0.00    -0.352 N 
ATOM     28  C   UNL A   1      39.188  23.010  26.116  1.00  0.00     0.251 C 
ATOM     29  H   UNL A   1      37.883  21.922  25.050  1.00  0.00     0.163 HD
ATOM     30  O   UNL A   1      40.061  22.149  26.084  1.00  0.00    -0.269 OA
BRANCH  28  31
ATOM     31  C   UNL A   1      39.424  24.291  26.809  1.00  0.00     0.039 A 
ATOM     32  C   UNL A   1      38.926  24.447  28.104  1.00  0.00     0.014 A 
ATOM     33  C   UNL A   1      40.165  25.310  26.204  1.00  0.00     0.014 A 
ATOM     34  C   UNL A   1      39.228  25.606  28.819  1.00  0.00     0.010 A 
ATOM     35  C   UNL A   1      40.522  26.434  26.943  1.00  0.00     0.010 A 
ATOM     36  C   UNL A   1      40.058  26.591  28.257  1.00  0.00    -0.014 A 
BRANCH  36  37
ATOM     37  C   UNL A   1      40.464  27.774  29.052  1.00  0.00     0.031 A 
ATOM     38  C   UNL A   1      41.794  27.804  29.750  1.00  0.00     0.074 A 
ATOM     39  C   UNL A   1      39.606  28.806  29.178  1.00  0.00     0.049 A 
ATOM     40  N   UNL A   1      42.321  28.753  30.479  1.00  0.00    -0.248 NA
ATOM     41  C   UNL A   1      42.630  26.598  29.636  1.00  0.00     0.031 C 
ATOM     42  C   UNL A   1      38.258  28.859  28.606  1.00  0.00     0.029 A 
ATOM     43  N   UNL A   1      39.737  30.007  29.828  1.00  0.00    -0.354 N 
ATOM     44  C   UNL A   1      43.545  28.261  30.914  1.00  0.00     0.074 A 
ATOM     45  C   UNL A   1      43.655  26.906  30.418  1.00  0.00     0.031 C 
ATOM     46  C   UNL A   1      37.700  30.042  28.905  1.00  0.00     0.029 A 
ATOM     47  C   UNL A   1      38.637  30.821  29.707  1.00  0.00     0.049 A 
ATOM     48  H   UNL A   1      40.543  30.261  30.333  1.00  0.00     0.167 HD
ATOM     49  C   UNL A   1      44.502  28.891  31.637  1.00  0.00     0.037 A 
ATOM     50  C   UNL A   1      38.412  32.061  30.184  1.00  0.00     0.037 A 
ATOM     51  C   UNL A   1      44.388  30.245  32.114  1.00  0.00     0.049 A 
ATOM     52  C   UNL A   1      39.499  32.753  30.957  1.00  0.00     0.074 A 
ATOM     53  C   UNL A   1      45.320  30.996  32.810  1.00  0.00     0.029 A 
ATOM     54  N   UNL A   1      43.272  31.052  31.944  1.00  0.00    -0.354 N 
ATOM     55  N   UNL A   1      40.683  32.302  31.295  1.00  0.00    -0.248 NA
ATOM     56  C   UNL A   1      39.229  34.128  31.397  1.00  0.00     0.031 C 
ATOM     57  C   UNL A   1      44.752  32.244  33.092  1.00  0.00     0.029 A 
ATOM     58  C   UNL A   1      43.484  32.287  32.533  1.00  0.00     0.049 A 
ATOM     59  H   UNL A   1      42.449  30.786  31.474  1.00  0.00     0.167 HD
ATOM     60  C   UNL A   1      41.308  33.344  31.971  1.00  0.00     0.074 A 
ATOM     61  C   UNL A   1      40.375  34.454  31.979  1.00  0.00     0.031 C 
ATOM     62  C   UNL A   1      42.542  33.379  32.533  1.00  0.00     0.037 A 
BRANCH  49  63
ATOM     63  C   UNL A   1      45.755  28.117  31.947  1.00  0.00     0.058 A 
ATOM     64  C   UNL A   1      45.858  27.314  33.095  1.00  0.00     0.135 A 
ATOM     65  C   UNL A   1      46.862  28.171  31.086  1.00  0.00     0.135 A 
ATOM     66  F   UNL A   1      44.834  27.239  33.960  1.00  0.00    -0.206 F 
ATOM     67  C   UNL A   1      47.026  26.624  33.399  1.00  0.00     0.059 A 
ATOM     68  C   UNL A   1      48.032  27.465  31.355  1.00  0.00     0.059 A 
ATOM     69  F   UNL A   1      46.820  28.922  29.974  1.00  0.00    -0.206 F 
ATOM     70  C   UNL A   1      48.110  26.710  32.525  1.00  0.00     0.060 A 
BRANCH  70  71
ATOM     71  S   UNL A   1      49.625  25.820  32.940  1.00  0.00     0.124 S 
ATOM     72  O   UNL A   1      49.125  24.815  33.873  1.00  0.00    -0.237 OA
ATOM     73  O   UNL A   1      50.059  25.315  31.640  1.00  0.00    -0.237 OA
ATOM     74  O   UNL A   1      50.476  26.851  33.524  1.00  0.00    -0.744 OA
ENDBRANCH  70  71
ENDBRANCH  49  63
BRANCH  50  75
ATOM     75  C   UNL A   1      37.118  32.734  29.897  1.00  0.00     0.058 A 
ATOM     76  C   UNL A   1      36.043  32.642  30.792  1.00  0.00     0.135 A 
ATOM     77  C   UNL A   1      36.945  33.519  28.745  1.00  0.00     0.135 A 
ATOM     78  F   UNL A   1      36.159  31.901  31.905  1.00  0.00    -0.206 F 
ATOM     79  C   UNL A   1      34.838  33.296  30.554  1.00  0.00     0.059 A 
ATOM     80  C   UNL A   1      35.759  34.201  28.497  1.00  0.00     0.059 A 
ATOM     81  F   UNL A   1      37.952  33.655  27.868  1.00  0.00    -0.206 F 
ATOM     82  C   UNL A   1      34.708  34.079  29.405  1.00  0.00     0.060 A 
BRANCH  82  83
ATOM     83  S   UNL A   1      33.167  34.983  29.142  1.00  0.00     0.124 S 
ATOM     84  O   UNL A   1      33.661  36.287  28.714  1.00  0.00    -0.237 OA
ATOM     85  O   UNL A   1      32.511  34.180  28.115  1.00  0.00    -0.237 OA
ATOM     86  O   UNL A   1      32.531  34.948  30.455  1.00  0.00    -0.744 OA
ENDBRANCH  82  83
ENDBRANCH  50  75
BRANCH  62  87
ATOM     87  C   UNL A   1      42.963  34.669  33.182  1.00  0.00     0.058 A 
ATOM     88  C   UNL A   1      42.702  34.931  34.536  1.00  0.00     0.135 A 
ATOM     89  C   UNL A   1      43.667  35.636  32.448  1.00  0.00     0.135 A 
ATOM     90  F   UNL A   1      42.028  34.041  35.280  1.00  0.00    -0.206 F 
ATOM     91  C   UNL A   1      43.098  36.125  35.132  1.00  0.00     0.059 A 
ATOM     92  C   UNL A   1      44.095  36.825  33.030  1.00  0.00     0.059 A 
ATOM     93  F   UNL A   1      43.952  35.429  31.153  1.00  0.00    -0.206 F 
ATOM     94  C   UNL A   1      43.792  37.066  34.370  1.00  0.00     0.060 A 
BRANCH  94  95
ATOM     95  S   UNL A   1      44.315  38.603  35.158  1.00  0.00     0.124 S 
ATOM     96  O   UNL A   1      43.439  39.577  34.515  1.00  0.00    -0.237 OA
ATOM     97  O   UNL A   1      44.044  38.341  36.569  1.00  0.00    -0.237 OA
ATOM     98  O   UNL A   1      45.729  38.700  34.807  1.00  0.00    -0.744 OA
ENDBRANCH  94  95
ENDBRANCH  62  87
ENDBRANCH  36  37
ENDBRANCH  28  31
ENDBRANCH  26  27
ENDBRANCH  25  26
ENDBRANCH   1  25
TORSDOF 17
ENDMDL
