MODEL 1
REMARK VINA RESULT:     -11.5      0.000      0.000
REMARK SMILES CCOc1cc(N2CCOCC2)ccc1[C@H]([NH3+])C(=O)NCCCCNC(=O)c1ccc(-c2c3nc(c(-c4c(F)cc(S(=O)(=O)[O-])cc4F)c4ccc([nH]4)c(-c4c(F)cc(S(=O)(=O)[O-])cc4F)c4nc(c(-c5c(F)cc(S(=O)(=O)[O-])cc5F)c5ccc2[nH]5)C=C4)C=C3)cc1
REMARK SMILES IDX 22 1 21 2 20 3 18 4 19 5 16 7 15 8 4 9 5 10 6 11 14 12 13 13
REMARK SMILES IDX 3 14 2 15 1 16 7 17 8 18 12 19 9 20 11 21 10 22 17 23 23 27
REMARK SMILES IDX 24 28 25 29 26 30 27 32 28 33 29 34 93 35 30 36 92 37 31 38
REMARK SMILES IDX 32 39 33 40 86 41 34 42 91 43 85 44 87 45 35 46 90 47 84 48
REMARK SMILES IDX 83 49 36 51 70 52 49 53 69 54 50 55 53 56 68 57 88 58 51 59
REMARK SMILES IDX 52 60 67 62 89 63 54 64 37 65 38 66 47 67 39 68 40 69 46 70
REMARK SMILES IDX 48 71 41 72 42 73 43 74 44 75 45 76 71 77 72 78 81 79 73 80
REMARK SMILES IDX 74 81 80 82 82 83 75 84 76 85 77 86 78 87 79 88 55 89 56 90
REMARK SMILES IDX 65 91 57 92 58 93 64 94 66 95 59 96 60 97 61 98 62 99 63 100
REMARK H PARENT 20 6 17 24 17 25 17 26 25 31 87 50 53 61
REMARK Flexibility Score: inf
ROOT
ATOM      1  C   UNL A   1      33.119  30.250  27.059  1.00  0.00     0.023 C 
ENDROOT
BRANCH   1   2
ATOM      2  C   UNL A   1      32.447  30.013  25.714  1.00  0.00     0.116 C 
BRANCH   2   3
ATOM      3  N   UNL A   1      33.410  29.653  24.690  1.00  0.00    -0.351 N 
ATOM      4  C   UNL A   1      33.217  28.995  23.502  1.00  0.00     0.283 C 
ATOM      5  O   UNL A   1      34.215  28.698  22.837  1.00  0.00    -0.268 OA
ATOM      6  H   UNL A   1      34.339  29.922  24.875  1.00  0.00     0.163 HD
BRANCH   4   7
ATOM      7  C   UNL A   1      31.785  28.550  23.057  1.00  0.00     0.306 C 
BRANCH   7   8
ATOM      8  C   UNL A   1      31.721  27.062  22.726  1.00  0.00     0.061 A 
ATOM      9  C   UNL A   1      31.210  26.158  23.670  1.00  0.00     0.131 A 
ATOM     10  C   UNL A   1      31.585  24.811  23.635  1.00  0.00     0.072 A 
ATOM     11  C   UNL A   1      32.437  24.338  22.633  1.00  0.00     0.040 A 
ATOM     12  C   UNL A   1      32.350  26.532  21.589  1.00  0.00     0.016 A 
ATOM     13  C   UNL A   1      32.728  25.187  21.561  1.00  0.00     0.027 A 
BRANCH   9  14
ATOM     14  O   UNL A   1      30.560  26.621  24.785  1.00  0.00    -0.493 OA
BRANCH  14  15
ATOM     15  C   UNL A   1      31.066  26.055  26.001  1.00  0.00     0.226 C 
ATOM     16  C   UNL A   1      32.507  26.479  26.239  1.00  0.00     0.049 C 
ENDBRANCH  14  15
ENDBRANCH   9  14
BRANCH  11  17
ATOM     17  N   UNL A   1      33.081  23.132  22.783  1.00  0.00    -0.367 N 
ATOM     18  C   UNL A   1      32.302  21.888  22.858  1.00  0.00     0.145 C 
ATOM     19  C   UNL A   1      34.471  23.036  23.214  1.00  0.00     0.145 C 
ATOM     20  C   UNL A   1      32.471  21.235  24.237  1.00  0.00     0.181 C 
ATOM     21  C   UNL A   1      34.534  22.343  24.587  1.00  0.00     0.181 C 
ATOM     22  O   UNL A   1      33.859  21.072  24.582  1.00  0.00    -0.378 OA
ENDBRANCH  11  17
ENDBRANCH   7   8
BRANCH   7  23
ATOM     23  N   UNL A   1      31.333  29.465  21.974  1.00  0.00    -0.343 N 
ATOM     24  H   UNL A   1      31.804  29.219  21.103  1.00  0.00     0.345 HD
ATOM     25  H   UNL A   1      31.562  30.427  22.224  1.00  0.00     0.345 HD
ATOM     26  H   UNL A   1      30.325  29.375  21.851  1.00  0.00     0.345 HD
ENDBRANCH   7  23
ENDBRANCH   4   7
ENDBRANCH   2   3
ENDBRANCH   1   2
BRANCH   1  27
ATOM     27  C   UNL A   1      34.435  29.506  27.236  1.00  0.00     0.023 C 
BRANCH  27  28
ATOM     28  C   UNL A   1      35.549  30.333  27.867  1.00  0.00     0.116 C 
BRANCH  28  29
ATOM     29  N   UNL A   1      35.404  30.473  29.308  1.00  0.00    -0.352 N 
ATOM     30  C   UNL A   1      36.335  30.241  30.293  1.00  0.00     0.251 C 
ATOM     31  H   UNL A   1      34.520  30.775  29.619  1.00  0.00     0.163 HD
ATOM     32  O   UNL A   1      36.006  30.272  31.470  1.00  0.00    -0.269 OA
BRANCH  30  33
ATOM     33  C   UNL A   1      37.727  29.933  29.902  1.00  0.00     0.039 A 
ATOM     34  C   UNL A   1      38.638  29.541  30.883  1.00  0.00     0.014 A 
ATOM     35  C   UNL A   1      38.114  29.998  28.561  1.00  0.00     0.014 A 
ATOM     36  C   UNL A   1      39.931  29.170  30.508  1.00  0.00     0.010 A 
ATOM     37  C   UNL A   1      39.366  29.536  28.181  1.00  0.00     0.010 A 
ATOM     38  C   UNL A   1      40.297  29.140  29.152  1.00  0.00    -0.014 A 
BRANCH  38  39
ATOM     39  C   UNL A   1      41.665  28.741  28.735  1.00  0.00     0.031 A 
ATOM     40  C   UNL A   1      42.760  29.774  28.676  1.00  0.00     0.074 A 
ATOM     41  C   UNL A   1      41.912  27.470  28.365  1.00  0.00     0.049 A 
ATOM     42  N   UNL A   1      44.008  29.636  28.306  1.00  0.00    -0.248 NA
ATOM     43  C   UNL A   1      42.395  31.150  29.048  1.00  0.00     0.031 C 
ATOM     44  C   UNL A   1      40.918  26.395  28.314  1.00  0.00     0.029 A 
ATOM     45  N   UNL A   1      43.074  26.867  27.954  1.00  0.00    -0.354 N 
ATOM     46  C   UNL A   1      44.569  30.906  28.396  1.00  0.00     0.074 A 
ATOM     47  C   UNL A   1      43.508  31.812  28.774  1.00  0.00     0.031 C 
ATOM     48  C   UNL A   1      41.518  25.261  27.917  1.00  0.00     0.029 A 
ATOM     49  C   UNL A   1      42.928  25.533  27.656  1.00  0.00     0.049 A 
ATOM     50  H   UNL A   1      43.931  27.345  27.879  1.00  0.00     0.167 HD
ATOM     51  C   UNL A   1      45.859  31.278  28.216  1.00  0.00     0.037 A 
ATOM     52  C   UNL A   1      43.829  24.632  27.219  1.00  0.00     0.037 A 
ATOM     53  C   UNL A   1      46.911  30.367  27.852  1.00  0.00     0.049 A 
ATOM     54  C   UNL A   1      45.260  25.058  27.040  1.00  0.00     0.074 A 
ATOM     55  C   UNL A   1      48.259  30.629  27.684  1.00  0.00     0.029 A 
ATOM     56  N   UNL A   1      46.732  29.013  27.598  1.00  0.00    -0.354 N 
ATOM     57  N   UNL A   1      45.790  26.249  27.195  1.00  0.00    -0.248 NA
ATOM     58  C   UNL A   1      46.220  24.019  26.647  1.00  0.00     0.031 C 
ATOM     59  C   UNL A   1      48.887  29.444  27.286  1.00  0.00     0.029 A 
ATOM     60  C   UNL A   1      47.942  28.430  27.261  1.00  0.00     0.049 A 
ATOM     61  H   UNL A   1      45.872  28.539  27.649  1.00  0.00     0.167 HD
ATOM     62  C   UNL A   1      47.150  26.097  26.942  1.00  0.00     0.074 A 
ATOM     63  C   UNL A   1      47.360  24.696  26.639  1.00  0.00     0.031 C 
ATOM     64  C   UNL A   1      48.135  27.031  26.962  1.00  0.00     0.037 A 
BRANCH  51  65
ATOM     65  C   UNL A   1      46.189  32.733  28.420  1.00  0.00     0.058 A 
ATOM     66  C   UNL A   1      46.566  33.233  29.678  1.00  0.00     0.135 A 
ATOM     67  C   UNL A   1      46.122  33.642  27.352  1.00  0.00     0.135 A 
ATOM     68  F   UNL A   1      46.633  32.415  30.740  1.00  0.00    -0.206 F 
ATOM     69  C   UNL A   1      46.813  34.587  29.881  1.00  0.00     0.059 A 
ATOM     70  C   UNL A   1      46.401  34.995  27.524  1.00  0.00     0.059 A 
ATOM     71  F   UNL A   1      45.771  33.221  26.126  1.00  0.00    -0.206 F 
ATOM     72  C   UNL A   1      46.723  35.461  28.798  1.00  0.00     0.060 A 
BRANCH  72  73
ATOM     73  S   UNL A   1      47.024  37.218  29.082  1.00  0.00     0.124 S 
ATOM     74  O   UNL A   1      47.040  37.277  30.542  1.00  0.00    -0.237 OA
ATOM     75  O   UNL A   1      48.312  37.425  28.427  1.00  0.00    -0.237 OA
ATOM     76  O   UNL A   1      45.886  37.868  28.441  1.00  0.00    -0.744 OA
ENDBRANCH  72  73
ENDBRANCH  51  65
BRANCH  52  77
ATOM     77  C   UNL A   1      43.399  23.232  26.954  1.00  0.00     0.058 A 
ATOM     78  C   UNL A   1      43.322  22.730  25.647  1.00  0.00     0.135 A 
ATOM     79  C   UNL A   1      43.099  22.356  28.009  1.00  0.00     0.135 A 
ATOM     80  F   UNL A   1      43.594  23.529  24.604  1.00  0.00    -0.206 F 
ATOM     81  C   UNL A   1      42.955  21.412  25.393  1.00  0.00     0.059 A 
ATOM     82  C   UNL A   1      42.755  21.027  27.781  1.00  0.00     0.059 A 
ATOM     83  F   UNL A   1      43.176  22.782  29.280  1.00  0.00    -0.206 F 
ATOM     84  C   UNL A   1      42.682  20.565  26.469  1.00  0.00     0.060 A 
BRANCH  84  85
ATOM     85  S   UNL A   1      42.279  18.838  26.131  1.00  0.00     0.124 S 
ATOM     86  O   UNL A   1      42.527  18.217  27.427  1.00  0.00    -0.237 OA
ATOM     87  O   UNL A   1      40.881  18.925  25.722  1.00  0.00    -0.237 OA
ATOM     88  O   UNL A   1      43.213  18.476  25.069  1.00  0.00    -0.744 OA
ENDBRANCH  84  85
ENDBRANCH  52  77
BRANCH  64  89
ATOM     89  C   UNL A   1      49.537  26.563  26.684  1.00  0.00     0.058 A 
ATOM     90  C   UNL A   1      50.367  26.060  27.698  1.00  0.00     0.135 A 
ATOM     91  C   UNL A   1      50.041  26.580  25.373  1.00  0.00     0.135 A 
ATOM     92  F   UNL A   1      49.935  26.025  28.969  1.00  0.00    -0.206 F 
ATOM     93  C   UNL A   1      51.660  25.622  27.429  1.00  0.00     0.059 A 
ATOM     94  C   UNL A   1      51.319  26.117  25.076  1.00  0.00     0.059 A 
ATOM     95  F   UNL A   1      49.285  27.038  24.363  1.00  0.00    -0.206 F 
ATOM     96  C   UNL A   1      52.127  25.656  26.114  1.00  0.00     0.060 A 
BRANCH  96  97
ATOM     97  S   UNL A   1      53.801  25.070  25.774  1.00  0.00     0.124 S 
ATOM     98  O   UNL A   1      53.555  23.684  25.391  1.00  0.00    -0.237 OA
ATOM     99  O   UNL A   1      54.230  25.959  24.698  1.00  0.00    -0.237 OA
ATOM    100  O   UNL A   1      54.492  25.259  27.046  1.00  0.00    -0.744 OA
ENDBRANCH  96  97
ENDBRANCH  64  89
ENDBRANCH  38  39
ENDBRANCH  30  33
ENDBRANCH  28  29
ENDBRANCH  27  28
ENDBRANCH   1  27
TORSDOF 19
ENDMDL
MODEL 2
REMARK VINA RESULT:     -11.4      0.981      8.236
REMARK SMILES CCOc1cc(N2CCOCC2)ccc1[C@H]([NH3+])C(=O)NCCCCNC(=O)c1ccc(-c2c3nc(c(-c4c(F)cc(S(=O)(=O)[O-])cc4F)c4ccc([nH]4)c(-c4c(F)cc(S(=O)(=O)[O-])cc4F)c4nc(c(-c5c(F)cc(S(=O)(=O)[O-])cc5F)c5ccc2[nH]5)C=C4)C=C3)cc1
REMARK SMILES IDX 22 1 21 2 20 3 18 4 19 5 16 7 15 8 4 9 5 10 6 11 14 12 13 13
REMARK SMILES IDX 3 14 2 15 1 16 7 17 8 18 12 19 9 20 11 21 10 22 17 23 23 27
REMARK SMILES IDX 24 28 25 29 26 30 27 32 28 33 29 34 93 35 30 36 92 37 31 38
REMARK SMILES IDX 32 39 33 40 86 41 34 42 91 43 85 44 87 45 35 46 90 47 84 48
REMARK SMILES IDX 83 49 36 51 70 52 49 53 69 54 50 55 53 56 68 57 88 58 51 59
REMARK SMILES IDX 52 60 67 62 89 63 54 64 37 65 38 66 47 67 39 68 40 69 46 70
REMARK SMILES IDX 48 71 41 72 42 73 43 74 44 75 45 76 71 77 72 78 81 79 73 80
REMARK SMILES IDX 74 81 80 82 82 83 75 84 76 85 77 86 78 87 79 88 55 89 56 90
REMARK SMILES IDX 65 91 57 92 58 93 64 94 66 95 59 96 60 97 61 98 62 99 63 100
REMARK H PARENT 20 6 17 24 17 25 17 26 25 31 87 50 53 61
REMARK Flexibility Score: inf
ROOT
ATOM      1  C   UNL A   1      33.060  30.085  27.024  1.00  0.00     0.023 C 
ENDROOT
BRANCH   1   2
ATOM      2  C   UNL A   1      32.327  29.912  25.701  1.00  0.00     0.116 C 
BRANCH   2   3
ATOM      3  N   UNL A   1      33.243  29.615  24.616  1.00  0.00    -0.351 N 
ATOM      4  C   UNL A   1      32.980  29.151  23.352  1.00  0.00     0.283 C 
ATOM      5  O   UNL A   1      33.940  28.862  22.630  1.00  0.00    -0.268 OA
ATOM      6  H   UNL A   1      34.195  29.769  24.816  1.00  0.00     0.163 HD
BRANCH   4   7
ATOM      7  C   UNL A   1      31.508  28.905  22.880  1.00  0.00     0.306 C 
BRANCH   7   8
ATOM      8  C   UNL A   1      31.204  27.423  22.691  1.00  0.00     0.061 A 
ATOM      9  C   UNL A   1      30.108  26.844  23.351  1.00  0.00     0.131 A 
ATOM     10  C   UNL A   1      30.087  25.472  23.617  1.00  0.00     0.072 A 
ATOM     11  C   UNL A   1      31.134  24.650  23.191  1.00  0.00     0.040 A 
ATOM     12  C   UNL A   1      32.105  26.562  22.045  1.00  0.00     0.016 A 
ATOM     13  C   UNL A   1      32.083  25.192  22.320  1.00  0.00     0.027 A 
BRANCH   9  14
ATOM     14  O   UNL A   1      29.182  27.640  23.973  1.00  0.00    -0.493 OA
BRANCH  14  15
ATOM     15  C   UNL A   1      28.021  27.881  23.168  1.00  0.00     0.226 C 
ATOM     16  C   UNL A   1      27.766  29.373  23.017  1.00  0.00     0.049 C 
ENDBRANCH  14  15
ENDBRANCH   9  14
BRANCH  11  17
ATOM     17  N   UNL A   1      31.299  23.398  23.736  1.00  0.00    -0.367 N 
ATOM     18  C   UNL A   1      30.894  23.142  25.125  1.00  0.00     0.145 C 
ATOM     19  C   UNL A   1      32.163  22.390  23.133  1.00  0.00     0.145 C 
ATOM     20  C   UNL A   1      32.119  22.795  25.983  1.00  0.00     0.181 C 
ATOM     21  C   UNL A   1      33.339  22.092  24.080  1.00  0.00     0.181 C 
ATOM     22  O   UNL A   1      32.892  21.731  25.399  1.00  0.00    -0.378 OA
ENDBRANCH  11  17
ENDBRANCH   7   8
BRANCH   7  23
ATOM     23  N   UNL A   1      31.254  29.766  21.693  1.00  0.00    -0.343 N 
ATOM     24  H   UNL A   1      30.381  30.276  21.824  1.00  0.00     0.345 HD
ATOM     25  H   UNL A   1      31.185  29.182  20.859  1.00  0.00     0.345 HD
ATOM     26  H   UNL A   1      32.021  30.428  21.583  1.00  0.00     0.345 HD
ENDBRANCH   7  23
ENDBRANCH   4   7
ENDBRANCH   2   3
ENDBRANCH   1   2
BRANCH   1  27
ATOM     27  C   UNL A   1      34.093  29.003  27.309  1.00  0.00     0.023 C 
BRANCH  27  28
ATOM     28  C   UNL A   1      35.448  29.527  27.768  1.00  0.00     0.116 C 
BRANCH  28  29
ATOM     29  N   UNL A   1      35.421  30.059  29.122  1.00  0.00    -0.352 N 
ATOM     30  C   UNL A   1      36.439  30.112  30.046  1.00  0.00     0.251 C 
ATOM     31  H   UNL A   1      34.558  30.429  29.417  1.00  0.00     0.163 HD
ATOM     32  O   UNL A   1      36.210  30.463  31.194  1.00  0.00    -0.269 OA
BRANCH  30  33
ATOM     33  C   UNL A   1      37.801  29.715  29.631  1.00  0.00     0.039 A 
ATOM     34  C   UNL A   1      38.181  29.882  28.299  1.00  0.00     0.014 A 
ATOM     35  C   UNL A   1      38.707  29.212  30.569  1.00  0.00     0.014 A 
ATOM     36  C   UNL A   1      39.491  29.586  27.918  1.00  0.00     0.010 A 
ATOM     37  C   UNL A   1      40.032  29.011  30.209  1.00  0.00     0.010 A 
ATOM     38  C   UNL A   1      40.434  29.172  28.875  1.00  0.00    -0.014 A 
BRANCH  38  39
ATOM     39  C   UNL A   1      41.833  28.860  28.489  1.00  0.00     0.031 A 
ATOM     40  C   UNL A   1      42.203  27.456  28.089  1.00  0.00     0.074 A 
ATOM     41  C   UNL A   1      42.777  29.819  28.545  1.00  0.00     0.049 A 
ATOM     42  N   UNL A   1      43.371  26.972  27.752  1.00  0.00    -0.248 NA
ATOM     43  C   UNL A   1      41.122  26.456  28.103  1.00  0.00     0.031 C 
ATOM     44  C   UNL A   1      42.555  31.199  28.984  1.00  0.00     0.029 A 
ATOM     45  N   UNL A   1      44.113  29.778  28.238  1.00  0.00    -0.354 N 
ATOM     46  C   UNL A   1      43.164  25.616  27.522  1.00  0.00     0.074 A 
ATOM     47  C   UNL A   1      41.781  25.339  27.836  1.00  0.00     0.031 C 
ATOM     48  C   UNL A   1      43.711  31.878  28.896  1.00  0.00     0.029 A 
ATOM     49  C   UNL A   1      44.760  30.977  28.427  1.00  0.00     0.049 A 
ATOM     50  H   UNL A   1      44.566  28.967  27.914  1.00  0.00     0.167 HD
ATOM     51  C   UNL A   1      44.037  24.692  27.055  1.00  0.00     0.037 A 
ATOM     52  C   UNL A   1      46.052  31.311  28.243  1.00  0.00     0.037 A 
ATOM     53  C   UNL A   1      45.410  24.980  26.731  1.00  0.00     0.049 A 
ATOM     54  C   UNL A   1      47.005  30.277  27.709  1.00  0.00     0.074 A 
ATOM     55  C   UNL A   1      46.370  24.129  26.213  1.00  0.00     0.029 A 
ATOM     56  N   UNL A   1      46.018  26.216  26.897  1.00  0.00    -0.354 N 
ATOM     57  N   UNL A   1      46.778  29.014  27.432  1.00  0.00    -0.248 NA
ATOM     58  C   UNL A   1      48.381  30.714  27.445  1.00  0.00     0.031 C 
ATOM     59  C   UNL A   1      47.570  24.840  26.106  1.00  0.00     0.029 A 
ATOM     60  C   UNL A   1      47.344  26.149  26.504  1.00  0.00     0.049 A 
ATOM     61  H   UNL A   1      45.573  27.023  27.243  1.00  0.00     0.167 HD
ATOM     62  C   UNL A   1      47.977  28.512  26.936  1.00  0.00     0.074 A 
ATOM     63  C   UNL A   1      48.920  29.613  26.939  1.00  0.00     0.031 C 
ATOM     64  C   UNL A   1      48.271  27.256  26.514  1.00  0.00     0.037 A 
BRANCH  51  65
ATOM     65  C   UNL A   1      43.519  23.290  26.864  1.00  0.00     0.058 A 
ATOM     66  C   UNL A   1      43.286  22.437  27.956  1.00  0.00     0.135 A 
ATOM     67  C   UNL A   1      43.259  22.789  25.579  1.00  0.00     0.135 A 
ATOM     68  F   UNL A   1      43.530  22.856  29.208  1.00  0.00    -0.206 F 
ATOM     69  C   UNL A   1      42.865  21.123  27.779  1.00  0.00     0.059 A 
ATOM     70  C   UNL A   1      42.803  21.489  25.380  1.00  0.00     0.059 A 
ATOM     71  F   UNL A   1      43.461  23.559  24.498  1.00  0.00    -0.206 F 
ATOM     72  C   UNL A   1      42.631  20.656  26.485  1.00  0.00     0.060 A 
BRANCH  72  73
ATOM     73  S   UNL A   1      42.107  18.943  26.269  1.00  0.00     0.124 S 
ATOM     74  O   UNL A   1      42.263  18.419  27.624  1.00  0.00    -0.237 OA
ATOM     75  O   UNL A   1      40.732  19.092  25.804  1.00  0.00    -0.237 OA
ATOM     76  O   UNL A   1      43.047  18.420  25.283  1.00  0.00    -0.744 OA
ENDBRANCH  72  73
ENDBRANCH  51  65
BRANCH  52  77
ATOM     77  C   UNL A   1      46.502  32.698  28.542  1.00  0.00     0.058 A 
ATOM     78  C   UNL A   1      46.462  33.702  27.564  1.00  0.00     0.135 A 
ATOM     79  C   UNL A   1      46.939  33.055  29.826  1.00  0.00     0.135 A 
ATOM     80  F   UNL A   1      46.055  33.409  26.318  1.00  0.00    -0.206 F 
ATOM     81  C   UNL A   1      46.846  35.009  27.844  1.00  0.00     0.059 A 
ATOM     82  C   UNL A   1      47.305  34.361  30.139  1.00  0.00     0.059 A 
ATOM     83  F   UNL A   1      46.979  32.135  30.804  1.00  0.00    -0.206 F 
ATOM     84  C   UNL A   1      47.259  35.331  29.139  1.00  0.00     0.060 A 
BRANCH  84  85
ATOM     85  S   UNL A   1      47.685  37.045  29.511  1.00  0.00     0.124 S 
ATOM     86  O   UNL A   1      48.697  36.880  30.548  1.00  0.00    -0.237 OA
ATOM     87  O   UNL A   1      48.167  37.527  28.220  1.00  0.00    -0.237 OA
ATOM     88  O   UNL A   1      46.418  37.619  29.951  1.00  0.00    -0.744 OA
ENDBRANCH  84  85
ENDBRANCH  52  77
BRANCH  64  89
ATOM     89  C   UNL A   1      49.658  27.011  25.985  1.00  0.00     0.058 A 
ATOM     90  C   UNL A   1      50.701  26.568  26.814  1.00  0.00     0.135 A 
ATOM     91  C   UNL A   1      49.934  27.183  24.619  1.00  0.00     0.135 A 
ATOM     92  F   UNL A   1      50.491  26.391  28.128  1.00  0.00    -0.206 F 
ATOM     93  C   UNL A   1      51.979  26.337  26.313  1.00  0.00     0.059 A 
ATOM     94  C   UNL A   1      51.196  26.928  24.091  1.00  0.00     0.059 A 
ATOM     95  F   UNL A   1      48.971  27.592  23.779  1.00  0.00    -0.206 F 
ATOM     96  C   UNL A   1      52.216  26.522  24.950  1.00  0.00     0.060 A 
BRANCH  96  97
ATOM     97  S   UNL A   1      53.874  26.204  24.309  1.00  0.00     0.124 S 
ATOM     98  O   UNL A   1      53.663  26.333  22.871  1.00  0.00    -0.237 OA
ATOM     99  O   UNL A   1      54.658  27.266  24.933  1.00  0.00    -0.237 OA
ATOM    100  O   UNL A   1      54.170  24.856  24.783  1.00  0.00    -0.744 OA
ENDBRANCH  96  97
ENDBRANCH  64  89
ENDBRANCH  38  39
ENDBRANCH  30  33
ENDBRANCH  28  29
ENDBRANCH  27  28
ENDBRANCH   1  27
TORSDOF 19
ENDMDL
MODEL 3
REMARK VINA RESULT:     -11.4      6.602     11.854
REMARK SMILES CCOc1cc(N2CCOCC2)ccc1[C@H]([NH3+])C(=O)NCCCCNC(=O)c1ccc(-c2c3nc(c(-c4c(F)cc(S(=O)(=O)[O-])cc4F)c4ccc([nH]4)c(-c4c(F)cc(S(=O)(=O)[O-])cc4F)c4nc(c(-c5c(F)cc(S(=O)(=O)[O-])cc5F)c5ccc2[nH]5)C=C4)C=C3)cc1
REMARK SMILES IDX 22 1 21 2 20 3 18 4 19 5 16 7 15 8 4 9 5 10 6 11 14 12 13 13
REMARK SMILES IDX 3 14 2 15 1 16 7 17 8 18 12 19 9 20 11 21 10 22 17 23 23 27
REMARK SMILES IDX 24 28 25 29 26 30 27 32 28 33 29 34 93 35 30 36 92 37 31 38
REMARK SMILES IDX 32 39 33 40 86 41 34 42 91 43 85 44 87 45 35 46 90 47 84 48
REMARK SMILES IDX 83 49 36 51 70 52 49 53 69 54 50 55 53 56 68 57 88 58 51 59
REMARK SMILES IDX 52 60 67 62 89 63 54 64 37 65 38 66 47 67 39 68 40 69 46 70
REMARK SMILES IDX 48 71 41 72 42 73 43 74 44 75 45 76 71 77 72 78 81 79 73 80
REMARK SMILES IDX 74 81 80 82 82 83 75 84 76 85 77 86 78 87 79 88 55 89 56 90
REMARK SMILES IDX 65 91 57 92 58 93 64 94 66 95 59 96 60 97 61 98 62 99 63 100
REMARK H PARENT 20 6 17 24 17 25 17 26 25 31 87 50 53 61
REMARK Flexibility Score: inf
ROOT
ATOM      1  C   UNL A   1      38.654  22.551  25.957  1.00  0.00     0.023 C 
ENDROOT
BRANCH   1   2
ATOM      2  C   UNL A   1      37.381  23.305  25.598  1.00  0.00     0.116 C 
BRANCH   2   3
ATOM      3  N   UNL A   1      37.043  23.148  24.196  1.00  0.00    -0.351 N 
ATOM      4  C   UNL A   1      35.821  23.222  23.578  1.00  0.00     0.283 C 
ATOM      5  O   UNL A   1      35.761  22.940  22.377  1.00  0.00    -0.268 OA
ATOM      6  H   UNL A   1      37.804  22.962  23.599  1.00  0.00     0.163 HD
BRANCH   4   7
ATOM      7  C   UNL A   1      34.530  23.558  24.396  1.00  0.00     0.306 C 
BRANCH   7   8
ATOM      8  C   UNL A   1      33.583  22.366  24.494  1.00  0.00     0.061 A 
ATOM      9  C   UNL A   1      33.643  21.516  25.610  1.00  0.00     0.131 A 
ATOM     10  C   UNL A   1      33.194  20.195  25.518  1.00  0.00     0.072 A 
ATOM     11  C   UNL A   1      32.638  19.716  24.328  1.00  0.00     0.040 A 
ATOM     12  C   UNL A   1      32.792  21.961  23.407  1.00  0.00     0.016 A 
ATOM     13  C   UNL A   1      32.352  20.638  23.317  1.00  0.00     0.027 A 
BRANCH   9  14
ATOM     14  O   UNL A   1      34.378  21.876  26.710  1.00  0.00    -0.493 OA
BRANCH  14  15
ATOM     15  C   UNL A   1      33.564  22.166  27.854  1.00  0.00     0.226 C 
ATOM     16  C   UNL A   1      32.344  22.985  27.458  1.00  0.00     0.049 C 
ENDBRANCH  14  15
ENDBRANCH   9  14
BRANCH  11  17
ATOM     17  N   UNL A   1      32.521  18.363  24.113  1.00  0.00    -0.367 N 
ATOM     18  C   UNL A   1      32.407  17.444  25.255  1.00  0.00     0.145 C 
ATOM     19  C   UNL A   1      32.844  17.744  22.832  1.00  0.00     0.145 C 
ATOM     20  C   UNL A   1      33.626  16.514  25.316  1.00  0.00     0.181 C 
ATOM     21  C   UNL A   1      34.056  16.812  23.006  1.00  0.00     0.181 C 
ATOM     22  O   UNL A   1      33.852  15.851  24.058  1.00  0.00    -0.378 OA
ENDBRANCH  11  17
ENDBRANCH   7   8
BRANCH   7  23
ATOM     23  N   UNL A   1      33.936  24.800  23.832  1.00  0.00    -0.343 N 
ATOM     24  H   UNL A   1      33.876  24.718  22.817  1.00  0.00     0.345 HD
ATOM     25  H   UNL A   1      34.523  25.599  24.074  1.00  0.00     0.345 HD
ATOM     26  H   UNL A   1      33.001  24.936  24.216  1.00  0.00     0.345 HD
ENDBRANCH   7  23
ENDBRANCH   4   7
ENDBRANCH   2   3
ENDBRANCH   1   2
BRANCH   1  27
ATOM     27  C   UNL A   1      39.615  23.338  26.837  1.00  0.00     0.023 C 
BRANCH  27  28
ATOM     28  C   UNL A   1      40.220  24.569  26.172  1.00  0.00     0.116 C 
BRANCH  28  29
ATOM     29  N   UNL A   1      41.662  24.469  26.000  1.00  0.00    -0.352 N 
ATOM     30  C   UNL A   1      42.652  25.224  26.584  1.00  0.00     0.251 C 
ATOM     31  H   UNL A   1      41.970  23.766  25.383  1.00  0.00     0.163 HD
ATOM     32  O   UNL A   1      43.813  25.103  26.222  1.00  0.00    -0.269 OA
BRANCH  30  33
ATOM     33  C   UNL A   1      42.282  26.197  27.635  1.00  0.00     0.039 A 
ATOM     34  C   UNL A   1      41.505  25.771  28.712  1.00  0.00     0.014 A 
ATOM     35  C   UNL A   1      42.735  27.517  27.566  1.00  0.00     0.014 A 
ATOM     36  C   UNL A   1      41.221  26.663  29.747  1.00  0.00     0.010 A 
ATOM     37  C   UNL A   1      42.535  28.371  28.641  1.00  0.00     0.010 A 
ATOM     38  C   UNL A   1      41.754  27.962  29.732  1.00  0.00    -0.014 A 
BRANCH  38  39
ATOM     39  C   UNL A   1      41.469  28.922  30.829  1.00  0.00     0.031 A 
ATOM     40  C   UNL A   1      42.298  28.889  32.086  1.00  0.00     0.074 A 
ATOM     41  C   UNL A   1      40.441  29.784  30.718  1.00  0.00     0.049 A 
ATOM     42  N   UNL A   1      42.188  29.616  33.168  1.00  0.00    -0.248 NA
ATOM     43  C   UNL A   1      43.370  27.882  32.148  1.00  0.00     0.031 C 
ATOM     44  C   UNL A   1      39.523  29.864  29.579  1.00  0.00     0.029 A 
ATOM     45  N   UNL A   1      39.989  30.754  31.577  1.00  0.00    -0.354 N 
ATOM     46  C   UNL A   1      43.169  29.149  34.036  1.00  0.00     0.074 A 
ATOM     47  C   UNL A   1      43.808  28.026  33.389  1.00  0.00     0.031 C 
ATOM     48  C   UNL A   1      38.632  30.846  29.801  1.00  0.00     0.029 A 
ATOM     49  C   UNL A   1      38.895  31.441  31.108  1.00  0.00     0.049 A 
ATOM     50  H   UNL A   1      40.408  30.939  32.447  1.00  0.00     0.167 HD
ATOM     51  C   UNL A   1      43.532  29.634  35.248  1.00  0.00     0.037 A 
ATOM     52  C   UNL A   1      38.183  32.438  31.668  1.00  0.00     0.037 A 
ATOM     53  C   UNL A   1      42.899  30.762  35.879  1.00  0.00     0.049 A 
ATOM     54  C   UNL A   1      38.609  32.976  33.007  1.00  0.00     0.074 A 
ATOM     55  C   UNL A   1      43.213  31.362  37.086  1.00  0.00     0.029 A 
ATOM     56  N   UNL A   1      41.819  31.459  35.354  1.00  0.00    -0.354 N 
ATOM     57  N   UNL A   1      39.583  32.569  33.786  1.00  0.00    -0.248 NA
ATOM     58  C   UNL A   1      37.854  34.120  33.534  1.00  0.00     0.031 C 
ATOM     59  C   UNL A   1      42.295  32.395  37.310  1.00  0.00     0.029 A 
ATOM     60  C   UNL A   1      41.445  32.475  36.218  1.00  0.00     0.049 A 
ATOM     61  H   UNL A   1      41.383  31.260  34.495  1.00  0.00     0.167 HD
ATOM     62  C   UNL A   1      39.574  33.421  34.885  1.00  0.00     0.074 A 
ATOM     63  C   UNL A   1      38.507  34.376  34.660  1.00  0.00     0.031 C 
ATOM     64  C   UNL A   1      40.378  33.417  35.979  1.00  0.00     0.037 A 
BRANCH  51  65
ATOM     65  C   UNL A   1      44.669  28.944  35.953  1.00  0.00     0.058 A 
ATOM     66  C   UNL A   1      44.446  27.884  36.848  1.00  0.00     0.135 A 
ATOM     67  C   UNL A   1      45.997  29.348  35.742  1.00  0.00     0.135 A 
ATOM     68  F   UNL A   1      43.196  27.463  37.102  1.00  0.00    -0.206 F 
ATOM     69  C   UNL A   1      45.489  27.285  37.545  1.00  0.00     0.059 A 
ATOM     70  C   UNL A   1      47.061  28.739  36.402  1.00  0.00     0.059 A 
ATOM     71  F   UNL A   1      46.272  30.354  34.896  1.00  0.00    -0.206 F 
ATOM     72  C   UNL A   1      46.794  27.723  37.319  1.00  0.00     0.060 A 
BRANCH  72  73
ATOM     73  S   UNL A   1      48.135  26.953  38.249  1.00  0.00     0.124 S 
ATOM     74  O   UNL A   1      49.194  27.949  38.110  1.00  0.00    -0.237 OA
ATOM     75  O   UNL A   1      47.558  26.824  39.583  1.00  0.00    -0.237 OA
ATOM     76  O   UNL A   1      48.362  25.696  37.543  1.00  0.00    -0.744 OA
ENDBRANCH  72  73
ENDBRANCH  51  65
BRANCH  52  77
ATOM     77  C   UNL A   1      37.015  33.005  30.941  1.00  0.00     0.058 A 
ATOM     78  C   UNL A   1      35.703  32.772  31.378  1.00  0.00     0.135 A 
ATOM     79  C   UNL A   1      37.192  33.830  29.819  1.00  0.00     0.135 A 
ATOM     80  F   UNL A   1      35.481  31.986  32.443  1.00  0.00    -0.206 F 
ATOM     81  C   UNL A   1      34.607  33.327  30.725  1.00  0.00     0.059 A 
ATOM     82  C   UNL A   1      36.113  34.418  29.165  1.00  0.00     0.059 A 
ATOM     83  F   UNL A   1      38.429  34.100  29.372  1.00  0.00    -0.206 F 
ATOM     84  C   UNL A   1      34.824  34.157  29.624  1.00  0.00     0.060 A 
BRANCH  84  85
ATOM     85  S   UNL A   1      33.399  34.932  28.830  1.00  0.00     0.124 S 
ATOM     86  O   UNL A   1      32.433  34.965  29.921  1.00  0.00    -0.237 OA
ATOM     87  O   UNL A   1      33.944  36.224  28.420  1.00  0.00    -0.237 OA
ATOM     88  O   UNL A   1      33.086  34.019  27.735  1.00  0.00    -0.744 OA
ENDBRANCH  84  85
ENDBRANCH  52  77
BRANCH  64  89
ATOM     89  C   UNL A   1      40.160  34.500  37.001  1.00  0.00     0.058 A 
ATOM     90  C   UNL A   1      40.898  35.694  36.987  1.00  0.00     0.135 A 
ATOM     91  C   UNL A   1      39.167  34.355  37.982  1.00  0.00     0.135 A 
ATOM     92  F   UNL A   1      41.862  35.883  36.071  1.00  0.00    -0.206 F 
ATOM     93  C   UNL A   1      40.683  36.692  37.932  1.00  0.00     0.059 A 
ATOM     94  C   UNL A   1      38.912  35.353  38.918  1.00  0.00     0.059 A 
ATOM     95  F   UNL A   1      38.422  33.239  38.033  1.00  0.00    -0.206 F 
ATOM     96  C   UNL A   1      39.687  36.511  38.895  1.00  0.00     0.060 A 
BRANCH  96  97
ATOM     97  S   UNL A   1      39.407  37.820  40.106  1.00  0.00     0.124 S 
ATOM     98  O   UNL A   1      38.168  38.414  39.615  1.00  0.00    -0.237 OA
ATOM     99  O   UNL A   1      39.299  37.071  41.355  1.00  0.00    -0.237 OA
ATOM    100  O   UNL A   1      40.597  38.656  39.986  1.00  0.00    -0.744 OA
ENDBRANCH  96  97
ENDBRANCH  64  89
ENDBRANCH  38  39
ENDBRANCH  30  33
ENDBRANCH  28  29
ENDBRANCH  27  28
ENDBRANCH   1  27
TORSDOF 19
ENDMDL
