MODEL 1
REMARK VINA RESULT:     -11.6      0.000      0.000
REMARK SMILES NC(=O)c1ccccc1NC(=O)[C@@H]1CC=CC[C@@H]1C(=O)NCCCCNC(=O)c1ccc(-c2c3nc(c(-c4c(F)cc(S(=O)(=O)[O-])cc4F)c4ccc([nH]4)c(-c4c(F)cc(S(=O)(=O)[O-])cc4F)c4nc(c(-c5c(F)cc(S(=O)(=O)[O-])cc5F)c5ccc2[nH]5)C=C4)C=C3)cc1
REMARK SMILES IDX 23 1 22 2 21 3 19 4 20 5 18 7 13 8 14 9 15 10 17 11 16 12
REMARK SMILES IDX 11 13 10 14 12 16 9 17 4 18 5 19 6 20 8 21 7 22 2 23 1 24
REMARK SMILES IDX 3 27 24 28 25 29 26 30 27 31 28 33 29 34 30 35 94 36 31 37
REMARK SMILES IDX 93 38 32 39 33 40 34 41 87 42 35 43 92 44 86 45 88 46 36 47
REMARK SMILES IDX 91 48 85 49 84 50 37 52 71 53 50 54 70 55 51 56 54 57 69 58
REMARK SMILES IDX 89 59 52 60 53 61 68 63 90 64 55 65 38 66 39 67 48 68 40 69
REMARK SMILES IDX 41 70 47 71 49 72 42 73 43 74 44 75 45 76 46 77 72 78 73 79
REMARK SMILES IDX 82 80 74 81 75 82 81 83 83 84 76 85 77 86 78 87 79 88 80 89
REMARK SMILES IDX 56 90 57 91 66 92 58 93 59 94 65 95 67 96 60 97 61 98 62 99
REMARK SMILES IDX 63 100 64 101
REMARK H PARENT 21 6 10 15 1 25 1 26 26 32 88 51 54 62
REMARK Flexibility Score: inf
ROOT
ATOM      1  C   UNL A   1      34.193  27.483  25.509  1.00  0.00     0.023 C 
ENDROOT
BRANCH   1   2
ATOM      2  C   UNL A   1      33.838  26.054  25.110  1.00  0.00     0.116 C 
BRANCH   2   3
ATOM      3  N   UNL A   1      34.347  25.160  26.134  1.00  0.00    -0.356 N 
ATOM      4  C   UNL A   1      34.559  23.813  26.093  1.00  0.00     0.224 C 
ATOM      5  O   UNL A   1      34.597  23.223  27.175  1.00  0.00    -0.275 OA
ATOM      6  H   UNL A   1      34.574  25.591  26.989  1.00  0.00     0.163 HD
BRANCH   4   7
ATOM      7  C   UNL A   1      34.879  23.101  24.772  1.00  0.00     0.095 C 
ATOM      8  C   UNL A   1      34.548  21.598  24.580  1.00  0.00     0.095 C 
ATOM      9  C   UNL A   1      35.642  20.543  24.828  1.00  0.00     0.041 C 
ATOM     10  C   UNL A   1      36.981  21.092  25.204  1.00  0.00    -0.030 C 
ATOM     11  C   UNL A   1      36.365  23.377  24.438  1.00  0.00     0.041 C 
ATOM     12  C   UNL A   1      37.312  22.376  25.031  1.00  0.00    -0.030 C 
BRANCH   8  13
ATOM     13  C   UNL A   1      33.173  21.136  25.020  1.00  0.00     0.228 C 
ATOM     14  N   UNL A   1      32.010  21.827  24.998  1.00  0.00    -0.325 N 
ATOM     15  H   UNL A   1      31.290  21.307  25.424  1.00  0.00     0.169 HD
ATOM     16  O   UNL A   1      33.073  19.973  25.450  1.00  0.00    -0.274 OA
BRANCH  14  17
ATOM     17  C   UNL A   1      31.522  23.074  24.547  1.00  0.00     0.053 A 
ATOM     18  C   UNL A   1      30.870  23.939  25.463  1.00  0.00     0.063 A 
ATOM     19  C   UNL A   1      30.392  25.196  25.049  1.00  0.00     0.016 A 
ATOM     20  C   UNL A   1      30.522  25.599  23.725  1.00  0.00     0.001 A 
ATOM     21  C   UNL A   1      31.560  23.478  23.214  1.00  0.00     0.027 A 
ATOM     22  C   UNL A   1      31.080  24.725  22.804  1.00  0.00     0.002 A 
BRANCH  18  23
ATOM     23  C   UNL A   1      30.446  23.526  26.829  1.00  0.00     0.250 C 
ATOM     24  N   UNL A   1      29.129  23.634  27.173  1.00  0.00    -0.366 N 
ATOM     25  H   UNL A   1      28.832  23.365  28.073  1.00  0.00     0.159 HD
ATOM     26  H   UNL A   1      28.477  23.981  26.523  1.00  0.00     0.159 HD
ATOM     27  O   UNL A   1      31.263  23.102  27.638  1.00  0.00    -0.269 OA
ENDBRANCH  18  23
ENDBRANCH  14  17
ENDBRANCH   8  13
ENDBRANCH   4   7
ENDBRANCH   2   3
ENDBRANCH   1   2
BRANCH   1  28
ATOM     28  C   UNL A   1      33.077  28.310  26.110  1.00  0.00     0.023 C 
BRANCH  28  29
ATOM     29  C   UNL A   1      33.292  28.625  27.575  1.00  0.00     0.116 C 
BRANCH  29  30
ATOM     30  N   UNL A   1      33.405  30.055  27.853  1.00  0.00    -0.352 N 
ATOM     31  C   UNL A   1      34.484  30.791  28.302  1.00  0.00     0.251 C 
ATOM     32  H   UNL A   1      32.585  30.576  27.697  1.00  0.00     0.163 HD
ATOM     33  O   UNL A   1      34.342  31.964  28.608  1.00  0.00    -0.269 OA
BRANCH  31  34
ATOM     34  C   UNL A   1      35.801  30.126  28.438  1.00  0.00     0.039 A 
ATOM     35  C   UNL A   1      36.656  30.057  27.337  1.00  0.00     0.014 A 
ATOM     36  C   UNL A   1      36.219  29.647  29.677  1.00  0.00     0.014 A 
ATOM     37  C   UNL A   1      37.970  29.613  27.515  1.00  0.00     0.010 A 
ATOM     38  C   UNL A   1      37.559  29.359  29.881  1.00  0.00     0.010 A 
ATOM     39  C   UNL A   1      38.453  29.325  28.803  1.00  0.00    -0.014 A 
BRANCH  39  40
ATOM     40  C   UNL A   1      39.875  28.976  29.065  1.00  0.00     0.031 A 
ATOM     41  C   UNL A   1      40.819  30.038  29.576  1.00  0.00     0.074 A 
ATOM     42  C   UNL A   1      40.347  27.756  28.731  1.00  0.00     0.049 A 
ATOM     43  N   UNL A   1      42.120  29.999  29.698  1.00  0.00    -0.248 NA
ATOM     44  C   UNL A   1      40.228  31.340  29.937  1.00  0.00     0.031 C 
ATOM     45  C   UNL A   1      39.562  26.670  28.134  1.00  0.00     0.029 A 
ATOM     46  N   UNL A   1      41.611  27.227  28.826  1.00  0.00    -0.354 N 
ATOM     47  C   UNL A   1      42.502  31.279  30.087  1.00  0.00     0.074 A 
ATOM     48  C   UNL A   1      41.305  32.087  30.127  1.00  0.00     0.031 C 
ATOM     49  C   UNL A   1      40.354  25.602  27.945  1.00  0.00     0.029 A 
ATOM     50  C   UNL A   1      41.709  25.934  28.365  1.00  0.00     0.049 A 
ATOM     51  H   UNL A   1      42.377  27.728  29.190  1.00  0.00     0.167 HD
ATOM     52  C   UNL A   1      43.734  31.732  30.413  1.00  0.00     0.037 A 
ATOM     53  C   UNL A   1      42.775  25.114  28.283  1.00  0.00     0.037 A 
ATOM     54  C   UNL A   1      44.900  30.895  30.477  1.00  0.00     0.049 A 
ATOM     55  C   UNL A   1      44.114  25.610  28.760  1.00  0.00     0.074 A 
ATOM     56  C   UNL A   1      46.167  31.220  30.926  1.00  0.00     0.029 A 
ATOM     57  N   UNL A   1      44.935  29.561  30.103  1.00  0.00    -0.354 N 
ATOM     58  N   UNL A   1      44.438  26.799  29.211  1.00  0.00    -0.248 NA
ATOM     59  C   UNL A   1      45.230  24.654  28.730  1.00  0.00     0.031 C 
ATOM     60  C   UNL A   1      46.978  30.088  30.796  1.00  0.00     0.029 A 
ATOM     61  C   UNL A   1      46.205  29.050  30.302  1.00  0.00     0.049 A 
ATOM     62  H   UNL A   1      44.170  29.052  29.748  1.00  0.00     0.167 HD
ATOM     63  C   UNL A   1      45.787  26.726  29.539  1.00  0.00     0.074 A 
ATOM     64  C   UNL A   1      46.214  25.372  29.252  1.00  0.00     0.031 C 
ATOM     65  C   UNL A   1      46.600  27.692  30.031  1.00  0.00     0.037 A 
BRANCH  52  66
ATOM     66  C   UNL A   1      43.884  33.187  30.764  1.00  0.00     0.058 A 
ATOM     67  C   UNL A   1      44.211  34.151  29.797  1.00  0.00     0.135 A 
ATOM     68  C   UNL A   1      43.638  33.630  32.074  1.00  0.00     0.135 A 
ATOM     69  F   UNL A   1      44.473  33.780  28.534  1.00  0.00    -0.206 F 
ATOM     70  C   UNL A   1      44.309  35.500  30.120  1.00  0.00     0.059 A 
ATOM     71  C   UNL A   1      43.704  34.979  32.413  1.00  0.00     0.059 A 
ATOM     72  F   UNL A   1      43.325  32.751  33.039  1.00  0.00    -0.206 F 
ATOM     73  C   UNL A   1      44.050  35.905  31.431  1.00  0.00     0.060 A 
BRANCH  73  74
ATOM     74  S   UNL A   1      44.144  37.665  31.822  1.00  0.00     0.124 S 
ATOM     75  O   UNL A   1      45.582  37.846  31.996  1.00  0.00    -0.237 OA
ATOM     76  O   UNL A   1      43.567  38.282  30.632  1.00  0.00    -0.237 OA
ATOM     77  O   UNL A   1      43.345  37.786  33.038  1.00  0.00    -0.744 OA
ENDBRANCH  73  74
ENDBRANCH  52  66
BRANCH  53  78
ATOM     78  C   UNL A   1      42.623  23.732  27.750  1.00  0.00     0.058 A 
ATOM     79  C   UNL A   1      42.551  23.496  26.368  1.00  0.00     0.135 A 
ATOM     80  C   UNL A   1      42.530  22.624  28.605  1.00  0.00     0.135 A 
ATOM     81  F   UNL A   1      42.631  24.522  25.508  1.00  0.00    -0.206 F 
ATOM     82  C   UNL A   1      42.359  22.218  25.854  1.00  0.00     0.059 A 
ATOM     83  C   UNL A   1      42.365  21.332  28.116  1.00  0.00     0.059 A 
ATOM     84  F   UNL A   1      42.614  22.792  29.935  1.00  0.00    -0.206 F 
ATOM     85  C   UNL A   1      42.262  21.141  26.737  1.00  0.00     0.060 A 
BRANCH  85  86
ATOM     86  S   UNL A   1      42.026  19.483  26.062  1.00  0.00     0.124 S 
ATOM     87  O   UNL A   1      42.466  18.648  27.175  1.00  0.00    -0.237 OA
ATOM     88  O   UNL A   1      40.594  19.463  25.778  1.00  0.00    -0.237 OA
ATOM     89  O   UNL A   1      42.890  19.474  24.885  1.00  0.00    -0.744 OA
ENDBRANCH  85  86
ENDBRANCH  53  78
BRANCH  65  90
ATOM     90  C   UNL A   1      48.022  27.314  30.330  1.00  0.00     0.058 A 
ATOM     91  C   UNL A   1      49.067  27.623  29.447  1.00  0.00     0.135 A 
ATOM     92  C   UNL A   1      48.349  26.696  31.548  1.00  0.00     0.135 A 
ATOM     93  F   UNL A   1      48.803  28.211  28.268  1.00  0.00    -0.206 F 
ATOM     94  C   UNL A   1      50.387  27.316  29.750  1.00  0.00     0.059 A 
ATOM     95  C   UNL A   1      49.666  26.401  31.883  1.00  0.00     0.059 A 
ATOM     96  F   UNL A   1      47.386  26.391  32.432  1.00  0.00    -0.206 F 
ATOM     97  C   UNL A   1      50.677  26.706  30.973  1.00  0.00     0.060 A 
BRANCH  97  98
ATOM     98  S   UNL A   1      52.400  26.350  31.377  1.00  0.00     0.124 S 
ATOM     99  O   UNL A   1      52.906  25.864  30.098  1.00  0.00    -0.237 OA
ATOM    100  O   UNL A   1      52.899  27.654  31.802  1.00  0.00    -0.237 OA
ATOM    101  O   UNL A   1      52.300  25.348  32.434  1.00  0.00    -0.744 OA
ENDBRANCH  97  98
ENDBRANCH  65  90
ENDBRANCH  39  40
ENDBRANCH  31  34
ENDBRANCH  29  30
ENDBRANCH  28  29
ENDBRANCH   1  28
TORSDOF 17
ENDMDL
MODEL 2
REMARK VINA RESULT:     -11.6      1.222      3.088
REMARK SMILES NC(=O)c1ccccc1NC(=O)[C@@H]1CC=CC[C@@H]1C(=O)NCCCCNC(=O)c1ccc(-c2c3nc(c(-c4c(F)cc(S(=O)(=O)[O-])cc4F)c4ccc([nH]4)c(-c4c(F)cc(S(=O)(=O)[O-])cc4F)c4nc(c(-c5c(F)cc(S(=O)(=O)[O-])cc5F)c5ccc2[nH]5)C=C4)C=C3)cc1
REMARK SMILES IDX 23 1 22 2 21 3 19 4 20 5 18 7 13 8 14 9 15 10 17 11 16 12
REMARK SMILES IDX 11 13 10 14 12 16 9 17 4 18 5 19 6 20 8 21 7 22 2 23 1 24
REMARK SMILES IDX 3 27 24 28 25 29 26 30 27 31 28 33 29 34 30 35 94 36 31 37
REMARK SMILES IDX 93 38 32 39 33 40 34 41 87 42 35 43 92 44 86 45 88 46 36 47
REMARK SMILES IDX 91 48 85 49 84 50 37 52 71 53 50 54 70 55 51 56 54 57 69 58
REMARK SMILES IDX 89 59 52 60 53 61 68 63 90 64 55 65 38 66 39 67 48 68 40 69
REMARK SMILES IDX 41 70 47 71 49 72 42 73 43 74 44 75 45 76 46 77 72 78 73 79
REMARK SMILES IDX 82 80 74 81 75 82 81 83 83 84 76 85 77 86 78 87 79 88 80 89
REMARK SMILES IDX 56 90 57 91 66 92 58 93 59 94 65 95 67 96 60 97 61 98 62 99
REMARK SMILES IDX 63 100 64 101
REMARK H PARENT 21 6 10 15 1 25 1 26 26 32 88 51 54 62
REMARK Flexibility Score: inf
ROOT
ATOM      1  C   UNL A   1      33.202  28.376  24.997  1.00  0.00     0.023 C 
ENDROOT
BRANCH   1   2
ATOM      2  C   UNL A   1      33.491  27.434  23.832  1.00  0.00     0.116 C 
BRANCH   2   3
ATOM      3  N   UNL A   1      32.280  26.686  23.546  1.00  0.00    -0.356 N 
ATOM      4  C   UNL A   1      31.945  25.405  23.872  1.00  0.00     0.224 C 
ATOM      5  O   UNL A   1      31.074  24.867  23.186  1.00  0.00    -0.275 OA
ATOM      6  H   UNL A   1      31.597  27.179  23.038  1.00  0.00     0.163 HD
BRANCH   4   7
ATOM      7  C   UNL A   1      32.523  24.729  25.122  1.00  0.00     0.095 C 
ATOM      8  C   UNL A   1      32.872  23.217  25.116  1.00  0.00     0.095 C 
ATOM      9  C   UNL A   1      31.849  22.201  25.660  1.00  0.00     0.041 C 
ATOM     10  C   UNL A   1      30.587  22.796  26.198  1.00  0.00    -0.030 C 
ATOM     11  C   UNL A   1      31.594  25.068  26.311  1.00  0.00     0.041 C 
ATOM     12  C   UNL A   1      30.466  24.094  26.493  1.00  0.00    -0.030 C 
BRANCH   8  13
ATOM     13  C   UNL A   1      33.645  22.694  23.922  1.00  0.00     0.228 C 
ATOM     14  N   UNL A   1      34.982  22.534  23.795  1.00  0.00    -0.325 N 
ATOM     15  H   UNL A   1      35.212  22.257  22.879  1.00  0.00     0.169 HD
ATOM     16  O   UNL A   1      32.988  22.352  22.923  1.00  0.00    -0.274 OA
BRANCH  14  17
ATOM     17  C   UNL A   1      36.147  22.649  24.587  1.00  0.00     0.053 A 
ATOM     18  C   UNL A   1      36.791  21.473  25.050  1.00  0.00     0.063 A 
ATOM     19  C   UNL A   1      37.964  21.553  25.823  1.00  0.00     0.016 A 
ATOM     20  C   UNL A   1      38.495  22.789  26.173  1.00  0.00     0.001 A 
ATOM     21  C   UNL A   1      36.662  23.867  25.025  1.00  0.00     0.027 A 
ATOM     22  C   UNL A   1      37.825  23.943  25.797  1.00  0.00     0.002 A 
BRANCH  18  23
ATOM     23  C   UNL A   1      36.191  20.113  24.962  1.00  0.00     0.250 C 
ATOM     24  N   UNL A   1      37.017  19.026  24.947  1.00  0.00    -0.366 N 
ATOM     25  H   UNL A   1      36.636  18.119  24.889  1.00  0.00     0.159 HD
ATOM     26  H   UNL A   1      37.992  19.147  24.993  1.00  0.00     0.159 HD
ATOM     27  O   UNL A   1      34.976  19.967  24.897  1.00  0.00    -0.269 OA
ENDBRANCH  18  23
ENDBRANCH  14  17
ENDBRANCH   8  13
ENDBRANCH   4   7
ENDBRANCH   2   3
ENDBRANCH   1   2
BRANCH   1  28
ATOM     28  C   UNL A   1      34.000  28.145  26.262  1.00  0.00     0.023 C 
BRANCH  28  29
ATOM     29  C   UNL A   1      33.289  28.624  27.510  1.00  0.00     0.116 C 
BRANCH  29  30
ATOM     30  N   UNL A   1      33.430  30.059  27.748  1.00  0.00    -0.352 N 
ATOM     31  C   UNL A   1      34.527  30.788  28.160  1.00  0.00     0.251 C 
ATOM     32  H   UNL A   1      32.616  30.589  27.590  1.00  0.00     0.163 HD
ATOM     33  O   UNL A   1      34.409  31.972  28.436  1.00  0.00    -0.269 OA
BRANCH  31  34
ATOM     34  C   UNL A   1      35.836  30.106  28.294  1.00  0.00     0.039 A 
ATOM     35  C   UNL A   1      36.727  30.105  27.220  1.00  0.00     0.014 A 
ATOM     36  C   UNL A   1      36.210  29.542  29.511  1.00  0.00     0.014 A 
ATOM     37  C   UNL A   1      38.031  29.640  27.411  1.00  0.00     0.010 A 
ATOM     38  C   UNL A   1      37.540  29.231  29.739  1.00  0.00     0.010 A 
ATOM     39  C   UNL A   1      38.470  29.263  28.691  1.00  0.00    -0.014 A 
BRANCH  39  40
ATOM     40  C   UNL A   1      39.881  28.886  28.976  1.00  0.00     0.031 A 
ATOM     41  C   UNL A   1      40.831  29.924  29.522  1.00  0.00     0.074 A 
ATOM     42  C   UNL A   1      40.339  27.663  28.632  1.00  0.00     0.049 A 
ATOM     43  N   UNL A   1      42.129  29.862  29.669  1.00  0.00    -0.248 NA
ATOM     44  C   UNL A   1      40.254  31.230  29.891  1.00  0.00     0.031 C 
ATOM     45  C   UNL A   1      39.548  26.600  28.003  1.00  0.00     0.029 A 
ATOM     46  N   UNL A   1      41.591  27.113  28.744  1.00  0.00    -0.354 N 
ATOM     47  C   UNL A   1      42.523  31.129  30.085  1.00  0.00     0.074 A 
ATOM     48  C   UNL A   1      41.339  31.956  30.115  1.00  0.00     0.031 C 
ATOM     49  C   UNL A   1      40.326  25.522  27.813  1.00  0.00     0.029 A 
ATOM     50  C   UNL A   1      41.678  25.825  28.265  1.00  0.00     0.049 A 
ATOM     51  H   UNL A   1      42.358  27.595  29.131  1.00  0.00     0.167 HD
ATOM     52  C   UNL A   1      43.756  31.557  30.443  1.00  0.00     0.037 A 
ATOM     53  C   UNL A   1      42.732  24.988  28.190  1.00  0.00     0.037 A 
ATOM     54  C   UNL A   1      44.907  30.699  30.516  1.00  0.00     0.049 A 
ATOM     55  C   UNL A   1      44.069  25.455  28.702  1.00  0.00     0.074 A 
ATOM     56  C   UNL A   1      46.170  30.996  30.996  1.00  0.00     0.029 A 
ATOM     57  N   UNL A   1      44.927  29.371  30.122  1.00  0.00    -0.354 N 
ATOM     58  N   UNL A   1      44.404  26.631  29.178  1.00  0.00    -0.248 NA
ATOM     59  C   UNL A   1      45.170  24.482  28.679  1.00  0.00     0.031 C 
ATOM     60  C   UNL A   1      46.964  29.854  30.864  1.00  0.00     0.029 A 
ATOM     61  C   UNL A   1      46.185  28.836  30.339  1.00  0.00     0.049 A 
ATOM     62  H   UNL A   1      44.161  28.880  29.744  1.00  0.00     0.167 HD
ATOM     63  C   UNL A   1      45.744  26.531  29.531  1.00  0.00     0.074 A 
ATOM     64  C   UNL A   1      46.155  25.175  29.231  1.00  0.00     0.031 C 
ATOM     65  C   UNL A   1      46.563  27.476  30.054  1.00  0.00     0.037 A 
BRANCH  52  66
ATOM     66  C   UNL A   1      43.922  33.003  30.819  1.00  0.00     0.058 A 
ATOM     67  C   UNL A   1      43.777  33.444  32.144  1.00  0.00     0.135 A 
ATOM     68  C   UNL A   1      44.291  33.951  29.850  1.00  0.00     0.135 A 
ATOM     69  F   UNL A   1      43.408  32.584  33.106  1.00  0.00    -0.206 F 
ATOM     70  C   UNL A   1      43.970  34.776  32.492  1.00  0.00     0.059 A 
ATOM     71  C   UNL A   1      44.517  35.284  30.182  1.00  0.00     0.059 A 
ATOM     72  F   UNL A   1      44.440  33.585  28.567  1.00  0.00    -0.206 F 
ATOM     73  C   UNL A   1      44.344  35.689  31.504  1.00  0.00     0.060 A 
BRANCH  73  74
ATOM     74  S   UNL A   1      44.630  37.406  31.982  1.00  0.00     0.124 S 
ATOM     75  O   UNL A   1      46.027  37.585  31.598  1.00  0.00    -0.237 OA
ATOM     76  O   UNL A   1      43.653  38.124  31.168  1.00  0.00    -0.237 OA
ATOM     77  O   UNL A   1      44.367  37.408  33.417  1.00  0.00    -0.744 OA
ENDBRANCH  73  74
ENDBRANCH  52  66
BRANCH  53  78
ATOM     78  C   UNL A   1      42.568  23.618  27.633  1.00  0.00     0.058 A 
ATOM     79  C   UNL A   1      42.401  22.511  28.478  1.00  0.00     0.135 A 
ATOM     80  C   UNL A   1      42.592  23.383  26.250  1.00  0.00     0.135 A 
ATOM     81  F   UNL A   1      42.374  22.682  29.809  1.00  0.00    -0.206 F 
ATOM     82  C   UNL A   1      42.295  21.218  27.977  1.00  0.00     0.059 A 
ATOM     83  C   UNL A   1      42.463  22.102  25.722  1.00  0.00     0.059 A 
ATOM     84  F   UNL A   1      42.729  24.410  25.396  1.00  0.00    -0.206 F 
ATOM     85  C   UNL A   1      42.333  21.022  26.595  1.00  0.00     0.060 A 
BRANCH  85  86
ATOM     86  S   UNL A   1      42.182  19.342  25.951  1.00  0.00     0.124 S 
ATOM     87  O   UNL A   1      43.016  19.410  24.756  1.00  0.00    -0.237 OA
ATOM     88  O   UNL A   1      42.709  18.539  27.051  1.00  0.00    -0.237 OA
ATOM     89  O   UNL A   1      40.749  19.201  25.714  1.00  0.00    -0.744 OA
ENDBRANCH  85  86
ENDBRANCH  53  78
BRANCH  65  90
ATOM     90  C   UNL A   1      47.972  27.070  30.375  1.00  0.00     0.058 A 
ATOM     91  C   UNL A   1      49.039  27.376  29.518  1.00  0.00     0.135 A 
ATOM     92  C   UNL A   1      48.264  26.427  31.589  1.00  0.00     0.135 A 
ATOM     93  F   UNL A   1      48.809  27.988  28.344  1.00  0.00    -0.206 F 
ATOM     94  C   UNL A   1      50.348  27.042  29.843  1.00  0.00     0.059 A 
ATOM     95  C   UNL A   1      49.570  26.105  31.945  1.00  0.00     0.059 A 
ATOM     96  F   UNL A   1      47.279  26.123  32.448  1.00  0.00    -0.206 F 
ATOM     97  C   UNL A   1      50.603  26.408  31.061  1.00  0.00     0.060 A 
BRANCH  97  98
ATOM     98  S   UNL A   1      52.312  26.017  31.493  1.00  0.00     0.124 S 
ATOM     99  O   UNL A   1      52.660  27.140  32.356  1.00  0.00    -0.237 OA
ATOM    100  O   UNL A   1      52.179  24.724  32.158  1.00  0.00    -0.237 OA
ATOM    101  O   UNL A   1      52.990  25.984  30.201  1.00  0.00    -0.744 OA
ENDBRANCH  97  98
ENDBRANCH  65  90
ENDBRANCH  39  40
ENDBRANCH  31  34
ENDBRANCH  29  30
ENDBRANCH  28  29
ENDBRANCH   1  28
TORSDOF 17
ENDMDL
MODEL 3
REMARK VINA RESULT:     -11.6      4.922     10.257
REMARK SMILES NC(=O)c1ccccc1NC(=O)[C@@H]1CC=CC[C@@H]1C(=O)NCCCCNC(=O)c1ccc(-c2c3nc(c(-c4c(F)cc(S(=O)(=O)[O-])cc4F)c4ccc([nH]4)c(-c4c(F)cc(S(=O)(=O)[O-])cc4F)c4nc(c(-c5c(F)cc(S(=O)(=O)[O-])cc5F)c5ccc2[nH]5)C=C4)C=C3)cc1
REMARK SMILES IDX 23 1 22 2 21 3 19 4 20 5 18 7 13 8 14 9 15 10 17 11 16 12
REMARK SMILES IDX 11 13 10 14 12 16 9 17 4 18 5 19 6 20 8 21 7 22 2 23 1 24
REMARK SMILES IDX 3 27 24 28 25 29 26 30 27 31 28 33 29 34 30 35 94 36 31 37
REMARK SMILES IDX 93 38 32 39 33 40 34 41 87 42 35 43 92 44 86 45 88 46 36 47
REMARK SMILES IDX 91 48 85 49 84 50 37 52 71 53 50 54 70 55 51 56 54 57 69 58
REMARK SMILES IDX 89 59 52 60 53 61 68 63 90 64 55 65 38 66 39 67 48 68 40 69
REMARK SMILES IDX 41 70 47 71 49 72 42 73 43 74 44 75 45 76 46 77 72 78 73 79
REMARK SMILES IDX 82 80 74 81 75 82 81 83 83 84 76 85 77 86 78 87 79 88 80 89
REMARK SMILES IDX 56 90 57 91 66 92 58 93 59 94 65 95 67 96 60 97 61 98 62 99
REMARK SMILES IDX 63 100 64 101
REMARK H PARENT 21 6 10 15 1 25 1 26 26 32 88 51 54 62
REMARK Flexibility Score: inf
ROOT
ATOM      1  C   UNL A   1      37.572  22.667  25.056  1.00  0.00     0.023 C 
ENDROOT
BRANCH   1   2
ATOM      2  C   UNL A   1      36.631  23.051  23.917  1.00  0.00     0.116 C 
BRANCH   2   3
ATOM      3  N   UNL A   1      35.696  24.041  24.419  1.00  0.00    -0.356 N 
ATOM      4  C   UNL A   1      34.364  23.928  24.690  1.00  0.00     0.224 C 
ATOM      5  O   UNL A   1      33.709  24.972  24.706  1.00  0.00    -0.275 OA
ATOM      6  H   UNL A   1      36.081  24.930  24.589  1.00  0.00     0.163 HD
BRANCH   4   7
ATOM      7  C   UNL A   1      33.750  22.582  25.099  1.00  0.00     0.095 C 
ATOM      8  C   UNL A   1      32.316  22.196  24.652  1.00  0.00     0.095 C 
ATOM      9  C   UNL A   1      31.132  22.448  25.603  1.00  0.00     0.041 C 
ATOM     10  C   UNL A   1      31.497  23.028  26.933  1.00  0.00    -0.030 C 
ATOM     11  C   UNL A   1      33.897  22.446  26.633  1.00  0.00     0.041 C 
ATOM     12  C   UNL A   1      32.749  23.029  27.403  1.00  0.00    -0.030 C 
BRANCH   8  13
ATOM     13  C   UNL A   1      31.963  22.429  23.197  1.00  0.00     0.228 C 
ATOM     14  N   UNL A   1      31.405  23.526  22.635  1.00  0.00    -0.325 N 
ATOM     15  H   UNL A   1      31.210  23.367  21.684  1.00  0.00     0.169 HD
ATOM     16  O   UNL A   1      32.219  21.513  22.394  1.00  0.00    -0.274 OA
BRANCH  14  17
ATOM     17  C   UNL A   1      31.019  24.833  23.010  1.00  0.00     0.053 A 
ATOM     18  C   UNL A   1      31.489  25.940  22.258  1.00  0.00     0.063 A 
ATOM     19  C   UNL A   1      31.106  27.251  22.593  1.00  0.00     0.016 A 
ATOM     20  C   UNL A   1      30.285  27.488  23.689  1.00  0.00     0.001 A 
ATOM     21  C   UNL A   1      30.266  25.115  24.148  1.00  0.00     0.027 A 
ATOM     22  C   UNL A   1      29.891  26.420  24.481  1.00  0.00     0.002 A 
BRANCH  18  23
ATOM     23  C   UNL A   1      32.563  25.844  21.231  1.00  0.00     0.250 C 
ATOM     24  N   UNL A   1      32.214  25.623  19.928  1.00  0.00    -0.366 N 
ATOM     25  H   UNL A   1      32.912  25.557  19.237  1.00  0.00     0.159 HD
ATOM     26  H   UNL A   1      31.267  25.530  19.681  1.00  0.00     0.159 HD
ATOM     27  O   UNL A   1      33.742  25.954  21.544  1.00  0.00    -0.269 OA
ENDBRANCH  18  23
ENDBRANCH  14  17
ENDBRANCH   8  13
ENDBRANCH   4   7
ENDBRANCH   2   3
ENDBRANCH   1   2
BRANCH   1  28
ATOM     28  C   UNL A   1      37.981  23.783  25.994  1.00  0.00     0.023 C 
BRANCH  28  29
ATOM     29  C   UNL A   1      39.167  23.426  26.863  1.00  0.00     0.116 C 
BRANCH  29  30
ATOM     30  N   UNL A   1      40.456  23.726  26.242  1.00  0.00    -0.352 N 
ATOM     31  C   UNL A   1      41.245  24.855  26.333  1.00  0.00     0.251 C 
ATOM     32  H   UNL A   1      40.818  23.012  25.670  1.00  0.00     0.163 HD
ATOM     33  O   UNL A   1      42.232  24.972  25.624  1.00  0.00    -0.269 OA
BRANCH  31  34
ATOM     34  C   UNL A   1      40.856  25.931  27.275  1.00  0.00     0.039 A 
ATOM     35  C   UNL A   1      39.992  25.643  28.333  1.00  0.00     0.014 A 
ATOM     36  C   UNL A   1      41.413  27.201  27.155  1.00  0.00     0.014 A 
ATOM     37  C   UNL A   1      39.786  26.601  29.330  1.00  0.00     0.010 A 
ATOM     38  C   UNL A   1      41.333  28.085  28.219  1.00  0.00     0.010 A 
ATOM     39  C   UNL A   1      40.509  27.805  29.318  1.00  0.00    -0.014 A 
BRANCH  39  40
ATOM     40  C   UNL A   1      40.427  28.801  30.421  1.00  0.00     0.031 A 
ATOM     41  C   UNL A   1      41.302  28.633  31.639  1.00  0.00     0.074 A 
ATOM     42  C   UNL A   1      39.490  29.772  30.389  1.00  0.00     0.049 A 
ATOM     43  N   UNL A   1      41.264  29.271  32.780  1.00  0.00    -0.248 NA
ATOM     44  C   UNL A   1      42.314  27.561  31.594  1.00  0.00     0.031 C 
ATOM     45  C   UNL A   1      38.514  29.984  29.315  1.00  0.00     0.029 A 
ATOM     46  N   UNL A   1      39.191  30.757  31.298  1.00  0.00    -0.354 N 
ATOM     47  C   UNL A   1      42.195  28.640  33.598  1.00  0.00     0.074 A 
ATOM     48  C   UNL A   1      42.744  27.535  32.846  1.00  0.00     0.031 C 
ATOM     49  C   UNL A   1      37.747  31.045  29.615  1.00  0.00     0.029 A 
ATOM     50  C   UNL A   1      38.144  31.566  30.917  1.00  0.00     0.049 A 
ATOM     51  H   UNL A   1      39.679  30.873  32.145  1.00  0.00     0.167 HD
ATOM     52  C   UNL A   1      42.583  28.971  34.851  1.00  0.00     0.037 A 
ATOM     53  C   UNL A   1      37.565  32.605  31.551  1.00  0.00     0.037 A 
ATOM     54  C   UNL A   1      42.112  30.136  35.549  1.00  0.00     0.049 A 
ATOM     55  C   UNL A   1      38.095  33.021  32.897  1.00  0.00     0.074 A 
ATOM     56  C   UNL A   1      42.540  30.640  36.764  1.00  0.00     0.029 A 
ATOM     57  N   UNL A   1      41.127  30.991  35.082  1.00  0.00    -0.354 N 
ATOM     58  N   UNL A   1      39.040  32.465  33.618  1.00  0.00    -0.248 NA
ATOM     59  C   UNL A   1      37.489  34.210  33.515  1.00  0.00     0.031 C 
ATOM     60  C   UNL A   1      41.791  31.786  37.047  1.00  0.00     0.029 A 
ATOM     61  C   UNL A   1      40.925  32.016  35.990  1.00  0.00     0.049 A 
ATOM     62  H   UNL A   1      40.642  30.886  34.231  1.00  0.00     0.167 HD
ATOM     63  C   UNL A   1      39.158  33.250  34.760  1.00  0.00     0.074 A 
ATOM     64  C   UNL A   1      38.201  34.328  34.627  1.00  0.00     0.031 C 
ATOM     65  C   UNL A   1      39.982  33.091  35.824  1.00  0.00     0.037 A 
BRANCH  52  66
ATOM     66  C   UNL A   1      43.590  28.090  35.537  1.00  0.00     0.058 A 
ATOM     67  C   UNL A   1      43.199  27.041  36.384  1.00  0.00     0.135 A 
ATOM     68  C   UNL A   1      44.964  28.261  35.297  1.00  0.00     0.135 A 
ATOM     69  F   UNL A   1      41.901  26.843  36.662  1.00  0.00    -0.206 F 
ATOM     70  C   UNL A   1      44.134  26.204  36.984  1.00  0.00     0.059 A 
ATOM     71  C   UNL A   1      45.915  27.418  35.865  1.00  0.00     0.059 A 
ATOM     72  F   UNL A   1      45.392  29.251  34.499  1.00  0.00    -0.206 F 
ATOM     73  C   UNL A   1      45.490  26.399  36.716  1.00  0.00     0.060 A 
BRANCH  73  74
ATOM     74  S   UNL A   1      46.687  25.280  37.473  1.00  0.00     0.124 S 
ATOM     75  O   UNL A   1      47.486  24.885  36.317  1.00  0.00    -0.237 OA
ATOM     76  O   UNL A   1      47.356  26.144  38.441  1.00  0.00    -0.237 OA
ATOM     77  O   UNL A   1      45.853  24.229  38.048  1.00  0.00    -0.744 OA
ENDBRANCH  73  74
ENDBRANCH  52  66
BRANCH  53  78
ATOM     78  C   UNL A   1      36.437  33.340  30.918  1.00  0.00     0.058 A 
ATOM     79  C   UNL A   1      36.651  34.171  29.807  1.00  0.00     0.135 A 
ATOM     80  C   UNL A   1      35.129  33.243  31.416  1.00  0.00     0.135 A 
ATOM     81  F   UNL A   1      37.884  34.300  29.295  1.00  0.00    -0.206 F 
ATOM     82  C   UNL A   1      35.618  34.904  29.233  1.00  0.00     0.059 A 
ATOM     83  C   UNL A   1      34.073  33.946  30.843  1.00  0.00     0.059 A 
ATOM     84  F   UNL A   1      34.866  32.446  32.464  1.00  0.00    -0.206 F 
ATOM     85  C   UNL A   1      34.331  34.789  29.762  1.00  0.00     0.060 A 
BRANCH  85  86
ATOM     86  S   UNL A   1      32.992  35.734  29.003  1.00  0.00     0.124 S 
ATOM     87  O   UNL A   1      32.354  34.721  28.169  1.00  0.00    -0.237 OA
ATOM     88  O   UNL A   1      32.227  36.177  30.165  1.00  0.00    -0.237 OA
ATOM     89  O   UNL A   1      33.695  36.793  28.285  1.00  0.00    -0.744 OA
ENDBRANCH  85  86
ENDBRANCH  53  78
BRANCH  65  90
ATOM     90  C   UNL A   1      39.918  34.126  36.910  1.00  0.00     0.058 A 
ATOM     91  C   UNL A   1      39.081  33.971  38.025  1.00  0.00     0.135 A 
ATOM     92  C   UNL A   1      40.755  35.253  36.864  1.00  0.00     0.135 A 
ATOM     93  F   UNL A   1      38.260  32.911  38.111  1.00  0.00    -0.206 F 
ATOM     94  C   UNL A   1      39.061  34.907  39.052  1.00  0.00     0.059 A 
ATOM     95  C   UNL A   1      40.769  36.190  37.892  1.00  0.00     0.059 A 
ATOM     96  F   UNL A   1      41.582  35.440  35.824  1.00  0.00    -0.206 F 
ATOM     97  C   UNL A   1      39.912  36.013  38.977  1.00  0.00     0.060 A 
BRANCH  97  98
ATOM     98  S   UNL A   1      39.909  37.201  40.336  1.00  0.00     0.124 S 
ATOM     99  O   UNL A   1      38.826  36.691  41.169  1.00  0.00    -0.237 OA
ATOM    100  O   UNL A   1      41.254  37.053  40.884  1.00  0.00    -0.237 OA
ATOM    101  O   UNL A   1      39.646  38.475  39.673  1.00  0.00    -0.744 OA
ENDBRANCH  97  98
ENDBRANCH  65  90
ENDBRANCH  39  40
ENDBRANCH  31  34
ENDBRANCH  29  30
ENDBRANCH  28  29
ENDBRANCH   1  28
TORSDOF 17
ENDMDL
