MODEL 1
REMARK VINA RESULT:     -11.8      0.000      0.000
REMARK SMILES C[C@@H]1CCC[N@@H+]([C@@H]2CCC[C@]([NH3+])(C(=O)NCCCCNC(=O)c3ccc(-c4c5nc(c(-c6c(F)cc(S(=O)(=O)[O-])cc6F)c6ccc([nH]6)c(-c6c(F)cc(S(=O)(=O)[O-])cc6F)c6nc(c(-c7c(F)cc(S(=O)(=O)[O-])cc7F)c7ccc4[nH]7)C=C6)C=C5)cc3)C2)C1
REMARK SMILES IDX 18 1 17 2 16 3 15 4 13 5 14 6 11 8 7 9 8 10 89 11 9 12 10 13
REMARK SMILES IDX 6 14 1 15 2 16 3 17 90 18 4 19 5 20 12 22 19 26 20 27 21 28
REMARK SMILES IDX 22 30 23 31 24 32 88 33 25 34 87 35 26 36 27 37 28 38 81 39
REMARK SMILES IDX 29 40 86 41 80 42 82 43 30 44 85 45 79 46 78 47 31 49 65 50
REMARK SMILES IDX 44 51 64 52 45 53 48 54 63 55 83 56 46 57 47 58 62 60 84 61
REMARK SMILES IDX 49 62 32 63 33 64 42 65 34 66 35 67 41 68 43 69 36 70 37 71
REMARK SMILES IDX 38 72 39 73 40 74 66 75 67 76 76 77 68 78 69 79 75 80 77 81
REMARK SMILES IDX 70 82 71 83 72 84 73 85 74 86 50 87 51 88 60 89 52 90 53 91
REMARK SMILES IDX 59 92 61 93 54 94 55 95 56 96 57 97 58 98
REMARK H PARENT 15 7 6 21 12 23 12 24 12 25 20 29 82 48 48 59
REMARK Flexibility Score: inf
ROOT
ATOM      1  C   UNL A   1      32.186  28.078  27.355  1.00  0.00     0.023 C 
ENDROOT
BRANCH   1   2
ATOM      2  C   UNL A   1      31.430  27.930  26.041  1.00  0.00     0.023 C 
BRANCH   2   3
ATOM      3  C   UNL A   1      31.273  26.495  25.560  1.00  0.00     0.116 C 
BRANCH   3   4
ATOM      4  N   UNL A   1      30.299  25.739  26.334  1.00  0.00    -0.351 N 
ATOM      5  C   UNL A   1      30.190  24.389  26.567  1.00  0.00     0.281 C 
ATOM      6  O   UNL A   1      29.302  24.005  27.330  1.00  0.00    -0.268 OA
ATOM      7  H   UNL A   1      29.602  26.286  26.765  1.00  0.00     0.163 HD
BRANCH   5   8
ATOM      8  C   UNL A   1      31.144  23.398  25.835  1.00  0.00     0.179 C 
ATOM      9  C   UNL A   1      33.572  22.582  25.519  1.00  0.00     0.190 C 
ATOM     10  C   UNL A   1      33.313  22.531  23.996  1.00  0.00     0.065 C 
ATOM     11  C   UNL A   1      32.623  23.562  26.273  1.00  0.00     0.144 C 
ATOM     12  C   UNL A   1      31.862  22.611  23.555  1.00  0.00     0.013 C 
ATOM     13  C   UNL A   1      31.129  23.692  24.320  1.00  0.00     0.079 C 
BRANCH   9  14
ATOM     14  N   UNL A   1      34.998  22.727  25.901  1.00  0.00    -0.332 N 
ATOM     15  C   UNL A   1      37.208  19.717  24.922  1.00  0.00     0.013 C 
ATOM     16  C   UNL A   1      36.373  20.974  24.686  1.00  0.00     0.041 C 
ATOM     17  C   UNL A   1      37.200  22.076  24.015  1.00  0.00     0.015 C 
ATOM     18  C   UNL A   1      35.744  21.467  26.004  1.00  0.00     0.265 C 
ATOM     19  C   UNL A   1      36.432  23.393  23.931  1.00  0.00     0.062 C 
ATOM     20  C   UNL A   1      35.799  23.775  25.269  1.00  0.00     0.262 C 
ATOM     21  H   UNL A   1      34.855  23.092  26.843  1.00  0.00     0.348 HD
ENDBRANCH   9  14
BRANCH   8  22
ATOM     22  N   UNL A   1      30.739  22.016  26.215  1.00  0.00    -0.345 N 
ATOM     23  H   UNL A   1      30.958  21.376  25.452  1.00  0.00     0.345 HD
ATOM     24  H   UNL A   1      29.736  21.994  26.400  1.00  0.00     0.345 HD
ATOM     25  H   UNL A   1      31.246  21.732  27.053  1.00  0.00     0.345 HD
ENDBRANCH   8  22
ENDBRANCH   5   8
ENDBRANCH   3   4
ENDBRANCH   2   3
ENDBRANCH   1   2
BRANCH   1  26
ATOM     26  C   UNL A   1      33.543  28.765  27.248  1.00  0.00     0.116 C 
BRANCH  26  27
ATOM     27  N   UNL A   1      33.543  30.133  27.752  1.00  0.00    -0.352 N 
ATOM     28  C   UNL A   1      34.558  30.820  28.380  1.00  0.00     0.251 C 
ATOM     29  H   UNL A   1      32.704  30.632  27.627  1.00  0.00     0.163 HD
ATOM     30  O   UNL A   1      34.363  31.937  28.837  1.00  0.00    -0.269 OA
BRANCH  28  31
ATOM     31  C   UNL A   1      35.871  30.161  28.529  1.00  0.00     0.039 A 
ATOM     32  C   UNL A   1      36.760  30.181  27.453  1.00  0.00     0.014 A 
ATOM     33  C   UNL A   1      36.247  29.608  29.757  1.00  0.00     0.014 A 
ATOM     34  C   UNL A   1      38.067  29.732  27.639  1.00  0.00     0.010 A 
ATOM     35  C   UNL A   1      37.570  29.230  29.959  1.00  0.00     0.010 A 
ATOM     36  C   UNL A   1      38.496  29.305  28.907  1.00  0.00    -0.014 A 
BRANCH  36  37
ATOM     37  C   UNL A   1      39.921  28.980  29.168  1.00  0.00     0.031 A 
ATOM     38  C   UNL A   1      40.848  30.025  29.722  1.00  0.00     0.074 A 
ATOM     39  C   UNL A   1      40.394  27.765  28.824  1.00  0.00     0.049 A 
ATOM     40  N   UNL A   1      42.133  29.951  29.942  1.00  0.00    -0.248 NA
ATOM     41  C   UNL A   1      40.255  31.334  30.044  1.00  0.00     0.031 C 
ATOM     42  C   UNL A   1      39.605  26.689  28.218  1.00  0.00     0.029 A 
ATOM     43  N   UNL A   1      41.657  27.235  28.918  1.00  0.00    -0.354 N 
ATOM     44  C   UNL A   1      42.509  31.203  30.414  1.00  0.00     0.074 A 
ATOM     45  C   UNL A   1      41.323  32.031  30.404  1.00  0.00     0.031 C 
ATOM     46  C   UNL A   1      40.397  25.624  28.013  1.00  0.00     0.029 A 
ATOM     47  C   UNL A   1      41.754  25.950  28.435  1.00  0.00     0.049 A 
ATOM     48  H   UNL A   1      42.421  27.728  29.295  1.00  0.00     0.167 HD
ATOM     49  C   UNL A   1      43.727  31.615  30.837  1.00  0.00     0.037 A 
ATOM     50  C   UNL A   1      42.818  25.132  28.336  1.00  0.00     0.037 A 
ATOM     51  C   UNL A   1      44.897  30.776  30.870  1.00  0.00     0.049 A 
ATOM     52  C   UNL A   1      44.159  25.611  28.820  1.00  0.00     0.074 A 
ATOM     53  C   UNL A   1      46.157  31.077  31.355  1.00  0.00     0.029 A 
ATOM     54  N   UNL A   1      44.951  29.474  30.396  1.00  0.00    -0.354 N 
ATOM     55  N   UNL A   1      44.479  26.773  29.338  1.00  0.00    -0.248 NA
ATOM     56  C   UNL A   1      45.281  24.670  28.711  1.00  0.00     0.031 C 
ATOM     57  C   UNL A   1      46.986  29.972  31.135  1.00  0.00     0.029 A 
ATOM     58  C   UNL A   1      46.231  28.967  30.553  1.00  0.00     0.049 A 
ATOM     59  H   UNL A   1      44.193  28.983  30.006  1.00  0.00     0.167 HD
ATOM     60  C   UNL A   1      45.836  26.697  29.630  1.00  0.00     0.074 A 
ATOM     61  C   UNL A   1      46.272  25.369  29.248  1.00  0.00     0.031 C 
ATOM     62  C   UNL A   1      46.648  27.643  30.164  1.00  0.00     0.037 A 
BRANCH  49  63
ATOM     63  C   UNL A   1      43.855  33.037  31.309  1.00  0.00     0.058 A 
ATOM     64  C   UNL A   1      43.707  33.379  32.663  1.00  0.00     0.135 A 
ATOM     65  C   UNL A   1      44.165  34.065  30.403  1.00  0.00     0.135 A 
ATOM     66  F   UNL A   1      43.394  32.438  33.567  1.00  0.00    -0.206 F 
ATOM     67  C   UNL A   1      43.836  34.692  33.099  1.00  0.00     0.059 A 
ATOM     68  C   UNL A   1      44.324  35.383  30.822  1.00  0.00     0.059 A 
ATOM     69  F   UNL A   1      44.315  33.793  29.098  1.00  0.00    -0.206 F 
ATOM     70  C   UNL A   1      44.145  35.689  32.170  1.00  0.00     0.060 A 
BRANCH  70  71
ATOM     71  S   UNL A   1      44.317  37.388  32.754  1.00  0.00     0.124 S 
ATOM     72  O   UNL A   1      45.602  37.329  33.443  1.00  0.00    -0.237 OA
ATOM     73  O   UNL A   1      44.300  38.151  31.510  1.00  0.00    -0.237 OA
ATOM     74  O   UNL A   1      43.152  37.572  33.614  1.00  0.00    -0.744 OA
ENDBRANCH  70  71
ENDBRANCH  49  63
BRANCH  50  75
ATOM     75  C   UNL A   1      42.656  23.769  27.765  1.00  0.00     0.058 A 
ATOM     76  C   UNL A   1      42.524  22.650  28.600  1.00  0.00     0.135 A 
ATOM     77  C   UNL A   1      42.608  23.559  26.378  1.00  0.00     0.135 A 
ATOM     78  F   UNL A   1      42.569  22.799  29.932  1.00  0.00    -0.206 F 
ATOM     79  C   UNL A   1      42.365  21.368  28.081  1.00  0.00     0.059 A 
ATOM     80  C   UNL A   1      42.427  22.291  25.836  1.00  0.00     0.059 A 
ATOM     81  F   UNL A   1      42.712  24.601  25.537  1.00  0.00    -0.206 F 
ATOM     82  C   UNL A   1      42.316  21.199  26.697  1.00  0.00     0.060 A 
BRANCH  82  83
ATOM     83  S   UNL A   1      42.053  19.540  26.034  1.00  0.00     0.124 S 
ATOM     84  O   UNL A   1      42.893  19.564  24.843  1.00  0.00    -0.237 OA
ATOM     85  O   UNL A   1      42.521  18.694  27.128  1.00  0.00    -0.237 OA
ATOM     86  O   UNL A   1      40.614  19.501  25.794  1.00  0.00    -0.744 OA
ENDBRANCH  82  83
ENDBRANCH  50  75
BRANCH  62  87
ATOM     87  C   UNL A   1      48.088  27.271  30.380  1.00  0.00     0.058 A 
ATOM     88  C   UNL A   1      49.076  27.586  29.434  1.00  0.00     0.135 A 
ATOM     89  C   UNL A   1      48.492  26.637  31.565  1.00  0.00     0.135 A 
ATOM     90  F   UNL A   1      48.741  28.184  28.279  1.00  0.00    -0.206 F 
ATOM     91  C   UNL A   1      50.413  27.267  29.648  1.00  0.00     0.059 A 
ATOM     92  C   UNL A   1      49.826  26.331  31.811  1.00  0.00     0.059 A 
ATOM     93  F   UNL A   1      47.587  26.323  32.507  1.00  0.00    -0.206 F 
ATOM     94  C   UNL A   1      50.778  26.640  30.842  1.00  0.00     0.060 A 
BRANCH  94  95
ATOM     95  S   UNL A   1      52.521  26.262  31.122  1.00  0.00     0.124 S 
ATOM     96  O   UNL A   1      52.434  25.006  31.862  1.00  0.00    -0.237 OA
ATOM     97  O   UNL A   1      53.043  26.163  29.763  1.00  0.00    -0.237 OA
ATOM     98  O   UNL A   1      52.998  27.410  31.888  1.00  0.00    -0.744 OA
ENDBRANCH  94  95
ENDBRANCH  62  87
ENDBRANCH  36  37
ENDBRANCH  28  31
ENDBRANCH  26  27
ENDBRANCH   1  26
TORSDOF 16
ENDMDL
MODEL 2
REMARK VINA RESULT:     -11.5      0.356      1.614
REMARK SMILES C[C@@H]1CCC[N@@H+]([C@@H]2CCC[C@]([NH3+])(C(=O)NCCCCNC(=O)c3ccc(-c4c5nc(c(-c6c(F)cc(S(=O)(=O)[O-])cc6F)c6ccc([nH]6)c(-c6c(F)cc(S(=O)(=O)[O-])cc6F)c6nc(c(-c7c(F)cc(S(=O)(=O)[O-])cc7F)c7ccc4[nH]7)C=C6)C=C5)cc3)C2)C1
REMARK SMILES IDX 18 1 17 2 16 3 15 4 13 5 14 6 11 8 7 9 8 10 89 11 9 12 10 13
REMARK SMILES IDX 6 14 1 15 2 16 3 17 90 18 4 19 5 20 12 22 19 26 20 27 21 28
REMARK SMILES IDX 22 30 23 31 24 32 88 33 25 34 87 35 26 36 27 37 28 38 81 39
REMARK SMILES IDX 29 40 86 41 80 42 82 43 30 44 85 45 79 46 78 47 31 49 65 50
REMARK SMILES IDX 44 51 64 52 45 53 48 54 63 55 83 56 46 57 47 58 62 60 84 61
REMARK SMILES IDX 49 62 32 63 33 64 42 65 34 66 35 67 41 68 43 69 36 70 37 71
REMARK SMILES IDX 38 72 39 73 40 74 66 75 67 76 76 77 68 78 69 79 75 80 77 81
REMARK SMILES IDX 70 82 71 83 72 84 73 85 74 86 50 87 51 88 60 89 52 90 53 91
REMARK SMILES IDX 59 92 61 93 54 94 55 95 56 96 57 97 58 98
REMARK H PARENT 15 7 6 21 12 23 12 24 12 25 20 29 82 48 48 59
REMARK Flexibility Score: inf
ROOT
ATOM      1  C   UNL A   1      33.354  28.323  25.780  1.00  0.00     0.023 C 
ENDROOT
BRANCH   1   2
ATOM      2  C   UNL A   1      31.928  28.213  25.254  1.00  0.00     0.023 C 
BRANCH   2   3
ATOM      3  C   UNL A   1      31.506  26.805  24.861  1.00  0.00     0.116 C 
BRANCH   3   4
ATOM      4  N   UNL A   1      30.417  26.290  25.679  1.00  0.00    -0.351 N 
ATOM      5  C   UNL A   1      30.154  25.017  26.126  1.00  0.00     0.281 C 
ATOM      6  O   UNL A   1      29.191  24.857  26.876  1.00  0.00    -0.268 OA
ATOM      7  H   UNL A   1      29.759  26.967  25.960  1.00  0.00     0.163 HD
BRANCH   5   8
ATOM      8  C   UNL A   1      31.038  23.829  25.642  1.00  0.00     0.179 C 
ATOM      9  C   UNL A   1      33.395  22.778  25.590  1.00  0.00     0.190 C 
ATOM     10  C   UNL A   1      33.170  22.447  24.097  1.00  0.00     0.065 C 
ATOM     11  C   UNL A   1      32.515  23.960  26.098  1.00  0.00     0.144 C 
ATOM     12  C   UNL A   1      31.742  22.553  23.590  1.00  0.00     0.013 C 
ATOM     13  C   UNL A   1      31.085  23.817  24.099  1.00  0.00     0.079 C 
BRANCH   9  14
ATOM     14  N   UNL A   1      34.819  22.884  25.994  1.00  0.00    -0.332 N 
ATOM     15  C   UNL A   1      36.970  19.836  25.001  1.00  0.00     0.013 C 
ATOM     16  C   UNL A   1      36.169  21.116  24.772  1.00  0.00     0.041 C 
ATOM     17  C   UNL A   1      37.031  22.207  24.129  1.00  0.00     0.015 C 
ATOM     18  C   UNL A   1      35.533  21.605  26.088  1.00  0.00     0.265 C 
ATOM     19  C   UNL A   1      36.296  23.544  24.053  1.00  0.00     0.062 C 
ATOM     20  C   UNL A   1      35.653  23.921  25.388  1.00  0.00     0.262 C 
ATOM     21  H   UNL A   1      34.671  23.239  26.939  1.00  0.00     0.348 HD
ENDBRANCH   9  14
BRANCH   8  22
ATOM     22  N   UNL A   1      30.508  22.586  26.267  1.00  0.00    -0.345 N 
ATOM     23  H   UNL A   1      29.505  22.521  26.097  1.00  0.00     0.345 HD
ATOM     24  H   UNL A   1      30.682  22.611  27.272  1.00  0.00     0.345 HD
ATOM     25  H   UNL A   1      30.975  21.776  25.861  1.00  0.00     0.345 HD
ENDBRANCH   8  22
ENDBRANCH   5   8
ENDBRANCH   3   4
ENDBRANCH   2   3
ENDBRANCH   1   2
BRANCH   1  26
ATOM     26  C   UNL A   1      33.474  28.578  27.278  1.00  0.00     0.116 C 
BRANCH  26  27
ATOM     27  N   UNL A   1      33.500  29.994  27.626  1.00  0.00    -0.352 N 
ATOM     28  C   UNL A   1      34.539  30.736  28.140  1.00  0.00     0.251 C 
ATOM     29  H   UNL A   1      32.660  30.484  27.474  1.00  0.00     0.163 HD
ATOM     30  O   UNL A   1      34.367  31.899  28.475  1.00  0.00    -0.269 OA
BRANCH  28  31
ATOM     31  C   UNL A   1      35.853  30.085  28.317  1.00  0.00     0.039 A 
ATOM     32  C   UNL A   1      36.751  30.078  27.248  1.00  0.00     0.014 A 
ATOM     33  C   UNL A   1      36.221  29.568  29.562  1.00  0.00     0.014 A 
ATOM     34  C   UNL A   1      38.058  29.638  27.457  1.00  0.00     0.010 A 
ATOM     35  C   UNL A   1      37.542  29.199  29.786  1.00  0.00     0.010 A 
ATOM     36  C   UNL A   1      38.477  29.248  28.739  1.00  0.00    -0.014 A 
BRANCH  36  37
ATOM     37  C   UNL A   1      39.900  28.934  29.021  1.00  0.00     0.031 A 
ATOM     38  C   UNL A   1      40.813  29.989  29.579  1.00  0.00     0.074 A 
ATOM     39  C   UNL A   1      40.386  27.719  28.692  1.00  0.00     0.049 A 
ATOM     40  N   UNL A   1      42.097  29.924  29.815  1.00  0.00    -0.248 NA
ATOM     41  C   UNL A   1      40.209  31.295  29.884  1.00  0.00     0.031 C 
ATOM     42  C   UNL A   1      39.612  26.634  28.084  1.00  0.00     0.029 A 
ATOM     43  N   UNL A   1      41.651  27.198  28.805  1.00  0.00    -0.354 N 
ATOM     44  C   UNL A   1      42.459  31.182  30.283  1.00  0.00     0.074 A 
ATOM     45  C   UNL A   1      41.267  32.003  30.252  1.00  0.00     0.031 C 
ATOM     46  C   UNL A   1      40.413  25.573  27.896  1.00  0.00     0.029 A 
ATOM     47  C   UNL A   1      41.763  25.911  28.333  1.00  0.00     0.049 A 
ATOM     48  H   UNL A   1      42.406  27.698  29.188  1.00  0.00     0.167 HD
ATOM     49  C   UNL A   1      43.669  31.605  30.719  1.00  0.00     0.037 A 
ATOM     50  C   UNL A   1      42.833  25.098  28.252  1.00  0.00     0.037 A 
ATOM     51  C   UNL A   1      44.843  30.774  30.773  1.00  0.00     0.049 A 
ATOM     52  C   UNL A   1      44.164  25.590  28.751  1.00  0.00     0.074 A 
ATOM     53  C   UNL A   1      46.095  31.087  31.271  1.00  0.00     0.029 A 
ATOM     54  N   UNL A   1      44.912  29.469  30.309  1.00  0.00    -0.354 N 
ATOM     55  N   UNL A   1      44.471  26.758  29.264  1.00  0.00    -0.248 NA
ATOM     56  C   UNL A   1      45.294  24.655  28.662  1.00  0.00     0.031 C 
ATOM     57  C   UNL A   1      46.934  29.985  31.070  1.00  0.00     0.029 A 
ATOM     58  C   UNL A   1      46.193  28.971  30.485  1.00  0.00     0.049 A 
ATOM     59  H   UNL A   1      44.162  28.970  29.912  1.00  0.00     0.167 HD
ATOM     60  C   UNL A   1      45.824  26.693  29.574  1.00  0.00     0.074 A 
ATOM     61  C   UNL A   1      46.273  25.365  29.207  1.00  0.00     0.031 C 
ATOM     62  C   UNL A   1      46.623  27.647  30.111  1.00  0.00     0.037 A 
BRANCH  49  63
ATOM     63  C   UNL A   1      43.781  33.032  31.182  1.00  0.00     0.058 A 
ATOM     64  C   UNL A   1      44.167  34.060  30.307  1.00  0.00     0.135 A 
ATOM     65  C   UNL A   1      43.463  33.381  32.504  1.00  0.00     0.135 A 
ATOM     66  F   UNL A   1      44.499  33.778  29.037  1.00  0.00    -0.206 F 
ATOM     67  C   UNL A   1      44.260  35.379  30.734  1.00  0.00     0.059 A 
ATOM     68  C   UNL A   1      43.523  34.700  32.945  1.00  0.00     0.059 A 
ATOM     69  F   UNL A   1      43.089  32.437  33.382  1.00  0.00    -0.206 F 
ATOM     70  C   UNL A   1      43.936  35.690  32.056  1.00  0.00     0.060 A 
BRANCH  70  71
ATOM     71  S   UNL A   1      44.055  37.410  32.591  1.00  0.00     0.124 S 
ATOM     72  O   UNL A   1      45.433  37.471  33.068  1.00  0.00    -0.237 OA
ATOM     73  O   UNL A   1      43.779  38.141  31.358  1.00  0.00    -0.237 OA
ATOM     74  O   UNL A   1      43.028  37.517  33.622  1.00  0.00    -0.744 OA
ENDBRANCH  70  71
ENDBRANCH  49  63
BRANCH  50  75
ATOM     75  C   UNL A   1      42.687  23.730  27.690  1.00  0.00     0.058 A 
ATOM     76  C   UNL A   1      42.838  23.497  26.316  1.00  0.00     0.135 A 
ATOM     77  C   UNL A   1      42.414  22.628  28.515  1.00  0.00     0.135 A 
ATOM     78  F   UNL A   1      43.094  24.520  25.487  1.00  0.00    -0.206 F 
ATOM     79  C   UNL A   1      42.710  22.221  25.775  1.00  0.00     0.059 A 
ATOM     80  C   UNL A   1      42.304  21.340  28.001  1.00  0.00     0.059 A 
ATOM     81  F   UNL A   1      42.278  22.797  29.840  1.00  0.00    -0.206 F 
ATOM     82  C   UNL A   1      42.445  21.148  26.626  1.00  0.00     0.060 A 
BRANCH  82  83
ATOM     83  S   UNL A   1      42.336  19.488  25.923  1.00  0.00     0.124 S 
ATOM     84  O   UNL A   1      40.926  19.415  25.561  1.00  0.00    -0.237 OA
ATOM     85  O   UNL A   1      43.279  19.563  24.811  1.00  0.00    -0.237 OA
ATOM     86  O   UNL A   1      42.752  18.629  27.029  1.00  0.00    -0.744 OA
ENDBRANCH  82  83
ENDBRANCH  50  75
BRANCH  62  87
ATOM     87  C   UNL A   1      48.063  27.287  30.348  1.00  0.00     0.058 A 
ATOM     88  C   UNL A   1      48.500  26.796  31.587  1.00  0.00     0.135 A 
ATOM     89  C   UNL A   1      49.004  27.388  29.311  1.00  0.00     0.135 A 
ATOM     90  F   UNL A   1      47.642  26.689  32.614  1.00  0.00    -0.206 F 
ATOM     91  C   UNL A   1      49.828  26.436  31.796  1.00  0.00     0.059 A 
ATOM     92  C   UNL A   1      50.330  27.011  29.490  1.00  0.00     0.059 A 
ATOM     93  F   UNL A   1      48.634  27.844  28.103  1.00  0.00    -0.206 F 
ATOM     94  C   UNL A   1      50.735  26.546  30.740  1.00  0.00     0.060 A 
BRANCH  94  95
ATOM     95  S   UNL A   1      52.448  26.044  31.015  1.00  0.00     0.124 S 
ATOM     96  O   UNL A   1      52.274  24.772  31.709  1.00  0.00    -0.237 OA
ATOM     97  O   UNL A   1      52.971  25.958  29.655  1.00  0.00    -0.237 OA
ATOM     98  O   UNL A   1      52.994  27.130  31.823  1.00  0.00    -0.744 OA
ENDBRANCH  94  95
ENDBRANCH  62  87
ENDBRANCH  36  37
ENDBRANCH  28  31
ENDBRANCH  26  27
ENDBRANCH   1  26
TORSDOF 16
ENDMDL
MODEL 3
REMARK VINA RESULT:     -11.2      3.550      5.355
REMARK SMILES C[C@@H]1CCC[N@@H+]([C@@H]2CCC[C@]([NH3+])(C(=O)NCCCCNC(=O)c3ccc(-c4c5nc(c(-c6c(F)cc(S(=O)(=O)[O-])cc6F)c6ccc([nH]6)c(-c6c(F)cc(S(=O)(=O)[O-])cc6F)c6nc(c(-c7c(F)cc(S(=O)(=O)[O-])cc7F)c7ccc4[nH]7)C=C6)C=C5)cc3)C2)C1
REMARK SMILES IDX 18 1 17 2 16 3 15 4 13 5 14 6 11 8 7 9 8 10 89 11 9 12 10 13
REMARK SMILES IDX 6 14 1 15 2 16 3 17 90 18 4 19 5 20 12 22 19 26 20 27 21 28
REMARK SMILES IDX 22 30 23 31 24 32 88 33 25 34 87 35 26 36 27 37 28 38 81 39
REMARK SMILES IDX 29 40 86 41 80 42 82 43 30 44 85 45 79 46 78 47 31 49 65 50
REMARK SMILES IDX 44 51 64 52 45 53 48 54 63 55 83 56 46 57 47 58 62 60 84 61
REMARK SMILES IDX 49 62 32 63 33 64 42 65 34 66 35 67 41 68 43 69 36 70 37 71
REMARK SMILES IDX 38 72 39 73 40 74 66 75 67 76 76 77 68 78 69 79 75 80 77 81
REMARK SMILES IDX 70 82 71 83 72 84 73 85 74 86 50 87 51 88 60 89 52 90 53 91
REMARK SMILES IDX 59 92 61 93 54 94 55 95 56 96 57 97 58 98
REMARK H PARENT 15 7 6 21 12 23 12 24 12 25 20 29 82 48 48 59
REMARK Flexibility Score: inf
ROOT
ATOM      1  C   UNL A   1      35.232  30.973  27.606  1.00  0.00     0.023 C 
ENDROOT
BRANCH   1   2
ATOM      2  C   UNL A   1      33.738  31.175  27.823  1.00  0.00     0.023 C 
BRANCH   2   3
ATOM      3  C   UNL A   1      32.848  30.334  26.919  1.00  0.00     0.116 C 
BRANCH   3   4
ATOM      4  N   UNL A   1      33.198  28.921  26.933  1.00  0.00    -0.351 N 
ATOM      5  C   UNL A   1      33.134  27.971  25.942  1.00  0.00     0.281 C 
ATOM      6  O   UNL A   1      33.565  26.845  26.195  1.00  0.00    -0.268 OA
ATOM      7  H   UNL A   1      33.537  28.590  27.796  1.00  0.00     0.163 HD
BRANCH   5   8
ATOM      8  C   UNL A   1      32.489  28.325  24.570  1.00  0.00     0.179 C 
ATOM      9  C   UNL A   1      30.432  29.283  23.339  1.00  0.00     0.190 C 
ATOM     10  C   UNL A   1      30.562  28.135  22.313  1.00  0.00     0.065 C 
ATOM     11  C   UNL A   1      31.078  28.953  24.719  1.00  0.00     0.144 C 
ATOM     12  C   UNL A   1      31.868  27.359  22.330  1.00  0.00     0.013 C 
ATOM     13  C   UNL A   1      32.279  27.034  23.750  1.00  0.00     0.079 C 
BRANCH   9  14
ATOM     14  N   UNL A   1      29.072  29.867  23.447  1.00  0.00    -0.332 N 
ATOM     15  C   UNL A   1      28.985  33.718  23.183  1.00  0.00     0.013 C 
ATOM     16  C   UNL A   1      29.136  32.285  22.677  1.00  0.00     0.041 C 
ATOM     17  C   UNL A   1      28.118  31.970  21.577  1.00  0.00     0.015 C 
ATOM     18  C   UNL A   1      29.035  31.281  23.842  1.00  0.00     0.265 C 
ATOM     19  C   UNL A   1      28.141  30.495  21.184  1.00  0.00     0.062 C 
ATOM     20  C   UNL A   1      28.089  29.575  22.404  1.00  0.00     0.262 C 
ATOM     21  H   UNL A   1      28.740  29.306  24.232  1.00  0.00     0.348 HD
ENDBRANCH   9  14
BRANCH   8  22
ATOM     22  N   UNL A   1      33.345  29.355  23.919  1.00  0.00    -0.345 N 
ATOM     23  H   UNL A   1      33.095  29.431  22.933  1.00  0.00     0.345 HD
ATOM     24  H   UNL A   1      34.325  29.083  24.001  1.00  0.00     0.345 HD
ATOM     25  H   UNL A   1      33.201  30.255  24.376  1.00  0.00     0.345 HD
ENDBRANCH   8  22
ENDBRANCH   5   8
ENDBRANCH   3   4
ENDBRANCH   2   3
ENDBRANCH   1   2
BRANCH   1  26
ATOM     26  C   UNL A   1      35.870  29.887  28.465  1.00  0.00     0.116 C 
BRANCH  26  27
ATOM     27  N   UNL A   1      35.685  30.095  29.896  1.00  0.00    -0.352 N 
ATOM     28  C   UNL A   1      36.638  30.164  30.888  1.00  0.00     0.251 C 
ATOM     29  H   UNL A   1      34.752  30.201  30.194  1.00  0.00     0.163 HD
ATOM     30  O   UNL A   1      36.309  30.242  32.062  1.00  0.00    -0.269 OA
BRANCH  28  31
ATOM     31  C   UNL A   1      38.063  30.095  30.506  1.00  0.00     0.039 A 
ATOM     32  C   UNL A   1      38.978  29.558  31.412  1.00  0.00     0.014 A 
ATOM     33  C   UNL A   1      38.468  30.480  29.225  1.00  0.00     0.014 A 
ATOM     34  C   UNL A   1      40.287  29.313  30.997  1.00  0.00     0.010 A 
ATOM     35  C   UNL A   1      39.752  30.168  28.792  1.00  0.00     0.010 A 
ATOM     36  C   UNL A   1      40.668  29.566  29.669  1.00  0.00    -0.014 A 
BRANCH  36  37
ATOM     37  C   UNL A   1      42.002  29.162  29.161  1.00  0.00     0.031 A 
ATOM     38  C   UNL A   1      43.104  30.176  29.033  1.00  0.00     0.074 A 
ATOM     39  C   UNL A   1      42.191  27.896  28.736  1.00  0.00     0.049 A 
ATOM     40  N   UNL A   1      44.304  30.029  28.539  1.00  0.00    -0.248 NA
ATOM     41  C   UNL A   1      42.804  31.542  29.493  1.00  0.00     0.031 C 
ATOM     42  C   UNL A   1      41.178  26.837  28.750  1.00  0.00     0.029 A 
ATOM     43  N   UNL A   1      43.295  27.287  28.193  1.00  0.00    -0.354 N 
ATOM     44  C   UNL A   1      44.901  31.282  28.615  1.00  0.00     0.074 A 
ATOM     45  C   UNL A   1      43.913  32.187  29.159  1.00  0.00     0.031 C 
ATOM     46  C   UNL A   1      41.713  25.709  28.259  1.00  0.00     0.029 A 
ATOM     47  C   UNL A   1      43.091  25.969  27.859  1.00  0.00     0.049 A 
ATOM     48  H   UNL A   1      44.152  27.751  28.056  1.00  0.00     0.167 HD
ATOM     49  C   UNL A   1      46.164  31.637  28.283  1.00  0.00     0.037 A 
ATOM     50  C   UNL A   1      43.918  25.073  27.286  1.00  0.00     0.037 A 
ATOM     51  C   UNL A   1      47.151  30.724  27.768  1.00  0.00     0.049 A 
ATOM     52  C   UNL A   1      45.319  25.491  26.933  1.00  0.00     0.074 A 
ATOM     53  C   UNL A   1      48.480  30.970  27.474  1.00  0.00     0.029 A 
ATOM     54  N   UNL A   1      46.915  29.391  27.465  1.00  0.00    -0.354 N 
ATOM     55  N   UNL A   1      45.891  26.662  27.086  1.00  0.00    -0.248 NA
ATOM     56  C   UNL A   1      46.187  24.470  26.334  1.00  0.00     0.031 C 
ATOM     57  C   UNL A   1      49.038  29.797  26.954  1.00  0.00     0.029 A 
ATOM     58  C   UNL A   1      48.067  28.808  26.963  1.00  0.00     0.049 A 
ATOM     59  H   UNL A   1      46.055  28.927  27.588  1.00  0.00     0.167 HD
ATOM     60  C   UNL A   1      47.191  26.513  26.616  1.00  0.00     0.074 A 
ATOM     61  C   UNL A   1      47.326  25.135  26.190  1.00  0.00     0.031 C 
ATOM     62  C   UNL A   1      48.182  27.434  26.541  1.00  0.00     0.037 A 
BRANCH  49  63
ATOM     63  C   UNL A   1      46.555  33.076  28.474  1.00  0.00     0.058 A 
ATOM     64  C   UNL A   1      46.424  34.018  27.440  1.00  0.00     0.135 A 
ATOM     65  C   UNL A   1      47.029  33.528  29.716  1.00  0.00     0.135 A 
ATOM     66  F   UNL A   1      45.992  33.635  26.229  1.00  0.00    -0.206 F 
ATOM     67  C   UNL A   1      46.775  35.350  27.622  1.00  0.00     0.059 A 
ATOM     68  C   UNL A   1      47.362  34.864  29.928  1.00  0.00     0.059 A 
ATOM     69  F   UNL A   1      47.175  32.671  30.738  1.00  0.00    -0.206 F 
ATOM     70  C   UNL A   1      47.244  35.764  28.871  1.00  0.00     0.060 A 
BRANCH  70  71
ATOM     71  S   UNL A   1      47.688  37.500  29.092  1.00  0.00     0.124 S 
ATOM     72  O   UNL A   1      49.014  37.540  28.483  1.00  0.00    -0.237 OA
ATOM     73  O   UNL A   1      46.632  38.190  28.357  1.00  0.00    -0.237 OA
ATOM     74  O   UNL A   1      47.657  37.677  30.541  1.00  0.00    -0.744 OA
ENDBRANCH  70  71
ENDBRANCH  49  63
BRANCH  50  75
ATOM     75  C   UNL A   1      43.446  23.688  27.024  1.00  0.00     0.058 A 
ATOM     76  C   UNL A   1      43.326  22.759  28.067  1.00  0.00     0.135 A 
ATOM     77  C   UNL A   1      43.087  23.272  25.732  1.00  0.00     0.135 A 
ATOM     78  F   UNL A   1      43.662  23.109  29.318  1.00  0.00    -0.206 F 
ATOM     79  C   UNL A   1      42.880  21.461  27.839  1.00  0.00     0.059 A 
ATOM     80  C   UNL A   1      42.616  21.987  25.483  1.00  0.00     0.059 A 
ATOM     81  F   UNL A   1      43.168  24.130  24.703  1.00  0.00    -0.206 F 
ATOM     82  C   UNL A   1      42.525  21.085  26.543  1.00  0.00     0.060 A 
BRANCH  82  83
ATOM     83  S   UNL A   1      41.894  19.415  26.265  1.00  0.00     0.124 S 
ATOM     84  O   UNL A   1      40.465  19.663  26.117  1.00  0.00    -0.237 OA
ATOM     85  O   UNL A   1      42.603  19.017  25.052  1.00  0.00    -0.237 OA
ATOM     86  O   UNL A   1      42.292  18.702  27.475  1.00  0.00    -0.744 OA
ENDBRANCH  82  83
ENDBRANCH  50  75
BRANCH  62  87
ATOM     87  C   UNL A   1      49.505  26.980  25.991  1.00  0.00     0.058 A 
ATOM     88  C   UNL A   1      49.818  27.117  24.630  1.00  0.00     0.135 A 
ATOM     89  C   UNL A   1      50.487  26.447  26.841  1.00  0.00     0.135 A 
ATOM     90  F   UNL A   1      48.911  27.612  23.773  1.00  0.00    -0.206 F 
ATOM     91  C   UNL A   1      51.053  26.722  24.127  1.00  0.00     0.059 A 
ATOM     92  C   UNL A   1      51.737  26.069  26.365  1.00  0.00     0.059 A 
ATOM     93  F   UNL A   1      50.240  26.304  28.154  1.00  0.00    -0.206 F 
ATOM     94  C   UNL A   1      52.007  26.200  25.004  1.00  0.00     0.060 A 
BRANCH  94  95
ATOM     95  S   UNL A   1      53.619  25.723  24.344  1.00  0.00     0.124 S 
ATOM     96  O   UNL A   1      53.432  25.952  22.915  1.00  0.00    -0.237 OA
ATOM     97  O   UNL A   1      54.522  26.649  25.022  1.00  0.00    -0.237 OA
ATOM     98  O   UNL A   1      53.748  24.325  24.745  1.00  0.00    -0.744 OA
ENDBRANCH  94  95
ENDBRANCH  62  87
ENDBRANCH  36  37
ENDBRANCH  28  31
ENDBRANCH  26  27
ENDBRANCH   1  26
TORSDOF 16
ENDMDL
