MODEL 1
REMARK VINA RESULT:     -12.4      0.000      0.000
REMARK SMILES Cn1cc(C(=O)NCCCCNC(=O)c2ccc(-c3c4nc(c(-c5c(F)cc(S(=O)(=O)[O-])cc5F)c5ccc([nH]5)c(-c5c(F)cc(S(=O)(=O)[O-])cc5F)c5nc(c(-c6c(F)cc(S(=O)(=O)[O-])cc6F)c6ccc3[nH]6)C=C5)C=C4)cc2)c(C(=O)Nc2ccc(-c3nc4cc(Cl)ccc4o3)cc2)n1
REMARK SMILES IDX 9 1 8 2 7 3 5 4 6 5 4 7 1 8 2 9 3 10 101 11 81 12 82 13
REMARK SMILES IDX 83 14 84 15 85 17 86 18 100 19 87 20 99 21 88 22 89 23 90 24
REMARK SMILES IDX 98 25 91 26 97 27 92 28 96 29 93 30 95 31 94 32 10 33 11 34
REMARK SMILES IDX 12 35 13 36 14 38 15 39 16 40 80 41 17 42 79 43 18 44 19 45
REMARK SMILES IDX 20 46 73 47 21 48 78 49 72 50 74 51 22 52 77 53 71 54 70 55
REMARK SMILES IDX 23 57 57 58 36 59 56 60 37 61 40 62 55 63 75 64 38 65 39 66
REMARK SMILES IDX 54 68 76 69 41 70 24 71 25 72 34 73 26 74 27 75 33 76 35 77
REMARK SMILES IDX 28 78 29 79 30 80 31 81 32 82 58 83 59 84 68 85 60 86 61 87
REMARK SMILES IDX 67 88 69 89 62 90 63 91 64 92 65 93 66 94 42 95 43 96 52 97
REMARK SMILES IDX 44 98 45 99 51 100 53 101 46 102 47 103 48 104 49 105 50 106
REMARK H PARENT 7 6 84 16 12 37 74 56 40 67
REMARK Flexibility Score: inf
ROOT
ATOM      1  C   UNL A   1      31.556  27.679  26.136  1.00  0.00     0.023 C 
ENDROOT
BRANCH   1   2
ATOM      2  C   UNL A   1      31.950  26.569  27.108  1.00  0.00     0.116 C 
BRANCH   2   3
ATOM      3  N   UNL A   1      31.387  25.269  26.820  1.00  0.00    -0.352 N 
ATOM      4  C   UNL A   1      31.919  24.095  26.330  1.00  0.00     0.255 C 
ATOM      5  O   UNL A   1      31.231  23.080  26.508  1.00  0.00    -0.269 OA
ATOM      6  H   UNL A   1      30.424  25.209  27.013  1.00  0.00     0.163 HD
BRANCH   4   7
ATOM      7  C   UNL A   1      33.199  24.019  25.642  1.00  0.00     0.090 A 
ATOM      8  C   UNL A   1      36.784  23.928  25.235  1.00  0.00     0.173 C 
ATOM      9  N   UNL A   1      35.344  23.956  25.131  1.00  0.00    -0.274 N 
ATOM     10  C   UNL A   1      34.461  24.367  26.084  1.00  0.00     0.123 A 
ATOM     11  N   UNL A   1      34.762  23.461  24.040  1.00  0.00    -0.167 NA
ATOM     12  C   UNL A   1      33.442  23.445  24.331  1.00  0.00     0.163 A 
BRANCH  12  13
ATOM     13  C   UNL A   1      32.510  22.797  23.378  1.00  0.00     0.276 C 
ATOM     14  O   UNL A   1      32.740  21.671  22.923  1.00  0.00    -0.267 OA
ATOM     15  N   UNL A   1      31.317  23.386  23.010  1.00  0.00    -0.321 N 
ATOM     16  H   UNL A   1      30.675  22.774  22.582  1.00  0.00     0.170 HD
BRANCH  15  17
ATOM     17  C   UNL A   1      30.867  24.701  23.140  1.00  0.00     0.041 A 
ATOM     18  C   UNL A   1      31.558  25.693  22.433  1.00  0.00     0.027 A 
ATOM     19  C   UNL A   1      29.759  25.046  23.909  1.00  0.00     0.027 A 
ATOM     20  C   UNL A   1      31.055  26.994  22.369  1.00  0.00     0.016 A 
ATOM     21  C   UNL A   1      29.279  26.352  23.873  1.00  0.00     0.016 A 
ATOM     22  C   UNL A   1      29.887  27.324  23.061  1.00  0.00     0.037 A 
BRANCH  22  23
ATOM     23  C   UNL A   1      29.204  28.596  22.895  1.00  0.00     0.227 A 
ATOM     24  N   UNL A   1      28.439  28.960  21.883  1.00  0.00    -0.209 NA
ATOM     25  O   UNL A   1      29.606  29.625  23.713  1.00  0.00    -0.436 OA
ATOM     26  C   UNL A   1      28.387  30.319  21.992  1.00  0.00     0.111 A 
ATOM     27  C   UNL A   1      29.094  30.736  23.107  1.00  0.00     0.155 A 
ATOM     28  C   UNL A   1      27.817  31.263  21.138  1.00  0.00     0.053 A 
ATOM     29  C   UNL A   1      29.282  32.064  23.467  1.00  0.00     0.051 A 
ATOM     30  C   UNL A   1      28.023  32.609  21.441  1.00  0.00     0.043 A 
ATOM     31  C   UNL A   1      28.729  33.004  22.586  1.00  0.00     0.024 A 
ATOM     32  Cl  UNL A   1      27.431  33.777  20.326  1.00  0.00    -0.084 Cl
ENDBRANCH  22  23
ENDBRANCH  15  17
ENDBRANCH  12  13
ENDBRANCH   4   7
ENDBRANCH   2   3
ENDBRANCH   1   2
BRANCH   1  33
ATOM     33  C   UNL A   1      32.710  28.382  25.408  1.00  0.00     0.023 C 
BRANCH  33  34
ATOM     34  C   UNL A   1      33.923  28.809  26.240  1.00  0.00     0.116 C 
BRANCH  34  35
ATOM     35  N   UNL A   1      33.730  30.030  27.001  1.00  0.00    -0.352 N 
ATOM     36  C   UNL A   1      34.560  30.662  27.900  1.00  0.00     0.251 C 
ATOM     37  H   UNL A   1      32.867  30.478  26.850  1.00  0.00     0.163 HD
ATOM     38  O   UNL A   1      34.150  31.683  28.450  1.00  0.00    -0.269 OA
BRANCH  36  39
ATOM     39  C   UNL A   1      35.906  30.132  28.257  1.00  0.00     0.039 A 
ATOM     40  C   UNL A   1      36.896  30.123  27.263  1.00  0.00     0.014 A 
ATOM     41  C   UNL A   1      36.210  29.607  29.514  1.00  0.00     0.014 A 
ATOM     42  C   UNL A   1      38.193  29.669  27.546  1.00  0.00     0.010 A 
ATOM     43  C   UNL A   1      37.517  29.201  29.811  1.00  0.00     0.010 A 
ATOM     44  C   UNL A   1      38.532  29.245  28.838  1.00  0.00    -0.014 A 
BRANCH  44  45
ATOM     45  C   UNL A   1      39.935  28.908  29.221  1.00  0.00     0.031 A 
ATOM     46  C   UNL A   1      40.880  29.970  29.710  1.00  0.00     0.074 A 
ATOM     47  C   UNL A   1      40.412  27.665  29.005  1.00  0.00     0.049 A 
ATOM     48  N   UNL A   1      42.170  29.891  29.921  1.00  0.00    -0.248 NA
ATOM     49  C   UNL A   1      40.302  31.293  29.989  1.00  0.00     0.031 C 
ATOM     50  C   UNL A   1      39.626  26.530  28.529  1.00  0.00     0.029 A 
ATOM     51  N   UNL A   1      41.687  27.161  29.096  1.00  0.00    -0.354 N 
ATOM     52  C   UNL A   1      42.561  31.149  30.359  1.00  0.00     0.074 A 
ATOM     53  C   UNL A   1      41.379  31.988  30.332  1.00  0.00     0.031 C 
ATOM     54  C   UNL A   1      40.441  25.494  28.284  1.00  0.00     0.029 A 
ATOM     55  C   UNL A   1      41.808  25.882  28.605  1.00  0.00     0.049 A 
ATOM     56  H   UNL A   1      42.442  27.667  29.477  1.00  0.00     0.167 HD
ATOM     57  C   UNL A   1      43.782  31.563  30.777  1.00  0.00     0.037 A 
ATOM     58  C   UNL A   1      42.890  25.103  28.414  1.00  0.00     0.037 A 
ATOM     59  C   UNL A   1      44.954  30.730  30.847  1.00  0.00     0.049 A 
ATOM     60  C   UNL A   1      44.238  25.582  28.860  1.00  0.00     0.074 A 
ATOM     61  C   UNL A   1      46.207  31.043  31.350  1.00  0.00     0.029 A 
ATOM     62  N   UNL A   1      45.023  29.421  30.400  1.00  0.00    -0.354 N 
ATOM     63  N   UNL A   1      44.571  26.751  29.348  1.00  0.00    -0.248 NA
ATOM     64  C   UNL A   1      45.349  24.624  28.768  1.00  0.00     0.031 C 
ATOM     65  C   UNL A   1      47.037  29.926  31.193  1.00  0.00     0.029 A 
ATOM     66  C   UNL A   1      46.296  28.914  30.607  1.00  0.00     0.049 A 
ATOM     67  H   UNL A   1      44.277  28.923  29.995  1.00  0.00     0.167 HD
ATOM     68  C   UNL A   1      45.917  26.652  29.674  1.00  0.00     0.074 A 
ATOM     69  C   UNL A   1      46.346  25.320  29.301  1.00  0.00     0.031 C 
ATOM     70  C   UNL A   1      46.715  27.581  30.255  1.00  0.00     0.037 A 
BRANCH  57  71
ATOM     71  C   UNL A   1      43.895  32.990  31.224  1.00  0.00     0.058 A 
ATOM     72  C   UNL A   1      44.264  34.004  30.327  1.00  0.00     0.135 A 
ATOM     73  C   UNL A   1      43.641  33.347  32.557  1.00  0.00     0.135 A 
ATOM     74  F   UNL A   1      44.527  33.707  29.044  1.00  0.00    -0.206 F 
ATOM     75  C   UNL A   1      44.421  35.321  30.744  1.00  0.00     0.059 A 
ATOM     76  C   UNL A   1      43.775  34.662  32.993  1.00  0.00     0.059 A 
ATOM     77  F   UNL A   1      43.284  32.413  33.451  1.00  0.00    -0.206 F 
ATOM     78  C   UNL A   1      44.188  35.637  32.084  1.00  0.00     0.060 A 
BRANCH  78  79
ATOM     79  S   UNL A   1      44.435  37.337  32.636  1.00  0.00     0.124 S 
ATOM     80  O   UNL A   1      44.143  38.080  31.414  1.00  0.00    -0.237 OA
ATOM     81  O   UNL A   1      43.456  37.474  33.709  1.00  0.00    -0.237 OA
ATOM     82  O   UNL A   1      45.831  37.349  33.062  1.00  0.00    -0.744 OA
ENDBRANCH  78  79
ENDBRANCH  57  71
BRANCH  58  83
ATOM     83  C   UNL A   1      42.729  23.766  27.796  1.00  0.00     0.058 A 
ATOM     84  C   UNL A   1      42.767  23.605  26.405  1.00  0.00     0.135 A 
ATOM     85  C   UNL A   1      42.566  22.620  28.590  1.00  0.00     0.135 A 
ATOM     86  F   UNL A   1      42.923  24.676  25.612  1.00  0.00    -0.206 F 
ATOM     87  C   UNL A   1      42.637  22.354  25.816  1.00  0.00     0.059 A 
ATOM     88  C   UNL A   1      42.444  21.356  28.024  1.00  0.00     0.059 A 
ATOM     89  F   UNL A   1      42.540  22.728  29.927  1.00  0.00    -0.206 F 
ATOM     90  C   UNL A   1      42.474  21.233  26.634  1.00  0.00     0.060 A 
BRANCH  90  91
ATOM     91  S   UNL A   1      42.355  19.605  25.861  1.00  0.00     0.124 S 
ATOM     92  O   UNL A   1      42.657  18.726  26.984  1.00  0.00    -0.237 OA
ATOM     93  O   UNL A   1      40.974  19.588  25.389  1.00  0.00    -0.237 OA
ATOM     94  O   UNL A   1      43.367  19.660  24.809  1.00  0.00    -0.744 OA
ENDBRANCH  90  91
ENDBRANCH  58  83
BRANCH  70  95
ATOM     95  C   UNL A   1      48.118  27.167  30.586  1.00  0.00     0.058 A 
ATOM     96  C   UNL A   1      49.171  27.338  29.676  1.00  0.00     0.135 A 
ATOM     97  C   UNL A   1      48.414  26.620  31.843  1.00  0.00     0.135 A 
ATOM     98  F   UNL A   1      48.934  27.848  28.456  1.00  0.00    -0.206 F 
ATOM     99  C   UNL A   1      50.474  26.969  29.998  1.00  0.00     0.059 A 
ATOM    100  C   UNL A   1      49.710  26.254  32.192  1.00  0.00     0.059 A 
ATOM    101  F   UNL A   1      47.438  26.437  32.747  1.00  0.00    -0.206 F 
ATOM    102  C   UNL A   1      50.732  26.425  31.259  1.00  0.00     0.060 A 
BRANCH 102 103
ATOM    103  S   UNL A   1      52.428  25.980  31.692  1.00  0.00     0.124 S 
ATOM    104  O   UNL A   1      52.738  26.969  32.718  1.00  0.00    -0.237 OA
ATOM    105  O   UNL A   1      52.289  24.605  32.159  1.00  0.00    -0.237 OA
ATOM    106  O   UNL A   1      53.147  26.135  30.430  1.00  0.00    -0.744 OA
ENDBRANCH 102 103
ENDBRANCH  70  95
ENDBRANCH  44  45
ENDBRANCH  36  39
ENDBRANCH  34  35
ENDBRANCH  33  34
ENDBRANCH   1  33
TORSDOF 17
ENDMDL
MODEL 2
REMARK VINA RESULT:     -12.3      3.507      5.665
REMARK SMILES Cn1cc(C(=O)NCCCCNC(=O)c2ccc(-c3c4nc(c(-c5c(F)cc(S(=O)(=O)[O-])cc5F)c5ccc([nH]5)c(-c5c(F)cc(S(=O)(=O)[O-])cc5F)c5nc(c(-c6c(F)cc(S(=O)(=O)[O-])cc6F)c6ccc3[nH]6)C=C5)C=C4)cc2)c(C(=O)Nc2ccc(-c3nc4cc(Cl)ccc4o3)cc2)n1
REMARK SMILES IDX 9 1 8 2 7 3 5 4 6 5 4 7 1 8 2 9 3 10 101 11 81 12 82 13
REMARK SMILES IDX 83 14 84 15 85 17 86 18 100 19 87 20 99 21 88 22 89 23 90 24
REMARK SMILES IDX 98 25 91 26 97 27 92 28 96 29 93 30 95 31 94 32 10 33 11 34
REMARK SMILES IDX 12 35 13 36 14 38 15 39 16 40 80 41 17 42 79 43 18 44 19 45
REMARK SMILES IDX 20 46 73 47 21 48 78 49 72 50 74 51 22 52 77 53 71 54 70 55
REMARK SMILES IDX 23 57 57 58 36 59 56 60 37 61 40 62 55 63 75 64 38 65 39 66
REMARK SMILES IDX 54 68 76 69 41 70 24 71 25 72 34 73 26 74 27 75 33 76 35 77
REMARK SMILES IDX 28 78 29 79 30 80 31 81 32 82 58 83 59 84 68 85 60 86 61 87
REMARK SMILES IDX 67 88 69 89 62 90 63 91 64 92 65 93 66 94 42 95 43 96 52 97
REMARK SMILES IDX 44 98 45 99 51 100 53 101 46 102 47 103 48 104 49 105 50 106
REMARK H PARENT 7 6 84 16 12 37 74 56 40 67
REMARK Flexibility Score: inf
ROOT
ATOM      1  C   UNL A   1      34.177  31.155  27.593  1.00  0.00     0.023 C 
ENDROOT
BRANCH   1   2
ATOM      2  C   UNL A   1      32.784  31.239  26.975  1.00  0.00     0.116 C 
BRANCH   2   3
ATOM      3  N   UNL A   1      31.973  30.049  27.116  1.00  0.00    -0.352 N 
ATOM      4  C   UNL A   1      31.789  28.931  26.332  1.00  0.00     0.255 C 
ATOM      5  O   UNL A   1      31.273  27.957  26.900  1.00  0.00    -0.269 OA
ATOM      6  H   UNL A   1      31.442  30.036  27.946  1.00  0.00     0.163 HD
BRANCH   4   7
ATOM      7  C   UNL A   1      32.161  28.866  24.927  1.00  0.00     0.090 A 
ATOM      8  C   UNL A   1      34.276  28.399  22.039  1.00  0.00     0.173 C 
ATOM      9  N   UNL A   1      33.242  28.649  23.016  1.00  0.00    -0.274 N 
ATOM     10  C   UNL A   1      33.412  28.910  24.342  1.00  0.00     0.123 A 
ATOM     11  N   UNL A   1      31.964  28.541  22.652  1.00  0.00    -0.167 NA
ATOM     12  C   UNL A   1      31.268  28.629  23.807  1.00  0.00     0.163 A 
BRANCH  12  13
ATOM     13  C   UNL A   1      29.807  28.387  23.778  1.00  0.00     0.276 C 
ATOM     14  O   UNL A   1      29.005  29.320  23.660  1.00  0.00    -0.267 OA
ATOM     15  N   UNL A   1      29.277  27.112  23.811  1.00  0.00    -0.321 N 
ATOM     16  H   UNL A   1      28.333  27.055  23.539  1.00  0.00     0.170 HD
BRANCH  15  17
ATOM     17  C   UNL A   1      29.854  25.890  24.166  1.00  0.00     0.041 A 
ATOM     18  C   UNL A   1      30.211  25.020  23.128  1.00  0.00     0.027 A 
ATOM     19  C   UNL A   1      30.108  25.532  25.486  1.00  0.00     0.027 A 
ATOM     20  C   UNL A   1      30.957  23.870  23.397  1.00  0.00     0.016 A 
ATOM     21  C   UNL A   1      30.821  24.366  25.755  1.00  0.00     0.016 A 
ATOM     22  C   UNL A   1      31.299  23.554  24.714  1.00  0.00     0.037 A 
BRANCH  22  23
ATOM     23  C   UNL A   1      32.224  22.485  25.054  1.00  0.00     0.227 A 
ATOM     24  N   UNL A   1      33.495  22.611  25.387  1.00  0.00    -0.209 NA
ATOM     25  O   UNL A   1      31.835  21.207  24.731  1.00  0.00    -0.436 OA
ATOM     26  C   UNL A   1      34.000  21.356  25.206  1.00  0.00     0.111 A 
ATOM     27  C   UNL A   1      32.995  20.490  24.808  1.00  0.00     0.155 A 
ATOM     28  C   UNL A   1      35.315  20.902  25.293  1.00  0.00     0.053 A 
ATOM     29  C   UNL A   1      33.191  19.154  24.487  1.00  0.00     0.051 A 
ATOM     30  C   UNL A   1      35.560  19.576  24.934  1.00  0.00     0.043 A 
ATOM     31  C   UNL A   1      34.522  18.715  24.551  1.00  0.00     0.024 A 
ATOM     32  Cl  UNL A   1      37.195  19.043  24.919  1.00  0.00    -0.084 Cl
ENDBRANCH  22  23
ENDBRANCH  15  17
ENDBRANCH  12  13
ENDBRANCH   4   7
ENDBRANCH   2   3
ENDBRANCH   1   2
BRANCH   1  33
ATOM     33  C   UNL A   1      34.790  32.482  28.060  1.00  0.00     0.023 C 
BRANCH  33  34
ATOM     34  C   UNL A   1      35.898  32.423  29.115  1.00  0.00     0.116 C 
BRANCH  34  35
ATOM     35  N   UNL A   1      35.647  31.492  30.200  1.00  0.00    -0.352 N 
ATOM     36  C   UNL A   1      36.460  30.531  30.759  1.00  0.00     0.251 C 
ATOM     37  H   UNL A   1      34.751  31.560  30.602  1.00  0.00     0.163 HD
ATOM     38  O   UNL A   1      35.998  29.833  31.661  1.00  0.00    -0.269 OA
BRANCH  36  39
ATOM     39  C   UNL A   1      37.850  30.282  30.283  1.00  0.00     0.039 A 
ATOM     40  C   UNL A   1      38.898  30.421  31.205  1.00  0.00     0.014 A 
ATOM     41  C   UNL A   1      38.157  29.965  28.959  1.00  0.00     0.014 A 
ATOM     42  C   UNL A   1      40.224  30.168  30.828  1.00  0.00     0.010 A 
ATOM     43  C   UNL A   1      39.475  29.662  28.594  1.00  0.00     0.010 A 
ATOM     44  C   UNL A   1      40.525  29.740  29.528  1.00  0.00    -0.014 A 
BRANCH  44  45
ATOM     45  C   UNL A   1      41.896  29.306  29.131  1.00  0.00     0.031 A 
ATOM     46  C   UNL A   1      42.986  30.313  28.886  1.00  0.00     0.074 A 
ATOM     47  C   UNL A   1      42.139  28.008  28.858  1.00  0.00     0.049 A 
ATOM     48  N   UNL A   1      44.177  30.129  28.373  1.00  0.00    -0.248 NA
ATOM     49  C   UNL A   1      42.696  31.705  29.255  1.00  0.00     0.031 C 
ATOM     50  C   UNL A   1      41.188  26.915  29.038  1.00  0.00     0.029 A 
ATOM     51  N   UNL A   1      43.240  27.393  28.311  1.00  0.00    -0.354 N 
ATOM     52  C   UNL A   1      44.782  31.379  28.360  1.00  0.00     0.074 A 
ATOM     53  C   UNL A   1      43.804  32.322  28.866  1.00  0.00     0.031 C 
ATOM     54  C   UNL A   1      41.704  25.785  28.530  1.00  0.00     0.029 A 
ATOM     55  C   UNL A   1      43.033  26.068  28.006  1.00  0.00     0.049 A 
ATOM     56  H   UNL A   1      44.095  27.857  28.152  1.00  0.00     0.167 HD
ATOM     57  C   UNL A   1      46.044  31.709  27.992  1.00  0.00     0.037 A 
ATOM     58  C   UNL A   1      43.809  25.173  27.366  1.00  0.00     0.037 A 
ATOM     59  C   UNL A   1      47.036  30.777  27.526  1.00  0.00     0.049 A 
ATOM     60  C   UNL A   1      45.194  25.558  26.943  1.00  0.00     0.074 A 
ATOM     61  C   UNL A   1      48.368  31.012  27.224  1.00  0.00     0.029 A 
ATOM     62  N   UNL A   1      46.810  29.430  27.290  1.00  0.00    -0.354 N 
ATOM     63  N   UNL A   1      45.776  26.730  27.014  1.00  0.00    -0.248 NA
ATOM     64  C   UNL A   1      46.044  24.492  26.392  1.00  0.00     0.031 C 
ATOM     65  C   UNL A   1      48.942  29.809  26.793  1.00  0.00     0.029 A 
ATOM     66  C   UNL A   1      47.972  28.824  26.840  1.00  0.00     0.049 A 
ATOM     67  H   UNL A   1      45.949  28.971  27.423  1.00  0.00     0.167 HD
ATOM     68  C   UNL A   1      47.076  26.532  26.569  1.00  0.00     0.074 A 
ATOM     69  C   UNL A   1      47.190  25.135  26.204  1.00  0.00     0.031 C 
ATOM     70  C   UNL A   1      48.088  27.429  26.498  1.00  0.00     0.037 A 
BRANCH  57  71
ATOM     71  C   UNL A   1      46.426  33.154  28.113  1.00  0.00     0.058 A 
ATOM     72  C   UNL A   1      46.271  34.039  27.035  1.00  0.00     0.135 A 
ATOM     73  C   UNL A   1      46.958  33.658  29.310  1.00  0.00     0.135 A 
ATOM     74  F   UNL A   1      45.777  33.598  25.867  1.00  0.00    -0.206 F 
ATOM     75  C   UNL A   1      46.670  35.367  27.123  1.00  0.00     0.059 A 
ATOM     76  C   UNL A   1      47.347  34.989  29.426  1.00  0.00     0.059 A 
ATOM     77  F   UNL A   1      47.123  32.851  30.369  1.00  0.00    -0.206 F 
ATOM     78  C   UNL A   1      47.222  35.829  28.319  1.00  0.00     0.060 A 
BRANCH  78  79
ATOM     79  S   UNL A   1      47.782  37.542  28.419  1.00  0.00     0.124 S 
ATOM     80  O   UNL A   1      48.488  37.538  29.696  1.00  0.00    -0.237 OA
ATOM     81  O   UNL A   1      48.621  37.677  27.232  1.00  0.00    -0.237 OA
ATOM     82  O   UNL A   1      46.536  38.302  28.390  1.00  0.00    -0.744 OA
ENDBRANCH  78  79
ENDBRANCH  57  71
BRANCH  58  83
ATOM     83  C   UNL A   1      43.296  23.805  27.115  1.00  0.00     0.058 A 
ATOM     84  C   UNL A   1      42.893  23.409  25.834  1.00  0.00     0.135 A 
ATOM     85  C   UNL A   1      43.229  22.860  28.151  1.00  0.00     0.135 A 
ATOM     86  F   UNL A   1      42.942  24.283  24.817  1.00  0.00    -0.206 F 
ATOM     87  C   UNL A   1      42.428  22.124  25.585  1.00  0.00     0.059 A 
ATOM     88  C   UNL A   1      42.778  21.565  27.925  1.00  0.00     0.059 A 
ATOM     89  F   UNL A   1      43.621  23.194  29.391  1.00  0.00    -0.206 F 
ATOM     90  C   UNL A   1      42.373  21.207  26.638  1.00  0.00     0.060 A 
BRANCH  90  91
ATOM     91  S   UNL A   1      41.814  19.525  26.294  1.00  0.00     0.124 S 
ATOM     92  O   UNL A   1      40.371  19.710  26.198  1.00  0.00    -0.237 OA
ATOM     93  O   UNL A   1      42.503  19.219  25.044  1.00  0.00    -0.237 OA
ATOM     94  O   UNL A   1      42.280  18.774  27.457  1.00  0.00    -0.744 OA
ENDBRANCH  90  91
ENDBRANCH  58  83
BRANCH  70  95
ATOM     95  C   UNL A   1      49.430  26.914  26.068  1.00  0.00     0.058 A 
ATOM     96  C   UNL A   1      49.885  27.051  24.749  1.00  0.00     0.135 A 
ATOM     97  C   UNL A   1      50.282  26.301  27.000  1.00  0.00     0.135 A 
ATOM     98  F   UNL A   1      49.100  27.621  23.819  1.00  0.00    -0.206 F 
ATOM     99  C   UNL A   1      51.139  26.588  24.363  1.00  0.00     0.059 A 
ATOM    100  C   UNL A   1      51.544  25.841  26.640  1.00  0.00     0.059 A 
ATOM    101  F   UNL A   1      49.889  26.148  28.274  1.00  0.00    -0.206 F 
ATOM    102  C   UNL A   1      51.960  25.981  25.317  1.00  0.00     0.060 A 
BRANCH 102 103
ATOM    103  S   UNL A   1      53.602  25.412  24.825  1.00  0.00     0.124 S 
ATOM    104  O   UNL A   1      53.583  24.027  25.285  1.00  0.00    -0.237 OA
ATOM    105  O   UNL A   1      53.587  25.599  23.378  1.00  0.00    -0.237 OA
ATOM    106  O   UNL A   1      54.498  26.306  25.555  1.00  0.00    -0.744 OA
ENDBRANCH 102 103
ENDBRANCH  70  95
ENDBRANCH  44  45
ENDBRANCH  36  39
ENDBRANCH  34  35
ENDBRANCH  33  34
ENDBRANCH   1  33
TORSDOF 17
ENDMDL
MODEL 3
REMARK VINA RESULT:     -12.1      3.623      9.672
REMARK SMILES Cn1cc(C(=O)NCCCCNC(=O)c2ccc(-c3c4nc(c(-c5c(F)cc(S(=O)(=O)[O-])cc5F)c5ccc([nH]5)c(-c5c(F)cc(S(=O)(=O)[O-])cc5F)c5nc(c(-c6c(F)cc(S(=O)(=O)[O-])cc6F)c6ccc3[nH]6)C=C5)C=C4)cc2)c(C(=O)Nc2ccc(-c3nc4cc(Cl)ccc4o3)cc2)n1
REMARK SMILES IDX 9 1 8 2 7 3 5 4 6 5 4 7 1 8 2 9 3 10 101 11 81 12 82 13
REMARK SMILES IDX 83 14 84 15 85 17 86 18 100 19 87 20 99 21 88 22 89 23 90 24
REMARK SMILES IDX 98 25 91 26 97 27 92 28 96 29 93 30 95 31 94 32 10 33 11 34
REMARK SMILES IDX 12 35 13 36 14 38 15 39 16 40 80 41 17 42 79 43 18 44 19 45
REMARK SMILES IDX 20 46 73 47 21 48 78 49 72 50 74 51 22 52 77 53 71 54 70 55
REMARK SMILES IDX 23 57 57 58 36 59 56 60 37 61 40 62 55 63 75 64 38 65 39 66
REMARK SMILES IDX 54 68 76 69 41 70 24 71 25 72 34 73 26 74 27 75 33 76 35 77
REMARK SMILES IDX 28 78 29 79 30 80 31 81 32 82 58 83 59 84 68 85 60 86 61 87
REMARK SMILES IDX 67 88 69 89 62 90 63 91 64 92 65 93 66 94 42 95 43 96 52 97
REMARK SMILES IDX 44 98 45 99 51 100 53 101 46 102 47 103 48 104 49 105 50 106
REMARK H PARENT 7 6 84 16 12 37 74 56 40 67
REMARK Flexibility Score: inf
ROOT
ATOM      1  C   UNL A   1      35.316  23.293  23.066  1.00  0.00     0.023 C 
ENDROOT
BRANCH   1   2
ATOM      2  C   UNL A   1      34.661  24.481  23.767  1.00  0.00     0.116 C 
BRANCH   2   3
ATOM      3  N   UNL A   1      34.014  25.433  22.892  1.00  0.00    -0.352 N 
ATOM      4  C   UNL A   1      33.392  26.644  23.106  1.00  0.00     0.255 C 
ATOM      5  O   UNL A   1      33.231  27.349  22.100  1.00  0.00    -0.269 OA
ATOM      6  H   UNL A   1      34.018  25.159  21.946  1.00  0.00     0.163 HD
BRANCH   4   7
ATOM      7  C   UNL A   1      32.940  27.093  24.414  1.00  0.00     0.090 A 
ATOM      8  C   UNL A   1      33.019  28.852  27.565  1.00  0.00     0.173 C 
ATOM      9  N   UNL A   1      32.757  28.048  26.394  1.00  0.00    -0.274 N 
ATOM     10  C   UNL A   1      33.659  27.650  25.454  1.00  0.00     0.123 A 
ATOM     11  N   UNL A   1      31.501  27.702  26.111  1.00  0.00    -0.167 NA
ATOM     12  C   UNL A   1      31.566  27.147  24.881  1.00  0.00     0.163 A 
BRANCH  12  13
ATOM     13  C   UNL A   1      30.303  26.791  24.193  1.00  0.00     0.276 C 
ATOM     14  O   UNL A   1      29.397  27.620  24.048  1.00  0.00    -0.267 OA
ATOM     15  N   UNL A   1      30.106  25.548  23.625  1.00  0.00    -0.321 N 
ATOM     16  H   UNL A   1      29.354  25.503  22.992  1.00  0.00     0.170 HD
BRANCH  15  17
ATOM     17  C   UNL A   1      30.793  24.344  23.797  1.00  0.00     0.041 A 
ATOM     18  C   UNL A   1      30.974  23.887  25.108  1.00  0.00     0.027 A 
ATOM     19  C   UNL A   1      31.265  23.587  22.730  1.00  0.00     0.027 A 
ATOM     20  C   UNL A   1      31.484  22.608  25.346  1.00  0.00     0.016 A 
ATOM     21  C   UNL A   1      31.806  22.327  22.970  1.00  0.00     0.016 A 
ATOM     22  C   UNL A   1      31.871  21.803  24.272  1.00  0.00     0.037 A 
BRANCH  22  23
ATOM     23  C   UNL A   1      32.232  20.403  24.425  1.00  0.00     0.227 A 
ATOM     24  N   UNL A   1      32.883  19.857  25.435  1.00  0.00    -0.209 NA
ATOM     25  O   UNL A   1      32.148  19.618  23.300  1.00  0.00    -0.436 OA
ATOM     26  C   UNL A   1      33.320  18.667  24.931  1.00  0.00     0.111 A 
ATOM     27  C   UNL A   1      32.875  18.509  23.628  1.00  0.00     0.155 A 
ATOM     28  C   UNL A   1      34.157  17.709  25.500  1.00  0.00     0.053 A 
ATOM     29  C   UNL A   1      33.195  17.430  22.815  1.00  0.00     0.051 A 
ATOM     30  C   UNL A   1      34.539  16.632  24.698  1.00  0.00     0.043 A 
ATOM     31  C   UNL A   1      34.060  16.487  23.388  1.00  0.00     0.024 A 
ATOM     32  Cl  UNL A   1      35.669  15.513  25.351  1.00  0.00    -0.084 Cl
ENDBRANCH  22  23
ENDBRANCH  15  17
ENDBRANCH  12  13
ENDBRANCH   4   7
ENDBRANCH   2   3
ENDBRANCH   1   2
BRANCH   1  33
ATOM     33  C   UNL A   1      36.736  22.935  23.526  1.00  0.00     0.023 C 
BRANCH  33  34
ATOM     34  C   UNL A   1      37.135  23.303  24.959  1.00  0.00     0.116 C 
BRANCH  34  35
ATOM     35  N   UNL A   1      38.029  22.353  25.596  1.00  0.00    -0.352 N 
ATOM     36  C   UNL A   1      39.130  22.561  26.396  1.00  0.00     0.251 C 
ATOM     37  H   UNL A   1      37.812  21.408  25.430  1.00  0.00     0.163 HD
ATOM     38  O   UNL A   1      39.754  21.578  26.794  1.00  0.00    -0.269 OA
BRANCH  36  39
ATOM     39  C   UNL A   1      39.612  23.924  26.757  1.00  0.00     0.039 A 
ATOM     40  C   UNL A   1      39.421  24.364  28.075  1.00  0.00     0.014 A 
ATOM     41  C   UNL A   1      40.199  24.793  25.837  1.00  0.00     0.014 A 
ATOM     42  C   UNL A   1      39.882  25.623  28.486  1.00  0.00     0.010 A 
ATOM     43  C   UNL A   1      40.705  26.030  26.258  1.00  0.00     0.010 A 
ATOM     44  C   UNL A   1      40.572  26.454  27.592  1.00  0.00    -0.014 A 
BRANCH  44  45
ATOM     45  C   UNL A   1      41.218  27.727  28.029  1.00  0.00     0.031 A 
ATOM     46  C   UNL A   1      42.712  27.829  28.164  1.00  0.00     0.074 A 
ATOM     47  C   UNL A   1      40.457  28.763  28.437  1.00  0.00     0.049 A 
ATOM     48  N   UNL A   1      43.427  28.792  28.690  1.00  0.00    -0.248 NA
ATOM     49  C   UNL A   1      43.502  26.701  27.651  1.00  0.00     0.031 C 
ATOM     50  C   UNL A   1      39.000  28.815  28.375  1.00  0.00     0.029 A 
ATOM     51  N   UNL A   1      40.800  29.948  29.043  1.00  0.00    -0.354 N 
ATOM     52  C   UNL A   1      44.751  28.391  28.570  1.00  0.00     0.074 A 
ATOM     53  C   UNL A   1      44.735  27.071  27.970  1.00  0.00     0.031 C 
ATOM     54  C   UNL A   1      38.566  29.922  28.998  1.00  0.00     0.029 A 
ATOM     55  C   UNL A   1      39.716  30.670  29.486  1.00  0.00     0.049 A 
ATOM     56  H   UNL A   1      41.731  30.251  29.150  1.00  0.00     0.167 HD
ATOM     57  C   UNL A   1      45.879  29.068  28.898  1.00  0.00     0.037 A 
ATOM     58  C   UNL A   1      39.641  31.800  30.215  1.00  0.00     0.037 A 
ATOM     59  C   UNL A   1      45.909  30.394  29.457  1.00  0.00     0.049 A 
ATOM     60  C   UNL A   1      40.896  32.526  30.591  1.00  0.00     0.074 A 
ATOM     61  C   UNL A   1      47.009  31.192  29.729  1.00  0.00     0.029 A 
ATOM     62  N   UNL A   1      44.791  31.121  29.834  1.00  0.00    -0.354 N 
ATOM     63  N   UNL A   1      42.140  32.166  30.396  1.00  0.00    -0.248 NA
ATOM     64  C   UNL A   1      40.738  33.832  31.249  1.00  0.00     0.031 C 
ATOM     65  C   UNL A   1      46.555  32.395  30.283  1.00  0.00     0.029 A 
ATOM     66  C   UNL A   1      45.173  32.352  30.342  1.00  0.00     0.049 A 
ATOM     67  H   UNL A   1      43.861  30.808  29.752  1.00  0.00     0.167 HD
ATOM     68  C   UNL A   1      42.913  33.224  30.855  1.00  0.00     0.074 A 
ATOM     69  C   UNL A   1      42.000  34.226  31.365  1.00  0.00     0.031 C 
ATOM     70  C   UNL A   1      44.261  33.356  30.829  1.00  0.00     0.037 A 
BRANCH  57  71
ATOM     71  C   UNL A   1      47.183  28.381  28.624  1.00  0.00     0.058 A 
ATOM     72  C   UNL A   1      47.808  28.485  27.371  1.00  0.00     0.135 A 
ATOM     73  C   UNL A   1      47.809  27.607  29.613  1.00  0.00     0.135 A 
ATOM     74  F   UNL A   1      47.240  29.205  26.391  1.00  0.00    -0.206 F 
ATOM     75  C   UNL A   1      48.991  27.809  27.093  1.00  0.00     0.059 A 
ATOM     76  C   UNL A   1      49.002  26.937  29.362  1.00  0.00     0.059 A 
ATOM     77  F   UNL A   1      47.249  27.480  30.826  1.00  0.00    -0.206 F 
ATOM     78  C   UNL A   1      49.572  27.025  28.091  1.00  0.00     0.060 A 
BRANCH  78  79
ATOM     79  S   UNL A   1      51.083  26.112  27.716  1.00  0.00     0.124 S 
ATOM     80  O   UNL A   1      50.552  24.780  27.441  1.00  0.00    -0.237 OA
ATOM     81  O   UNL A   1      51.616  26.831  26.563  1.00  0.00    -0.237 OA
ATOM     82  O   UNL A   1      51.862  26.239  28.943  1.00  0.00    -0.744 OA
ENDBRANCH  78  79
ENDBRANCH  57  71
BRANCH  58  83
ATOM     83  C   UNL A   1      38.313  32.330  30.609  1.00  0.00     0.058 A 
ATOM     84  C   UNL A   1      37.746  32.004  31.847  1.00  0.00     0.135 A 
ATOM     85  C   UNL A   1      37.604  33.197  29.763  1.00  0.00     0.135 A 
ATOM     86  F   UNL A   1      38.393  31.179  32.684  1.00  0.00    -0.206 F 
ATOM     87  C   UNL A   1      36.511  32.511  32.235  1.00  0.00     0.059 A 
ATOM     88  C   UNL A   1      36.372  33.725  30.133  1.00  0.00     0.059 A 
ATOM     89  F   UNL A   1      38.120  33.546  28.575  1.00  0.00    -0.206 F 
ATOM     90  C   UNL A   1      35.830  33.370  31.369  1.00  0.00     0.060 A 
BRANCH  90  91
ATOM     91  S   UNL A   1      34.249  34.062  31.902  1.00  0.00     0.124 S 
ATOM     92  O   UNL A   1      33.629  34.392  30.625  1.00  0.00    -0.237 OA
ATOM     93  O   UNL A   1      33.654  32.947  32.632  1.00  0.00    -0.237 OA
ATOM     94  O   UNL A   1      34.644  35.201  32.727  1.00  0.00    -0.744 OA
ENDBRANCH  90  91
ENDBRANCH  58  83
BRANCH  70  95
ATOM     95  C   UNL A   1      44.831  34.659  31.307  1.00  0.00     0.058 A 
ATOM     96  C   UNL A   1      45.217  34.850  32.642  1.00  0.00     0.135 A 
ATOM     97  C   UNL A   1      45.018  35.719  30.408  1.00  0.00     0.135 A 
ATOM     98  F   UNL A   1      45.046  33.868  33.542  1.00  0.00    -0.206 F 
ATOM     99  C   UNL A   1      45.762  36.056  33.073  1.00  0.00     0.059 A 
ATOM    100  C   UNL A   1      45.572  36.929  30.813  1.00  0.00     0.059 A 
ATOM    101  F   UNL A   1      44.664  35.583  29.120  1.00  0.00    -0.206 F 
ATOM    102  C   UNL A   1      45.933  37.091  32.150  1.00  0.00     0.060 A 
BRANCH 102 103
ATOM    103  S   UNL A   1      46.674  38.643  32.700  1.00  0.00     0.124 S 
ATOM    104  O   UNL A   1      46.835  39.356  31.437  1.00  0.00    -0.237 OA
ATOM    105  O   UNL A   1      45.662  39.178  33.605  1.00  0.00    -0.237 OA
ATOM    106  O   UNL A   1      47.913  38.213  33.343  1.00  0.00    -0.744 OA
ENDBRANCH 102 103
ENDBRANCH  70  95
ENDBRANCH  44  45
ENDBRANCH  36  39
ENDBRANCH  34  35
ENDBRANCH  33  34
ENDBRANCH   1  33
TORSDOF 17
ENDMDL
