MODEL 1
REMARK VINA RESULT:     -12.6      0.000      0.000
REMARK SMILES O=C(NCCCCNC(=O)[C@H]1C=C[C@@H](NC(=O)c2cn3ccccc3n2)C1)c1ccc(-c2c3nc(c(-c4c(F)cc(S(=O)(=O)[O-])cc4F)c4ccc([nH]4)c(-c4c(F)cc(S(=O)(=O)[O-])cc4F)c4nc(c(-c5c(F)cc(S(=O)(=O)[O-])cc5F)c5ccc2[nH]5)C=C4)C=C3)cc1
REMARK SMILES IDX 5 1 4 2 3 3 1 4 2 5 28 7 29 8 93 9 30 10 92 11 31 12 32 13
REMARK SMILES IDX 33 14 86 15 34 16 91 17 85 18 87 19 35 20 90 21 84 22 83 23
REMARK SMILES IDX 36 25 70 26 49 27 69 28 50 29 53 30 68 31 88 32 51 33 52 34
REMARK SMILES IDX 67 36 89 37 54 38 37 39 38 40 47 41 39 42 40 43 46 44 48 45
REMARK SMILES IDX 41 46 42 47 43 48 44 49 45 50 71 51 72 52 81 53 73 54 74 55
REMARK SMILES IDX 80 56 82 57 75 58 76 59 77 60 78 61 79 62 55 63 56 64 65 65
REMARK SMILES IDX 57 66 58 67 64 68 66 69 59 70 60 71 61 72 62 73 63 74 6 75
REMARK SMILES IDX 7 76 8 77 9 78 10 80 11 81 12 82 27 83 13 84 14 85 15 86
REMARK SMILES IDX 16 87 17 89 18 90 19 91 26 92 20 93 25 94 21 95 24 96 22 97
REMARK SMILES IDX 23 98
REMARK H PARENT 3 6 87 24 53 35 8 79 15 88
REMARK Flexibility Score: inf
ROOT
ATOM      1  C   UNL A   1      39.352  22.488  26.529  1.00  0.00     0.023 C 
ENDROOT
BRANCH   1   2
ATOM      2  C   UNL A   1      40.482  23.344  27.092  1.00  0.00     0.116 C 
BRANCH   2   3
ATOM      3  N   UNL A   1      41.218  24.063  26.064  1.00  0.00    -0.352 N 
ATOM      4  O   UNL A   1      42.049  25.847  24.965  1.00  0.00    -0.269 OA
ATOM      5  C   UNL A   1      41.542  25.399  25.989  1.00  0.00     0.251 C 
ATOM      6  H   UNL A   1      41.531  23.513  25.309  1.00  0.00     0.163 HD
BRANCH   5   7
ATOM      7  C   UNL A   1      41.249  26.296  27.129  1.00  0.00     0.039 A 
ATOM      8  C   UNL A   1      41.969  27.476  27.309  1.00  0.00     0.014 A 
ATOM      9  C   UNL A   1      40.242  25.946  28.036  1.00  0.00     0.014 A 
ATOM     10  C   UNL A   1      41.804  28.215  28.474  1.00  0.00     0.010 A 
ATOM     11  C   UNL A   1      40.013  26.742  29.163  1.00  0.00     0.010 A 
ATOM     12  C   UNL A   1      40.818  27.863  29.412  1.00  0.00    -0.014 A 
BRANCH  12  13
ATOM     13  C   UNL A   1      40.624  28.725  30.607  1.00  0.00     0.031 A 
ATOM     14  C   UNL A   1      41.528  28.619  31.806  1.00  0.00     0.074 A 
ATOM     15  C   UNL A   1      39.649  29.656  30.573  1.00  0.00     0.049 A 
ATOM     16  N   UNL A   1      41.523  29.335  32.902  1.00  0.00    -0.248 NA
ATOM     17  C   UNL A   1      42.566  27.576  31.780  1.00  0.00     0.031 C 
ATOM     18  C   UNL A   1      38.699  29.837  29.473  1.00  0.00     0.029 A 
ATOM     19  N   UNL A   1      39.314  30.640  31.466  1.00  0.00    -0.354 N 
ATOM     20  C   UNL A   1      42.538  28.822  33.702  1.00  0.00     0.074 A 
ATOM     21  C   UNL A   1      43.128  27.719  32.973  1.00  0.00     0.031 C 
ATOM     22  C   UNL A   1      37.928  30.904  29.727  1.00  0.00     0.029 A 
ATOM     23  C   UNL A   1      38.290  31.448  31.031  1.00  0.00     0.049 A 
ATOM     24  H   UNL A   1      39.763  30.758  32.333  1.00  0.00     0.167 HD
ATOM     25  C   UNL A   1      42.944  29.239  34.926  1.00  0.00     0.037 A 
ATOM     26  C   UNL A   1      37.700  32.505  31.617  1.00  0.00     0.037 A 
ATOM     27  C   UNL A   1      42.368  30.353  35.636  1.00  0.00     0.049 A 
ATOM     28  C   UNL A   1      38.181  32.954  32.965  1.00  0.00     0.074 A 
ATOM     29  C   UNL A   1      42.724  30.864  36.874  1.00  0.00     0.029 A 
ATOM     30  N   UNL A   1      41.318  31.133  35.173  1.00  0.00    -0.354 N 
ATOM     31  N   UNL A   1      39.149  32.459  33.698  1.00  0.00    -0.248 NA
ATOM     32  C   UNL A   1      37.486  34.098  33.569  1.00  0.00     0.031 C 
ATOM     33  C   UNL A   1      41.873  31.935  37.168  1.00  0.00     0.029 A 
ATOM     34  C   UNL A   1      41.007  32.112  36.102  1.00  0.00     0.049 A 
ATOM     35  H   UNL A   1      40.861  31.008  34.310  1.00  0.00     0.167 HD
ATOM     36  C   UNL A   1      39.177  33.229  34.853  1.00  0.00     0.074 A 
ATOM     37  C   UNL A   1      38.151  34.242  34.707  1.00  0.00     0.031 C 
ATOM     38  C   UNL A   1      39.974  33.102  35.942  1.00  0.00     0.037 A 
BRANCH  25  39
ATOM     39  C   UNL A   1      44.066  28.488  35.589  1.00  0.00     0.058 A 
ATOM     40  C   UNL A   1      43.821  27.403  36.441  1.00  0.00     0.135 A 
ATOM     41  C   UNL A   1      45.404  28.817  35.313  1.00  0.00     0.135 A 
ATOM     42  F   UNL A   1      42.560  27.056  36.749  1.00  0.00    -0.206 F 
ATOM     43  C   UNL A   1      44.861  26.673  37.008  1.00  0.00     0.059 A 
ATOM     44  C   UNL A   1      46.461  28.090  35.856  1.00  0.00     0.059 A 
ATOM     45  F   UNL A   1      45.694  29.847  34.505  1.00  0.00    -0.206 F 
ATOM     46  C   UNL A   1      46.180  27.024  36.709  1.00  0.00     0.060 A 
BRANCH  46  47
ATOM     47  S   UNL A   1      47.520  26.056  37.435  1.00  0.00     0.124 S 
ATOM     48  O   UNL A   1      47.004  24.698  37.298  1.00  0.00    -0.237 OA
ATOM     49  O   UNL A   1      48.651  26.392  36.578  1.00  0.00    -0.237 OA
ATOM     50  O   UNL A   1      47.601  26.561  38.802  1.00  0.00    -0.744 OA
ENDBRANCH  46  47
ENDBRANCH  25  39
BRANCH  26  51
ATOM     51  C   UNL A   1      36.582  33.200  30.930  1.00  0.00     0.058 A 
ATOM     52  C   UNL A   1      35.254  33.019  31.338  1.00  0.00     0.135 A 
ATOM     53  C   UNL A   1      36.828  34.083  29.866  1.00  0.00     0.135 A 
ATOM     54  F   UNL A   1      34.972  32.183  32.351  1.00  0.00    -0.206 F 
ATOM     55  C   UNL A   1      34.203  33.677  30.708  1.00  0.00     0.059 A 
ATOM     56  C   UNL A   1      35.797  34.771  29.236  1.00  0.00     0.059 A 
ATOM     57  F   UNL A   1      38.086  34.304  29.453  1.00  0.00    -0.206 F 
ATOM     58  C   UNL A   1      34.486  34.551  29.657  1.00  0.00     0.060 A 
BRANCH  58  59
ATOM     59  S   UNL A   1      33.129  35.448  28.873  1.00  0.00     0.124 S 
ATOM     60  O   UNL A   1      32.415  35.967  30.034  1.00  0.00    -0.237 OA
ATOM     61  O   UNL A   1      33.834  36.436  28.062  1.00  0.00    -0.237 OA
ATOM     62  O   UNL A   1      32.438  34.408  28.117  1.00  0.00    -0.744 OA
ENDBRANCH  58  59
ENDBRANCH  26  51
BRANCH  38  63
ATOM     63  C   UNL A   1      39.756  34.086  37.055  1.00  0.00     0.058 A 
ATOM     64  C   UNL A   1      40.369  35.349  37.039  1.00  0.00     0.135 A 
ATOM     65  C   UNL A   1      38.927  33.767  38.140  1.00  0.00     0.135 A 
ATOM     66  F   UNL A   1      41.177  35.695  36.025  1.00  0.00    -0.206 F 
ATOM     67  C   UNL A   1      40.189  36.254  38.079  1.00  0.00     0.059 A 
ATOM     68  C   UNL A   1      38.718  34.665  39.181  1.00  0.00     0.059 A 
ATOM     69  F   UNL A   1      38.314  32.574  38.196  1.00  0.00    -0.206 F 
ATOM     70  C   UNL A   1      39.367  35.900  39.150  1.00  0.00     0.060 A 
BRANCH  70  71
ATOM     71  S   UNL A   1      39.135  37.080  40.496  1.00  0.00     0.124 S 
ATOM     72  O   UNL A   1      38.568  36.230  41.536  1.00  0.00    -0.237 OA
ATOM     73  O   UNL A   1      40.493  37.558  40.736  1.00  0.00    -0.237 OA
ATOM     74  O   UNL A   1      38.224  38.068  39.924  1.00  0.00    -0.744 OA
ENDBRANCH  70  71
ENDBRANCH  38  63
ENDBRANCH  12  13
ENDBRANCH   5   7
ENDBRANCH   2   3
ENDBRANCH   1   2
BRANCH   1  75
ATOM     75  C   UNL A   1      38.091  23.246  26.122  1.00  0.00     0.023 C 
BRANCH  75  76
ATOM     76  C   UNL A   1      37.341  22.678  24.922  1.00  0.00     0.116 C 
BRANCH  76  77
ATOM     77  N   UNL A   1      36.874  21.317  25.107  1.00  0.00    -0.356 N 
ATOM     78  C   UNL A   1      35.617  20.823  24.865  1.00  0.00     0.227 C 
ATOM     79  H   UNL A   1      37.537  20.672  25.446  1.00  0.00     0.163 HD
ATOM     80  O   UNL A   1      35.432  19.609  24.945  1.00  0.00    -0.274 OA
BRANCH  78  81
ATOM     81  C   UNL A   1      34.497  21.818  24.572  1.00  0.00     0.103 C 
ATOM     82  C   UNL A   1      33.341  21.228  23.811  1.00  0.00    -0.016 C 
ATOM     83  C   UNL A   1      33.780  22.338  25.829  1.00  0.00     0.047 C 
ATOM     84  C   UNL A   1      32.180  21.755  24.215  1.00  0.00    -0.006 C 
ATOM     85  C   UNL A   1      32.390  22.735  25.323  1.00  0.00     0.106 C 
BRANCH  85  86
ATOM     86  N   UNL A   1      31.332  22.559  26.280  1.00  0.00    -0.344 N 
ATOM     87  C   UNL A   1      30.432  23.494  26.743  1.00  0.00     0.271 C 
ATOM     88  H   UNL A   1      31.239  21.653  26.653  1.00  0.00     0.164 HD
ATOM     89  O   UNL A   1      29.593  23.148  27.571  1.00  0.00    -0.267 OA
BRANCH  87  90
ATOM     90  C   UNL A   1      30.530  24.873  26.252  1.00  0.00     0.147 A 
ATOM     91  C   UNL A   1      29.968  25.414  25.107  1.00  0.00     0.127 A 
ATOM     92  N   UNL A   1      31.255  25.847  26.922  1.00  0.00    -0.223 NA
ATOM     93  N   UNL A   1      30.448  26.694  25.020  1.00  0.00    -0.306 N 
ATOM     94  C   UNL A   1      31.204  26.918  26.163  1.00  0.00     0.137 A 
ATOM     95  C   UNL A   1      30.286  27.636  24.007  1.00  0.00     0.093 A 
ATOM     96  C   UNL A   1      31.805  28.200  26.303  1.00  0.00     0.048 A 
ATOM     97  C   UNL A   1      30.879  28.835  24.128  1.00  0.00     0.018 A 
ATOM     98  C   UNL A   1      31.657  29.118  25.328  1.00  0.00     0.005 A 
ENDBRANCH  87  90
ENDBRANCH  85  86
ENDBRANCH  78  81
ENDBRANCH  76  77
ENDBRANCH  75  76
ENDBRANCH   1  75
TORSDOF 16
ENDMDL
MODEL 2
REMARK VINA RESULT:     -12.2      6.780     12.308
REMARK SMILES O=C(NCCCCNC(=O)[C@H]1C=C[C@@H](NC(=O)c2cn3ccccc3n2)C1)c1ccc(-c2c3nc(c(-c4c(F)cc(S(=O)(=O)[O-])cc4F)c4ccc([nH]4)c(-c4c(F)cc(S(=O)(=O)[O-])cc4F)c4nc(c(-c5c(F)cc(S(=O)(=O)[O-])cc5F)c5ccc2[nH]5)C=C4)C=C3)cc1
REMARK SMILES IDX 5 1 4 2 3 3 1 4 2 5 28 7 29 8 93 9 30 10 92 11 31 12 32 13
REMARK SMILES IDX 33 14 86 15 34 16 91 17 85 18 87 19 35 20 90 21 84 22 83 23
REMARK SMILES IDX 36 25 70 26 49 27 69 28 50 29 53 30 68 31 88 32 51 33 52 34
REMARK SMILES IDX 67 36 89 37 54 38 37 39 38 40 47 41 39 42 40 43 46 44 48 45
REMARK SMILES IDX 41 46 42 47 43 48 44 49 45 50 71 51 72 52 81 53 73 54 74 55
REMARK SMILES IDX 80 56 82 57 75 58 76 59 77 60 78 61 79 62 55 63 56 64 65 65
REMARK SMILES IDX 57 66 58 67 64 68 66 69 59 70 60 71 61 72 62 73 63 74 6 75
REMARK SMILES IDX 7 76 8 77 9 78 10 80 11 81 12 82 27 83 13 84 14 85 15 86
REMARK SMILES IDX 16 87 17 89 18 90 19 91 26 92 20 93 25 94 21 95 24 96 22 97
REMARK SMILES IDX 23 98
REMARK H PARENT 3 6 87 24 53 35 8 79 15 88
REMARK Flexibility Score: inf
ROOT
ATOM      1  C   UNL A   1      33.811  29.100  27.232  1.00  0.00     0.023 C 
ENDROOT
BRANCH   1   2
ATOM      2  C   UNL A   1      35.245  29.349  27.684  1.00  0.00     0.116 C 
BRANCH   2   3
ATOM      3  N   UNL A   1      35.327  30.040  28.962  1.00  0.00    -0.352 N 
ATOM      4  O   UNL A   1      36.242  30.700  30.913  1.00  0.00    -0.269 OA
ATOM      5  C   UNL A   1      36.405  30.205  29.802  1.00  0.00     0.251 C 
ATOM      6  H   UNL A   1      34.487  30.448  29.273  1.00  0.00     0.163 HD
BRANCH   5   7
ATOM      7  C   UNL A   1      37.750  29.757  29.375  1.00  0.00     0.039 A 
ATOM      8  C   UNL A   1      38.694  29.345  30.316  1.00  0.00     0.014 A 
ATOM      9  C   UNL A   1      38.072  29.755  28.013  1.00  0.00     0.014 A 
ATOM     10  C   UNL A   1      40.002  29.096  29.917  1.00  0.00     0.010 A 
ATOM     11  C   UNL A   1      39.367  29.414  27.604  1.00  0.00     0.010 A 
ATOM     12  C   UNL A   1      40.353  29.119  28.557  1.00  0.00    -0.014 A 
BRANCH  12  13
ATOM     13  C   UNL A   1      41.746  28.773  28.169  1.00  0.00     0.031 A 
ATOM     14  C   UNL A   1      42.852  29.791  28.223  1.00  0.00     0.074 A 
ATOM     15  C   UNL A   1      42.014  27.498  27.820  1.00  0.00     0.049 A 
ATOM     16  N   UNL A   1      44.127  29.632  27.970  1.00  0.00    -0.248 NA
ATOM     17  C   UNL A   1      42.487  31.166  28.604  1.00  0.00     0.031 C 
ATOM     18  C   UNL A   1      41.017  26.429  27.712  1.00  0.00     0.029 A 
ATOM     19  N   UNL A   1      43.199  26.877  27.525  1.00  0.00    -0.354 N 
ATOM     20  C   UNL A   1      44.713  30.881  28.141  1.00  0.00     0.074 A 
ATOM     21  C   UNL A   1      43.650  31.796  28.502  1.00  0.00     0.031 C 
ATOM     22  C   UNL A   1      41.638  25.274  27.433  1.00  0.00     0.029 A 
ATOM     23  C   UNL A   1      43.067  25.530  27.287  1.00  0.00     0.049 A 
ATOM     24  H   UNL A   1      44.062  27.349  27.487  1.00  0.00     0.167 HD
ATOM     25  C   UNL A   1      46.016  31.229  28.016  1.00  0.00     0.037 A 
ATOM     26  C   UNL A   1      43.990  24.600  26.978  1.00  0.00     0.037 A 
ATOM     27  C   UNL A   1      47.073  30.308  27.679  1.00  0.00     0.049 A 
ATOM     28  C   UNL A   1      45.428  25.011  26.862  1.00  0.00     0.074 A 
ATOM     29  C   UNL A   1      48.429  30.561  27.548  1.00  0.00     0.029 A 
ATOM     30  N   UNL A   1      46.897  28.955  27.424  1.00  0.00    -0.354 N 
ATOM     31  N   UNL A   1      45.959  26.196  27.037  1.00  0.00    -0.248 NA
ATOM     32  C   UNL A   1      46.388  23.962  26.499  1.00  0.00     0.031 C 
ATOM     33  C   UNL A   1      49.066  29.369  27.189  1.00  0.00     0.029 A 
ATOM     34  C   UNL A   1      48.114  28.365  27.127  1.00  0.00     0.049 A 
ATOM     35  H   UNL A   1      46.033  28.485  27.450  1.00  0.00     0.167 HD
ATOM     36  C   UNL A   1      47.319  26.037  26.802  1.00  0.00     0.074 A 
ATOM     37  C   UNL A   1      47.531  24.635  26.504  1.00  0.00     0.031 C 
ATOM     38  C   UNL A   1      48.301  26.970  26.820  1.00  0.00     0.037 A 
BRANCH  25  39
ATOM     39  C   UNL A   1      46.386  32.669  28.239  1.00  0.00     0.058 A 
ATOM     40  C   UNL A   1      46.869  33.120  29.476  1.00  0.00     0.135 A 
ATOM     41  C   UNL A   1      46.319  33.594  27.184  1.00  0.00     0.135 A 
ATOM     42  F   UNL A   1      46.939  32.280  30.522  1.00  0.00    -0.206 F 
ATOM     43  C   UNL A   1      47.265  34.441  29.665  1.00  0.00     0.059 A 
ATOM     44  C   UNL A   1      46.726  34.916  27.345  1.00  0.00     0.059 A 
ATOM     45  F   UNL A   1      45.863  33.215  25.981  1.00  0.00    -0.206 F 
ATOM     46  C   UNL A   1      47.190  35.332  28.592  1.00  0.00     0.060 A 
BRANCH  46  47
ATOM     47  S   UNL A   1      47.726  37.038  28.845  1.00  0.00     0.124 S 
ATOM     48  O   UNL A   1      46.725  37.520  29.792  1.00  0.00    -0.237 OA
ATOM     49  O   UNL A   1      49.073  36.868  29.380  1.00  0.00    -0.237 OA
ATOM     50  O   UNL A   1      47.656  37.618  27.508  1.00  0.00    -0.744 OA
ENDBRANCH  46  47
ENDBRANCH  25  39
BRANCH  26  51
ATOM     51  C   UNL A   1      43.571  23.194  26.747  1.00  0.00     0.058 A 
ATOM     52  C   UNL A   1      43.560  22.643  25.459  1.00  0.00     0.135 A 
ATOM     53  C   UNL A   1      43.201  22.367  27.820  1.00  0.00     0.135 A 
ATOM     54  F   UNL A   1      43.906  23.397  24.404  1.00  0.00    -0.206 F 
ATOM     55  C   UNL A   1      43.182  21.323  25.237  1.00  0.00     0.059 A 
ATOM     56  C   UNL A   1      42.843  21.039  27.626  1.00  0.00     0.059 A 
ATOM     57  F   UNL A   1      43.215  22.847  29.074  1.00  0.00    -0.206 F 
ATOM     58  C   UNL A   1      42.825  20.529  26.328  1.00  0.00     0.060 A 
BRANCH  58  59
ATOM     59  S   UNL A   1      42.386  18.799  26.049  1.00  0.00     0.124 S 
ATOM     60  O   UNL A   1      40.987  18.914  25.656  1.00  0.00    -0.237 OA
ATOM     61  O   UNL A   1      43.316  18.407  24.994  1.00  0.00    -0.237 OA
ATOM     62  O   UNL A   1      42.631  18.182  27.348  1.00  0.00    -0.744 OA
ENDBRANCH  58  59
ENDBRANCH  26  51
BRANCH  38  63
ATOM     63  C   UNL A   1      49.689  26.493  26.506  1.00  0.00     0.058 A 
ATOM     64  C   UNL A   1      50.484  25.873  27.483  1.00  0.00     0.135 A 
ATOM     65  C   UNL A   1      50.226  26.652  25.220  1.00  0.00     0.135 A 
ATOM     66  F   UNL A   1      50.016  25.708  28.729  1.00  0.00    -0.206 F 
ATOM     67  C   UNL A   1      51.779  25.452  27.201  1.00  0.00     0.059 A 
ATOM     68  C   UNL A   1      51.512  26.220  24.912  1.00  0.00     0.059 A 
ATOM     69  F   UNL A   1      49.501  27.233  24.251  1.00  0.00    -0.206 F 
ATOM     70  C   UNL A   1      52.287  25.636  25.914  1.00  0.00     0.060 A 
BRANCH  70  71
ATOM     71  S   UNL A   1      53.967  25.084  25.555  1.00  0.00     0.124 S 
ATOM     72  O   UNL A   1      54.205  25.698  24.254  1.00  0.00    -0.237 OA
ATOM     73  O   UNL A   1      54.729  25.641  26.669  1.00  0.00    -0.237 OA
ATOM     74  O   UNL A   1      53.850  23.629  25.552  1.00  0.00    -0.744 OA
ENDBRANCH  70  71
ENDBRANCH  38  63
ENDBRANCH  12  13
ENDBRANCH   5   7
ENDBRANCH   2   3
ENDBRANCH   1   2
BRANCH   1  75
ATOM     75  C   UNL A   1      33.170  30.223  26.419  1.00  0.00     0.023 C 
BRANCH  75  76
ATOM     76  C   UNL A   1      31.661  30.370  26.574  1.00  0.00     0.116 C 
BRANCH  76  77
ATOM     77  N   UNL A   1      30.982  30.805  25.367  1.00  0.00    -0.356 N 
ATOM     78  C   UNL A   1      30.559  30.029  24.318  1.00  0.00     0.227 C 
ATOM     79  H   UNL A   1      30.805  31.771  25.294  1.00  0.00     0.163 HD
ATOM     80  O   UNL A   1      29.875  30.547  23.437  1.00  0.00    -0.274 OA
BRANCH  78  81
ATOM     81  C   UNL A   1      31.019  28.574  24.269  1.00  0.00     0.103 C 
ATOM     82  C   UNL A   1      29.940  27.608  23.858  1.00  0.00    -0.016 C 
ATOM     83  C   UNL A   1      32.083  28.291  23.195  1.00  0.00     0.047 C 
ATOM     84  C   UNL A   1      30.439  26.618  23.111  1.00  0.00    -0.006 C 
ATOM     85  C   UNL A   1      31.904  26.803  22.883  1.00  0.00     0.106 C 
BRANCH  85  86
ATOM     86  N   UNL A   1      32.193  26.438  21.523  1.00  0.00    -0.344 N 
ATOM     87  C   UNL A   1      32.829  25.309  21.055  1.00  0.00     0.271 C 
ATOM     88  H   UNL A   1      31.897  27.079  20.836  1.00  0.00     0.164 HD
ATOM     89  O   UNL A   1      32.986  25.177  19.844  1.00  0.00    -0.267 OA
BRANCH  87  90
ATOM     90  C   UNL A   1      33.324  24.325  22.024  1.00  0.00     0.147 A 
ATOM     91  C   UNL A   1      32.769  23.098  22.353  1.00  0.00     0.127 A 
ATOM     92  N   UNL A   1      34.471  24.535  22.773  1.00  0.00    -0.223 NA
ATOM     93  N   UNL A   1      33.521  22.611  23.390  1.00  0.00    -0.306 N 
ATOM     94  C   UNL A   1      34.560  23.509  23.589  1.00  0.00     0.137 A 
ATOM     95  C   UNL A   1      33.329  21.470  24.165  1.00  0.00     0.093 A 
ATOM     96  C   UNL A   1      35.490  23.206  24.623  1.00  0.00     0.048 A 
ATOM     97  C   UNL A   1      34.192  21.202  25.160  1.00  0.00     0.018 A 
ATOM     98  C   UNL A   1      35.313  22.107  25.380  1.00  0.00     0.005 A 
ENDBRANCH  87  90
ENDBRANCH  85  86
ENDBRANCH  78  81
ENDBRANCH  76  77
ENDBRANCH  75  76
ENDBRANCH   1  75
TORSDOF 16
ENDMDL
MODEL 3
REMARK VINA RESULT:     -12.2      1.017      1.431
REMARK SMILES O=C(NCCCCNC(=O)[C@H]1C=C[C@@H](NC(=O)c2cn3ccccc3n2)C1)c1ccc(-c2c3nc(c(-c4c(F)cc(S(=O)(=O)[O-])cc4F)c4ccc([nH]4)c(-c4c(F)cc(S(=O)(=O)[O-])cc4F)c4nc(c(-c5c(F)cc(S(=O)(=O)[O-])cc5F)c5ccc2[nH]5)C=C4)C=C3)cc1
REMARK SMILES IDX 5 1 4 2 3 3 1 4 2 5 28 7 29 8 93 9 30 10 92 11 31 12 32 13
REMARK SMILES IDX 33 14 86 15 34 16 91 17 85 18 87 19 35 20 90 21 84 22 83 23
REMARK SMILES IDX 36 25 70 26 49 27 69 28 50 29 53 30 68 31 88 32 51 33 52 34
REMARK SMILES IDX 67 36 89 37 54 38 37 39 38 40 47 41 39 42 40 43 46 44 48 45
REMARK SMILES IDX 41 46 42 47 43 48 44 49 45 50 71 51 72 52 81 53 73 54 74 55
REMARK SMILES IDX 80 56 82 57 75 58 76 59 77 60 78 61 79 62 55 63 56 64 65 65
REMARK SMILES IDX 57 66 58 67 64 68 66 69 59 70 60 71 61 72 62 73 63 74 6 75
REMARK SMILES IDX 7 76 8 77 9 78 10 80 11 81 12 82 27 83 13 84 14 85 15 86
REMARK SMILES IDX 16 87 17 89 18 90 19 91 26 92 20 93 25 94 21 95 24 96 22 97
REMARK SMILES IDX 23 98
REMARK H PARENT 3 6 87 24 53 35 8 79 15 88
REMARK Flexibility Score: inf
ROOT
ATOM      1  C   UNL A   1      41.913  22.272  27.502  1.00  0.00     0.023 C 
ENDROOT
BRANCH   1   2
ATOM      2  C   UNL A   1      42.758  23.540  27.454  1.00  0.00     0.116 C 
BRANCH   2   3
ATOM      3  N   UNL A   1      42.613  24.274  26.206  1.00  0.00    -0.352 N 
ATOM      4  O   UNL A   1      41.947  25.935  24.837  1.00  0.00    -0.269 OA
ATOM      5  C   UNL A   1      42.122  25.541  25.986  1.00  0.00     0.251 C 
ATOM      6  H   UNL A   1      42.910  23.794  25.400  1.00  0.00     0.163 HD
BRANCH   5   7
ATOM      7  C   UNL A   1      41.778  26.410  27.133  1.00  0.00     0.039 A 
ATOM      8  C   UNL A   1      42.492  27.583  27.375  1.00  0.00     0.014 A 
ATOM      9  C   UNL A   1      40.730  26.041  27.983  1.00  0.00     0.014 A 
ATOM     10  C   UNL A   1      42.274  28.294  28.549  1.00  0.00     0.010 A 
ATOM     11  C   UNL A   1      40.450  26.811  29.118  1.00  0.00     0.010 A 
ATOM     12  C   UNL A   1      41.245  27.922  29.431  1.00  0.00    -0.014 A 
BRANCH  12  13
ATOM     13  C   UNL A   1      40.998  28.755  30.637  1.00  0.00     0.031 A 
ATOM     14  C   UNL A   1      41.883  28.662  31.851  1.00  0.00     0.074 A 
ATOM     15  C   UNL A   1      39.989  29.649  30.601  1.00  0.00     0.049 A 
ATOM     16  N   UNL A   1      41.832  29.358  32.958  1.00  0.00    -0.248 NA
ATOM     17  C   UNL A   1      42.961  27.659  31.825  1.00  0.00     0.031 C 
ATOM     18  C   UNL A   1      39.051  29.814  29.487  1.00  0.00     0.029 A 
ATOM     19  N   UNL A   1      39.601  30.604  31.504  1.00  0.00    -0.354 N 
ATOM     20  C   UNL A   1      42.852  28.870  33.767  1.00  0.00     0.074 A 
ATOM     21  C   UNL A   1      43.497  27.803  33.030  1.00  0.00     0.031 C 
ATOM     22  C   UNL A   1      38.236  30.845  29.746  1.00  0.00     0.029 A 
ATOM     23  C   UNL A   1      38.555  31.380  31.065  1.00  0.00     0.049 A 
ATOM     24  H   UNL A   1      40.030  30.724  32.382  1.00  0.00     0.167 HD
ATOM     25  C   UNL A   1      43.221  29.280  35.005  1.00  0.00     0.037 A 
ATOM     26  C   UNL A   1      37.914  32.404  31.658  1.00  0.00     0.037 A 
ATOM     27  C   UNL A   1      42.590  30.359  35.724  1.00  0.00     0.049 A 
ATOM     28  C   UNL A   1      38.354  32.847  33.022  1.00  0.00     0.074 A 
ATOM     29  C   UNL A   1      42.905  30.861  36.976  1.00  0.00     0.029 A 
ATOM     30  N   UNL A   1      41.519  31.107  35.255  1.00  0.00    -0.354 N 
ATOM     31  N   UNL A   1      39.327  32.376  33.763  1.00  0.00    -0.248 NA
ATOM     32  C   UNL A   1      37.605  33.952  33.632  1.00  0.00     0.031 C 
ATOM     33  C   UNL A   1      42.008  31.894  37.273  1.00  0.00     0.029 A 
ATOM     34  C   UNL A   1      41.155  32.057  36.194  1.00  0.00     0.049 A 
ATOM     35  H   UNL A   1      41.083  30.980  34.382  1.00  0.00     0.167 HD
ATOM     36  C   UNL A   1      39.306  33.126  34.932  1.00  0.00     0.074 A 
ATOM     37  C   UNL A   1      38.245  34.102  34.784  1.00  0.00     0.031 C 
ATOM     38  C   UNL A   1      40.088  33.010  36.033  1.00  0.00     0.037 A 
BRANCH  25  39
ATOM     39  C   UNL A   1      44.359  28.561  35.675  1.00  0.00     0.058 A 
ATOM     40  C   UNL A   1      44.140  27.450  36.503  1.00  0.00     0.135 A 
ATOM     41  C   UNL A   1      45.688  28.947  35.433  1.00  0.00     0.135 A 
ATOM     42  F   UNL A   1      42.889  27.049  36.780  1.00  0.00    -0.206 F 
ATOM     43  C   UNL A   1      45.198  26.751  37.076  1.00  0.00     0.059 A 
ATOM     44  C   UNL A   1      46.762  28.251  35.982  1.00  0.00     0.059 A 
ATOM     45  F   UNL A   1      45.952  30.003  34.649  1.00  0.00    -0.206 F 
ATOM     46  C   UNL A   1      46.507  27.159  36.809  1.00  0.00     0.060 A 
BRANCH  46  47
ATOM     47  S   UNL A   1      47.870  26.230  37.543  1.00  0.00     0.124 S 
ATOM     48  O   UNL A   1      49.027  26.896  36.953  1.00  0.00    -0.237 OA
ATOM     49  O   UNL A   1      47.671  26.453  38.970  1.00  0.00    -0.237 OA
ATOM     50  O   UNL A   1      47.633  24.863  37.086  1.00  0.00    -0.744 OA
ENDBRANCH  46  47
ENDBRANCH  25  39
BRANCH  26  51
ATOM     51  C   UNL A   1      36.783  33.068  30.962  1.00  0.00     0.058 A 
ATOM     52  C   UNL A   1      35.455  32.809  31.326  1.00  0.00     0.135 A 
ATOM     53  C   UNL A   1      37.014  33.998  29.936  1.00  0.00     0.135 A 
ATOM     54  F   UNL A   1      35.187  31.927  32.302  1.00  0.00    -0.206 F 
ATOM     55  C   UNL A   1      34.391  33.438  30.688  1.00  0.00     0.059 A 
ATOM     56  C   UNL A   1      35.969  34.657  29.300  1.00  0.00     0.059 A 
ATOM     57  F   UNL A   1      38.271  34.293  29.566  1.00  0.00    -0.206 F 
ATOM     58  C   UNL A   1      34.659  34.360  29.675  1.00  0.00     0.060 A 
BRANCH  58  59
ATOM     59  S   UNL A   1      33.282  35.218  28.883  1.00  0.00     0.124 S 
ATOM     60  O   UNL A   1      33.979  36.259  28.136  1.00  0.00    -0.237 OA
ATOM     61  O   UNL A   1      32.671  34.160  28.084  1.00  0.00    -0.237 OA
ATOM     62  O   UNL A   1      32.483  35.677  30.014  1.00  0.00    -0.744 OA
ENDBRANCH  58  59
ENDBRANCH  26  51
BRANCH  38  63
ATOM     63  C   UNL A   1      39.814  33.965  37.157  1.00  0.00     0.058 A 
ATOM     64  C   UNL A   1      40.336  35.268  37.149  1.00  0.00     0.135 A 
ATOM     65  C   UNL A   1      39.020  33.579  38.247  1.00  0.00     0.135 A 
ATOM     66  F   UNL A   1      41.108  35.680  36.131  1.00  0.00    -0.206 F 
ATOM     67  C   UNL A   1      40.104  36.148  38.201  1.00  0.00     0.059 A 
ATOM     68  C   UNL A   1      38.759  34.449  39.300  1.00  0.00     0.059 A 
ATOM     69  F   UNL A   1      38.493  32.346  38.296  1.00  0.00    -0.206 F 
ATOM     70  C   UNL A   1      39.320  35.727  39.276  1.00  0.00     0.060 A 
BRANCH  70  71
ATOM     71  S   UNL A   1      39.020  36.875  40.636  1.00  0.00     0.124 S 
ATOM     72  O   UNL A   1      38.257  36.042  41.558  1.00  0.00    -0.237 OA
ATOM     73  O   UNL A   1      40.373  37.220  41.063  1.00  0.00    -0.237 OA
ATOM     74  O   UNL A   1      38.275  37.959  40.003  1.00  0.00    -0.744 OA
ENDBRANCH  70  71
ENDBRANCH  38  63
ENDBRANCH  12  13
ENDBRANCH   5   7
ENDBRANCH   2   3
ENDBRANCH   1   2
BRANCH   1  75
ATOM     75  C   UNL A   1      40.423  22.481  27.756  1.00  0.00     0.023 C 
BRANCH  75  76
ATOM     76  C   UNL A   1      39.575  22.753  26.519  1.00  0.00     0.116 C 
BRANCH  76  77
ATOM     77  N   UNL A   1      38.972  21.566  25.943  1.00  0.00    -0.356 N 
ATOM     78  C   UNL A   1      37.763  21.468  25.301  1.00  0.00     0.227 C 
ATOM     79  H   UNL A   1      39.491  20.733  26.022  1.00  0.00     0.163 HD
ATOM     80  O   UNL A   1      37.469  20.408  24.751  1.00  0.00    -0.274 OA
BRANCH  78  81
ATOM     81  C   UNL A   1      36.817  22.665  25.363  1.00  0.00     0.103 C 
ATOM     82  C   UNL A   1      36.410  23.190  24.013  1.00  0.00    -0.016 C 
ATOM     83  C   UNL A   1      35.443  22.343  25.973  1.00  0.00     0.047 C 
ATOM     84  C   UNL A   1      35.142  23.613  24.023  1.00  0.00    -0.006 C 
ATOM     85  C   UNL A   1      34.513  23.394  25.360  1.00  0.00     0.106 C 
BRANCH  85  86
ATOM     86  N   UNL A   1      33.163  22.947  25.149  1.00  0.00    -0.344 N 
ATOM     87  C   UNL A   1      32.004  23.693  25.151  1.00  0.00     0.271 C 
ATOM     88  H   UNL A   1      33.052  21.983  24.982  1.00  0.00     0.164 HD
ATOM     89  O   UNL A   1      30.934  23.124  24.951  1.00  0.00    -0.267 OA
BRANCH  87  90
ATOM     90  C   UNL A   1      32.090  25.131  25.423  1.00  0.00     0.147 A 
ATOM     91  C   UNL A   1      32.574  26.130  24.593  1.00  0.00     0.127 A 
ATOM     92  N   UNL A   1      31.678  25.683  26.627  1.00  0.00    -0.223 NA
ATOM     93  N   UNL A   1      32.562  27.279  25.340  1.00  0.00    -0.306 N 
ATOM     94  C   UNL A   1      31.982  26.959  26.560  1.00  0.00     0.137 A 
ATOM     95  C   UNL A   1      33.047  28.546  25.025  1.00  0.00     0.093 A 
ATOM     96  C   UNL A   1      31.851  28.010  27.511  1.00  0.00     0.048 A 
ATOM     97  C   UNL A   1      32.949  29.529  25.937  1.00  0.00     0.018 A 
ATOM     98  C   UNL A   1      32.318  29.239  27.218  1.00  0.00     0.005 A 
ENDBRANCH  87  90
ENDBRANCH  85  86
ENDBRANCH  78  81
ENDBRANCH  76  77
ENDBRANCH  75  76
ENDBRANCH   1  75
TORSDOF 16
ENDMDL
