MODEL 1
REMARK VINA RESULT:     -13.3      0.000      0.000
REMARK SMILES O=C(NCCCCNC(=O)c1cc(Cl)ccc1N1C(=O)CC2(CCCC2)C1=O)c1ccc(-c2c3nc(c(-c4c(F)cc(S(=O)(=O)[O-])cc4F)c4ccc([nH]4)c(-c4c(F)cc(S(=O)(=O)[O-])cc4F)c4nc(c(-c5c(F)cc(S(=O)(=O)[O-])cc5F)c5ccc2[nH]5)C=C4)C=C3)cc1
REMARK SMILES IDX 4 1 3 2 1 3 2 4 29 6 30 7 94 8 31 9 93 10 32 11 33 12 34 13
REMARK SMILES IDX 87 14 35 15 92 16 86 17 88 18 36 19 91 20 85 21 84 22 37 24
REMARK SMILES IDX 71 25 50 26 70 27 51 28 54 29 69 30 89 31 52 32 53 33 68 35
REMARK SMILES IDX 90 36 55 37 38 38 39 39 48 40 40 41 41 42 47 43 49 44 42 45
REMARK SMILES IDX 43 46 44 47 45 48 46 49 72 50 73 51 82 52 74 53 75 54 81 55
REMARK SMILES IDX 83 56 76 57 77 58 78 59 79 60 80 61 56 62 57 63 66 64 58 65
REMARK SMILES IDX 59 66 65 67 67 68 60 69 61 70 62 71 63 72 64 73 5 74 6 75
REMARK SMILES IDX 7 76 8 77 9 78 10 80 11 81 12 82 17 83 13 84 16 85 14 86
REMARK SMILES IDX 15 87 18 88 19 89 27 90 20 91 21 92 22 93 28 94 23 95 26 96
REMARK SMILES IDX 24 97 25 98
REMARK H PARENT 3 5 88 23 54 34 8 79
REMARK Flexibility Score: inf
ROOT
ATOM      1  C   UNL A   1      38.127  24.110  26.622  1.00  0.00     0.116 C 
ENDROOT
BRANCH   1   2
ATOM      2  N   UNL A   1      39.506  24.051  26.160  1.00  0.00    -0.352 N 
ATOM      3  O   UNL A   1      41.649  24.710  25.927  1.00  0.00    -0.269 OA
ATOM      4  C   UNL A   1      40.579  24.833  26.517  1.00  0.00     0.251 C 
ATOM      5  H   UNL A   1      39.698  23.349  25.497  1.00  0.00     0.163 HD
BRANCH   4   6
ATOM      6  C   UNL A   1      40.432  25.843  27.588  1.00  0.00     0.039 A 
ATOM      7  C   UNL A   1      41.229  26.990  27.604  1.00  0.00     0.014 A 
ATOM      8  C   UNL A   1      39.484  25.634  28.594  1.00  0.00     0.014 A 
ATOM      9  C   UNL A   1      41.184  27.847  28.698  1.00  0.00     0.010 A 
ATOM     10  C   UNL A   1      39.381  26.542  29.653  1.00  0.00     0.010 A 
ATOM     11  C   UNL A   1      40.254  27.639  29.730  1.00  0.00    -0.014 A 
BRANCH  11  12
ATOM     12  C   UNL A   1      40.176  28.616  30.846  1.00  0.00     0.031 A 
ATOM     13  C   UNL A   1      41.104  28.529  32.026  1.00  0.00     0.074 A 
ATOM     14  C   UNL A   1      39.269  29.609  30.769  1.00  0.00     0.049 A 
ATOM     15  N   UNL A   1      41.180  29.314  33.071  1.00  0.00    -0.248 NA
ATOM     16  C   UNL A   1      42.068  27.417  32.043  1.00  0.00     0.031 C 
ATOM     17  C   UNL A   1      38.305  29.783  29.678  1.00  0.00     0.029 A 
ATOM     18  N   UNL A   1      39.018  30.665  31.604  1.00  0.00    -0.354 N 
ATOM     19  C   UNL A   1      42.181  28.785  33.877  1.00  0.00     0.074 A 
ATOM     20  C   UNL A   1      42.673  27.598  33.209  1.00  0.00     0.031 C 
ATOM     21  C   UNL A   1      37.599  30.904  29.890  1.00  0.00     0.029 A 
ATOM     22  C   UNL A   1      38.018  31.495  31.155  1.00  0.00     0.049 A 
ATOM     23  H   UNL A   1      39.506  30.816  32.446  1.00  0.00     0.167 HD
ATOM     24  C   UNL A   1      42.651  29.252  35.060  1.00  0.00     0.037 A 
ATOM     25  C   UNL A   1      37.486  32.603  31.704  1.00  0.00     0.037 A 
ATOM     26  C   UNL A   1      42.167  30.446  35.708  1.00  0.00     0.049 A 
ATOM     27  C   UNL A   1      38.021  33.095  33.016  1.00  0.00     0.074 A 
ATOM     28  C   UNL A   1      42.603  31.020  36.890  1.00  0.00     0.029 A 
ATOM     29  N   UNL A   1      41.141  31.249  35.231  1.00  0.00    -0.354 N 
ATOM     30  N   UNL A   1      38.987  32.596  33.749  1.00  0.00    -0.248 NA
ATOM     31  C   UNL A   1      37.394  34.298  33.578  1.00  0.00     0.031 C 
ATOM     32  C   UNL A   1      41.816  32.149  37.146  1.00  0.00     0.029 A 
ATOM     33  C   UNL A   1      40.916  32.301  36.103  1.00  0.00     0.049 A 
ATOM     34  H   UNL A   1      40.644  31.092  34.395  1.00  0.00     0.167 HD
ATOM     35  C   UNL A   1      39.089  33.428  34.856  1.00  0.00     0.074 A 
ATOM     36  C   UNL A   1      38.101  34.474  34.686  1.00  0.00     0.031 C 
ATOM     37  C   UNL A   1      39.925  33.332  35.920  1.00  0.00     0.037 A 
BRANCH  24  38
ATOM     38  C   UNL A   1      43.735  28.465  35.743  1.00  0.00     0.058 A 
ATOM     39  C   UNL A   1      43.442  27.424  36.637  1.00  0.00     0.135 A 
ATOM     40  C   UNL A   1      45.088  28.724  35.462  1.00  0.00     0.135 A 
ATOM     41  F   UNL A   1      42.167  27.142  36.950  1.00  0.00    -0.206 F 
ATOM     42  C   UNL A   1      44.450  26.682  37.246  1.00  0.00     0.059 A 
ATOM     43  C   UNL A   1      46.111  27.981  36.043  1.00  0.00     0.059 A 
ATOM     44  F   UNL A   1      45.425  29.709  34.612  1.00  0.00    -0.206 F 
ATOM     45  C   UNL A   1      45.783  26.970  36.944  1.00  0.00     0.060 A 
BRANCH  45  46
ATOM     46  S   UNL A   1      47.079  25.997  37.740  1.00  0.00     0.124 S 
ATOM     47  O   UNL A   1      46.507  24.655  37.691  1.00  0.00    -0.237 OA
ATOM     48  O   UNL A   1      48.226  26.228  36.868  1.00  0.00    -0.237 OA
ATOM     49  O   UNL A   1      47.179  26.588  39.071  1.00  0.00    -0.744 OA
ENDBRANCH  45  46
ENDBRANCH  24  38
BRANCH  25  50
ATOM     50  C   UNL A   1      36.383  33.309  31.004  1.00  0.00     0.058 A 
ATOM     51  C   UNL A   1      35.074  33.279  31.503  1.00  0.00     0.135 A 
ATOM     52  C   UNL A   1      36.629  34.067  29.848  1.00  0.00     0.135 A 
ATOM     53  F   UNL A   1      34.791  32.565  32.604  1.00  0.00    -0.206 F 
ATOM     54  C   UNL A   1      34.042  33.969  30.877  1.00  0.00     0.059 A 
ATOM     55  C   UNL A   1      35.620  34.786  29.219  1.00  0.00     0.059 A 
ATOM     56  F   UNL A   1      37.871  34.142  29.345  1.00  0.00    -0.206 F 
ATOM     57  C   UNL A   1      34.327  34.724  29.737  1.00  0.00     0.060 A 
BRANCH  57  58
ATOM     58  S   UNL A   1      32.997  35.673  28.967  1.00  0.00     0.124 S 
ATOM     59  O   UNL A   1      33.745  36.713  28.271  1.00  0.00    -0.237 OA
ATOM     60  O   UNL A   1      32.352  34.674  28.121  1.00  0.00    -0.237 OA
ATOM     61  O   UNL A   1      32.203  36.122  30.108  1.00  0.00    -0.744 OA
ENDBRANCH  57  58
ENDBRANCH  25  50
BRANCH  37  62
ATOM     62  C   UNL A   1      39.813  34.396  36.973  1.00  0.00     0.058 A 
ATOM     63  C   UNL A   1      40.503  35.614  36.861  1.00  0.00     0.135 A 
ATOM     64  C   UNL A   1      38.984  34.209  38.090  1.00  0.00     0.135 A 
ATOM     65  F   UNL A   1      41.316  35.835  35.816  1.00  0.00    -0.206 F 
ATOM     66  C   UNL A   1      40.392  36.602  37.833  1.00  0.00     0.059 A 
ATOM     67  C   UNL A   1      38.842  35.193  39.064  1.00  0.00     0.059 A 
ATOM     68  F   UNL A   1      38.299  33.065  38.239  1.00  0.00    -0.206 F 
ATOM     69  C   UNL A   1      39.560  36.381  38.931  1.00  0.00     0.060 A 
BRANCH  69  70
ATOM     70  S   UNL A   1      39.402  37.681  40.175  1.00  0.00     0.124 S 
ATOM     71  O   UNL A   1      38.285  38.457  39.648  1.00  0.00    -0.237 OA
ATOM     72  O   UNL A   1      39.130  36.922  41.392  1.00  0.00    -0.237 OA
ATOM     73  O   UNL A   1      40.702  38.345  40.137  1.00  0.00    -0.744 OA
ENDBRANCH  69  70
ENDBRANCH  37  62
ENDBRANCH  11  12
ENDBRANCH   4   6
ENDBRANCH   1   2
BRANCH   1  74
ATOM     74  C   UNL A   1      37.120  23.669  25.567  1.00  0.00     0.023 C 
BRANCH  74  75
ATOM     75  C   UNL A   1      37.546  22.481  24.708  1.00  0.00     0.023 C 
BRANCH  75  76
ATOM     76  C   UNL A   1      36.681  21.231  24.841  1.00  0.00     0.116 C 
BRANCH  76  77
ATOM     77  N   UNL A   1      35.752  21.295  25.960  1.00  0.00    -0.352 N 
ATOM     78  C   UNL A   1      34.417  20.987  25.998  1.00  0.00     0.253 C 
ATOM     79  H   UNL A   1      36.138  21.605  26.811  1.00  0.00     0.163 HD
ATOM     80  O   UNL A   1      33.745  21.227  26.999  1.00  0.00    -0.269 OA
BRANCH  78  81
ATOM     81  C   UNL A   1      33.769  20.339  24.835  1.00  0.00     0.065 A 
ATOM     82  C   UNL A   1      33.866  18.940  24.737  1.00  0.00     0.036 A 
ATOM     83  C   UNL A   1      32.922  21.058  23.966  1.00  0.00     0.065 A 
ATOM     84  C   UNL A   1      33.202  18.265  23.721  1.00  0.00     0.041 A 
ATOM     85  C   UNL A   1      32.229  20.343  22.973  1.00  0.00     0.029 A 
ATOM     86  Cl  UNL A   1      33.380  16.562  23.568  1.00  0.00    -0.084 Cl
ATOM     87  C   UNL A   1      32.391  18.961  22.833  1.00  0.00     0.023 A 
BRANCH  83  88
ATOM     88  N   UNL A   1      32.731  22.460  24.071  1.00  0.00    -0.249 N 
ATOM     89  C   UNL A   1      33.540  23.389  23.466  1.00  0.00     0.234 C 
ATOM     90  C   UNL A   1      31.752  23.044  24.844  1.00  0.00     0.240 C 
ATOM     91  O   UNL A   1      34.583  23.205  22.851  1.00  0.00    -0.274 OA
ATOM     92  C   UNL A   1      32.903  24.742  23.606  1.00  0.00     0.118 C 
ATOM     93  C   UNL A   1      31.873  24.547  24.713  1.00  0.00     0.059 C 
ATOM     94  O   UNL A   1      31.007  22.484  25.639  1.00  0.00    -0.273 OA
ATOM     95  C   UNL A   1      32.309  25.193  26.032  1.00  0.00     0.017 C 
ATOM     96  C   UNL A   1      30.538  25.236  24.440  1.00  0.00     0.017 C 
ATOM     97  C   UNL A   1      31.878  26.653  25.908  1.00  0.00     0.001 C 
ATOM     98  C   UNL A   1      30.763  26.683  24.862  1.00  0.00     0.001 C 
ENDBRANCH  83  88
ENDBRANCH  78  81
ENDBRANCH  76  77
ENDBRANCH  75  76
ENDBRANCH  74  75
ENDBRANCH   1  74
TORSDOF 15
ENDMDL
MODEL 2
REMARK VINA RESULT:     -13.1      6.930     12.290
REMARK SMILES O=C(NCCCCNC(=O)c1cc(Cl)ccc1N1C(=O)CC2(CCCC2)C1=O)c1ccc(-c2c3nc(c(-c4c(F)cc(S(=O)(=O)[O-])cc4F)c4ccc([nH]4)c(-c4c(F)cc(S(=O)(=O)[O-])cc4F)c4nc(c(-c5c(F)cc(S(=O)(=O)[O-])cc5F)c5ccc2[nH]5)C=C4)C=C3)cc1
REMARK SMILES IDX 4 1 3 2 1 3 2 4 29 6 30 7 94 8 31 9 93 10 32 11 33 12 34 13
REMARK SMILES IDX 87 14 35 15 92 16 86 17 88 18 36 19 91 20 85 21 84 22 37 24
REMARK SMILES IDX 71 25 50 26 70 27 51 28 54 29 69 30 89 31 52 32 53 33 68 35
REMARK SMILES IDX 90 36 55 37 38 38 39 39 48 40 40 41 41 42 47 43 49 44 42 45
REMARK SMILES IDX 43 46 44 47 45 48 46 49 72 50 73 51 82 52 74 53 75 54 81 55
REMARK SMILES IDX 83 56 76 57 77 58 78 59 79 60 80 61 56 62 57 63 66 64 58 65
REMARK SMILES IDX 59 66 65 67 67 68 60 69 61 70 62 71 63 72 64 73 5 74 6 75
REMARK SMILES IDX 7 76 8 77 9 78 10 80 11 81 12 82 17 83 13 84 16 85 14 86
REMARK SMILES IDX 15 87 18 88 19 89 27 90 20 91 21 92 22 93 28 94 23 95 26 96
REMARK SMILES IDX 24 97 25 98
REMARK H PARENT 3 5 88 23 54 34 8 79
REMARK Flexibility Score: inf
ROOT
ATOM      1  C   UNL A   1      35.361  30.020  27.671  1.00  0.00     0.116 C 
ENDROOT
BRANCH   1   2
ATOM      2  N   UNL A   1      35.319  30.247  29.109  1.00  0.00    -0.352 N 
ATOM      3  O   UNL A   1      36.038  30.176  31.244  1.00  0.00    -0.269 OA
ATOM      4  C   UNL A   1      36.298  30.038  30.052  1.00  0.00     0.251 C 
ATOM      5  H   UNL A   1      34.470  30.602  29.455  1.00  0.00     0.163 HD
BRANCH   4   6
ATOM      6  C   UNL A   1      37.652  29.615  29.629  1.00  0.00     0.039 A 
ATOM      7  C   UNL A   1      38.559  29.097  30.556  1.00  0.00     0.014 A 
ATOM      8  C   UNL A   1      38.017  29.744  28.286  1.00  0.00     0.014 A 
ATOM      9  C   UNL A   1      39.873  28.850  30.171  1.00  0.00     0.010 A 
ATOM     10  C   UNL A   1      39.315  29.417  27.884  1.00  0.00     0.010 A 
ATOM     11  C   UNL A   1      40.264  28.998  28.830  1.00  0.00    -0.014 A 
BRANCH  11  12
ATOM     12  C   UNL A   1      41.653  28.652  28.435  1.00  0.00     0.031 A 
ATOM     13  C   UNL A   1      42.752  29.679  28.460  1.00  0.00     0.074 A 
ATOM     14  C   UNL A   1      41.922  27.381  28.077  1.00  0.00     0.049 A 
ATOM     15  N   UNL A   1      44.018  29.535  28.167  1.00  0.00    -0.248 NA
ATOM     16  C   UNL A   1      42.383  31.047  28.861  1.00  0.00     0.031 C 
ATOM     17  C   UNL A   1      40.932  26.303  28.000  1.00  0.00     0.029 A 
ATOM     18  N   UNL A   1      43.100  26.774  27.731  1.00  0.00    -0.354 N 
ATOM     19  C   UNL A   1      44.596  30.789  28.326  1.00  0.00     0.074 A 
ATOM     20  C   UNL A   1      43.535  31.690  28.725  1.00  0.00     0.031 C 
ATOM     21  C   UNL A   1      41.552  25.160  27.672  1.00  0.00     0.029 A 
ATOM     22  C   UNL A   1      42.968  25.433  27.462  1.00  0.00     0.049 A 
ATOM     23  H   UNL A   1      43.959  27.253  27.678  1.00  0.00     0.167 HD
ATOM     24  C   UNL A   1      45.892  31.151  28.163  1.00  0.00     0.037 A 
ATOM     25  C   UNL A   1      43.881  24.523  27.074  1.00  0.00     0.037 A 
ATOM     26  C   UNL A   1      46.945  30.242  27.783  1.00  0.00     0.049 A 
ATOM     27  C   UNL A   1      45.307  24.951  26.897  1.00  0.00     0.074 A 
ATOM     28  C   UNL A   1      48.295  30.505  27.627  1.00  0.00     0.029 A 
ATOM     29  N   UNL A   1      46.768  28.895  27.501  1.00  0.00    -0.354 N 
ATOM     30  N   UNL A   1      45.839  26.136  27.079  1.00  0.00    -0.248 NA
ATOM     31  C   UNL A   1      46.259  23.922  26.458  1.00  0.00     0.031 C 
ATOM     32  C   UNL A   1      48.928  29.327  27.215  1.00  0.00     0.029 A 
ATOM     33  C   UNL A   1      47.979  28.319  27.153  1.00  0.00     0.049 A 
ATOM     34  H   UNL A   1      45.907  28.418  27.542  1.00  0.00     0.167 HD
ATOM     35  C   UNL A   1      47.188  25.995  26.785  1.00  0.00     0.074 A 
ATOM     36  C   UNL A   1      47.396  24.604  26.432  1.00  0.00     0.031 C 
ATOM     37  C   UNL A   1      48.167  26.933  26.802  1.00  0.00     0.037 A 
BRANCH  24  38
ATOM     38  C   UNL A   1      46.248  32.596  28.379  1.00  0.00     0.058 A 
ATOM     39  C   UNL A   1      46.701  33.067  29.621  1.00  0.00     0.135 A 
ATOM     40  C   UNL A   1      46.182  33.513  27.316  1.00  0.00     0.135 A 
ATOM     41  F   UNL A   1      46.772  32.237  30.673  1.00  0.00    -0.206 F 
ATOM     42  C   UNL A   1      47.054  34.401  29.808  1.00  0.00     0.059 A 
ATOM     43  C   UNL A   1      46.550  34.846  27.476  1.00  0.00     0.059 A 
ATOM     44  F   UNL A   1      45.757  33.115  26.106  1.00  0.00    -0.206 F 
ATOM     45  C   UNL A   1      46.973  35.284  28.730  1.00  0.00     0.060 A 
BRANCH  45  46
ATOM     46  S   UNL A   1      47.436  37.010  28.988  1.00  0.00     0.124 S 
ATOM     47  O   UNL A   1      47.057  37.206  30.384  1.00  0.00    -0.237 OA
ATOM     48  O   UNL A   1      48.870  36.995  28.717  1.00  0.00    -0.237 OA
ATOM     49  O   UNL A   1      46.624  37.729  28.011  1.00  0.00    -0.744 OA
ENDBRANCH  45  46
ENDBRANCH  24  38
BRANCH  25  50
ATOM     50  C   UNL A   1      43.459  23.121  26.830  1.00  0.00     0.058 A 
ATOM     51  C   UNL A   1      43.393  22.601  25.530  1.00  0.00     0.135 A 
ATOM     52  C   UNL A   1      43.157  22.260  27.897  1.00  0.00     0.135 A 
ATOM     53  F   UNL A   1      43.671  23.387  24.479  1.00  0.00    -0.206 F 
ATOM     54  C   UNL A   1      43.038  21.278  25.293  1.00  0.00     0.059 A 
ATOM     55  C   UNL A   1      42.823  20.927  27.688  1.00  0.00     0.059 A 
ATOM     56  F   UNL A   1      43.224  22.707  29.162  1.00  0.00    -0.206 F 
ATOM     57  C   UNL A   1      42.758  20.447  26.380  1.00  0.00     0.060 A 
BRANCH  57  58
ATOM     58  S   UNL A   1      42.362  18.713  26.071  1.00  0.00     0.124 S 
ATOM     59  O   UNL A   1      40.957  18.797  25.688  1.00  0.00    -0.237 OA
ATOM     60  O   UNL A   1      43.295  18.367  25.004  1.00  0.00    -0.237 OA
ATOM     61  O   UNL A   1      42.629  18.075  27.357  1.00  0.00    -0.744 OA
ENDBRANCH  57  58
ENDBRANCH  25  50
BRANCH  37  62
ATOM     62  C   UNL A   1      49.553  26.480  26.442  1.00  0.00     0.058 A 
ATOM     63  C   UNL A   1      50.060  26.634  25.142  1.00  0.00     0.135 A 
ATOM     64  C   UNL A   1      50.392  25.916  27.415  1.00  0.00     0.135 A 
ATOM     65  F   UNL A   1      49.292  27.160  24.175  1.00  0.00    -0.206 F 
ATOM     66  C   UNL A   1      51.346  26.222  24.813  1.00  0.00     0.059 A 
ATOM     67  C   UNL A   1      51.690  25.516  27.113  1.00  0.00     0.059 A 
ATOM     68  F   UNL A   1      49.955  25.754  28.673  1.00  0.00    -0.206 F 
ATOM     69  C   UNL A   1      52.154  25.663  25.805  1.00  0.00     0.060 A 
BRANCH  69  70
ATOM     70  S   UNL A   1      53.832  25.155  25.375  1.00  0.00     0.124 S 
ATOM     71  O   UNL A   1      54.612  25.799  26.426  1.00  0.00    -0.237 OA
ATOM     72  O   UNL A   1      53.750  23.699  25.447  1.00  0.00    -0.237 OA
ATOM     73  O   UNL A   1      54.016  25.699  24.032  1.00  0.00    -0.744 OA
ENDBRANCH  69  70
ENDBRANCH  37  62
ENDBRANCH  11  12
ENDBRANCH   4   6
ENDBRANCH   1   2
BRANCH   1  74
ATOM     74  C   UNL A   1      34.160  29.238  27.152  1.00  0.00     0.023 C 
BRANCH  74  75
ATOM     75  C   UNL A   1      32.809  29.935  27.296  1.00  0.00     0.023 C 
BRANCH  75  76
ATOM     76  C   UNL A   1      32.091  30.251  25.987  1.00  0.00     0.116 C 
BRANCH  76  77
ATOM     77  N   UNL A   1      32.833  29.825  24.810  1.00  0.00    -0.352 N 
ATOM     78  C   UNL A   1      32.429  29.025  23.773  1.00  0.00     0.253 C 
ATOM     79  H   UNL A   1      33.757  30.158  24.752  1.00  0.00     0.163 HD
ATOM     80  O   UNL A   1      33.230  28.651  22.918  1.00  0.00    -0.269 OA
BRANCH  78  81
ATOM     81  C   UNL A   1      31.010  28.617  23.655  1.00  0.00     0.065 A 
ATOM     82  C   UNL A   1      30.149  29.469  22.942  1.00  0.00     0.036 A 
ATOM     83  C   UNL A   1      30.573  27.340  24.065  1.00  0.00     0.065 A 
ATOM     84  C   UNL A   1      28.830  29.097  22.719  1.00  0.00     0.041 A 
ATOM     85  C   UNL A   1      29.245  26.974  23.788  1.00  0.00     0.029 A 
ATOM     86  Cl  UNL A   1      27.765  30.174  21.904  1.00  0.00    -0.084 Cl
ATOM     87  C   UNL A   1      28.371  27.857  23.146  1.00  0.00     0.023 A 
BRANCH  83  88
ATOM     88  N   UNL A   1      31.425  26.414  24.721  1.00  0.00    -0.249 N 
ATOM     89  C   UNL A   1      31.548  26.322  26.085  1.00  0.00     0.234 C 
ATOM     90  C   UNL A   1      32.270  25.550  24.061  1.00  0.00     0.240 C 
ATOM     91  O   UNL A   1      31.064  27.049  26.943  1.00  0.00    -0.274 OA
ATOM     92  C   UNL A   1      32.348  25.094  26.412  1.00  0.00     0.118 C 
ATOM     93  C   UNL A   1      33.022  24.736  25.092  1.00  0.00     0.059 C 
ATOM     94  O   UNL A   1      32.518  25.533  22.861  1.00  0.00    -0.273 OA
ATOM     95  C   UNL A   1      34.517  25.074  25.093  1.00  0.00     0.017 C 
ATOM     96  C   UNL A   1      33.029  23.240  24.788  1.00  0.00     0.017 C 
ATOM     97  C   UNL A   1      35.186  23.867  25.746  1.00  0.00     0.001 C 
ATOM     98  C   UNL A   1      34.215  22.697  25.578  1.00  0.00     0.001 C 
ENDBRANCH  83  88
ENDBRANCH  78  81
ENDBRANCH  76  77
ENDBRANCH  75  76
ENDBRANCH  74  75
ENDBRANCH   1  74
TORSDOF 15
ENDMDL
MODEL 3
REMARK VINA RESULT:     -12.9      1.518      3.211
REMARK SMILES O=C(NCCCCNC(=O)c1cc(Cl)ccc1N1C(=O)CC2(CCCC2)C1=O)c1ccc(-c2c3nc(c(-c4c(F)cc(S(=O)(=O)[O-])cc4F)c4ccc([nH]4)c(-c4c(F)cc(S(=O)(=O)[O-])cc4F)c4nc(c(-c5c(F)cc(S(=O)(=O)[O-])cc5F)c5ccc2[nH]5)C=C4)C=C3)cc1
REMARK SMILES IDX 4 1 3 2 1 3 2 4 29 6 30 7 94 8 31 9 93 10 32 11 33 12 34 13
REMARK SMILES IDX 87 14 35 15 92 16 86 17 88 18 36 19 91 20 85 21 84 22 37 24
REMARK SMILES IDX 71 25 50 26 70 27 51 28 54 29 69 30 89 31 52 32 53 33 68 35
REMARK SMILES IDX 90 36 55 37 38 38 39 39 48 40 40 41 41 42 47 43 49 44 42 45
REMARK SMILES IDX 43 46 44 47 45 48 46 49 72 50 73 51 82 52 74 53 75 54 81 55
REMARK SMILES IDX 83 56 76 57 77 58 78 59 79 60 80 61 56 62 57 63 66 64 58 65
REMARK SMILES IDX 59 66 65 67 67 68 60 69 61 70 62 71 63 72 64 73 5 74 6 75
REMARK SMILES IDX 7 76 8 77 9 78 10 80 11 81 12 82 17 83 13 84 16 85 14 86
REMARK SMILES IDX 15 87 18 88 19 89 27 90 20 91 21 92 22 93 28 94 23 95 26 96
REMARK SMILES IDX 24 97 25 98
REMARK H PARENT 3 5 88 23 54 34 8 79
REMARK Flexibility Score: inf
ROOT
ATOM      1  C   UNL A   1      40.522  23.215  27.074  1.00  0.00     0.116 C 
ENDROOT
BRANCH   1   2
ATOM      2  N   UNL A   1      41.334  23.875  26.062  1.00  0.00    -0.352 N 
ATOM      3  O   UNL A   1      42.343  25.588  25.001  1.00  0.00    -0.269 OA
ATOM      4  C   UNL A   1      41.760  25.181  26.002  1.00  0.00     0.251 C 
ATOM      5  H   UNL A   1      41.621  23.303  25.313  1.00  0.00     0.163 HD
BRANCH   4   6
ATOM      6  C   UNL A   1      41.484  26.099  27.129  1.00  0.00     0.039 A 
ATOM      7  C   UNL A   1      42.250  27.253  27.313  1.00  0.00     0.014 A 
ATOM      8  C   UNL A   1      40.448  25.796  28.016  1.00  0.00     0.014 A 
ATOM      9  C   UNL A   1      42.078  28.019  28.461  1.00  0.00     0.010 A 
ATOM     10  C   UNL A   1      40.220  26.614  29.126  1.00  0.00     0.010 A 
ATOM     11  C   UNL A   1      41.056  27.714  29.376  1.00  0.00    -0.014 A 
BRANCH  11  12
ATOM     12  C   UNL A   1      40.846  28.597  30.552  1.00  0.00     0.031 A 
ATOM     13  C   UNL A   1      41.713  28.487  31.776  1.00  0.00     0.074 A 
ATOM     14  C   UNL A   1      39.875  29.529  30.492  1.00  0.00     0.049 A 
ATOM     15  N   UNL A   1      41.674  29.193  32.877  1.00  0.00    -0.248 NA
ATOM     16  C   UNL A   1      42.753  27.445  31.771  1.00  0.00     0.031 C 
ATOM     17  C   UNL A   1      38.961  29.717  29.360  1.00  0.00     0.029 A 
ATOM     18  N   UNL A   1      39.502  30.499  31.384  1.00  0.00    -0.354 N 
ATOM     19  C   UNL A   1      42.666  28.676  33.701  1.00  0.00     0.074 A 
ATOM     20  C   UNL A   1      43.279  27.579  32.982  1.00  0.00     0.031 C 
ATOM     21  C   UNL A   1      38.165  30.767  29.609  1.00  0.00     0.029 A 
ATOM     22  C   UNL A   1      38.470  31.289  30.935  1.00  0.00     0.049 A 
ATOM     23  H   UNL A   1      39.931  30.620  32.261  1.00  0.00     0.167 HD
ATOM     24  C   UNL A   1      43.035  29.085  34.941  1.00  0.00     0.037 A 
ATOM     25  C   UNL A   1      37.829  32.313  31.529  1.00  0.00     0.037 A 
ATOM     26  C   UNL A   1      42.431  30.190  35.642  1.00  0.00     0.049 A 
ATOM     27  C   UNL A   1      38.255  32.742  32.902  1.00  0.00     0.074 A 
ATOM     28  C   UNL A   1      42.759  30.703  36.885  1.00  0.00     0.029 A 
ATOM     29  N   UNL A   1      41.376  30.954  35.163  1.00  0.00    -0.354 N 
ATOM     30  N   UNL A   1      39.213  32.257  33.654  1.00  0.00    -0.248 NA
ATOM     31  C   UNL A   1      37.512  33.853  33.510  1.00  0.00     0.031 C 
ATOM     32  C   UNL A   1      41.879  31.753  37.173  1.00  0.00     0.029 A 
ATOM     33  C   UNL A   1      41.028  31.920  36.092  1.00  0.00     0.049 A 
ATOM     34  H   UNL A   1      40.939  30.827  34.289  1.00  0.00     0.167 HD
ATOM     35  C   UNL A   1      39.195  33.008  34.822  1.00  0.00     0.074 A 
ATOM     36  C   UNL A   1      38.143  33.994  34.667  1.00  0.00     0.031 C 
ATOM     37  C   UNL A   1      39.976  32.890  35.924  1.00  0.00     0.037 A 
BRANCH  24  38
ATOM     38  C   UNL A   1      44.136  28.326  35.629  1.00  0.00     0.058 A 
ATOM     39  C   UNL A   1      45.486  28.670  35.464  1.00  0.00     0.135 A 
ATOM     40  C   UNL A   1      43.833  27.269  36.505  1.00  0.00     0.135 A 
ATOM     41  F   UNL A   1      45.832  29.664  34.630  1.00  0.00    -0.206 F 
ATOM     42  C   UNL A   1      46.499  27.981  36.124  1.00  0.00     0.059 A 
ATOM     43  C   UNL A   1      44.829  26.580  37.191  1.00  0.00     0.059 A 
ATOM     44  F   UNL A   1      42.557  26.899  36.701  1.00  0.00    -0.206 F 
ATOM     45  C   UNL A   1      46.161  26.934  36.984  1.00  0.00     0.060 A 
BRANCH  45  46
ATOM     46  S   UNL A   1      47.485  26.051  37.835  1.00  0.00     0.124 S 
ATOM     47  O   UNL A   1      48.631  26.354  36.982  1.00  0.00    -0.237 OA
ATOM     48  O   UNL A   1      47.492  26.683  39.150  1.00  0.00    -0.237 OA
ATOM     49  O   UNL A   1      47.037  24.662  37.813  1.00  0.00    -0.744 OA
ENDBRANCH  45  46
ENDBRANCH  24  38
BRANCH  25  50
ATOM     50  C   UNL A   1      36.718  32.993  30.817  1.00  0.00     0.058 A 
ATOM     51  C   UNL A   1      35.385  32.799  31.205  1.00  0.00     0.135 A 
ATOM     52  C   UNL A   1      36.972  33.885  29.763  1.00  0.00     0.135 A 
ATOM     53  F   UNL A   1      35.094  31.954  32.206  1.00  0.00    -0.206 F 
ATOM     54  C   UNL A   1      34.340  33.461  30.571  1.00  0.00     0.059 A 
ATOM     55  C   UNL A   1      35.947  34.577  29.130  1.00  0.00     0.059 A 
ATOM     56  F   UNL A   1      38.235  34.117  29.369  1.00  0.00    -0.206 F 
ATOM     57  C   UNL A   1      34.632  34.352  29.535  1.00  0.00     0.060 A 
BRANCH  57  58
ATOM     58  S   UNL A   1      33.278  35.260  28.759  1.00  0.00     0.124 S 
ATOM     59  O   UNL A   1      34.002  36.253  27.976  1.00  0.00    -0.237 OA
ATOM     60  O   UNL A   1      32.601  34.215  27.997  1.00  0.00    -0.237 OA
ATOM     61  O   UNL A   1      32.527  35.777  29.900  1.00  0.00    -0.744 OA
ENDBRANCH  57  58
ENDBRANCH  25  50
BRANCH  37  62
ATOM     62  C   UNL A   1      39.730  33.863  37.041  1.00  0.00     0.058 A 
ATOM     63  C   UNL A   1      38.913  33.532  38.134  1.00  0.00     0.135 A 
ATOM     64  C   UNL A   1      40.342  35.126  37.035  1.00  0.00     0.135 A 
ATOM     65  F   UNL A   1      38.297  32.339  38.181  1.00  0.00    -0.206 F 
ATOM     66  C   UNL A   1      38.693  34.430  39.173  1.00  0.00     0.059 A 
ATOM     67  C   UNL A   1      40.153  36.031  38.075  1.00  0.00     0.059 A 
ATOM     68  F   UNL A   1      41.137  35.486  36.016  1.00  0.00    -0.206 F 
ATOM     69  C   UNL A   1      39.316  35.678  39.133  1.00  0.00     0.060 A 
BRANCH  69  70
ATOM     70  S   UNL A   1      39.045  36.827  40.499  1.00  0.00     0.124 S 
ATOM     71  O   UNL A   1      38.450  37.966  39.810  1.00  0.00    -0.237 OA
ATOM     72  O   UNL A   1      38.150  36.075  41.372  1.00  0.00    -0.237 OA
ATOM     73  O   UNL A   1      40.389  37.045  41.028  1.00  0.00    -0.744 OA
ENDBRANCH  69  70
ENDBRANCH  37  62
ENDBRANCH  11  12
ENDBRANCH   4   6
ENDBRANCH   1   2
BRANCH   1  74
ATOM     74  C   UNL A   1      39.271  22.556  26.505  1.00  0.00     0.023 C 
BRANCH  74  75
ATOM     75  C   UNL A   1      38.118  23.502  26.183  1.00  0.00     0.023 C 
BRANCH  75  76
ATOM     76  C   UNL A   1      36.819  22.831  25.750  1.00  0.00     0.116 C 
BRANCH  76  77
ATOM     77  N   UNL A   1      36.437  23.151  24.383  1.00  0.00    -0.352 N 
ATOM     78  C   UNL A   1      35.231  23.587  23.898  1.00  0.00     0.253 C 
ATOM     79  H   UNL A   1      37.146  23.038  23.710  1.00  0.00     0.163 HD
ATOM     80  O   UNL A   1      35.038  23.683  22.688  1.00  0.00    -0.269 OA
BRANCH  78  81
ATOM     81  C   UNL A   1      34.147  23.970  24.832  1.00  0.00     0.065 A 
ATOM     82  C   UNL A   1      34.063  25.323  25.204  1.00  0.00     0.036 A 
ATOM     83  C   UNL A   1      33.121  23.068  25.182  1.00  0.00     0.065 A 
ATOM     84  C   UNL A   1      33.015  25.761  26.004  1.00  0.00     0.041 A 
ATOM     85  C   UNL A   1      32.051  23.549  25.956  1.00  0.00     0.029 A 
ATOM     86  Cl  UNL A   1      32.955  27.403  26.510  1.00  0.00    -0.084 Cl
ATOM     87  C   UNL A   1      32.013  24.879  26.388  1.00  0.00     0.023 A 
BRANCH  83  88
ATOM     88  N   UNL A   1      33.121  21.711  24.767  1.00  0.00    -0.249 N 
ATOM     89  C   UNL A   1      32.501  21.260  23.628  1.00  0.00     0.234 C 
ATOM     90  C   UNL A   1      33.689  20.688  25.494  1.00  0.00     0.240 C 
ATOM     91  O   UNL A   1      31.778  21.880  22.859  1.00  0.00    -0.274 OA
ATOM     92  C   UNL A   1      32.907  19.833  23.396  1.00  0.00     0.118 C 
ATOM     93  C   UNL A   1      33.476  19.392  24.740  1.00  0.00     0.059 C 
ATOM     94  O   UNL A   1      34.143  20.753  26.629  1.00  0.00    -0.273 OA
ATOM     95  C   UNL A   1      32.528  18.453  25.493  1.00  0.00     0.017 C 
ATOM     96  C   UNL A   1      34.744  18.549  24.627  1.00  0.00     0.017 C 
ATOM     97  C   UNL A   1      32.828  17.066  24.928  1.00  0.00     0.001 C 
ATOM     98  C   UNL A   1      34.239  17.139  24.343  1.00  0.00     0.001 C 
ENDBRANCH  83  88
ENDBRANCH  78  81
ENDBRANCH  76  77
ENDBRANCH  75  76
ENDBRANCH  74  75
ENDBRANCH   1  74
TORSDOF 15
ENDMDL
