MODEL 1
REMARK VINA RESULT:     -11.3      0.000      0.000
REMARK SMILES O=C(NCCCCNC(=O)c1ccccc1Nc1cccc(C(F)(F)F)c1)c1ccc(-c2c3nc(c(-c4c(F)cc(S(=O)(=O)[O-])cc4F)c4ccc([nH]4)c(-c4c(F)cc(S(=O)(=O)[O-])cc4F)c4nc(c(-c5c(F)cc(S(=O)(=O)[O-])cc5F)c5ccc2[nH]5)C=C4)C=C3)cc1
REMARK SMILES IDX 5 1 4 2 3 3 1 4 2 5 28 7 29 8 93 9 30 10 92 11 31 12 32 13
REMARK SMILES IDX 33 14 86 15 34 16 91 17 85 18 87 19 35 20 90 21 84 22 83 23
REMARK SMILES IDX 36 25 70 26 49 27 69 28 50 29 53 30 68 31 88 32 51 33 52 34
REMARK SMILES IDX 67 36 89 37 54 38 37 39 38 40 47 41 39 42 40 43 46 44 48 45
REMARK SMILES IDX 41 46 42 47 43 48 44 49 45 50 71 51 72 52 81 53 73 54 74 55
REMARK SMILES IDX 80 56 82 57 75 58 76 59 77 60 78 61 79 62 55 63 56 64 65 65
REMARK SMILES IDX 57 66 58 67 64 68 66 69 59 70 60 71 61 72 62 73 63 74 6 75
REMARK SMILES IDX 7 76 8 77 9 78 10 80 11 81 12 82 16 83 13 84 15 85 14 86
REMARK SMILES IDX 17 87 18 89 19 90 27 91 20 92 22 93 21 94 23 95 24 96 25 97
REMARK SMILES IDX 26 98
REMARK H PARENT 3 6 87 24 53 35 8 79 17 88
REMARK Flexibility Score: inf
ROOT
ATOM      1  C   UNL A   1      33.067  27.796  25.794  1.00  0.00     0.023 C 
ENDROOT
BRANCH   1   2
ATOM      2  C   UNL A   1      33.513  28.180  27.199  1.00  0.00     0.116 C 
BRANCH   2   3
ATOM      3  N   UNL A   1      33.349  29.596  27.490  1.00  0.00    -0.352 N 
ATOM      4  O   UNL A   1      33.911  31.627  28.298  1.00  0.00    -0.269 OA
ATOM      5  C   UNL A   1      34.263  30.488  28.007  1.00  0.00     0.251 C 
ATOM      6  H   UNL A   1      32.461  29.970  27.289  1.00  0.00     0.163 HD
BRANCH   5   7
ATOM      7  C   UNL A   1      35.660  30.056  28.241  1.00  0.00     0.039 A 
ATOM      8  C   UNL A   1      36.064  29.625  29.506  1.00  0.00     0.014 A 
ATOM      9  C   UNL A   1      36.582  30.106  27.191  1.00  0.00     0.014 A 
ATOM     10  C   UNL A   1      37.413  29.415  29.762  1.00  0.00     0.010 A 
ATOM     11  C   UNL A   1      37.927  29.796  27.429  1.00  0.00     0.010 A 
ATOM     12  C   UNL A   1      38.361  29.486  28.726  1.00  0.00    -0.014 A 
BRANCH  12  13
ATOM     13  C   UNL A   1      39.780  29.167  29.039  1.00  0.00     0.031 A 
ATOM     14  C   UNL A   1      40.390  27.840  28.680  1.00  0.00     0.074 A 
ATOM     15  C   UNL A   1      40.539  30.134  29.592  1.00  0.00     0.049 A 
ATOM     16  N   UNL A   1      41.631  27.445  28.813  1.00  0.00    -0.248 NA
ATOM     17  C   UNL A   1      39.500  26.819  28.105  1.00  0.00     0.031 C 
ATOM     18  C   UNL A   1      40.048  31.451  30.012  1.00  0.00     0.029 A 
ATOM     19  N   UNL A   1      41.882  30.182  29.863  1.00  0.00    -0.354 N 
ATOM     20  C   UNL A   1      41.672  26.135  28.352  1.00  0.00     0.074 A 
ATOM     21  C   UNL A   1      40.323  25.788  27.958  1.00  0.00     0.031 C 
ATOM     22  C   UNL A   1      41.083  32.197  30.424  1.00  0.00     0.029 A 
ATOM     23  C   UNL A   1      42.299  31.396  30.353  1.00  0.00     0.049 A 
ATOM     24  H   UNL A   1      42.488  29.420  29.720  1.00  0.00     0.167 HD
ATOM     25  C   UNL A   1      42.739  25.303  28.258  1.00  0.00     0.037 A 
ATOM     26  C   UNL A   1      43.524  31.822  30.711  1.00  0.00     0.037 A 
ATOM     27  C   UNL A   1      44.084  25.660  28.638  1.00  0.00     0.049 A 
ATOM     28  C   UNL A   1      44.688  30.889  30.572  1.00  0.00     0.074 A 
ATOM     29  C   UNL A   1      45.232  24.888  28.575  1.00  0.00     0.029 A 
ATOM     30  N   UNL A   1      44.464  26.894  29.144  1.00  0.00    -0.354 N 
ATOM     31  N   UNL A   1      44.704  29.655  30.127  1.00  0.00    -0.248 NA
ATOM     32  C   UNL A   1      46.002  31.400  30.986  1.00  0.00     0.031 C 
ATOM     33  C   UNL A   1      46.300  25.646  29.067  1.00  0.00     0.029 A 
ATOM     34  C   UNL A   1      45.826  26.903  29.404  1.00  0.00     0.049 A 
ATOM     35  H   UNL A   1      43.855  27.653  29.297  1.00  0.00     0.167 HD
ATOM     36  C   UNL A   1      46.025  29.239  30.214  1.00  0.00     0.074 A 
ATOM     37  C   UNL A   1      46.786  30.366  30.716  1.00  0.00     0.031 C 
ATOM     38  C   UNL A   1      46.561  28.029  29.919  1.00  0.00     0.037 A 
BRANCH  25  39
ATOM     39  C   UNL A   1      42.504  23.916  27.722  1.00  0.00     0.058 A 
ATOM     40  C   UNL A   1      42.469  23.659  26.343  1.00  0.00     0.135 A 
ATOM     41  C   UNL A   1      42.389  22.822  28.595  1.00  0.00     0.135 A 
ATOM     42  F   UNL A   1      42.560  24.670  25.465  1.00  0.00    -0.206 F 
ATOM     43  C   UNL A   1      42.315  22.367  25.847  1.00  0.00     0.059 A 
ATOM     44  C   UNL A   1      42.253  21.519  28.121  1.00  0.00     0.059 A 
ATOM     45  F   UNL A   1      42.416  23.011  29.923  1.00  0.00    -0.206 F 
ATOM     46  C   UNL A   1      42.211  21.303  26.744  1.00  0.00     0.060 A 
BRANCH  46  47
ATOM     47  S   UNL A   1      42.039  19.630  26.086  1.00  0.00     0.124 S 
ATOM     48  O   UNL A   1      42.443  18.823  27.234  1.00  0.00    -0.237 OA
ATOM     49  O   UNL A   1      40.623  19.573  25.739  1.00  0.00    -0.237 OA
ATOM     50  O   UNL A   1      42.960  19.615  24.952  1.00  0.00    -0.744 OA
ENDBRANCH  46  47
ENDBRANCH  25  39
BRANCH  26  51
ATOM     51  C   UNL A   1      43.698  33.196  31.250  1.00  0.00     0.058 A 
ATOM     52  C   UNL A   1      44.065  34.264  30.419  1.00  0.00     0.135 A 
ATOM     53  C   UNL A   1      43.474  33.468  32.609  1.00  0.00     0.135 A 
ATOM     54  F   UNL A   1      44.290  34.050  29.113  1.00  0.00    -0.206 F 
ATOM     55  C   UNL A   1      44.221  35.553  30.918  1.00  0.00     0.059 A 
ATOM     56  C   UNL A   1      43.596  34.753  33.125  1.00  0.00     0.059 A 
ATOM     57  F   UNL A   1      43.100  32.484  33.439  1.00  0.00    -0.206 F 
ATOM     58  C   UNL A   1      43.985  35.786  32.274  1.00  0.00     0.060 A 
BRANCH  58  59
ATOM     59  S   UNL A   1      44.138  37.468  32.912  1.00  0.00     0.124 S 
ATOM     60  O   UNL A   1      45.549  37.514  33.277  1.00  0.00    -0.237 OA
ATOM     61  O   UNL A   1      43.750  38.277  31.760  1.00  0.00    -0.237 OA
ATOM     62  O   UNL A   1      43.194  37.487  34.026  1.00  0.00    -0.744 OA
ENDBRANCH  58  59
ENDBRANCH  26  51
BRANCH  38  63
ATOM     63  C   UNL A   1      48.037  27.875  30.142  1.00  0.00     0.058 A 
ATOM     64  C   UNL A   1      48.961  28.164  29.125  1.00  0.00     0.135 A 
ATOM     65  C   UNL A   1      48.534  27.431  31.377  1.00  0.00     0.135 A 
ATOM     66  F   UNL A   1      48.534  28.584  27.924  1.00  0.00    -0.206 F 
ATOM     67  C   UNL A   1      50.326  27.981  29.313  1.00  0.00     0.059 A 
ATOM     68  C   UNL A   1      49.897  27.264  31.595  1.00  0.00     0.059 A 
ATOM     69  F   UNL A   1      47.690  27.152  32.383  1.00  0.00    -0.206 F 
ATOM     70  C   UNL A   1      50.784  27.522  30.550  1.00  0.00     0.060 A 
BRANCH  70  71
ATOM     71  S   UNL A   1      52.558  27.280  30.784  1.00  0.00     0.124 S 
ATOM     72  O   UNL A   1      53.111  28.237  29.831  1.00  0.00    -0.237 OA
ATOM     73  O   UNL A   1      52.739  27.613  32.194  1.00  0.00    -0.237 OA
ATOM     74  O   UNL A   1      52.753  25.873  30.449  1.00  0.00    -0.744 OA
ENDBRANCH  70  71
ENDBRANCH  38  63
ENDBRANCH  12  13
ENDBRANCH   5   7
ENDBRANCH   2   3
ENDBRANCH   1   2
BRANCH   1  75
ATOM     75  C   UNL A   1      34.174  27.724  24.747  1.00  0.00     0.023 C 
BRANCH  75  76
ATOM     76  C   UNL A   1      33.878  28.429  23.426  1.00  0.00     0.116 C 
BRANCH  76  77
ATOM     77  N   UNL A   1      33.898  27.532  22.281  1.00  0.00    -0.352 N 
ATOM     78  C   UNL A   1      32.904  26.705  21.824  1.00  0.00     0.253 C 
ATOM     79  H   UNL A   1      34.737  27.516  21.767  1.00  0.00     0.163 HD
ATOM     80  O   UNL A   1      33.086  25.994  20.840  1.00  0.00    -0.269 OA
BRANCH  78  81
ATOM     81  C   UNL A   1      31.614  26.643  22.535  1.00  0.00     0.063 A 
ATOM     82  C   UNL A   1      30.798  27.780  22.438  1.00  0.00     0.016 A 
ATOM     83  C   UNL A   1      31.215  25.512  23.275  1.00  0.00     0.051 A 
ATOM     84  C   UNL A   1      29.540  27.782  23.033  1.00  0.00     0.001 A 
ATOM     85  C   UNL A   1      29.933  25.536  23.843  1.00  0.00     0.027 A 
ATOM     86  C   UNL A   1      29.103  26.657  23.726  1.00  0.00     0.002 A 
BRANCH  83  87
ATOM     87  N   UNL A   1      32.048  24.382  23.402  1.00  0.00    -0.355 N 
ATOM     88  H   UNL A   1      31.869  23.669  22.748  1.00  0.00     0.167 HD
BRANCH  87  89
ATOM     89  C   UNL A   1      33.090  24.094  24.300  1.00  0.00     0.039 A 
ATOM     90  C   UNL A   1      32.815  24.052  25.672  1.00  0.00     0.026 A 
ATOM     91  C   UNL A   1      34.390  23.795  23.873  1.00  0.00     0.039 A 
ATOM     92  C   UNL A   1      33.810  23.723  26.594  1.00  0.00     0.003 A 
ATOM     93  C   UNL A   1      35.408  23.480  24.789  1.00  0.00     0.058 A 
ATOM     94  C   UNL A   1      35.100  23.436  26.155  1.00  0.00     0.013 A 
BRANCH  93  95
ATOM     95  C   UNL A   1      36.806  23.173  24.318  1.00  0.00     0.416 C 
ATOM     96  F   UNL A   1      37.151  21.868  24.500  1.00  0.00    -0.166 F 
ATOM     97  F   UNL A   1      36.969  23.418  22.987  1.00  0.00    -0.166 F 
ATOM     98  F   UNL A   1      37.769  23.903  24.948  1.00  0.00    -0.166 F 
ENDBRANCH  93  95
ENDBRANCH  87  89
ENDBRANCH  83  87
ENDBRANCH  78  81
ENDBRANCH  76  77
ENDBRANCH  75  76
ENDBRANCH   1  75
TORSDOF 17
ENDMDL
MODEL 2
REMARK VINA RESULT:     -11.2      5.560      9.862
REMARK SMILES O=C(NCCCCNC(=O)c1ccccc1Nc1cccc(C(F)(F)F)c1)c1ccc(-c2c3nc(c(-c4c(F)cc(S(=O)(=O)[O-])cc4F)c4ccc([nH]4)c(-c4c(F)cc(S(=O)(=O)[O-])cc4F)c4nc(c(-c5c(F)cc(S(=O)(=O)[O-])cc5F)c5ccc2[nH]5)C=C4)C=C3)cc1
REMARK SMILES IDX 5 1 4 2 3 3 1 4 2 5 28 7 29 8 93 9 30 10 92 11 31 12 32 13
REMARK SMILES IDX 33 14 86 15 34 16 91 17 85 18 87 19 35 20 90 21 84 22 83 23
REMARK SMILES IDX 36 25 70 26 49 27 69 28 50 29 53 30 68 31 88 32 51 33 52 34
REMARK SMILES IDX 67 36 89 37 54 38 37 39 38 40 47 41 39 42 40 43 46 44 48 45
REMARK SMILES IDX 41 46 42 47 43 48 44 49 45 50 71 51 72 52 81 53 73 54 74 55
REMARK SMILES IDX 80 56 82 57 75 58 76 59 77 60 78 61 79 62 55 63 56 64 65 65
REMARK SMILES IDX 57 66 58 67 64 68 66 69 59 70 60 71 61 72 62 73 63 74 6 75
REMARK SMILES IDX 7 76 8 77 9 78 10 80 11 81 12 82 16 83 13 84 15 85 14 86
REMARK SMILES IDX 17 87 18 89 19 90 27 91 20 92 22 93 21 94 23 95 24 96 25 97
REMARK SMILES IDX 26 98
REMARK H PARENT 3 6 87 24 53 35 8 79 17 88
REMARK Flexibility Score: inf
ROOT
ATOM      1  C   UNL A   1      37.311  23.699  25.566  1.00  0.00     0.023 C 
ENDROOT
BRANCH   1   2
ATOM      2  C   UNL A   1      38.357  24.069  26.610  1.00  0.00     0.116 C 
BRANCH   2   3
ATOM      3  N   UNL A   1      39.694  24.225  26.058  1.00  0.00    -0.352 N 
ATOM      4  O   UNL A   1      41.702  25.201  25.728  1.00  0.00    -0.269 OA
ATOM      5  C   UNL A   1      40.666  25.144  26.385  1.00  0.00     0.251 C 
ATOM      6  H   UNL A   1      39.938  23.584  25.352  1.00  0.00     0.163 HD
BRANCH   5   7
ATOM      7  C   UNL A   1      40.443  26.082  27.508  1.00  0.00     0.039 A 
ATOM      8  C   UNL A   1      41.145  27.286  27.573  1.00  0.00     0.014 A 
ATOM      9  C   UNL A   1      39.541  25.743  28.521  1.00  0.00     0.014 A 
ATOM     10  C   UNL A   1      41.077  28.061  28.724  1.00  0.00     0.010 A 
ATOM     11  C   UNL A   1      39.399  26.577  29.637  1.00  0.00     0.010 A 
ATOM     12  C   UNL A   1      40.195  27.724  29.766  1.00  0.00    -0.014 A 
BRANCH  12  13
ATOM     13  C   UNL A   1      40.100  28.635  30.938  1.00  0.00     0.031 A 
ATOM     14  C   UNL A   1      41.041  28.520  32.107  1.00  0.00     0.074 A 
ATOM     15  C   UNL A   1      39.190  29.629  30.896  1.00  0.00     0.049 A 
ATOM     16  N   UNL A   1      41.136  29.291  33.161  1.00  0.00    -0.248 NA
ATOM     17  C   UNL A   1      41.991  27.397  32.103  1.00  0.00     0.031 C 
ATOM     18  C   UNL A   1      38.205  29.820  29.828  1.00  0.00     0.029 A 
ATOM     19  N   UNL A   1      38.965  30.681  31.745  1.00  0.00    -0.354 N 
ATOM     20  C   UNL A   1      42.143  28.746  33.949  1.00  0.00     0.074 A 
ATOM     21  C   UNL A   1      42.613  27.560  33.264  1.00  0.00     0.031 C 
ATOM     22  C   UNL A   1      37.527  30.956  30.050  1.00  0.00     0.029 A 
ATOM     23  C   UNL A   1      37.988  31.542  31.303  1.00  0.00     0.049 A 
ATOM     24  H   UNL A   1      39.455  30.808  32.589  1.00  0.00     0.167 HD
ATOM     25  C   UNL A   1      42.634  29.199  35.129  1.00  0.00     0.037 A 
ATOM     26  C   UNL A   1      37.510  32.677  31.844  1.00  0.00     0.037 A 
ATOM     27  C   UNL A   1      42.171  30.390  35.798  1.00  0.00     0.049 A 
ATOM     28  C   UNL A   1      38.091  33.167  33.136  1.00  0.00     0.074 A 
ATOM     29  C   UNL A   1      42.610  30.933  36.994  1.00  0.00     0.029 A 
ATOM     30  N   UNL A   1      41.170  31.226  35.327  1.00  0.00    -0.354 N 
ATOM     31  N   UNL A   1      39.048  32.638  33.860  1.00  0.00    -0.248 NA
ATOM     32  C   UNL A   1      37.527  34.405  33.689  1.00  0.00     0.031 C 
ATOM     33  C   UNL A   1      41.857  32.083  37.258  1.00  0.00     0.029 A 
ATOM     34  C   UNL A   1      40.973  32.277  36.210  1.00  0.00     0.049 A 
ATOM     35  H   UNL A   1      40.673  31.094  34.487  1.00  0.00     0.167 HD
ATOM     36  C   UNL A   1      39.197  33.473  34.958  1.00  0.00     0.074 A 
ATOM     37  C   UNL A   1      38.259  34.565  34.783  1.00  0.00     0.031 C 
ATOM     38  C   UNL A   1      40.023  33.344  36.025  1.00  0.00     0.037 A 
BRANCH  25  39
ATOM     39  C   UNL A   1      43.734  28.408  35.783  1.00  0.00     0.058 A 
ATOM     40  C   UNL A   1      45.087  28.704  35.554  1.00  0.00     0.135 A 
ATOM     41  C   UNL A   1      43.435  27.392  36.706  1.00  0.00     0.135 A 
ATOM     42  F   UNL A   1      45.430  29.655  34.670  1.00  0.00    -0.206 F 
ATOM     43  C   UNL A   1      46.104  28.013  36.206  1.00  0.00     0.059 A 
ATOM     44  C   UNL A   1      44.436  26.702  37.385  1.00  0.00     0.059 A 
ATOM     45  F   UNL A   1      42.158  27.068  36.963  1.00  0.00    -0.206 F 
ATOM     46  C   UNL A   1      45.769  27.016  37.123  1.00  0.00     0.060 A 
BRANCH  46  47
ATOM     47  S   UNL A   1      47.099  26.148  37.983  1.00  0.00     0.124 S 
ATOM     48  O   UNL A   1      48.276  26.651  37.280  1.00  0.00    -0.237 OA
ATOM     49  O   UNL A   1      46.938  26.611  39.358  1.00  0.00    -0.237 OA
ATOM     50  O   UNL A   1      46.788  24.740  37.759  1.00  0.00    -0.744 OA
ENDBRANCH  46  47
ENDBRANCH  25  39
BRANCH  26  51
ATOM     51  C   UNL A   1      36.411  33.411  31.166  1.00  0.00     0.058 A 
ATOM     52  C   UNL A   1      36.640  34.144  29.993  1.00  0.00     0.135 A 
ATOM     53  C   UNL A   1      35.101  33.370  31.670  1.00  0.00     0.135 A 
ATOM     54  F   UNL A   1      37.876  34.212  29.475  1.00  0.00    -0.206 F 
ATOM     55  C   UNL A   1      35.613  34.827  29.350  1.00  0.00     0.059 A 
ATOM     56  C   UNL A   1      34.053  34.021  31.030  1.00  0.00     0.059 A 
ATOM     57  F   UNL A   1      34.828  32.664  32.776  1.00  0.00    -0.206 F 
ATOM     58  C   UNL A   1      34.321  34.759  29.878  1.00  0.00     0.060 A 
BRANCH  58  59
ATOM     59  S   UNL A   1      32.978  35.603  29.016  1.00  0.00     0.124 S 
ATOM     60  O   UNL A   1      32.449  34.531  28.182  1.00  0.00    -0.237 OA
ATOM     61  O   UNL A   1      32.124  36.038  30.117  1.00  0.00    -0.237 OA
ATOM     62  O   UNL A   1      33.666  36.678  28.306  1.00  0.00    -0.744 OA
ENDBRANCH  58  59
ENDBRANCH  26  51
BRANCH  38  63
ATOM     63  C   UNL A   1      39.937  34.411  37.077  1.00  0.00     0.058 A 
ATOM     64  C   UNL A   1      39.130  34.249  38.214  1.00  0.00     0.135 A 
ATOM     65  C   UNL A   1      40.661  35.606  36.947  1.00  0.00     0.135 A 
ATOM     66  F   UNL A   1      38.413  33.127  38.379  1.00  0.00    -0.206 F 
ATOM     67  C   UNL A   1      39.014  35.253  39.169  1.00  0.00     0.059 A 
ATOM     68  C   UNL A   1      40.578  36.614  37.902  1.00  0.00     0.059 A 
ATOM     69  F   UNL A   1      41.454  35.804  35.882  1.00  0.00    -0.206 F 
ATOM     70  C   UNL A   1      39.736  36.436  38.999  1.00  0.00     0.060 A 
BRANCH  70  71
ATOM     71  S   UNL A   1      39.574  37.738  40.239  1.00  0.00     0.124 S 
ATOM     72  O   UNL A   1      39.051  36.991  41.379  1.00  0.00    -0.237 OA
ATOM     73  O   UNL A   1      40.946  38.219  40.374  1.00  0.00    -0.237 OA
ATOM     74  O   UNL A   1      38.644  38.678  39.622  1.00  0.00    -0.744 OA
ENDBRANCH  70  71
ENDBRANCH  38  63
ENDBRANCH  12  13
ENDBRANCH   5   7
ENDBRANCH   2   3
ENDBRANCH   1   2
BRANCH   1  75
ATOM     75  C   UNL A   1      37.483  22.328  24.917  1.00  0.00     0.023 C 
BRANCH  75  76
ATOM     76  C   UNL A   1      36.390  21.310  25.231  1.00  0.00     0.116 C 
BRANCH  76  77
ATOM     77  N   UNL A   1      35.727  21.555  26.503  1.00  0.00    -0.352 N 
ATOM     78  C   UNL A   1      34.437  21.963  26.732  1.00  0.00     0.253 C 
ATOM     79  H   UNL A   1      36.278  21.410  27.305  1.00  0.00     0.163 HD
ATOM     80  O   UNL A   1      34.031  22.137  27.877  1.00  0.00    -0.269 OA
BRANCH  78  81
ATOM     81  C   UNL A   1      33.537  22.223  25.595  1.00  0.00     0.063 A 
ATOM     82  C   UNL A   1      33.600  23.508  25.035  1.00  0.00     0.016 A 
ATOM     83  C   UNL A   1      32.658  21.244  25.090  1.00  0.00     0.051 A 
ATOM     84  C   UNL A   1      32.824  23.819  23.923  1.00  0.00     0.001 A 
ATOM     85  C   UNL A   1      31.906  21.580  23.954  1.00  0.00     0.027 A 
ATOM     86  C   UNL A   1      31.986  22.852  23.376  1.00  0.00     0.002 A 
BRANCH  83  87
ATOM     87  N   UNL A   1      32.568  19.963  25.671  1.00  0.00    -0.355 N 
ATOM     88  H   UNL A   1      32.126  19.945  26.550  1.00  0.00     0.167 HD
BRANCH  87  89
ATOM     89  C   UNL A   1      33.000  18.705  25.216  1.00  0.00     0.039 A 
ATOM     90  C   UNL A   1      34.007  18.641  24.246  1.00  0.00     0.026 A 
ATOM     91  C   UNL A   1      32.496  17.505  25.732  1.00  0.00     0.039 A 
ATOM     92  C   UNL A   1      34.499  17.412  23.801  1.00  0.00     0.003 A 
ATOM     93  C   UNL A   1      32.966  16.259  25.282  1.00  0.00     0.058 A 
ATOM     94  C   UNL A   1      33.982  16.226  24.318  1.00  0.00     0.013 A 
BRANCH  93  95
ATOM     95  C   UNL A   1      32.407  14.974  25.837  1.00  0.00     0.416 C 
ATOM     96  F   UNL A   1      32.126  15.050  27.168  1.00  0.00    -0.166 F 
ATOM     97  F   UNL A   1      31.240  14.614  25.232  1.00  0.00    -0.166 F 
ATOM     98  F   UNL A   1      33.242  13.907  25.694  1.00  0.00    -0.166 F 
ENDBRANCH  93  95
ENDBRANCH  87  89
ENDBRANCH  83  87
ENDBRANCH  78  81
ENDBRANCH  76  77
ENDBRANCH  75  76
ENDBRANCH   1  75
TORSDOF 17
ENDMDL
MODEL 3
REMARK VINA RESULT:     -11.1      2.329      3.392
REMARK SMILES O=C(NCCCCNC(=O)c1ccccc1Nc1cccc(C(F)(F)F)c1)c1ccc(-c2c3nc(c(-c4c(F)cc(S(=O)(=O)[O-])cc4F)c4ccc([nH]4)c(-c4c(F)cc(S(=O)(=O)[O-])cc4F)c4nc(c(-c5c(F)cc(S(=O)(=O)[O-])cc5F)c5ccc2[nH]5)C=C4)C=C3)cc1
REMARK SMILES IDX 5 1 4 2 3 3 1 4 2 5 28 7 29 8 93 9 30 10 92 11 31 12 32 13
REMARK SMILES IDX 33 14 86 15 34 16 91 17 85 18 87 19 35 20 90 21 84 22 83 23
REMARK SMILES IDX 36 25 70 26 49 27 69 28 50 29 53 30 68 31 88 32 51 33 52 34
REMARK SMILES IDX 67 36 89 37 54 38 37 39 38 40 47 41 39 42 40 43 46 44 48 45
REMARK SMILES IDX 41 46 42 47 43 48 44 49 45 50 71 51 72 52 81 53 73 54 74 55
REMARK SMILES IDX 80 56 82 57 75 58 76 59 77 60 78 61 79 62 55 63 56 64 65 65
REMARK SMILES IDX 57 66 58 67 64 68 66 69 59 70 60 71 61 72 62 73 63 74 6 75
REMARK SMILES IDX 7 76 8 77 9 78 10 80 11 81 12 82 16 83 13 84 15 85 14 86
REMARK SMILES IDX 17 87 18 89 19 90 27 91 20 92 22 93 21 94 23 95 24 96 25 97
REMARK SMILES IDX 26 98
REMARK H PARENT 3 6 87 24 53 35 8 79 17 88
REMARK Flexibility Score: inf
ROOT
ATOM      1  C   UNL A   1      32.859  27.817  25.944  1.00  0.00     0.023 C 
ENDROOT
BRANCH   1   2
ATOM      2  C   UNL A   1      33.977  28.251  26.883  1.00  0.00     0.116 C 
BRANCH   2   3
ATOM      3  N   UNL A   1      33.793  29.591  27.419  1.00  0.00    -0.352 N 
ATOM      4  O   UNL A   1      34.316  31.446  28.594  1.00  0.00    -0.269 OA
ATOM      5  C   UNL A   1      34.685  30.378  28.113  1.00  0.00     0.251 C 
ATOM      6  H   UNL A   1      32.907  29.992  27.264  1.00  0.00     0.163 HD
BRANCH   5   7
ATOM      7  C   UNL A   1      36.079  29.916  28.305  1.00  0.00     0.039 A 
ATOM      8  C   UNL A   1      36.479  29.366  29.522  1.00  0.00     0.014 A 
ATOM      9  C   UNL A   1      37.002  30.058  27.264  1.00  0.00     0.014 A 
ATOM     10  C   UNL A   1      37.826  29.122  29.757  1.00  0.00     0.010 A 
ATOM     11  C   UNL A   1      38.344  29.717  27.471  1.00  0.00     0.010 A 
ATOM     12  C   UNL A   1      38.775  29.283  28.732  1.00  0.00    -0.014 A 
BRANCH  12  13
ATOM     13  C   UNL A   1      40.192  28.926  29.014  1.00  0.00     0.031 A 
ATOM     14  C   UNL A   1      40.761  27.588  28.628  1.00  0.00     0.074 A 
ATOM     15  C   UNL A   1      40.986  29.868  29.560  1.00  0.00     0.049 A 
ATOM     16  N   UNL A   1      41.995  27.161  28.733  1.00  0.00    -0.248 NA
ATOM     17  C   UNL A   1      39.834  26.595  28.062  1.00  0.00     0.031 C 
ATOM     18  C   UNL A   1      40.537  31.192  30.003  1.00  0.00     0.029 A 
ATOM     19  N   UNL A   1      42.335  29.879  29.804  1.00  0.00    -0.354 N 
ATOM     20  C   UNL A   1      41.993  25.855  28.258  1.00  0.00     0.074 A 
ATOM     21  C   UNL A   1      40.628  25.546  27.888  1.00  0.00     0.031 C 
ATOM     22  C   UNL A   1      41.598  31.908  30.402  1.00  0.00     0.029 A 
ATOM     23  C   UNL A   1      42.792  31.078  30.298  1.00  0.00     0.049 A 
ATOM     24  H   UNL A   1      42.919  29.103  29.642  1.00  0.00     0.167 HD
ATOM     25  C   UNL A   1      43.036  24.997  28.134  1.00  0.00     0.037 A 
ATOM     26  C   UNL A   1      44.035  31.469  30.636  1.00  0.00     0.037 A 
ATOM     27  C   UNL A   1      44.397  25.317  28.491  1.00  0.00     0.049 A 
ATOM     28  C   UNL A   1      45.172  30.509  30.463  1.00  0.00     0.074 A 
ATOM     29  C   UNL A   1      45.524  24.517  28.396  1.00  0.00     0.029 A 
ATOM     30  N   UNL A   1      44.818  26.535  29.001  1.00  0.00    -0.354 N 
ATOM     31  N   UNL A   1      45.147  29.279  30.006  1.00  0.00    -0.248 NA
ATOM     32  C   UNL A   1      46.506  30.983  30.855  1.00  0.00     0.031 C 
ATOM     33  C   UNL A   1      46.621  25.243  28.875  1.00  0.00     0.029 A 
ATOM     34  C   UNL A   1      46.185  26.507  29.233  1.00  0.00     0.049 A 
ATOM     35  H   UNL A   1      44.232  27.308  29.174  1.00  0.00     0.167 HD
ATOM     36  C   UNL A   1      46.459  28.830  30.062  1.00  0.00     0.074 A 
ATOM     37  C   UNL A   1      47.258  29.932  30.559  1.00  0.00     0.031 C 
ATOM     38  C   UNL A   1      46.958  27.610  29.745  1.00  0.00     0.037 A 
BRANCH  25  39
ATOM     39  C   UNL A   1      42.757  23.623  27.590  1.00  0.00     0.058 A 
ATOM     40  C   UNL A   1      42.848  23.344  26.217  1.00  0.00     0.135 A 
ATOM     41  C   UNL A   1      42.467  22.555  28.455  1.00  0.00     0.135 A 
ATOM     42  F   UNL A   1      43.107  24.330  25.344  1.00  0.00    -0.206 F 
ATOM     43  C   UNL A   1      42.651  22.059  25.720  1.00  0.00     0.059 A 
ATOM     44  C   UNL A   1      42.285  21.258  27.982  1.00  0.00     0.059 A 
ATOM     45  F   UNL A   1      42.368  22.764  29.777  1.00  0.00    -0.206 F 
ATOM     46  C   UNL A   1      42.373  21.021  26.610  1.00  0.00     0.060 A 
BRANCH  46  47
ATOM     47  S   UNL A   1      42.147  19.355  25.953  1.00  0.00     0.124 S 
ATOM     48  O   UNL A   1      42.662  18.538  27.049  1.00  0.00    -0.237 OA
ATOM     49  O   UNL A   1      40.704  19.293  25.742  1.00  0.00    -0.237 OA
ATOM     50  O   UNL A   1      42.955  19.356  24.737  1.00  0.00    -0.744 OA
ENDBRANCH  46  47
ENDBRANCH  25  39
BRANCH  26  51
ATOM     51  C   UNL A   1      44.254  32.832  31.184  1.00  0.00     0.058 A 
ATOM     52  C   UNL A   1      44.237  33.074  32.565  1.00  0.00     0.135 A 
ATOM     53  C   UNL A   1      44.511  33.917  30.331  1.00  0.00     0.135 A 
ATOM     54  F   UNL A   1      43.995  32.067  33.419  1.00  0.00    -0.206 F 
ATOM     55  C   UNL A   1      44.450  34.347  33.083  1.00  0.00     0.059 A 
ATOM     56  C   UNL A   1      44.753  35.193  30.826  1.00  0.00     0.059 A 
ATOM     57  F   UNL A   1      44.559  33.732  29.004  1.00  0.00    -0.206 F 
ATOM     58  C   UNL A   1      44.707  35.401  32.204  1.00  0.00     0.060 A 
BRANCH  58  59
ATOM     59  S   UNL A   1      45.033  37.043  32.878  1.00  0.00     0.124 S 
ATOM     60  O   UNL A   1      43.688  37.600  32.954  1.00  0.00    -0.237 OA
ATOM     61  O   UNL A   1      45.670  36.736  34.155  1.00  0.00    -0.237 OA
ATOM     62  O   UNL A   1      45.912  37.643  31.878  1.00  0.00    -0.744 OA
ENDBRANCH  58  59
ENDBRANCH  26  51
BRANCH  38  63
ATOM     63  C   UNL A   1      48.434  27.417  29.935  1.00  0.00     0.058 A 
ATOM     64  C   UNL A   1      48.953  26.898  31.133  1.00  0.00     0.135 A 
ATOM     65  C   UNL A   1      49.339  27.755  28.917  1.00  0.00     0.135 A 
ATOM     66  F   UNL A   1      48.128  26.567  32.137  1.00  0.00    -0.206 F 
ATOM     67  C   UNL A   1      50.322  26.759  31.328  1.00  0.00     0.059 A 
ATOM     68  C   UNL A   1      50.712  27.601  29.083  1.00  0.00     0.059 A 
ATOM     69  F   UNL A   1      48.892  28.246  27.750  1.00  0.00    -0.206 F 
ATOM     70  C   UNL A   1      51.194  27.121  30.301  1.00  0.00     0.060 A 
BRANCH  70  71
ATOM     71  S   UNL A   1      52.971  26.943  30.565  1.00  0.00     0.124 S 
ATOM     72  O   UNL A   1      53.006  26.029  31.702  1.00  0.00    -0.237 OA
ATOM     73  O   UNL A   1      53.427  26.391  29.293  1.00  0.00    -0.237 OA
ATOM     74  O   UNL A   1      53.409  28.308  30.842  1.00  0.00    -0.744 OA
ENDBRANCH  70  71
ENDBRANCH  38  63
ENDBRANCH  12  13
ENDBRANCH   5   7
ENDBRANCH   2   3
ENDBRANCH   1   2
BRANCH   1  75
ATOM     75  C   UNL A   1      31.723  27.030  26.590  1.00  0.00     0.023 C 
BRANCH  75  76
ATOM     76  C   UNL A   1      31.387  25.695  25.929  1.00  0.00     0.116 C 
BRANCH  76  77
ATOM     77  N   UNL A   1      31.367  24.582  26.864  1.00  0.00    -0.352 N 
ATOM     78  C   UNL A   1      32.250  23.536  26.971  1.00  0.00     0.253 C 
ATOM     79  H   UNL A   1      30.621  24.577  27.506  1.00  0.00     0.163 HD
ATOM     80  O   UNL A   1      32.084  22.662  27.815  1.00  0.00    -0.269 OA
BRANCH  78  81
ATOM     81  C   UNL A   1      33.393  23.444  26.044  1.00  0.00     0.063 A 
ATOM     82  C   UNL A   1      34.367  24.446  26.159  1.00  0.00     0.016 A 
ATOM     83  C   UNL A   1      33.509  22.410  25.094  1.00  0.00     0.051 A 
ATOM     84  C   UNL A   1      35.506  24.401  25.360  1.00  0.00     0.001 A 
ATOM     85  C   UNL A   1      34.679  22.378  24.320  1.00  0.00     0.027 A 
ATOM     86  C   UNL A   1      35.667  23.361  24.450  1.00  0.00     0.002 A 
BRANCH  83  87
ATOM     87  N   UNL A   1      32.516  21.420  24.954  1.00  0.00    -0.355 N 
ATOM     88  H   UNL A   1      31.669  21.626  25.412  1.00  0.00     0.167 HD
BRANCH  87  89
ATOM     89  C   UNL A   1      32.521  20.190  24.275  1.00  0.00     0.039 A 
ATOM     90  C   UNL A   1      32.183  20.160  22.917  1.00  0.00     0.026 A 
ATOM     91  C   UNL A   1      32.900  18.991  24.892  1.00  0.00     0.039 A 
ATOM     92  C   UNL A   1      32.222  18.967  22.193  1.00  0.00     0.003 A 
ATOM     93  C   UNL A   1      32.926  17.778  24.184  1.00  0.00     0.058 A 
ATOM     94  C   UNL A   1      32.593  17.781  22.823  1.00  0.00     0.013 A 
BRANCH  93  95
ATOM     95  C   UNL A   1      33.324  16.493  24.863  1.00  0.00     0.416 C 
ATOM     96  F   UNL A   1      34.396  15.893  24.274  1.00  0.00    -0.166 F 
ATOM     97  F   UNL A   1      33.675  16.683  26.166  1.00  0.00    -0.166 F 
ATOM     98  F   UNL A   1      32.337  15.554  24.880  1.00  0.00    -0.166 F 
ENDBRANCH  93  95
ENDBRANCH  87  89
ENDBRANCH  83  87
ENDBRANCH  78  81
ENDBRANCH  76  77
ENDBRANCH  75  76
ENDBRANCH   1  75
TORSDOF 17
ENDMDL
