MODEL 1
REMARK VINA RESULT:     -11.7      0.000      0.000
REMARK SMILES Cc1cc2c(c(C)c1Br)C=C(C(=O)NCCCCNC(=O)c1ccc(-c3c4nc(c(-c5c(F)cc(S(=O)(=O)[O-])cc5F)c5ccc([nH]5)c(-c5c(F)cc(S(=O)(=O)[O-])cc5F)c5nc(c(-c6c(F)cc(S(=O)(=O)[O-])cc6F)c6ccc3[nH]6)C=C5)C=C4)cc1)[C@@H](C(F)(F)F)O2
REMARK SMILES IDX 17 1 16 2 15 3 14 4 12 5 13 6 11 8 1 9 2 10 3 11 8 12 4 13
REMARK SMILES IDX 6 14 9 15 5 16 93 17 7 18 10 19 88 20 89 21 90 22 91 23
REMARK SMILES IDX 92 24 18 25 19 26 20 27 21 29 22 30 23 31 87 32 24 33 86 34
REMARK SMILES IDX 25 35 26 36 27 37 80 38 28 39 85 40 79 41 81 42 29 43 84 44
REMARK SMILES IDX 78 45 77 46 30 48 64 49 43 50 63 51 44 52 47 53 62 54 82 55
REMARK SMILES IDX 45 56 46 57 61 59 83 60 48 61 31 62 32 63 41 64 33 65 34 66
REMARK SMILES IDX 40 67 42 68 35 69 36 70 37 71 38 72 39 73 65 74 66 75 75 76
REMARK SMILES IDX 67 77 68 78 74 79 76 80 69 81 70 82 71 83 72 84 73 85 49 86
REMARK SMILES IDX 50 87 59 88 51 89 52 90 58 91 60 92 53 93 54 94 55 95 56 96
REMARK SMILES IDX 57 97
REMARK H PARENT 14 7 19 28 81 47 47 58
REMARK Flexibility Score: inf
ROOT
ATOM      1  C   UNL A   1      35.820  23.820  25.871  1.00  0.00     0.023 C 
ENDROOT
BRANCH   1   2
ATOM      2  C   UNL A   1      34.755  22.735  25.687  1.00  0.00     0.023 C 
BRANCH   2   3
ATOM      3  C   UNL A   1      33.445  23.238  25.087  1.00  0.00     0.116 C 
BRANCH   3   4
ATOM      4  N   UNL A   1      33.604  23.649  23.703  1.00  0.00    -0.352 N 
ATOM      5  C   UNL A   1      33.324  24.742  22.955  1.00  0.00     0.251 C 
ATOM      6  O   UNL A   1      33.642  24.658  21.764  1.00  0.00    -0.270 OA
ATOM      7  H   UNL A   1      34.031  22.943  23.165  1.00  0.00     0.163 HD
BRANCH   5   8
ATOM      8  C   UNL A   1      32.684  25.995  23.456  1.00  0.00     0.067 C 
ATOM      9  C   UNL A   1      31.108  31.686  26.210  1.00  0.00     0.046 C 
ATOM     10  C   UNL A   1      31.761  30.399  25.781  1.00  0.00    -0.033 A 
ATOM     11  C   UNL A   1      31.132  29.646  24.785  1.00  0.00     0.051 A 
ATOM     12  C   UNL A   1      32.989  29.941  26.307  1.00  0.00     0.024 A 
ATOM     13  C   UNL A   1      31.692  28.456  24.334  1.00  0.00     0.128 A 
ATOM     14  C   UNL A   1      33.565  28.723  25.864  1.00  0.00    -0.026 A 
ATOM     15  Br  UNL A   1      33.874  31.026  27.614  1.00  0.00    -0.050 Br
ATOM     16  C   UNL A   1      32.903  27.985  24.850  1.00  0.00     0.021 A 
ATOM     17  O   UNL A   1      31.007  27.827  23.334  1.00  0.00    -0.475 OA
ATOM     18  C   UNL A   1      34.870  28.196  26.418  1.00  0.00     0.046 C 
ATOM     19  C   UNL A   1      33.447  26.755  24.264  1.00  0.00     0.026 C 
ATOM     20  C   UNL A   1      31.277  26.411  23.151  1.00  0.00     0.314 C 
BRANCH  20  21
ATOM     21  C   UNL A   1      30.228  25.591  23.923  1.00  0.00     0.429 C 
ATOM     22  F   UNL A   1      30.045  24.382  23.334  1.00  0.00    -0.167 F 
ATOM     23  F   UNL A   1      30.598  25.343  25.201  1.00  0.00    -0.167 F 
ATOM     24  F   UNL A   1      29.023  26.203  23.972  1.00  0.00    -0.167 F 
ENDBRANCH  20  21
ENDBRANCH   5   8
ENDBRANCH   3   4
ENDBRANCH   2   3
ENDBRANCH   1   2
BRANCH   1  25
ATOM     25  C   UNL A   1      37.005  23.752  24.906  1.00  0.00     0.116 C 
BRANCH  25  26
ATOM     26  N   UNL A   1      38.006  22.758  25.271  1.00  0.00    -0.352 N 
ATOM     27  C   UNL A   1      39.085  22.916  26.109  1.00  0.00     0.251 C 
ATOM     28  H   UNL A   1      37.896  21.867  24.870  1.00  0.00     0.163 HD
ATOM     29  O   UNL A   1      39.891  22.005  26.268  1.00  0.00    -0.269 OA
BRANCH  27  30
ATOM     30  C   UNL A   1      39.281  24.219  26.771  1.00  0.00     0.039 A 
ATOM     31  C   UNL A   1      38.758  24.407  28.051  1.00  0.00     0.014 A 
ATOM     32  C   UNL A   1      40.051  25.211  26.158  1.00  0.00     0.014 A 
ATOM     33  C   UNL A   1      39.079  25.567  28.756  1.00  0.00     0.010 A 
ATOM     34  C   UNL A   1      40.413  26.341  26.883  1.00  0.00     0.010 A 
ATOM     35  C   UNL A   1      39.943  26.521  28.193  1.00  0.00    -0.014 A 
BRANCH  35  36
ATOM     36  C   UNL A   1      40.392  27.702  28.970  1.00  0.00     0.031 A 
ATOM     37  C   UNL A   1      41.740  27.699  29.629  1.00  0.00     0.074 A 
ATOM     38  C   UNL A   1      39.556  28.745  29.133  1.00  0.00     0.049 A 
ATOM     39  N   UNL A   1      42.275  28.596  30.413  1.00  0.00    -0.248 NA
ATOM     40  C   UNL A   1      42.590  26.520  29.392  1.00  0.00     0.031 C 
ATOM     41  C   UNL A   1      38.205  28.843  28.571  1.00  0.00     0.029 A 
ATOM     42  N   UNL A   1      39.713  29.920  29.823  1.00  0.00    -0.354 N 
ATOM     43  C   UNL A   1      43.519  28.091  30.772  1.00  0.00     0.074 A 
ATOM     44  C   UNL A   1      43.639  26.786  30.156  1.00  0.00     0.031 C 
ATOM     45  C   UNL A   1      37.670  30.026  28.917  1.00  0.00     0.029 A 
ATOM     46  C   UNL A   1      38.622  30.754  29.751  1.00  0.00     0.049 A 
ATOM     47  H   UNL A   1      40.531  30.144  30.324  1.00  0.00     0.167 HD
ATOM     48  C   UNL A   1      44.481  28.671  31.527  1.00  0.00     0.037 A 
ATOM     49  C   UNL A   1      38.414  31.967  30.296  1.00  0.00     0.037 A 
ATOM     50  C   UNL A   1      44.363  29.978  32.119  1.00  0.00     0.049 A 
ATOM     51  C   UNL A   1      39.498  32.593  31.128  1.00  0.00     0.074 A 
ATOM     52  C   UNL A   1      45.293  30.666  32.878  1.00  0.00     0.029 A 
ATOM     53  N   UNL A   1      43.250  30.797  32.009  1.00  0.00    -0.354 N 
ATOM     54  N   UNL A   1      40.677  32.110  31.439  1.00  0.00    -0.248 NA
ATOM     55  C   UNL A   1      39.225  33.925  31.685  1.00  0.00     0.031 C 
ATOM     56  C   UNL A   1      44.733  31.893  33.248  1.00  0.00     0.029 A 
ATOM     57  C   UNL A   1      43.467  31.983  32.691  1.00  0.00     0.049 A 
ATOM     58  H   UNL A   1      42.427  30.570  31.520  1.00  0.00     0.167 HD
ATOM     59  C   UNL A   1      41.297  33.089  32.208  1.00  0.00     0.074 A 
ATOM     60  C   UNL A   1      40.365  34.192  32.311  1.00  0.00     0.031 C 
ATOM     61  C   UNL A   1      42.527  33.073  32.776  1.00  0.00     0.037 A 
BRANCH  48  62
ATOM     62  C   UNL A   1      45.750  27.897  31.741  1.00  0.00     0.058 A 
ATOM     63  C   UNL A   1      45.896  27.026  32.832  1.00  0.00     0.135 A 
ATOM     64  C   UNL A   1      46.820  28.008  30.840  1.00  0.00     0.135 A 
ATOM     65  F   UNL A   1      44.909  26.900  33.733  1.00  0.00    -0.206 F 
ATOM     66  C   UNL A   1      47.070  26.311  33.039  1.00  0.00     0.059 A 
ATOM     67  C   UNL A   1      47.996  27.283  31.014  1.00  0.00     0.059 A 
ATOM     68  F   UNL A   1      46.732  28.830  29.783  1.00  0.00    -0.206 F 
ATOM     69  C   UNL A   1      48.117  26.449  32.124  1.00  0.00     0.060 A 
BRANCH  69  70
ATOM     70  S   UNL A   1      49.635  25.514  32.407  1.00  0.00     0.124 S 
ATOM     71  O   UNL A   1      50.516  26.547  32.944  1.00  0.00    -0.237 OA
ATOM     72  O   UNL A   1      49.202  24.494  33.357  1.00  0.00    -0.237 OA
ATOM     73  O   UNL A   1      49.983  25.022  31.078  1.00  0.00    -0.744 OA
ENDBRANCH  69  70
ENDBRANCH  48  62
BRANCH  49  74
ATOM     74  C   UNL A   1      37.141  32.686  30.032  1.00  0.00     0.058 A 
ATOM     75  C   UNL A   1      36.019  32.472  30.845  1.00  0.00     0.135 A 
ATOM     76  C   UNL A   1      37.030  33.623  28.994  1.00  0.00     0.135 A 
ATOM     77  F   UNL A   1      36.077  31.581  31.847  1.00  0.00    -0.206 F 
ATOM     78  C   UNL A   1      34.829  33.160  30.639  1.00  0.00     0.059 A 
ATOM     79  C   UNL A   1      35.855  34.337  28.778  1.00  0.00     0.059 A 
ATOM     80  F   UNL A   1      38.082  33.873  28.199  1.00  0.00    -0.206 F 
ATOM     81  C   UNL A   1      34.758  34.096  29.605  1.00  0.00     0.060 A 
BRANCH  81  82
ATOM     82  S   UNL A   1      33.231  35.036  29.394  1.00  0.00     0.124 S 
ATOM     83  O   UNL A   1      32.657  34.972  30.733  1.00  0.00    -0.237 OA
ATOM     84  O   UNL A   1      33.730  36.341  28.974  1.00  0.00    -0.237 OA
ATOM     85  O   UNL A   1      32.517  34.287  28.364  1.00  0.00    -0.744 OA
ENDBRANCH  81  82
ENDBRANCH  49  74
BRANCH  61  86
ATOM     86  C   UNL A   1      42.951  34.293  33.540  1.00  0.00     0.058 A 
ATOM     87  C   UNL A   1      42.707  34.417  34.916  1.00  0.00     0.135 A 
ATOM     88  C   UNL A   1      43.668  35.318  32.903  1.00  0.00     0.135 A 
ATOM     89  F   UNL A   1      42.019  33.466  35.568  1.00  0.00    -0.206 F 
ATOM     90  C   UNL A   1      43.153  35.521  35.634  1.00  0.00     0.059 A 
ATOM     91  C   UNL A   1      44.141  36.421  33.604  1.00  0.00     0.059 A 
ATOM     92  F   UNL A   1      43.932  35.241  31.589  1.00  0.00    -0.206 F 
ATOM     93  C   UNL A   1      43.873  36.517  34.970  1.00  0.00     0.060 A 
BRANCH  93  94
ATOM     94  S   UNL A   1      44.488  37.921  35.923  1.00  0.00     0.124 S 
ATOM     95  O   UNL A   1      43.905  37.664  37.235  1.00  0.00    -0.237 OA
ATOM     96  O   UNL A   1      45.935  37.755  35.829  1.00  0.00    -0.237 OA
ATOM     97  O   UNL A   1      43.949  39.076  35.211  1.00  0.00    -0.744 OA
ENDBRANCH  93  94
ENDBRANCH  61  86
ENDBRANCH  35  36
ENDBRANCH  27  30
ENDBRANCH  25  26
ENDBRANCH   1  25
TORSDOF 15
ENDMDL
MODEL 2
REMARK VINA RESULT:     -11.6      3.091      9.127
REMARK SMILES Cc1cc2c(c(C)c1Br)C=C(C(=O)NCCCCNC(=O)c1ccc(-c3c4nc(c(-c5c(F)cc(S(=O)(=O)[O-])cc5F)c5ccc([nH]5)c(-c5c(F)cc(S(=O)(=O)[O-])cc5F)c5nc(c(-c6c(F)cc(S(=O)(=O)[O-])cc6F)c6ccc3[nH]6)C=C5)C=C4)cc1)[C@@H](C(F)(F)F)O2
REMARK SMILES IDX 17 1 16 2 15 3 14 4 12 5 13 6 11 8 1 9 2 10 3 11 8 12 4 13
REMARK SMILES IDX 6 14 9 15 5 16 93 17 7 18 10 19 88 20 89 21 90 22 91 23
REMARK SMILES IDX 92 24 18 25 19 26 20 27 21 29 22 30 23 31 87 32 24 33 86 34
REMARK SMILES IDX 25 35 26 36 27 37 80 38 28 39 85 40 79 41 81 42 29 43 84 44
REMARK SMILES IDX 78 45 77 46 30 48 64 49 43 50 63 51 44 52 47 53 62 54 82 55
REMARK SMILES IDX 45 56 46 57 61 59 83 60 48 61 31 62 32 63 41 64 33 65 34 66
REMARK SMILES IDX 40 67 42 68 35 69 36 70 37 71 38 72 39 73 65 74 66 75 75 76
REMARK SMILES IDX 67 77 68 78 74 79 76 80 69 81 70 82 71 83 72 84 73 85 49 86
REMARK SMILES IDX 50 87 59 88 51 89 52 90 58 91 60 92 53 93 54 94 55 95 56 96
REMARK SMILES IDX 57 97
REMARK H PARENT 14 7 19 28 81 47 47 58
REMARK Flexibility Score: inf
ROOT
ATOM      1  C   UNL A   1      34.036  28.505  25.622  1.00  0.00     0.023 C 
ENDROOT
BRANCH   1   2
ATOM      2  C   UNL A   1      33.249  29.439  24.698  1.00  0.00     0.023 C 
BRANCH   2   3
ATOM      3  C   UNL A   1      33.547  29.249  23.213  1.00  0.00     0.116 C 
BRANCH   3   4
ATOM      4  N   UNL A   1      32.469  28.558  22.528  1.00  0.00    -0.352 N 
ATOM      5  C   UNL A   1      31.777  27.405  22.679  1.00  0.00     0.251 C 
ATOM      6  O   UNL A   1      30.906  27.200  21.827  1.00  0.00    -0.270 OA
ATOM      7  H   UNL A   1      32.157  29.066  21.743  1.00  0.00     0.163 HD
BRANCH   5   8
ATOM      8  C   UNL A   1      31.987  26.403  23.768  1.00  0.00     0.067 C 
ATOM      9  C   UNL A   1      33.912  21.592  27.717  1.00  0.00     0.046 C 
ATOM     10  C   UNL A   1      33.683  22.541  26.571  1.00  0.00    -0.033 A 
ATOM     11  C   UNL A   1      32.858  23.649  26.793  1.00  0.00     0.051 A 
ATOM     12  C   UNL A   1      34.289  22.387  25.305  1.00  0.00     0.024 A 
ATOM     13  C   UNL A   1      32.618  24.570  25.780  1.00  0.00     0.128 A 
ATOM     14  C   UNL A   1      34.043  23.314  24.259  1.00  0.00    -0.026 A 
ATOM     15  Br  UNL A   1      35.478  20.908  25.046  1.00  0.00    -0.050 Br
ATOM     16  C   UNL A   1      33.204  24.427  24.519  1.00  0.00     0.021 A 
ATOM     17  O   UNL A   1      31.827  25.628  26.124  1.00  0.00    -0.475 OA
ATOM     18  C   UNL A   1      34.663  23.169  22.887  1.00  0.00     0.046 C 
ATOM     19  C   UNL A   1      32.945  25.485  23.537  1.00  0.00     0.026 C 
ATOM     20  C   UNL A   1      31.188  26.345  25.034  1.00  0.00     0.314 C 
BRANCH  20  21
ATOM     21  C   UNL A   1      29.769  25.789  24.823  1.00  0.00     0.429 C 
ATOM     22  F   UNL A   1      29.796  24.735  23.968  1.00  0.00    -0.167 F 
ATOM     23  F   UNL A   1      29.211  25.337  25.971  1.00  0.00    -0.167 F 
ATOM     24  F   UNL A   1      28.921  26.707  24.306  1.00  0.00    -0.167 F 
ENDBRANCH  20  21
ENDBRANCH   5   8
ENDBRANCH   3   4
ENDBRANCH   2   3
ENDBRANCH   1   2
BRANCH   1  25
ATOM     25  C   UNL A   1      33.664  28.576  27.104  1.00  0.00     0.116 C 
BRANCH  25  26
ATOM     26  N   UNL A   1      33.571  29.933  27.624  1.00  0.00    -0.352 N 
ATOM     27  C   UNL A   1      34.555  30.670  28.241  1.00  0.00     0.251 C 
ATOM     28  H   UNL A   1      32.699  30.376  27.522  1.00  0.00     0.163 HD
ATOM     29  O   UNL A   1      34.311  31.782  28.695  1.00  0.00    -0.269 OA
BRANCH  27  30
ATOM     30  C   UNL A   1      35.896  30.073  28.389  1.00  0.00     0.039 A 
ATOM     31  C   UNL A   1      36.791  30.159  27.320  1.00  0.00     0.014 A 
ATOM     32  C   UNL A   1      36.286  29.511  29.607  1.00  0.00     0.014 A 
ATOM     33  C   UNL A   1      38.113  29.754  27.503  1.00  0.00     0.010 A 
ATOM     34  C   UNL A   1      37.617  29.158  29.802  1.00  0.00     0.010 A 
ATOM     35  C   UNL A   1      38.544  29.291  28.757  1.00  0.00    -0.014 A 
BRANCH  35  36
ATOM     36  C   UNL A   1      39.970  28.968  29.007  1.00  0.00     0.031 A 
ATOM     37  C   UNL A   1      40.884  30.005  29.589  1.00  0.00     0.074 A 
ATOM     38  C   UNL A   1      40.449  27.762  28.645  1.00  0.00     0.049 A 
ATOM     39  N   UNL A   1      42.171  29.941  29.803  1.00  0.00    -0.248 NA
ATOM     40  C   UNL A   1      40.274  31.292  29.960  1.00  0.00     0.031 C 
ATOM     41  C   UNL A   1      39.662  26.687  28.033  1.00  0.00     0.029 A 
ATOM     42  N   UNL A   1      41.714  27.237  28.732  1.00  0.00    -0.354 N 
ATOM     43  C   UNL A   1      42.529  31.178  30.324  1.00  0.00     0.074 A 
ATOM     44  C   UNL A   1      41.330  31.989  30.351  1.00  0.00     0.031 C 
ATOM     45  C   UNL A   1      40.457  25.624  27.827  1.00  0.00     0.029 A 
ATOM     46  C   UNL A   1      41.813  25.951  28.258  1.00  0.00     0.049 A 
ATOM     47  H   UNL A   1      42.479  27.737  29.099  1.00  0.00     0.167 HD
ATOM     48  C   UNL A   1      43.742  31.592  30.762  1.00  0.00     0.037 A 
ATOM     49  C   UNL A   1      42.876  25.129  28.179  1.00  0.00     0.037 A 
ATOM     50  C   UNL A   1      44.926  30.774  30.751  1.00  0.00     0.049 A 
ATOM     51  C   UNL A   1      44.212  25.610  28.673  1.00  0.00     0.074 A 
ATOM     52  C   UNL A   1      46.196  31.092  31.198  1.00  0.00     0.029 A 
ATOM     53  N   UNL A   1      44.981  29.471  30.278  1.00  0.00    -0.354 N 
ATOM     54  N   UNL A   1      44.528  26.776  29.184  1.00  0.00    -0.248 NA
ATOM     55  C   UNL A   1      45.335  24.667  28.580  1.00  0.00     0.031 C 
ATOM     56  C   UNL A   1      47.027  29.989  30.974  1.00  0.00     0.029 A 
ATOM     57  C   UNL A   1      46.266  28.973  30.418  1.00  0.00     0.049 A 
ATOM     58  H   UNL A   1      44.221  28.975  29.899  1.00  0.00     0.167 HD
ATOM     59  C   UNL A   1      45.881  26.700  29.496  1.00  0.00     0.074 A 
ATOM     60  C   UNL A   1      46.322  25.372  29.120  1.00  0.00     0.031 C 
ATOM     61  C   UNL A   1      46.683  27.645  30.043  1.00  0.00     0.037 A 
BRANCH  48  62
ATOM     62  C   UNL A   1      43.840  32.991  31.300  1.00  0.00     0.058 A 
ATOM     63  C   UNL A   1      43.653  33.260  32.665  1.00  0.00     0.135 A 
ATOM     64  C   UNL A   1      44.142  34.067  30.452  1.00  0.00     0.135 A 
ATOM     65  F   UNL A   1      43.343  32.268  33.514  1.00  0.00    -0.206 F 
ATOM     66  C   UNL A   1      43.737  34.554  33.168  1.00  0.00     0.059 A 
ATOM     67  C   UNL A   1      44.254  35.367  30.938  1.00  0.00     0.059 A 
ATOM     68  F   UNL A   1      44.325  33.864  29.139  1.00  0.00    -0.206 F 
ATOM     69  C   UNL A   1      44.036  35.602  32.295  1.00  0.00     0.060 A 
BRANCH  69  70
ATOM     70  S   UNL A   1      44.140  37.275  32.963  1.00  0.00     0.124 S 
ATOM     71  O   UNL A   1      42.993  37.300  33.866  1.00  0.00    -0.237 OA
ATOM     72  O   UNL A   1      45.451  37.275  33.605  1.00  0.00    -0.237 OA
ATOM     73  O   UNL A   1      44.024  38.122  31.779  1.00  0.00    -0.744 OA
ENDBRANCH  69  70
ENDBRANCH  48  62
BRANCH  49  74
ATOM     74  C   UNL A   1      42.707  23.752  27.650  1.00  0.00     0.058 A 
ATOM     75  C   UNL A   1      42.557  22.666  28.524  1.00  0.00     0.135 A 
ATOM     76  C   UNL A   1      42.651  23.498  26.271  1.00  0.00     0.135 A 
ATOM     77  F   UNL A   1      42.610  22.860  29.850  1.00  0.00    -0.206 F 
ATOM     78  C   UNL A   1      42.361  21.373  28.051  1.00  0.00     0.059 A 
ATOM     79  C   UNL A   1      42.437  22.215  25.774  1.00  0.00     0.059 A 
ATOM     80  F   UNL A   1      42.772  24.508  25.396  1.00  0.00    -0.206 F 
ATOM     81  C   UNL A   1      42.296  21.158  26.673  1.00  0.00     0.060 A 
BRANCH  81  82
ATOM     82  S   UNL A   1      41.966  19.487  26.073  1.00  0.00     0.124 S 
ATOM     83  O   UNL A   1      40.531  19.541  25.823  1.00  0.00    -0.237 OA
ATOM     84  O   UNL A   1      42.818  19.412  24.891  1.00  0.00    -0.237 OA
ATOM     85  O   UNL A   1      42.382  18.643  27.189  1.00  0.00    -0.744 OA
ENDBRANCH  81  82
ENDBRANCH  49  74
BRANCH  61  86
ATOM     86  C   UNL A   1      48.115  27.274  30.295  1.00  0.00     0.058 A 
ATOM     87  C   UNL A   1      49.113  27.515  29.339  1.00  0.00     0.135 A 
ATOM     88  C   UNL A   1      48.503  26.733  31.531  1.00  0.00     0.135 A 
ATOM     89  F   UNL A   1      48.790  28.024  28.139  1.00  0.00    -0.206 F 
ATOM     90  C   UNL A   1      50.448  27.226  29.597  1.00  0.00     0.059 A 
ATOM     91  C   UNL A   1      49.835  26.454  31.818  1.00  0.00     0.059 A 
ATOM     92  F   UNL A   1      47.586  26.490  32.480  1.00  0.00    -0.206 F 
ATOM     93  C   UNL A   1      50.800  26.698  30.841  1.00  0.00     0.060 A 
BRANCH  93  94
ATOM     94  S   UNL A   1      52.543  26.372  31.181  1.00  0.00     0.124 S 
ATOM     95  O   UNL A   1      53.102  26.330  29.835  1.00  0.00    -0.237 OA
ATOM     96  O   UNL A   1      52.926  27.525  31.991  1.00  0.00    -0.237 OA
ATOM     97  O   UNL A   1      52.517  25.096  31.891  1.00  0.00    -0.744 OA
ENDBRANCH  93  94
ENDBRANCH  61  86
ENDBRANCH  35  36
ENDBRANCH  27  30
ENDBRANCH  25  26
ENDBRANCH   1  25
TORSDOF 15
ENDMDL
MODEL 3
REMARK VINA RESULT:     -11.4      3.299      4.321
REMARK SMILES Cc1cc2c(c(C)c1Br)C=C(C(=O)NCCCCNC(=O)c1ccc(-c3c4nc(c(-c5c(F)cc(S(=O)(=O)[O-])cc5F)c5ccc([nH]5)c(-c5c(F)cc(S(=O)(=O)[O-])cc5F)c5nc(c(-c6c(F)cc(S(=O)(=O)[O-])cc6F)c6ccc3[nH]6)C=C5)C=C4)cc1)[C@@H](C(F)(F)F)O2
REMARK SMILES IDX 17 1 16 2 15 3 14 4 12 5 13 6 11 8 1 9 2 10 3 11 8 12 4 13
REMARK SMILES IDX 6 14 9 15 5 16 93 17 7 18 10 19 88 20 89 21 90 22 91 23
REMARK SMILES IDX 92 24 18 25 19 26 20 27 21 29 22 30 23 31 87 32 24 33 86 34
REMARK SMILES IDX 25 35 26 36 27 37 80 38 28 39 85 40 79 41 81 42 29 43 84 44
REMARK SMILES IDX 78 45 77 46 30 48 64 49 43 50 63 51 44 52 47 53 62 54 82 55
REMARK SMILES IDX 45 56 46 57 61 59 83 60 48 61 31 62 32 63 41 64 33 65 34 66
REMARK SMILES IDX 40 67 42 68 35 69 36 70 37 71 38 72 39 73 65 74 66 75 75 76
REMARK SMILES IDX 67 77 68 78 74 79 76 80 69 81 70 82 71 83 72 84 73 85 49 86
REMARK SMILES IDX 50 87 59 88 51 89 52 90 58 91 60 92 53 93 54 94 55 95 56 96
REMARK SMILES IDX 57 97
REMARK H PARENT 14 7 19 28 81 47 47 58
REMARK Flexibility Score: inf
ROOT
ATOM      1  C   UNL A   1      37.029  23.652  25.117  1.00  0.00     0.023 C 
ENDROOT
BRANCH   1   2
ATOM      2  C   UNL A   1      37.237  22.187  24.724  1.00  0.00     0.023 C 
BRANCH   2   3
ATOM      3  C   UNL A   1      36.740  21.183  25.761  1.00  0.00     0.116 C 
BRANCH   3   4
ATOM      4  N   UNL A   1      35.826  20.214  25.184  1.00  0.00    -0.352 N 
ATOM      5  C   UNL A   1      34.511  20.160  24.864  1.00  0.00     0.251 C 
ATOM      6  O   UNL A   1      34.135  19.091  24.372  1.00  0.00    -0.270 OA
ATOM      7  H   UNL A   1      36.285  19.371  24.964  1.00  0.00     0.163 HD
BRANCH   5   8
ATOM      8  C   UNL A   1      33.525  21.265  25.056  1.00  0.00     0.067 C 
ATOM      9  C   UNL A   1      29.535  26.396  24.603  1.00  0.00     0.046 C 
ATOM     10  C   UNL A   1      30.585  25.337  24.399  1.00  0.00    -0.033 A 
ATOM     11  C   UNL A   1      30.657  24.297  25.332  1.00  0.00     0.051 A 
ATOM     12  C   UNL A   1      31.468  25.324  23.298  1.00  0.00     0.024 A 
ATOM     13  C   UNL A   1      31.594  23.281  25.193  1.00  0.00     0.128 A 
ATOM     14  C   UNL A   1      32.438  24.298  23.150  1.00  0.00    -0.026 A 
ATOM     15  Br  UNL A   1      31.302  26.712  21.989  1.00  0.00    -0.050 Br
ATOM     16  C   UNL A   1      32.481  23.258  24.112  1.00  0.00     0.021 A 
ATOM     17  O   UNL A   1      31.545  22.303  26.144  1.00  0.00    -0.475 OA
ATOM     18  C   UNL A   1      33.409  24.264  21.991  1.00  0.00     0.046 C 
ATOM     19  C   UNL A   1      33.389  22.110  24.016  1.00  0.00     0.026 C 
ATOM     20  C   UNL A   1      32.743  21.497  26.313  1.00  0.00     0.314 C 
BRANCH  20  21
ATOM     21  C   UNL A   1      33.596  22.088  27.449  1.00  0.00     0.429 C 
ATOM     22  F   UNL A   1      34.380  21.128  28.001  1.00  0.00    -0.167 F 
ATOM     23  F   UNL A   1      34.429  23.065  27.022  1.00  0.00    -0.167 F 
ATOM     24  F   UNL A   1      32.845  22.616  28.443  1.00  0.00    -0.167 F 
ENDBRANCH  20  21
ENDBRANCH   5   8
ENDBRANCH   3   4
ENDBRANCH   2   3
ENDBRANCH   1   2
BRANCH   1  25
ATOM     25  C   UNL A   1      37.929  24.169  26.240  1.00  0.00     0.116 C 
BRANCH  25  26
ATOM     26  N   UNL A   1      39.333  23.812  26.080  1.00  0.00    -0.352 N 
ATOM     27  C   UNL A   1      40.429  24.428  26.640  1.00  0.00     0.251 C 
ATOM     28  H   UNL A   1      39.519  23.039  25.502  1.00  0.00     0.163 HD
ATOM     29  O   UNL A   1      41.564  24.060  26.357  1.00  0.00    -0.269 OA
BRANCH  27  30
ATOM     30  C   UNL A   1      40.211  25.571  27.546  1.00  0.00     0.039 A 
ATOM     31  C   UNL A   1      39.339  25.415  28.625  1.00  0.00     0.014 A 
ATOM     32  C   UNL A   1      40.932  26.754  27.372  1.00  0.00     0.014 A 
ATOM     33  C   UNL A   1      39.254  26.424  29.585  1.00  0.00     0.010 A 
ATOM     34  C   UNL A   1      40.885  27.735  28.357  1.00  0.00     0.010 A 
ATOM     35  C   UNL A   1      40.058  27.570  29.479  1.00  0.00    -0.014 A 
BRANCH  35  36
ATOM     36  C   UNL A   1      40.070  28.599  30.547  1.00  0.00     0.031 A 
ATOM     37  C   UNL A   1      41.022  28.473  31.700  1.00  0.00     0.074 A 
ATOM     38  C   UNL A   1      39.178  29.608  30.506  1.00  0.00     0.049 A 
ATOM     39  N   UNL A   1      41.127  29.220  32.766  1.00  0.00    -0.248 NA
ATOM     40  C   UNL A   1      41.965  27.343  31.659  1.00  0.00     0.031 C 
ATOM     41  C   UNL A   1      38.178  29.812  29.455  1.00  0.00     0.029 A 
ATOM     42  N   UNL A   1      38.961  30.648  31.374  1.00  0.00    -0.354 N 
ATOM     43  C   UNL A   1      42.140  28.650  33.528  1.00  0.00     0.074 A 
ATOM     44  C   UNL A   1      42.585  27.467  32.823  1.00  0.00     0.031 C 
ATOM     45  C   UNL A   1      37.475  30.923  29.726  1.00  0.00     0.029 A 
ATOM     46  C   UNL A   1      37.949  31.492  30.985  1.00  0.00     0.049 A 
ATOM     47  H   UNL A   1      39.483  30.777  32.200  1.00  0.00     0.167 HD
ATOM     48  C   UNL A   1      42.665  29.086  34.697  1.00  0.00     0.037 A 
ATOM     49  C   UNL A   1      37.458  32.598  31.575  1.00  0.00     0.037 A 
ATOM     50  C   UNL A   1      42.231  30.275  35.383  1.00  0.00     0.049 A 
ATOM     51  C   UNL A   1      38.059  33.064  32.872  1.00  0.00     0.074 A 
ATOM     52  C   UNL A   1      42.719  30.816  36.559  1.00  0.00     0.029 A 
ATOM     53  N   UNL A   1      41.214  31.111  34.948  1.00  0.00    -0.354 N 
ATOM     54  N   UNL A   1      39.032  32.525  33.567  1.00  0.00    -0.248 NA
ATOM     55  C   UNL A   1      37.498  34.286  33.464  1.00  0.00     0.031 C 
ATOM     56  C   UNL A   1      41.981  31.969  36.849  1.00  0.00     0.029 A 
ATOM     57  C   UNL A   1      41.055  32.163  35.835  1.00  0.00     0.049 A 
ATOM     58  H   UNL A   1      40.684  30.977  34.130  1.00  0.00     0.167 HD
ATOM     59  C   UNL A   1      39.216  33.354  34.668  1.00  0.00     0.074 A 
ATOM     60  C   UNL A   1      38.257  34.433  34.543  1.00  0.00     0.031 C 
ATOM     61  C   UNL A   1      40.099  33.231  35.689  1.00  0.00     0.037 A 
BRANCH  48  62
ATOM     62  C   UNL A   1      43.777  28.275  35.298  1.00  0.00     0.058 A 
ATOM     63  C   UNL A   1      45.103  28.423  34.862  1.00  0.00     0.135 A 
ATOM     64  C   UNL A   1      43.521  27.359  36.330  1.00  0.00     0.135 A 
ATOM     65  F   UNL A   1      45.397  29.271  33.864  1.00  0.00    -0.206 F 
ATOM     66  C   UNL A   1      46.136  27.671  35.411  1.00  0.00     0.059 A 
ATOM     67  C   UNL A   1      44.544  26.613  36.910  1.00  0.00     0.059 A 
ATOM     68  F   UNL A   1      42.271  27.178  36.780  1.00  0.00    -0.206 F 
ATOM     69  C   UNL A   1      45.845  26.765  36.434  1.00  0.00     0.060 A 
BRANCH  69  70
ATOM     70  S   UNL A   1      47.197  25.796  37.135  1.00  0.00     0.124 S 
ATOM     71  O   UNL A   1      46.467  24.747  37.839  1.00  0.00    -0.237 OA
ATOM     72  O   UNL A   1      47.926  25.370  35.945  1.00  0.00    -0.237 OA
ATOM     73  O   UNL A   1      47.896  26.754  37.986  1.00  0.00    -0.744 OA
ENDBRANCH  69  70
ENDBRANCH  48  62
BRANCH  49  74
ATOM     74  C   UNL A   1      36.367  33.362  30.919  1.00  0.00     0.058 A 
ATOM     75  C   UNL A   1      35.069  33.348  31.448  1.00  0.00     0.135 A 
ATOM     76  C   UNL A   1      36.603  34.147  29.781  1.00  0.00     0.135 A 
ATOM     77  F   UNL A   1      34.794  32.607  32.532  1.00  0.00    -0.206 F 
ATOM     78  C   UNL A   1      34.040  34.085  30.872  1.00  0.00     0.059 A 
ATOM     79  C   UNL A   1      35.594  34.907  29.196  1.00  0.00     0.059 A 
ATOM     80  F   UNL A   1      37.834  34.204  29.248  1.00  0.00    -0.206 F 
ATOM     81  C   UNL A   1      34.314  34.867  29.748  1.00  0.00     0.060 A 
BRANCH  81  82
ATOM     82  S   UNL A   1      32.988  35.876  29.053  1.00  0.00     0.124 S 
ATOM     83  O   UNL A   1      32.335  34.929  28.158  1.00  0.00    -0.237 OA
ATOM     84  O   UNL A   1      32.234  36.255  30.243  1.00  0.00    -0.237 OA
ATOM     85  O   UNL A   1      33.705  36.969  28.402  1.00  0.00    -0.744 OA
ENDBRANCH  81  82
ENDBRANCH  49  74
BRANCH  61  86
ATOM     86  C   UNL A   1      40.091  34.301  36.741  1.00  0.00     0.058 A 
ATOM     87  C   UNL A   1      40.875  35.457  36.615  1.00  0.00     0.135 A 
ATOM     88  C   UNL A   1      39.240  34.198  37.853  1.00  0.00     0.135 A 
ATOM     89  F   UNL A   1      41.710  35.598  35.573  1.00  0.00    -0.206 F 
ATOM     90  C   UNL A   1      40.822  36.475  37.562  1.00  0.00     0.059 A 
ATOM     91  C   UNL A   1      39.156  35.212  38.802  1.00  0.00     0.059 A 
ATOM     92  F   UNL A   1      38.466  33.114  38.014  1.00  0.00    -0.206 F 
ATOM     93  C   UNL A   1      39.956  36.344  38.650  1.00  0.00     0.060 A 
BRANCH  93  94
ATOM     94  S   UNL A   1      39.861  37.693  39.846  1.00  0.00     0.124 S 
ATOM     95  O   UNL A   1      41.032  38.486  39.489  1.00  0.00    -0.237 OA
ATOM     96  O   UNL A   1      38.568  38.296  39.537  1.00  0.00    -0.237 OA
ATOM     97  O   UNL A   1      39.934  37.010  41.135  1.00  0.00    -0.744 OA
ENDBRANCH  93  94
ENDBRANCH  61  86
ENDBRANCH  35  36
ENDBRANCH  27  30
ENDBRANCH  25  26
ENDBRANCH   1  25
TORSDOF 15
ENDMDL
