MODEL 1
REMARK VINA RESULT:     -12.3      0.000      0.000
REMARK SMILES CC[C@H](C(=O)NCCCCNC(=O)c1ccc(-c2c3nc(c(-c4c(F)cc(S(=O)(=O)[O-])cc4F)c4ccc([nH]4)c(-c4c(F)cc(S(=O)(=O)[O-])cc4F)c4nc(c(-c5c(F)cc(S(=O)(=O)[O-])cc5F)c5ccc2[nH]5)C=C4)C=C3)cc1)N1C(=O)c2ccc([N+](=O)[O-])cc2C1=O
REMARK SMILES IDX 9 1 8 2 7 3 6 4 4 5 5 6 3 8 2 9 1 10 80 11 81 12 92 13 82 14
REMARK SMILES IDX 83 15 91 16 93 17 84 18 90 19 85 20 86 21 87 22 88 23 89 24
REMARK SMILES IDX 10 25 11 26 12 27 13 29 14 30 15 31 79 32 16 33 78 34 17 35
REMARK SMILES IDX 18 36 19 37 72 38 20 39 77 40 71 41 73 42 21 43 76 44 70 45
REMARK SMILES IDX 69 46 22 48 56 49 35 50 55 51 36 52 39 53 54 54 74 55 37 56
REMARK SMILES IDX 38 57 53 59 75 60 40 61 23 62 24 63 33 64 25 65 26 66 32 67
REMARK SMILES IDX 34 68 27 69 28 70 29 71 30 72 31 73 57 74 58 75 67 76 59 77
REMARK SMILES IDX 60 78 66 79 68 80 61 81 62 82 63 83 64 84 65 85 41 86 42 87
REMARK SMILES IDX 51 88 43 89 44 90 50 91 52 92 45 93 46 94 47 95 48 96 49 97
REMARK H PARENT 6 7 11 28 73 47 39 58
REMARK Flexibility Score: inf
ROOT
ATOM      1  C   UNL A   1      37.269  23.855  25.361  1.00  0.00     0.023 C 
ENDROOT
BRANCH   1   2
ATOM      2  C   UNL A   1      36.344  22.638  25.439  1.00  0.00     0.023 C 
BRANCH   2   3
ATOM      3  C   UNL A   1      35.726  22.205  24.109  1.00  0.00     0.116 C 
BRANCH   3   4
ATOM      4  N   UNL A   1      34.898  23.254  23.555  1.00  0.00    -0.354 N 
ATOM      5  C   UNL A   1      33.552  23.427  23.615  1.00  0.00     0.243 C 
ATOM      6  O   UNL A   1      33.051  24.101  22.708  1.00  0.00    -0.273 OA
ATOM      7  H   UNL A   1      35.385  23.950  23.057  1.00  0.00     0.163 HD
BRANCH   5   8
ATOM      8  C   UNL A   1      32.690  22.738  24.702  1.00  0.00     0.183 C 
BRANCH   8   9
ATOM      9  C   UNL A   1      31.225  23.177  24.868  1.00  0.00     0.032 C 
ATOM     10  C   UNL A   1      30.582  22.922  26.221  1.00  0.00     0.006 C 
ENDBRANCH   8   9
BRANCH   8  11
ATOM     11  N   UNL A   1      32.810  21.288  24.516  1.00  0.00    -0.262 N 
ATOM     12  C   UNL A   1      32.441  20.618  23.378  1.00  0.00     0.262 C 
ATOM     13  C   UNL A   1      33.246  20.426  25.483  1.00  0.00     0.262 C 
ATOM     14  O   UNL A   1      31.889  21.014  22.371  1.00  0.00    -0.269 OA
ATOM     15  C   UNL A   1      32.788  19.219  23.589  1.00  0.00     0.053 A 
ATOM     16  C   UNL A   1      33.235  19.088  24.891  1.00  0.00     0.060 A 
ATOM     17  O   UNL A   1      33.562  20.653  26.636  1.00  0.00    -0.269 OA
ATOM     18  C   UNL A   1      32.692  18.147  22.724  1.00  0.00     0.022 A 
ATOM     19  C   UNL A   1      33.561  17.858  25.430  1.00  0.00     0.100 A 
ATOM     20  C   UNL A   1      33.032  16.888  23.227  1.00  0.00     0.086 A 
ATOM     21  C   UNL A   1      33.441  16.747  24.577  1.00  0.00     0.270 A 
BRANCH  21  22
ATOM     22  N   UNL A   1      33.715  15.404  25.101  1.00  0.00     0.062 N 
ATOM     23  O   UNL A   1      34.894  15.103  25.330  1.00  0.00    -0.258 OA
ATOM     24  O   UNL A   1      32.749  14.644  25.264  1.00  0.00    -0.258 OA
ENDBRANCH  21  22
ENDBRANCH   8  11
ENDBRANCH   5   8
ENDBRANCH   3   4
ENDBRANCH   2   3
ENDBRANCH   1   2
BRANCH   1  25
ATOM     25  C   UNL A   1      38.183  24.047  26.565  1.00  0.00     0.116 C 
BRANCH  25  26
ATOM     26  N   UNL A   1      39.585  23.828  26.238  1.00  0.00    -0.352 N 
ATOM     27  C   UNL A   1      40.676  24.600  26.564  1.00  0.00     0.251 C 
ATOM     28  H   UNL A   1      39.778  23.019  25.712  1.00  0.00     0.163 HD
ATOM     29  O   UNL A   1      41.771  24.365  26.062  1.00  0.00    -0.269 OA
BRANCH  27  30
ATOM     30  C   UNL A   1      40.509  25.731  27.502  1.00  0.00     0.039 A 
ATOM     31  C   UNL A   1      39.614  25.612  28.569  1.00  0.00     0.014 A 
ATOM     32  C   UNL A   1      41.272  26.890  27.347  1.00  0.00     0.014 A 
ATOM     33  C   UNL A   1      39.545  26.626  29.530  1.00  0.00     0.010 A 
ATOM     34  C   UNL A   1      41.258  27.859  28.343  1.00  0.00     0.010 A 
ATOM     35  C   UNL A   1      40.397  27.737  29.448  1.00  0.00    -0.014 A 
BRANCH  35  36
ATOM     36  C   UNL A   1      40.417  28.805  30.482  1.00  0.00     0.031 A 
ATOM     37  C   UNL A   1      41.348  28.672  31.658  1.00  0.00     0.074 A 
ATOM     38  C   UNL A   1      39.532  29.820  30.429  1.00  0.00     0.049 A 
ATOM     39  N   UNL A   1      41.388  29.368  32.763  1.00  0.00    -0.248 NA
ATOM     40  C   UNL A   1      42.343  27.589  31.591  1.00  0.00     0.031 C 
ATOM     41  C   UNL A   1      38.566  30.049  29.353  1.00  0.00     0.029 A 
ATOM     42  N   UNL A   1      39.282  30.837  31.319  1.00  0.00    -0.354 N 
ATOM     43  C   UNL A   1      42.389  28.790  33.536  1.00  0.00     0.074 A 
ATOM     44  C   UNL A   1      42.899  27.660  32.792  1.00  0.00     0.031 C 
ATOM     45  C   UNL A   1      37.832  31.135  29.645  1.00  0.00     0.029 A 
ATOM     46  C   UNL A   1      38.235  31.650  30.950  1.00  0.00     0.049 A 
ATOM     47  H   UNL A   1      39.802  30.971  32.144  1.00  0.00     0.167 HD
ATOM     48  C   UNL A   1      42.852  29.177  34.748  1.00  0.00     0.037 A 
ATOM     49  C   UNL A   1      37.647  32.674  31.601  1.00  0.00     0.037 A 
ATOM     50  C   UNL A   1      42.356  30.320  35.468  1.00  0.00     0.049 A 
ATOM     51  C   UNL A   1      38.161  33.072  32.961  1.00  0.00     0.074 A 
ATOM     52  C   UNL A   1      42.790  30.825  36.680  1.00  0.00     0.029 A 
ATOM     53  N   UNL A   1      41.318  31.136  35.042  1.00  0.00    -0.354 N 
ATOM     54  N   UNL A   1      39.134  32.540  33.661  1.00  0.00    -0.248 NA
ATOM     55  C   UNL A   1      37.499  34.207  33.621  1.00  0.00     0.031 C 
ATOM     56  C   UNL A   1      41.982  31.916  37.013  1.00  0.00     0.029 A 
ATOM     57  C   UNL A   1      41.086  32.130  35.977  1.00  0.00     0.049 A 
ATOM     58  H   UNL A   1      40.820  31.025  34.200  1.00  0.00     0.167 HD
ATOM     59  C   UNL A   1      39.231  33.302  34.821  1.00  0.00     0.074 A 
ATOM     60  C   UNL A   1      38.213  34.327  34.734  1.00  0.00     0.031 C 
ATOM     61  C   UNL A   1      40.091  33.168  35.858  1.00  0.00     0.037 A 
BRANCH  48  62
ATOM     62  C   UNL A   1      43.945  28.358  35.376  1.00  0.00     0.058 A 
ATOM     63  C   UNL A   1      43.665  27.285  36.238  1.00  0.00     0.135 A 
ATOM     64  C   UNL A   1      45.293  28.624  35.082  1.00  0.00     0.135 A 
ATOM     65  F   UNL A   1      42.396  26.994  36.565  1.00  0.00    -0.206 F 
ATOM     66  C   UNL A   1      44.680  26.527  36.811  1.00  0.00     0.059 A 
ATOM     67  C   UNL A   1      46.324  27.858  35.618  1.00  0.00     0.059 A 
ATOM     68  F   UNL A   1      45.620  29.637  34.265  1.00  0.00    -0.206 F 
ATOM     69  C   UNL A   1      46.007  26.822  36.495  1.00  0.00     0.060 A 
BRANCH  69  70
ATOM     70  S   UNL A   1      47.311  25.825  37.246  1.00  0.00     0.124 S 
ATOM     71  O   UNL A   1      48.369  25.932  36.247  1.00  0.00    -0.237 OA
ATOM     72  O   UNL A   1      47.553  26.524  38.504  1.00  0.00    -0.237 OA
ATOM     73  O   UNL A   1      46.701  24.506  37.373  1.00  0.00    -0.744 OA
ENDBRANCH  69  70
ENDBRANCH  48  62
BRANCH  49  74
ATOM     74  C   UNL A   1      36.508  33.402  30.974  1.00  0.00     0.058 A 
ATOM     75  C   UNL A   1      35.204  33.262  31.472  1.00  0.00     0.135 A 
ATOM     76  C   UNL A   1      36.698  34.252  29.874  1.00  0.00     0.135 A 
ATOM     77  F   UNL A   1      34.968  32.454  32.518  1.00  0.00    -0.206 F 
ATOM     78  C   UNL A   1      34.126  33.924  30.893  1.00  0.00     0.059 A 
ATOM     79  C   UNL A   1      35.640  34.947  29.295  1.00  0.00     0.059 A 
ATOM     80  F   UNL A   1      37.927  34.434  29.367  1.00  0.00    -0.206 F 
ATOM     81  C   UNL A   1      34.355  34.767  29.805  1.00  0.00     0.060 A 
BRANCH  81  82
ATOM     82  S   UNL A   1      32.954  35.653  29.087  1.00  0.00     0.124 S 
ATOM     83  O   UNL A   1      32.171  35.975  30.274  1.00  0.00    -0.237 OA
ATOM     84  O   UNL A   1      33.610  36.778  28.428  1.00  0.00    -0.237 OA
ATOM     85  O   UNL A   1      32.360  34.668  28.187  1.00  0.00    -0.744 OA
ENDBRANCH  81  82
ENDBRANCH  49  74
BRANCH  61  86
ATOM     86  C   UNL A   1      40.038  34.187  36.964  1.00  0.00     0.058 A 
ATOM     87  C   UNL A   1      40.784  35.372  36.920  1.00  0.00     0.135 A 
ATOM     88  C   UNL A   1      39.126  34.023  38.021  1.00  0.00     0.135 A 
ATOM     89  F   UNL A   1      41.677  35.574  35.937  1.00  0.00    -0.206 F 
ATOM     90  C   UNL A   1      40.625  36.365  37.882  1.00  0.00     0.059 A 
ATOM     91  C   UNL A   1      38.930  35.012  38.977  1.00  0.00     0.059 A 
ATOM     92  F   UNL A   1      38.382  32.907  38.105  1.00  0.00    -0.206 F 
ATOM     93  C   UNL A   1      39.684  36.181  38.899  1.00  0.00     0.060 A 
BRANCH  93  94
ATOM     94  S   UNL A   1      39.419  37.519  40.083  1.00  0.00     0.124 S 
ATOM     95  O   UNL A   1      38.990  36.785  41.268  1.00  0.00    -0.237 OA
ATOM     96  O   UNL A   1      40.741  38.132  40.160  1.00  0.00    -0.237 OA
ATOM     97  O   UNL A   1      38.392  38.339  39.447  1.00  0.00    -0.744 OA
ENDBRANCH  93  94
ENDBRANCH  61  86
ENDBRANCH  35  36
ENDBRANCH  27  30
ENDBRANCH  25  26
ENDBRANCH   1  25
TORSDOF 17
ENDMDL
MODEL 2
REMARK VINA RESULT:     -12.3      1.412      3.542
REMARK SMILES CC[C@H](C(=O)NCCCCNC(=O)c1ccc(-c2c3nc(c(-c4c(F)cc(S(=O)(=O)[O-])cc4F)c4ccc([nH]4)c(-c4c(F)cc(S(=O)(=O)[O-])cc4F)c4nc(c(-c5c(F)cc(S(=O)(=O)[O-])cc5F)c5ccc2[nH]5)C=C4)C=C3)cc1)N1C(=O)c2ccc([N+](=O)[O-])cc2C1=O
REMARK SMILES IDX 9 1 8 2 7 3 6 4 4 5 5 6 3 8 2 9 1 10 80 11 81 12 92 13 82 14
REMARK SMILES IDX 83 15 91 16 93 17 84 18 90 19 85 20 86 21 87 22 88 23 89 24
REMARK SMILES IDX 10 25 11 26 12 27 13 29 14 30 15 31 79 32 16 33 78 34 17 35
REMARK SMILES IDX 18 36 19 37 72 38 20 39 77 40 71 41 73 42 21 43 76 44 70 45
REMARK SMILES IDX 69 46 22 48 56 49 35 50 55 51 36 52 39 53 54 54 74 55 37 56
REMARK SMILES IDX 38 57 53 59 75 60 40 61 23 62 24 63 33 64 25 65 26 66 32 67
REMARK SMILES IDX 34 68 27 69 28 70 29 71 30 72 31 73 57 74 58 75 67 76 59 77
REMARK SMILES IDX 60 78 66 79 68 80 61 81 62 82 63 83 64 84 65 85 41 86 42 87
REMARK SMILES IDX 51 88 43 89 44 90 50 91 52 92 45 93 46 94 47 95 48 96 49 97
REMARK H PARENT 6 7 11 28 73 47 39 58
REMARK Flexibility Score: inf
ROOT
ATOM      1  C   UNL A   1      37.157  23.380  25.614  1.00  0.00     0.023 C 
ENDROOT
BRANCH   1   2
ATOM      2  C   UNL A   1      37.694  21.961  25.414  1.00  0.00     0.023 C 
BRANCH   2   3
ATOM      3  C   UNL A   1      36.649  20.921  25.006  1.00  0.00     0.116 C 
BRANCH   3   4
ATOM      4  N   UNL A   1      35.533  20.918  25.927  1.00  0.00    -0.354 N 
ATOM      5  C   UNL A   1      34.211  21.133  25.697  1.00  0.00     0.243 C 
ATOM      6  O   UNL A   1      33.551  21.533  26.662  1.00  0.00    -0.273 OA
ATOM      7  H   UNL A   1      35.767  20.733  26.865  1.00  0.00     0.163 HD
BRANCH   5   8
ATOM      8  C   UNL A   1      33.595  20.977  24.285  1.00  0.00     0.183 C 
BRANCH   8   9
ATOM      9  C   UNL A   1      32.528  19.891  24.063  1.00  0.00     0.032 C 
ATOM     10  C   UNL A   1      32.959  18.450  24.285  1.00  0.00     0.006 C 
ENDBRANCH   8   9
BRANCH   8  11
ATOM     11  N   UNL A   1      33.131  22.298  23.850  1.00  0.00    -0.262 N 
ATOM     12  C   UNL A   1      33.878  23.180  23.113  1.00  0.00     0.262 C 
ATOM     13  C   UNL A   1      31.917  22.831  24.183  1.00  0.00     0.262 C 
ATOM     14  O   UNL A   1      35.037  23.125  22.752  1.00  0.00    -0.269 OA
ATOM     15  C   UNL A   1      33.023  24.328  22.846  1.00  0.00     0.053 A 
ATOM     16  C   UNL A   1      31.840  24.141  23.538  1.00  0.00     0.060 A 
ATOM     17  O   UNL A   1      31.042  22.376  24.898  1.00  0.00    -0.269 OA
ATOM     18  C   UNL A   1      33.270  25.454  22.085  1.00  0.00     0.022 A 
ATOM     19  C   UNL A   1      30.848  25.103  23.559  1.00  0.00     0.100 A 
ATOM     20  C   UNL A   1      32.281  26.441  22.066  1.00  0.00     0.086 A 
ATOM     21  C   UNL A   1      31.090  26.272  22.817  1.00  0.00     0.270 A 
BRANCH  21  22
ATOM     22  N   UNL A   1      30.105  27.360  22.842  1.00  0.00     0.062 N 
ATOM     23  O   UNL A   1      30.211  28.254  21.992  1.00  0.00    -0.258 OA
ATOM     24  O   UNL A   1      29.237  27.326  23.725  1.00  0.00    -0.258 OA
ENDBRANCH  21  22
ENDBRANCH   8  11
ENDBRANCH   5   8
ENDBRANCH   3   4
ENDBRANCH   2   3
ENDBRANCH   1   2
BRANCH   1  25
ATOM     25  C   UNL A   1      38.135  24.353  26.261  1.00  0.00     0.116 C 
BRANCH  25  26
ATOM     26  N   UNL A   1      39.502  23.852  26.255  1.00  0.00    -0.352 N 
ATOM     27  C   UNL A   1      40.623  24.402  26.833  1.00  0.00     0.251 C 
ATOM     28  H   UNL A   1      39.643  23.006  25.772  1.00  0.00     0.163 HD
ATOM     29  O   UNL A   1      41.734  23.941  26.587  1.00  0.00    -0.269 OA
BRANCH  27  30
ATOM     30  C   UNL A   1      40.478  25.569  27.729  1.00  0.00     0.039 A 
ATOM     31  C   UNL A   1      39.476  25.566  28.704  1.00  0.00     0.014 A 
ATOM     32  C   UNL A   1      41.363  26.644  27.630  1.00  0.00     0.014 A 
ATOM     33  C   UNL A   1      39.414  26.609  29.634  1.00  0.00     0.010 A 
ATOM     34  C   UNL A   1      41.348  27.638  28.602  1.00  0.00     0.010 A 
ATOM     35  C   UNL A   1      40.376  27.630  29.617  1.00  0.00    -0.014 A 
BRANCH  35  36
ATOM     36  C   UNL A   1      40.401  28.719  30.629  1.00  0.00     0.031 A 
ATOM     37  C   UNL A   1      41.320  28.600  31.815  1.00  0.00     0.074 A 
ATOM     38  C   UNL A   1      39.528  29.743  30.547  1.00  0.00     0.049 A 
ATOM     39  N   UNL A   1      41.359  29.319  32.906  1.00  0.00    -0.248 NA
ATOM     40  C   UNL A   1      42.302  27.503  31.780  1.00  0.00     0.031 C 
ATOM     41  C   UNL A   1      38.574  29.961  29.458  1.00  0.00     0.029 A 
ATOM     42  N   UNL A   1      39.283  30.782  31.413  1.00  0.00    -0.354 N 
ATOM     43  C   UNL A   1      42.346  28.745  33.699  1.00  0.00     0.074 A 
ATOM     44  C   UNL A   1      42.849  27.593  32.984  1.00  0.00     0.031 C 
ATOM     45  C   UNL A   1      37.851  31.062  29.720  1.00  0.00     0.029 A 
ATOM     46  C   UNL A   1      38.249  31.599  31.018  1.00  0.00     0.049 A 
ATOM     47  H   UNL A   1      39.798  30.927  32.239  1.00  0.00     0.167 HD
ATOM     48  C   UNL A   1      42.804  29.152  34.907  1.00  0.00     0.037 A 
ATOM     49  C   UNL A   1      37.669  32.644  31.642  1.00  0.00     0.037 A 
ATOM     50  C   UNL A   1      42.316  30.316  35.598  1.00  0.00     0.049 A 
ATOM     51  C   UNL A   1      38.176  33.065  32.997  1.00  0.00     0.074 A 
ATOM     52  C   UNL A   1      42.746  30.842  36.803  1.00  0.00     0.029 A 
ATOM     53  N   UNL A   1      41.292  31.135  35.146  1.00  0.00    -0.354 N 
ATOM     54  N   UNL A   1      39.136  32.536  33.717  1.00  0.00    -0.248 NA
ATOM     55  C   UNL A   1      37.523  34.222  33.628  1.00  0.00     0.031 C 
ATOM     56  C   UNL A   1      41.949  31.949  37.106  1.00  0.00     0.029 A 
ATOM     57  C   UNL A   1      41.064  32.152  36.058  1.00  0.00     0.049 A 
ATOM     58  H   UNL A   1      40.800  31.012  34.302  1.00  0.00     0.167 HD
ATOM     59  C   UNL A   1      39.233  33.321  34.862  1.00  0.00     0.074 A 
ATOM     60  C   UNL A   1      38.229  34.357  34.744  1.00  0.00     0.031 C 
ATOM     61  C   UNL A   1      40.083  33.199  35.908  1.00  0.00     0.037 A 
BRANCH  48  62
ATOM     62  C   UNL A   1      43.882  28.333  35.561  1.00  0.00     0.058 A 
ATOM     63  C   UNL A   1      45.243  28.550  35.291  1.00  0.00     0.135 A 
ATOM     64  C   UNL A   1      43.553  27.342  36.501  1.00  0.00     0.135 A 
ATOM     65  F   UNL A   1      45.615  29.473  34.390  1.00  0.00    -0.206 F 
ATOM     66  C   UNL A   1      46.236  27.793  35.903  1.00  0.00     0.059 A 
ATOM     67  C   UNL A   1      44.531  26.595  37.151  1.00  0.00     0.059 A 
ATOM     68  F   UNL A   1      42.268  27.092  36.798  1.00  0.00    -0.206 F 
ATOM     69  C   UNL A   1      45.869  26.818  36.832  1.00  0.00     0.060 A 
BRANCH  69  70
ATOM     70  S   UNL A   1      47.173  25.849  37.620  1.00  0.00     0.124 S 
ATOM     71  O   UNL A   1      47.169  24.640  36.802  1.00  0.00    -0.237 OA
ATOM     72  O   UNL A   1      48.339  26.713  37.468  1.00  0.00    -0.237 OA
ATOM     73  O   UNL A   1      46.694  25.682  38.988  1.00  0.00    -0.744 OA
ENDBRANCH  69  70
ENDBRANCH  48  62
BRANCH  49  74
ATOM     74  C   UNL A   1      36.544  33.372  30.990  1.00  0.00     0.058 A 
ATOM     75  C   UNL A   1      35.233  33.253  31.475  1.00  0.00     0.135 A 
ATOM     76  C   UNL A   1      36.754  34.202  29.879  1.00  0.00     0.135 A 
ATOM     77  F   UNL A   1      34.977  32.465  32.532  1.00  0.00    -0.206 F 
ATOM     78  C   UNL A   1      34.168  33.915  30.873  1.00  0.00     0.059 A 
ATOM     79  C   UNL A   1      35.710  34.897  29.275  1.00  0.00     0.059 A 
ATOM     80  F   UNL A   1      37.991  34.363  29.383  1.00  0.00    -0.206 F 
ATOM     81  C   UNL A   1      34.417  34.738  29.773  1.00  0.00     0.060 A 
BRANCH  81  82
ATOM     82  S   UNL A   1      33.033  35.625  29.025  1.00  0.00     0.124 S 
ATOM     83  O   UNL A   1      32.440  34.591  28.186  1.00  0.00    -0.237 OA
ATOM     84  O   UNL A   1      32.257  36.021  30.197  1.00  0.00    -0.237 OA
ATOM     85  O   UNL A   1      33.683  36.722  28.313  1.00  0.00    -0.744 OA
ENDBRANCH  81  82
ENDBRANCH  49  74
BRANCH  61  86
ATOM     86  C   UNL A   1      40.033  34.242  36.992  1.00  0.00     0.058 A 
ATOM     87  C   UNL A   1      40.728  35.454  36.890  1.00  0.00     0.135 A 
ATOM     88  C   UNL A   1      39.172  34.067  38.090  1.00  0.00     0.135 A 
ATOM     89  F   UNL A   1      41.570  35.668  35.866  1.00  0.00    -0.206 F 
ATOM     90  C   UNL A   1      40.567  36.463  37.835  1.00  0.00     0.059 A 
ATOM     91  C   UNL A   1      38.976  35.071  39.031  1.00  0.00     0.059 A 
ATOM     92  F   UNL A   1      38.479  32.925  38.230  1.00  0.00    -0.206 F 
ATOM     93  C   UNL A   1      39.677  36.267  38.894  1.00  0.00     0.060 A 
BRANCH  93  94
ATOM     94  S   UNL A   1      39.405  37.622  40.057  1.00  0.00     0.124 S 
ATOM     95  O   UNL A   1      38.292  38.329  39.435  1.00  0.00    -0.237 OA
ATOM     96  O   UNL A   1      39.094  36.911  41.294  1.00  0.00    -0.237 OA
ATOM     97  O   UNL A   1      40.680  38.333  40.055  1.00  0.00    -0.744 OA
ENDBRANCH  93  94
ENDBRANCH  61  86
ENDBRANCH  35  36
ENDBRANCH  27  30
ENDBRANCH  25  26
ENDBRANCH   1  25
TORSDOF 17
ENDMDL
MODEL 3
REMARK VINA RESULT:     -12.1      2.302      3.054
REMARK SMILES CC[C@H](C(=O)NCCCCNC(=O)c1ccc(-c2c3nc(c(-c4c(F)cc(S(=O)(=O)[O-])cc4F)c4ccc([nH]4)c(-c4c(F)cc(S(=O)(=O)[O-])cc4F)c4nc(c(-c5c(F)cc(S(=O)(=O)[O-])cc5F)c5ccc2[nH]5)C=C4)C=C3)cc1)N1C(=O)c2ccc([N+](=O)[O-])cc2C1=O
REMARK SMILES IDX 9 1 8 2 7 3 6 4 4 5 5 6 3 8 2 9 1 10 80 11 81 12 92 13 82 14
REMARK SMILES IDX 83 15 91 16 93 17 84 18 90 19 85 20 86 21 87 22 88 23 89 24
REMARK SMILES IDX 10 25 11 26 12 27 13 29 14 30 15 31 79 32 16 33 78 34 17 35
REMARK SMILES IDX 18 36 19 37 72 38 20 39 77 40 71 41 73 42 21 43 76 44 70 45
REMARK SMILES IDX 69 46 22 48 56 49 35 50 55 51 36 52 39 53 54 54 74 55 37 56
REMARK SMILES IDX 38 57 53 59 75 60 40 61 23 62 24 63 33 64 25 65 26 66 32 67
REMARK SMILES IDX 34 68 27 69 28 70 29 71 30 72 31 73 57 74 58 75 67 76 59 77
REMARK SMILES IDX 60 78 66 79 68 80 61 81 62 82 63 83 64 84 65 85 41 86 42 87
REMARK SMILES IDX 51 88 43 89 44 90 50 91 52 92 45 93 46 94 47 95 48 96 49 97
REMARK H PARENT 6 7 11 28 73 47 39 58
REMARK Flexibility Score: inf
ROOT
ATOM      1  C   UNL A   1      36.367  23.882  26.263  1.00  0.00     0.023 C 
ENDROOT
BRANCH   1   2
ATOM      2  C   UNL A   1      34.884  23.764  25.904  1.00  0.00     0.023 C 
BRANCH   2   3
ATOM      3  C   UNL A   1      34.315  24.929  25.093  1.00  0.00     0.116 C 
BRANCH   3   4
ATOM      4  N   UNL A   1      34.176  24.570  23.698  1.00  0.00    -0.354 N 
ATOM      5  C   UNL A   1      33.409  23.612  23.116  1.00  0.00     0.243 C 
ATOM      6  O   UNL A   1      33.799  23.198  22.018  1.00  0.00    -0.273 OA
ATOM      7  H   UNL A   1      34.721  25.103  23.075  1.00  0.00     0.163 HD
BRANCH   5   8
ATOM      8  C   UNL A   1      32.176  23.009  23.832  1.00  0.00     0.183 C 
BRANCH   8   9
ATOM      9  C   UNL A   1      30.773  23.403  23.341  1.00  0.00     0.032 C 
ATOM     10  C   UNL A   1      30.376  24.862  23.497  1.00  0.00     0.006 C 
ENDBRANCH   8   9
BRANCH   8  11
ATOM     11  N   UNL A   1      32.352  21.554  23.879  1.00  0.00    -0.262 N 
ATOM     12  C   UNL A   1      32.197  20.718  22.803  1.00  0.00     0.262 C 
ATOM     13  C   UNL A   1      32.630  20.853  25.019  1.00  0.00     0.262 C 
ATOM     14  O   UNL A   1      31.820  20.948  21.672  1.00  0.00    -0.269 OA
ATOM     15  C   UNL A   1      32.528  19.378  23.267  1.00  0.00     0.053 A 
ATOM     16  C   UNL A   1      32.745  19.447  24.631  1.00  0.00     0.060 A 
ATOM     17  O   UNL A   1      32.738  21.250  26.164  1.00  0.00    -0.269 OA
ATOM     18  C   UNL A   1      32.601  18.194  22.561  1.00  0.00     0.022 A 
ATOM     19  C   UNL A   1      32.995  18.318  25.388  1.00  0.00     0.100 A 
ATOM     20  C   UNL A   1      32.872  17.032  23.289  1.00  0.00     0.086 A 
ATOM     21  C   UNL A   1      33.045  17.095  24.695  1.00  0.00     0.270 A 
BRANCH  21  22
ATOM     22  N   UNL A   1      33.248  15.850  25.444  1.00  0.00     0.062 N 
ATOM     23  O   UNL A   1      34.349  15.293  25.348  1.00  0.00    -0.258 OA
ATOM     24  O   UNL A   1      32.297  15.422  26.113  1.00  0.00    -0.258 OA
ENDBRANCH  21  22
ENDBRANCH   8  11
ENDBRANCH   5   8
ENDBRANCH   3   4
ENDBRANCH   2   3
ENDBRANCH   1   2
BRANCH   1  25
ATOM     25  C   UNL A   1      37.328  23.713  25.094  1.00  0.00     0.116 C 
BRANCH  25  26
ATOM     26  N   UNL A   1      38.408  22.783  25.393  1.00  0.00    -0.352 N 
ATOM     27  C   UNL A   1      39.567  23.007  26.100  1.00  0.00     0.251 C 
ATOM     28  H   UNL A   1      38.293  21.871  25.041  1.00  0.00     0.163 HD
ATOM     29  O   UNL A   1      40.456  22.161  26.114  1.00  0.00    -0.269 OA
BRANCH  27  30
ATOM     30  C   UNL A   1      39.741  24.288  26.819  1.00  0.00     0.039 A 
ATOM     31  C   UNL A   1      39.212  24.431  28.105  1.00  0.00     0.014 A 
ATOM     32  C   UNL A   1      40.465  25.328  26.234  1.00  0.00     0.014 A 
ATOM     33  C   UNL A   1      39.481  25.592  28.837  1.00  0.00     0.010 A 
ATOM     34  C   UNL A   1      40.796  26.445  26.992  1.00  0.00     0.010 A 
ATOM     35  C   UNL A   1      40.311  26.589  28.303  1.00  0.00    -0.014 A 
BRANCH  35  36
ATOM     36  C   UNL A   1      40.690  27.805  29.069  1.00  0.00     0.031 A 
ATOM     37  C   UNL A   1      41.966  27.805  29.866  1.00  0.00     0.074 A 
ATOM     38  C   UNL A   1      39.845  28.853  29.142  1.00  0.00     0.049 A 
ATOM     39  N   UNL A   1      42.386  28.666  30.755  1.00  0.00    -0.248 NA
ATOM     40  C   UNL A   1      42.873  26.664  29.657  1.00  0.00     0.031 C 
ATOM     41  C   UNL A   1      38.569  28.967  28.433  1.00  0.00     0.029 A 
ATOM     42  N   UNL A   1      39.919  30.014  29.874  1.00  0.00    -0.354 N 
ATOM     43  C   UNL A   1      43.588  28.157  31.233  1.00  0.00     0.074 A 
ATOM     44  C   UNL A   1      43.807  26.891  30.569  1.00  0.00     0.031 C 
ATOM     45  C   UNL A   1      37.984  30.130  28.762  1.00  0.00     0.029 A 
ATOM     46  C   UNL A   1      38.813  30.822  29.745  1.00  0.00     0.049 A 
ATOM     47  H   UNL A   1      40.692  30.246  30.439  1.00  0.00     0.167 HD
ATOM     48  C   UNL A   1      44.441  28.704  32.132  1.00  0.00     0.037 A 
ATOM     49  C   UNL A   1      38.489  31.973  30.368  1.00  0.00     0.037 A 
ATOM     50  C   UNL A   1      44.228  29.977  32.767  1.00  0.00     0.049 A 
ATOM     51  C   UNL A   1      39.440  32.551  31.384  1.00  0.00     0.074 A 
ATOM     52  C   UNL A   1      45.053  30.642  33.655  1.00  0.00     0.029 A 
ATOM     53  N   UNL A   1      43.110  30.778  32.582  1.00  0.00    -0.354 N 
ATOM     54  N   UNL A   1      40.592  32.078  31.797  1.00  0.00    -0.248 NA
ATOM     55  C   UNL A   1      39.050  33.818  32.022  1.00  0.00     0.031 C 
ATOM     56  C   UNL A   1      44.414  31.821  34.047  1.00  0.00     0.029 A 
ATOM     57  C   UNL A   1      43.218  31.923  33.353  1.00  0.00     0.049 A 
ATOM     58  H   UNL A   1      42.353  30.565  31.989  1.00  0.00     0.167 HD
ATOM     59  C   UNL A   1      41.084  33.009  32.706  1.00  0.00     0.074 A 
ATOM     60  C   UNL A   1      40.103  34.070  32.791  1.00  0.00     0.031 C 
ATOM     61  C   UNL A   1      42.247  32.989  33.399  1.00  0.00     0.037 A 
BRANCH  48  62
ATOM     62  C   UNL A   1      45.679  27.928  32.486  1.00  0.00     0.058 A 
ATOM     63  C   UNL A   1      45.683  26.965  33.509  1.00  0.00     0.135 A 
ATOM     64  C   UNL A   1      46.872  28.123  31.769  1.00  0.00     0.135 A 
ATOM     65  F   UNL A   1      44.576  26.748  34.237  1.00  0.00    -0.206 F 
ATOM     66  C   UNL A   1      46.830  26.247  33.828  1.00  0.00     0.059 A 
ATOM     67  C   UNL A   1      48.022  27.392  32.049  1.00  0.00     0.059 A 
ATOM     68  F   UNL A   1      46.927  29.030  30.781  1.00  0.00    -0.206 F 
ATOM     69  C   UNL A   1      47.995  26.468  33.092  1.00  0.00     0.060 A 
BRANCH  69  70
ATOM     70  S   UNL A   1      49.473  25.523  33.519  1.00  0.00     0.124 S 
ATOM     71  O   UNL A   1      49.721  24.796  32.278  1.00  0.00    -0.237 OA
ATOM     72  O   UNL A   1      50.433  26.575  33.841  1.00  0.00    -0.237 OA
ATOM     73  O   UNL A   1      49.041  24.706  34.649  1.00  0.00    -0.744 OA
ENDBRANCH  69  70
ENDBRANCH  48  62
BRANCH  49  74
ATOM     74  C   UNL A   1      37.208  32.661  30.046  1.00  0.00     0.058 A 
ATOM     75  C   UNL A   1      37.168  33.706  29.109  1.00  0.00     0.135 A 
ATOM     76  C   UNL A   1      36.002  32.291  30.659  1.00  0.00     0.135 A 
ATOM     77  F   UNL A   1      38.296  34.104  28.500  1.00  0.00    -0.206 F 
ATOM     78  C   UNL A   1      35.984  34.368  28.804  1.00  0.00     0.059 A 
ATOM     79  C   UNL A   1      34.799  32.919  30.350  1.00  0.00     0.059 A 
ATOM     80  F   UNL A   1      35.980  31.288  31.552  1.00  0.00    -0.206 F 
ATOM     81  C   UNL A   1      34.802  33.966  29.428  1.00  0.00     0.060 A 
BRANCH  81  82
ATOM     82  S   UNL A   1      33.265  34.807  28.993  1.00  0.00     0.124 S 
ATOM     83  O   UNL A   1      33.758  36.092  28.513  1.00  0.00    -0.237 OA
ATOM     84  O   UNL A   1      32.707  33.916  27.979  1.00  0.00    -0.237 OA
ATOM     85  O   UNL A   1      32.533  34.843  30.256  1.00  0.00    -0.744 OA
ENDBRANCH  81  82
ENDBRANCH  49  74
BRANCH  61  86
ATOM     86  C   UNL A   1      42.581  34.174  34.264  1.00  0.00     0.058 A 
ATOM     87  C   UNL A   1      42.353  34.173  35.646  1.00  0.00     0.135 A 
ATOM     88  C   UNL A   1      43.255  35.276  33.708  1.00  0.00     0.135 A 
ATOM     89  F   UNL A   1      41.704  33.150  36.225  1.00  0.00    -0.206 F 
ATOM     90  C   UNL A   1      42.787  35.221  36.453  1.00  0.00     0.059 A 
ATOM     91  C   UNL A   1      43.722  36.320  34.498  1.00  0.00     0.059 A 
ATOM     92  F   UNL A   1      43.503  35.322  32.389  1.00  0.00    -0.206 F 
ATOM     93  C   UNL A   1      43.485  36.283  35.870  1.00  0.00     0.060 A 
BRANCH  93  94
ATOM     94  S   UNL A   1      44.128  37.587  36.943  1.00  0.00     0.124 S 
ATOM     95  O   UNL A   1      45.374  36.995  37.415  1.00  0.00    -0.237 OA
ATOM     96  O   UNL A   1      44.267  38.708  36.019  1.00  0.00    -0.237 OA
ATOM     97  O   UNL A   1      43.085  37.742  37.952  1.00  0.00    -0.744 OA
ENDBRANCH  93  94
ENDBRANCH  61  86
ENDBRANCH  35  36
ENDBRANCH  27  30
ENDBRANCH  25  26
ENDBRANCH   1  25
TORSDOF 17
ENDMDL
