MODEL 1
REMARK VINA RESULT:     -11.9      0.000      0.000
REMARK SMILES C[N@@H+]1CCC[C@@H](NC(=O)N2CCC(CC(=O)NCCCCNC(=O)c3ccc(-c4c5nc(c(-c6c(F)cc(S(=O)(=O)[O-])cc6F)c6ccc([nH]6)c(-c6c(F)cc(S(=O)(=O)[O-])cc6F)c6nc(c(-c7c(F)cc(S(=O)(=O)[O-])cc7F)c7ccc4[nH]7)C=C6)C=C5)cc3)CC2)C1
REMARK SMILES IDX 20 1 19 2 18 3 17 4 15 5 16 6 14 8 13 9 7 10 8 11 9 13 10 14
REMARK SMILES IDX 11 15 92 16 12 17 91 18 6 19 1 20 2 21 3 22 93 23 4 25 5 26
REMARK SMILES IDX 21 27 22 28 23 29 24 31 25 32 26 33 90 34 27 35 89 36 28 37
REMARK SMILES IDX 29 38 30 39 83 40 31 41 88 42 82 43 84 44 32 45 87 46 81 47
REMARK SMILES IDX 80 48 33 50 67 51 46 52 66 53 47 54 50 55 65 56 85 57 48 58
REMARK SMILES IDX 49 59 64 61 86 62 51 63 34 64 35 65 44 66 36 67 37 68 43 69
REMARK SMILES IDX 45 70 38 71 39 72 40 73 41 74 42 75 68 76 69 77 78 78 70 79
REMARK SMILES IDX 71 80 77 81 79 82 72 83 73 84 74 85 75 86 76 87 52 88 53 89
REMARK SMILES IDX 62 90 54 91 55 92 61 93 63 94 56 95 57 96 58 97 59 98 60 99
REMARK H PARENT 17 7 7 12 2 24 22 30 84 49 50 60
REMARK Flexibility Score: inf
ROOT
ATOM      1  C   UNL A   1      33.634  28.390  25.766  1.00  0.00     0.023 C 
ENDROOT
BRANCH   1   2
ATOM      2  C   UNL A   1      33.107  29.590  25.001  1.00  0.00     0.023 C 
BRANCH   2   3
ATOM      3  C   UNL A   1      31.589  29.801  25.042  1.00  0.00     0.116 C 
BRANCH   3   4
ATOM      4  N   UNL A   1      30.952  29.508  23.765  1.00  0.00    -0.356 N 
ATOM      5  C   UNL A   1      30.432  28.346  23.271  1.00  0.00     0.220 C 
ATOM      6  O   UNL A   1      29.943  28.359  22.140  1.00  0.00    -0.275 OA
ATOM      7  H   UNL A   1      30.886  30.279  23.156  1.00  0.00     0.163 HD
BRANCH   5   8
ATOM      8  C   UNL A   1      30.468  27.052  24.079  1.00  0.00     0.103 C 
BRANCH   8   9
ATOM      9  C   UNL A   1      30.980  25.834  23.275  1.00  0.00     0.002 C 
ATOM     10  N   UNL A   1      34.262  22.095  24.053  1.00  0.00    -0.330 N 
ATOM     11  C   UNL A   1      33.000  22.033  23.520  1.00  0.00     0.317 C 
ATOM     12  H   UNL A   1      35.047  21.976  23.473  1.00  0.00     0.165 HD
ATOM     13  O   UNL A   1      32.507  20.953  23.211  1.00  0.00    -0.249 OA
ATOM     14  N   UNL A   1      32.354  23.246  23.376  1.00  0.00    -0.325 N 
ATOM     15  C   UNL A   1      30.926  23.285  23.093  1.00  0.00     0.121 C 
ATOM     16  C   UNL A   1      33.093  24.408  22.928  1.00  0.00     0.121 C 
ATOM     17  C   UNL A   1      30.267  24.537  23.693  1.00  0.00     0.026 C 
ATOM     18  C   UNL A   1      32.484  25.683  23.457  1.00  0.00     0.026 C 
BRANCH  10  19
ATOM     19  C   UNL A   1      34.441  22.340  25.492  1.00  0.00     0.139 C 
ATOM     20  C   UNL A   1      38.167  21.635  25.637  1.00  0.00     0.332 C 
ATOM     21  N   UNL A   1      36.925  22.334  25.309  1.00  0.00    -0.336 N 
ATOM     22  C   UNL A   1      37.006  23.744  25.721  1.00  0.00     0.262 C 
ATOM     23  C   UNL A   1      35.765  21.675  25.951  1.00  0.00     0.287 C 
ATOM     24  H   UNL A   1      36.796  22.295  24.298  1.00  0.00     0.347 HD
ATOM     25  C   UNL A   1      35.743  24.511  25.322  1.00  0.00     0.064 C 
ATOM     26  C   UNL A   1      34.476  23.832  25.837  1.00  0.00     0.037 C 
ENDBRANCH  10  19
ENDBRANCH   8   9
ENDBRANCH   5   8
ENDBRANCH   3   4
ENDBRANCH   2   3
ENDBRANCH   1   2
BRANCH   1  27
ATOM     27  C   UNL A   1      33.541  28.526  27.272  1.00  0.00     0.116 C 
BRANCH  27  28
ATOM     28  N   UNL A   1      33.517  29.911  27.729  1.00  0.00    -0.352 N 
ATOM     29  C   UNL A   1      34.532  30.647  28.302  1.00  0.00     0.251 C 
ATOM     30  H   UNL A   1      32.661  30.383  27.613  1.00  0.00     0.163 HD
ATOM     31  O   UNL A   1      34.316  31.772  28.731  1.00  0.00    -0.269 OA
BRANCH  29  32
ATOM     32  C   UNL A   1      35.867  30.027  28.426  1.00  0.00     0.039 A 
ATOM     33  C   UNL A   1      36.745  30.078  27.342  1.00  0.00     0.014 A 
ATOM     34  C   UNL A   1      36.277  29.492  29.649  1.00  0.00     0.014 A 
ATOM     35  C   UNL A   1      38.070  29.673  27.518  1.00  0.00     0.010 A 
ATOM     36  C   UNL A   1      37.618  29.203  29.851  1.00  0.00     0.010 A 
ATOM     37  C   UNL A   1      38.527  29.281  28.786  1.00  0.00    -0.014 A 
BRANCH  37  38
ATOM     38  C   UNL A   1      39.945  28.920  29.030  1.00  0.00     0.031 A 
ATOM     39  C   UNL A   1      40.881  29.953  29.599  1.00  0.00     0.074 A 
ATOM     40  C   UNL A   1      40.408  27.708  28.663  1.00  0.00     0.049 A 
ATOM     41  N   UNL A   1      42.174  29.890  29.777  1.00  0.00    -0.248 NA
ATOM     42  C   UNL A   1      40.289  31.250  29.978  1.00  0.00     0.031 C 
ATOM     43  C   UNL A   1      39.614  26.648  28.036  1.00  0.00     0.029 A 
ATOM     44  N   UNL A   1      41.665  27.167  28.753  1.00  0.00    -0.354 N 
ATOM     45  C   UNL A   1      42.550  31.138  30.256  1.00  0.00     0.074 A 
ATOM     46  C   UNL A   1      41.363  31.961  30.280  1.00  0.00     0.031 C 
ATOM     47  C   UNL A   1      40.396  25.576  27.826  1.00  0.00     0.029 A 
ATOM     48  C   UNL A   1      41.752  25.882  28.269  1.00  0.00     0.049 A 
ATOM     49  H   UNL A   1      42.434  27.653  29.128  1.00  0.00     0.167 HD
ATOM     50  C   UNL A   1      43.770  31.554  30.671  1.00  0.00     0.037 A 
ATOM     51  C   UNL A   1      42.808  25.049  28.191  1.00  0.00     0.037 A 
ATOM     52  C   UNL A   1      44.933  30.711  30.702  1.00  0.00     0.049 A 
ATOM     53  C   UNL A   1      44.143  25.518  28.704  1.00  0.00     0.074 A 
ATOM     54  C   UNL A   1      46.200  31.008  31.171  1.00  0.00     0.029 A 
ATOM     55  N   UNL A   1      44.966  29.397  30.257  1.00  0.00    -0.354 N 
ATOM     56  N   UNL A   1      44.468  26.684  29.209  1.00  0.00    -0.248 NA
ATOM     57  C   UNL A   1      45.254  24.556  28.643  1.00  0.00     0.031 C 
ATOM     58  C   UNL A   1      47.006  29.879  30.987  1.00  0.00     0.029 A 
ATOM     59  C   UNL A   1      46.233  28.870  30.436  1.00  0.00     0.049 A 
ATOM     60  H   UNL A   1      44.201  28.911  29.871  1.00  0.00     0.167 HD
ATOM     61  C   UNL A   1      45.812  26.589  29.551  1.00  0.00     0.074 A 
ATOM     62  C   UNL A   1      46.236  25.247  29.206  1.00  0.00     0.031 C 
ATOM     63  C   UNL A   1      46.624  27.525  30.099  1.00  0.00     0.037 A 
BRANCH  50  64
ATOM     64  C   UNL A   1      43.894  32.971  31.153  1.00  0.00     0.058 A 
ATOM     65  C   UNL A   1      44.147  34.029  30.264  1.00  0.00     0.135 A 
ATOM     66  C   UNL A   1      43.737  33.282  32.513  1.00  0.00     0.135 A 
ATOM     67  F   UNL A   1      44.327  33.784  28.956  1.00  0.00    -0.206 F 
ATOM     68  C   UNL A   1      44.271  35.340  30.709  1.00  0.00     0.059 A 
ATOM     69  C   UNL A   1      43.828  34.591  32.977  1.00  0.00     0.059 A 
ATOM     70  F   UNL A   1      43.498  32.309  33.406  1.00  0.00    -0.206 F 
ATOM     71  C   UNL A   1      44.110  35.611  32.068  1.00  0.00     0.060 A 
BRANCH  71  72
ATOM     72  S   UNL A   1      44.264  37.320  32.629  1.00  0.00     0.124 S 
ATOM     73  O   UNL A   1      44.100  38.051  31.376  1.00  0.00    -0.237 OA
ATOM     74  O   UNL A   1      43.163  37.439  33.580  1.00  0.00    -0.237 OA
ATOM     75  O   UNL A   1      45.601  37.367  33.212  1.00  0.00    -0.744 OA
ENDBRANCH  71  72
ENDBRANCH  50  64
BRANCH  51  76
ATOM     76  C   UNL A   1      42.642  23.677  27.641  1.00  0.00     0.058 A 
ATOM     77  C   UNL A   1      42.406  22.586  28.491  1.00  0.00     0.135 A 
ATOM     78  C   UNL A   1      42.716  23.428  26.262  1.00  0.00     0.135 A 
ATOM     79  F   UNL A   1      42.330  22.774  29.817  1.00  0.00    -0.206 F 
ATOM     80  C   UNL A   1      42.275  21.292  27.998  1.00  0.00     0.059 A 
ATOM     81  C   UNL A   1      42.565  22.145  25.743  1.00  0.00     0.059 A 
ATOM     82  F   UNL A   1      42.920  24.440  25.405  1.00  0.00    -0.206 F 
ATOM     83  C   UNL A   1      42.358  21.081  26.621  1.00  0.00     0.060 A 
BRANCH  83  84
ATOM     84  S   UNL A   1      42.152  19.403  25.987  1.00  0.00     0.124 S 
ATOM     85  O   UNL A   1      42.983  19.438  24.789  1.00  0.00    -0.237 OA
ATOM     86  O   UNL A   1      42.655  18.591  27.091  1.00  0.00    -0.237 OA
ATOM     87  O   UNL A   1      40.713  19.309  25.756  1.00  0.00    -0.744 OA
ENDBRANCH  83  84
ENDBRANCH  51  76
BRANCH  63  88
ATOM     88  C   UNL A   1      48.041  27.123  30.393  1.00  0.00     0.058 A 
ATOM     89  C   UNL A   1      49.074  27.352  29.474  1.00  0.00     0.135 A 
ATOM     90  C   UNL A   1      48.372  26.558  31.635  1.00  0.00     0.135 A 
ATOM     91  F   UNL A   1      48.804  27.885  28.272  1.00  0.00    -0.206 F 
ATOM     92  C   UNL A   1      50.391  27.016  29.767  1.00  0.00     0.059 A 
ATOM     93  C   UNL A   1      49.686  26.236  31.959  1.00  0.00     0.059 A 
ATOM     94  F   UNL A   1      47.419  26.330  32.552  1.00  0.00    -0.206 F 
ATOM     95  C   UNL A   1      50.687  26.459  31.014  1.00  0.00     0.060 A 
BRANCH  95  96
ATOM     96  S   UNL A   1      52.405  26.064  31.400  1.00  0.00     0.124 S 
ATOM     97  O   UNL A   1      52.731  27.100  32.374  1.00  0.00    -0.237 OA
ATOM     98  O   UNL A   1      52.304  24.706  31.928  1.00  0.00    -0.237 OA
ATOM     99  O   UNL A   1      53.077  26.178  30.109  1.00  0.00    -0.744 OA
ENDBRANCH  95  96
ENDBRANCH  63  88
ENDBRANCH  37  38
ENDBRANCH  29  32
ENDBRANCH  27  28
ENDBRANCH   1  27
TORSDOF 16
ENDMDL
MODEL 2
REMARK VINA RESULT:     -11.6      2.866      9.401
REMARK SMILES C[N@@H+]1CCC[C@@H](NC(=O)N2CCC(CC(=O)NCCCCNC(=O)c3ccc(-c4c5nc(c(-c6c(F)cc(S(=O)(=O)[O-])cc6F)c6ccc([nH]6)c(-c6c(F)cc(S(=O)(=O)[O-])cc6F)c6nc(c(-c7c(F)cc(S(=O)(=O)[O-])cc7F)c7ccc4[nH]7)C=C6)C=C5)cc3)CC2)C1
REMARK SMILES IDX 20 1 19 2 18 3 17 4 15 5 16 6 14 8 13 9 7 10 8 11 9 13 10 14
REMARK SMILES IDX 11 15 92 16 12 17 91 18 6 19 1 20 2 21 3 22 93 23 4 25 5 26
REMARK SMILES IDX 21 27 22 28 23 29 24 31 25 32 26 33 90 34 27 35 89 36 28 37
REMARK SMILES IDX 29 38 30 39 83 40 31 41 88 42 82 43 84 44 32 45 87 46 81 47
REMARK SMILES IDX 80 48 33 50 67 51 46 52 66 53 47 54 50 55 65 56 85 57 48 58
REMARK SMILES IDX 49 59 64 61 86 62 51 63 34 64 35 65 44 66 36 67 37 68 43 69
REMARK SMILES IDX 45 70 38 71 39 72 40 73 41 74 42 75 68 76 69 77 78 78 70 79
REMARK SMILES IDX 71 80 77 81 79 82 72 83 73 84 74 85 75 86 76 87 52 88 53 89
REMARK SMILES IDX 62 90 54 91 55 92 61 93 63 94 56 95 57 96 58 97 59 98 60 99
REMARK H PARENT 17 7 7 12 2 24 22 30 84 49 50 60
REMARK Flexibility Score: inf
ROOT
ATOM      1  C   UNL A   1      35.746  23.097  25.146  1.00  0.00     0.023 C 
ENDROOT
BRANCH   1   2
ATOM      2  C   UNL A   1      35.190  23.014  26.555  1.00  0.00     0.023 C 
BRANCH   2   3
ATOM      3  C   UNL A   1      34.222  21.858  26.830  1.00  0.00     0.116 C 
BRANCH   3   4
ATOM      4  N   UNL A   1      34.472  20.707  25.974  1.00  0.00    -0.356 N 
ATOM      5  C   UNL A   1      33.658  20.052  25.094  1.00  0.00     0.220 C 
ATOM      6  O   UNL A   1      34.116  19.087  24.482  1.00  0.00    -0.275 OA
ATOM      7  H   UNL A   1      35.383  20.339  26.041  1.00  0.00     0.163 HD
BRANCH   5   8
ATOM      8  C   UNL A   1      32.209  20.482  24.882  1.00  0.00     0.103 C 
BRANCH   8   9
ATOM      9  C   UNL A   1      32.045  21.610  23.836  1.00  0.00     0.002 C 
ATOM     10  N   UNL A   1      32.861  26.576  23.700  1.00  0.00    -0.330 N 
ATOM     11  C   UNL A   1      33.181  25.628  22.763  1.00  0.00     0.317 C 
ATOM     12  H   UNL A   1      32.128  27.210  23.528  1.00  0.00     0.165 HD
ATOM     13  O   UNL A   1      33.796  25.938  21.748  1.00  0.00    -0.249 OA
ATOM     14  N   UNL A   1      32.775  24.341  23.056  1.00  0.00    -0.325 N 
ATOM     15  C   UNL A   1      33.297  23.216  22.291  1.00  0.00     0.121 C 
ATOM     16  C   UNL A   1      31.479  24.113  23.661  1.00  0.00     0.121 C 
ATOM     17  C   UNL A   1      33.379  21.943  23.146  1.00  0.00     0.026 C 
ATOM     18  C   UNL A   1      31.476  22.857  24.497  1.00  0.00     0.026 C 
BRANCH  10  19
ATOM     19  C   UNL A   1      33.612  26.647  24.962  1.00  0.00     0.139 C 
ATOM     20  C   UNL A   1      32.572  30.162  25.943  1.00  0.00     0.332 C 
ATOM     21  N   UNL A   1      32.449  28.729  25.681  1.00  0.00    -0.336 N 
ATOM     22  C   UNL A   1      31.842  28.047  26.836  1.00  0.00     0.262 C 
ATOM     23  C   UNL A   1      33.768  28.136  25.368  1.00  0.00     0.287 C 
ATOM     24  H   UNL A   1      31.842  28.604  24.871  1.00  0.00     0.347 HD
ATOM     25  C   UNL A   1      31.639  26.557  26.555  1.00  0.00     0.064 C 
ATOM     26  C   UNL A   1      32.930  25.880  26.100  1.00  0.00     0.037 C 
ENDBRANCH  10  19
ENDBRANCH   8   9
ENDBRANCH   5   8
ENDBRANCH   3   4
ENDBRANCH   2   3
ENDBRANCH   1   2
BRANCH   1  27
ATOM     27  C   UNL A   1      37.116  23.739  25.057  1.00  0.00     0.116 C 
BRANCH  27  28
ATOM     28  N   UNL A   1      38.207  22.822  25.367  1.00  0.00    -0.352 N 
ATOM     29  C   UNL A   1      39.330  23.048  26.134  1.00  0.00     0.251 C 
ATOM     30  H   UNL A   1      38.131  21.921  24.977  1.00  0.00     0.163 HD
ATOM     31  O   UNL A   1      40.210  22.201  26.208  1.00  0.00    -0.269 OA
BRANCH  29  32
ATOM     32  C   UNL A   1      39.464  24.348  26.820  1.00  0.00     0.039 A 
ATOM     33  C   UNL A   1      38.962  24.491  28.114  1.00  0.00     0.014 A 
ATOM     34  C   UNL A   1      40.178  25.386  26.216  1.00  0.00     0.014 A 
ATOM     35  C   UNL A   1      39.259  25.648  28.838  1.00  0.00     0.010 A 
ATOM     36  C   UNL A   1      40.568  26.477  26.977  1.00  0.00     0.010 A 
ATOM     37  C   UNL A   1      40.106  26.625  28.292  1.00  0.00    -0.014 A 
BRANCH  37  38
ATOM     38  C   UNL A   1      40.509  27.830  29.059  1.00  0.00     0.031 A 
ATOM     39  C   UNL A   1      41.844  27.847  29.755  1.00  0.00     0.074 A 
ATOM     40  C   UNL A   1      39.650  28.859  29.202  1.00  0.00     0.049 A 
ATOM     41  N   UNL A   1      42.340  28.739  30.571  1.00  0.00    -0.248 NA
ATOM     42  C   UNL A   1      42.722  26.682  29.539  1.00  0.00     0.031 C 
ATOM     43  C   UNL A   1      38.301  28.928  28.635  1.00  0.00     0.029 A 
ATOM     44  N   UNL A   1      39.781  30.043  29.882  1.00  0.00    -0.354 N 
ATOM     45  C   UNL A   1      43.565  28.231  30.986  1.00  0.00     0.074 A 
ATOM     46  C   UNL A   1      43.710  26.925  30.384  1.00  0.00     0.031 C 
ATOM     47  C   UNL A   1      37.741  30.103  28.966  1.00  0.00     0.029 A 
ATOM     48  C   UNL A   1      38.675  30.857  29.796  1.00  0.00     0.049 A 
ATOM     49  H   UNL A   1      40.590  30.287  30.386  1.00  0.00     0.167 HD
ATOM     50  C   UNL A   1      44.502  28.813  31.770  1.00  0.00     0.037 A 
ATOM     51  C   UNL A   1      38.443  32.072  30.330  1.00  0.00     0.037 A 
ATOM     52  C   UNL A   1      44.376  30.138  32.314  1.00  0.00     0.049 A 
ATOM     53  C   UNL A   1      39.520  32.720  31.159  1.00  0.00     0.074 A 
ATOM     54  C   UNL A   1      45.295  30.852  33.061  1.00  0.00     0.029 A 
ATOM     55  N   UNL A   1      43.264  30.953  32.156  1.00  0.00    -0.354 N 
ATOM     56  N   UNL A   1      40.698  32.248  31.492  1.00  0.00    -0.248 NA
ATOM     57  C   UNL A   1      39.240  34.066  31.679  1.00  0.00     0.031 C 
ATOM     58  C   UNL A   1      44.729  32.093  33.375  1.00  0.00     0.029 A 
ATOM     59  C   UNL A   1      43.472  32.162  32.795  1.00  0.00     0.049 A 
ATOM     60  H   UNL A   1      42.449  30.707  31.662  1.00  0.00     0.167 HD
ATOM     61  C   UNL A   1      41.310  33.249  32.238  1.00  0.00     0.074 A 
ATOM     62  C   UNL A   1      40.377  34.356  32.296  1.00  0.00     0.031 C 
ATOM     63  C   UNL A   1      42.533  33.254  32.823  1.00  0.00     0.037 A 
BRANCH  50  64
ATOM     64  C   UNL A   1      45.751  28.032  32.056  1.00  0.00     0.058 A 
ATOM     65  C   UNL A   1      45.822  27.128  33.129  1.00  0.00     0.135 A 
ATOM     66  C   UNL A   1      46.885  28.168  31.239  1.00  0.00     0.135 A 
ATOM     67  F   UNL A   1      44.775  26.976  33.955  1.00  0.00    -0.206 F 
ATOM     68  C   UNL A   1      46.982  26.410  33.401  1.00  0.00     0.059 A 
ATOM     69  C   UNL A   1      48.046  27.438  31.475  1.00  0.00     0.059 A 
ATOM     70  F   UNL A   1      46.873  29.021  30.202  1.00  0.00    -0.206 F 
ATOM     71  C   UNL A   1      48.089  26.573  32.567  1.00  0.00     0.060 A 
BRANCH  71  72
ATOM     72  S   UNL A   1      49.583  25.626  32.928  1.00  0.00     0.124 S 
ATOM     73  O   UNL A   1      50.537  26.691  33.220  1.00  0.00    -0.237 OA
ATOM     74  O   UNL A   1      49.172  24.813  34.068  1.00  0.00    -0.237 OA
ATOM     75  O   UNL A   1      49.824  24.889  31.690  1.00  0.00    -0.744 OA
ENDBRANCH  71  72
ENDBRANCH  50  64
BRANCH  51  76
ATOM     76  C   UNL A   1      37.158  32.773  30.069  1.00  0.00     0.058 A 
ATOM     77  C   UNL A   1      37.023  33.644  28.978  1.00  0.00     0.135 A 
ATOM     78  C   UNL A   1      36.042  32.589  30.901  1.00  0.00     0.135 A 
ATOM     79  F   UNL A   1      38.063  33.854  28.157  1.00  0.00    -0.206 F 
ATOM     80  C   UNL A   1      35.837  34.328  28.733  1.00  0.00     0.059 A 
ATOM     81  C   UNL A   1      34.838  33.245  30.663  1.00  0.00     0.059 A 
ATOM     82  F   UNL A   1      36.114  31.751  31.947  1.00  0.00    -0.206 F 
ATOM     83  C   UNL A   1      34.750  34.124  29.584  1.00  0.00     0.060 A 
BRANCH  83  84
ATOM     84  S   UNL A   1      33.203  34.991  29.238  1.00  0.00     0.124 S 
ATOM     85  O   UNL A   1      33.691  36.284  28.772  1.00  0.00    -0.237 OA
ATOM     86  O   UNL A   1      32.590  34.136  28.226  1.00  0.00    -0.237 OA
ATOM     87  O   UNL A   1      32.529  34.998  30.533  1.00  0.00    -0.744 OA
ENDBRANCH  83  84
ENDBRANCH  51  76
BRANCH  63  88
ATOM     88  C   UNL A   1      42.947  34.504  33.546  1.00  0.00     0.058 A 
ATOM     89  C   UNL A   1      42.683  34.683  34.911  1.00  0.00     0.135 A 
ATOM     90  C   UNL A   1      43.669  35.503  32.874  1.00  0.00     0.135 A 
ATOM     91  F   UNL A   1      41.992  33.758  35.594  1.00  0.00    -0.206 F 
ATOM     92  C   UNL A   1      43.105  35.824  35.585  1.00  0.00     0.059 A 
ATOM     93  C   UNL A   1      44.121  36.641  33.533  1.00  0.00     0.059 A 
ATOM     94  F   UNL A   1      43.955  35.371  31.569  1.00  0.00    -0.206 F 
ATOM     95  C   UNL A   1      43.824  36.797  34.887  1.00  0.00     0.060 A 
BRANCH  95  96
ATOM     96  S   UNL A   1      44.403  38.255  35.782  1.00  0.00     0.124 S 
ATOM     97  O   UNL A   1      43.771  38.068  37.084  1.00  0.00    -0.237 OA
ATOM     98  O   UNL A   1      45.853  38.088  35.750  1.00  0.00    -0.237 OA
ATOM     99  O   UNL A   1      43.889  39.366  34.985  1.00  0.00    -0.744 OA
ENDBRANCH  95  96
ENDBRANCH  63  88
ENDBRANCH  37  38
ENDBRANCH  29  32
ENDBRANCH  27  28
ENDBRANCH   1  27
TORSDOF 16
ENDMDL
MODEL 3
REMARK VINA RESULT:     -11.5      1.614      2.445
REMARK SMILES C[N@@H+]1CCC[C@@H](NC(=O)N2CCC(CC(=O)NCCCCNC(=O)c3ccc(-c4c5nc(c(-c6c(F)cc(S(=O)(=O)[O-])cc6F)c6ccc([nH]6)c(-c6c(F)cc(S(=O)(=O)[O-])cc6F)c6nc(c(-c7c(F)cc(S(=O)(=O)[O-])cc7F)c7ccc4[nH]7)C=C6)C=C5)cc3)CC2)C1
REMARK SMILES IDX 20 1 19 2 18 3 17 4 15 5 16 6 14 8 13 9 7 10 8 11 9 13 10 14
REMARK SMILES IDX 11 15 92 16 12 17 91 18 6 19 1 20 2 21 3 22 93 23 4 25 5 26
REMARK SMILES IDX 21 27 22 28 23 29 24 31 25 32 26 33 90 34 27 35 89 36 28 37
REMARK SMILES IDX 29 38 30 39 83 40 31 41 88 42 82 43 84 44 32 45 87 46 81 47
REMARK SMILES IDX 80 48 33 50 67 51 46 52 66 53 47 54 50 55 65 56 85 57 48 58
REMARK SMILES IDX 49 59 64 61 86 62 51 63 34 64 35 65 44 66 36 67 37 68 43 69
REMARK SMILES IDX 45 70 38 71 39 72 40 73 41 74 42 75 68 76 69 77 78 78 70 79
REMARK SMILES IDX 71 80 77 81 79 82 72 83 73 84 74 85 75 86 76 87 52 88 53 89
REMARK SMILES IDX 62 90 54 91 55 92 61 93 63 94 56 95 57 96 58 97 59 98 60 99
REMARK H PARENT 17 7 7 12 2 24 22 30 84 49 50 60
REMARK Flexibility Score: inf
ROOT
ATOM      1  C   UNL A   1      32.528  27.973  26.679  1.00  0.00     0.023 C 
ENDROOT
BRANCH   1   2
ATOM      2  C   UNL A   1      31.794  28.541  25.479  1.00  0.00     0.023 C 
BRANCH   2   3
ATOM      3  C   UNL A   1      31.350  27.527  24.419  1.00  0.00     0.116 C 
BRANCH   3   4
ATOM      4  N   UNL A   1      32.236  27.507  23.263  1.00  0.00    -0.356 N 
ATOM      5  C   UNL A   1      32.772  26.463  22.564  1.00  0.00     0.220 C 
ATOM      6  O   UNL A   1      33.508  26.716  21.609  1.00  0.00    -0.275 OA
ATOM      7  H   UNL A   1      32.492  28.398  22.929  1.00  0.00     0.163 HD
BRANCH   5   8
ATOM      8  C   UNL A   1      32.492  25.016  22.959  1.00  0.00     0.103 C 
BRANCH   8   9
ATOM      9  C   UNL A   1      33.554  24.418  23.910  1.00  0.00     0.002 C 
ATOM     10  N   UNL A   1      34.938  19.796  25.352  1.00  0.00    -0.330 N 
ATOM     11  C   UNL A   1      35.730  20.854  24.985  1.00  0.00     0.317 C 
ATOM     12  H   UNL A   1      34.892  19.520  26.295  1.00  0.00     0.165 HD
ATOM     13  O   UNL A   1      36.948  20.729  24.924  1.00  0.00    -0.249 OA
ATOM     14  N   UNL A   1      35.059  22.026  24.693  1.00  0.00    -0.325 N 
ATOM     15  C   UNL A   1      35.752  23.120  24.026  1.00  0.00     0.121 C 
ATOM     16  C   UNL A   1      33.925  22.429  25.500  1.00  0.00     0.121 C 
ATOM     17  C   UNL A   1      34.798  23.937  23.144  1.00  0.00     0.026 C 
ATOM     18  C   UNL A   1      32.953  23.264  24.703  1.00  0.00     0.026 C 
BRANCH  10  19
ATOM     19  C   UNL A   1      34.158  19.074  24.336  1.00  0.00     0.139 C 
ATOM     20  C   UNL A   1      35.399  15.586  25.168  1.00  0.00     0.332 C 
ATOM     21  N   UNL A   1      34.687  16.853  25.330  1.00  0.00    -0.336 N 
ATOM     22  C   UNL A   1      33.272  16.607  25.653  1.00  0.00     0.262 C 
ATOM     23  C   UNL A   1      34.801  17.681  24.109  1.00  0.00     0.287 C 
ATOM     24  H   UNL A   1      35.116  17.362  26.102  1.00  0.00     0.347 HD
ATOM     25  C   UNL A   1      32.525  17.920  25.897  1.00  0.00     0.064 C 
ATOM     26  C   UNL A   1      32.690  18.896  24.734  1.00  0.00     0.037 C 
ENDBRANCH  10  19
ENDBRANCH   8   9
ENDBRANCH   5   8
ENDBRANCH   3   4
ENDBRANCH   2   3
ENDBRANCH   1   2
BRANCH   1  27
ATOM     27  C   UNL A   1      33.898  28.577  26.909  1.00  0.00     0.116 C 
BRANCH  27  28
ATOM     28  N   UNL A   1      33.853  29.922  27.473  1.00  0.00    -0.352 N 
ATOM     29  C   UNL A   1      34.839  30.604  28.153  1.00  0.00     0.251 C 
ATOM     30  H   UNL A   1      33.004  30.406  27.351  1.00  0.00     0.163 HD
ATOM     31  O   UNL A   1      34.602  31.693  28.658  1.00  0.00    -0.269 OA
BRANCH  29  32
ATOM     32  C   UNL A   1      36.165  29.970  28.294  1.00  0.00     0.039 A 
ATOM     33  C   UNL A   1      37.082  30.068  27.248  1.00  0.00     0.014 A 
ATOM     34  C   UNL A   1      36.526  29.372  29.503  1.00  0.00     0.014 A 
ATOM     35  C   UNL A   1      38.398  29.646  27.451  1.00  0.00     0.010 A 
ATOM     36  C   UNL A   1      37.857  29.064  29.740  1.00  0.00     0.010 A 
ATOM     37  C   UNL A   1      38.806  29.188  28.715  1.00  0.00    -0.014 A 
BRANCH  37  38
ATOM     38  C   UNL A   1      40.212  28.805  28.993  1.00  0.00     0.031 A 
ATOM     39  C   UNL A   1      41.140  29.813  29.617  1.00  0.00     0.074 A 
ATOM     40  C   UNL A   1      40.673  27.598  28.608  1.00  0.00     0.049 A 
ATOM     41  N   UNL A   1      42.426  29.731  29.832  1.00  0.00    -0.248 NA
ATOM     42  C   UNL A   1      40.550  31.106  30.010  1.00  0.00     0.031 C 
ATOM     43  C   UNL A   1      39.888  26.563  27.930  1.00  0.00     0.029 A 
ATOM     44  N   UNL A   1      41.921  27.041  28.723  1.00  0.00    -0.354 N 
ATOM     45  C   UNL A   1      42.800  30.963  30.354  1.00  0.00     0.074 A 
ATOM     46  C   UNL A   1      41.621  31.798  30.364  1.00  0.00     0.031 C 
ATOM     47  C   UNL A   1      40.665  25.488  27.716  1.00  0.00     0.029 A 
ATOM     48  C   UNL A   1      42.010  25.768  28.208  1.00  0.00     0.049 A 
ATOM     49  H   UNL A   1      42.683  27.509  29.134  1.00  0.00     0.167 HD
ATOM     50  C   UNL A   1      44.010  31.355  30.818  1.00  0.00     0.037 A 
ATOM     51  C   UNL A   1      43.059  24.926  28.141  1.00  0.00     0.037 A 
ATOM     52  C   UNL A   1      45.163  30.498  30.862  1.00  0.00     0.049 A 
ATOM     53  C   UNL A   1      44.382  25.367  28.706  1.00  0.00     0.074 A 
ATOM     54  C   UNL A   1      46.418  30.769  31.377  1.00  0.00     0.029 A 
ATOM     55  N   UNL A   1      45.197  29.196  30.384  1.00  0.00    -0.354 N 
ATOM     56  N   UNL A   1      44.703  26.516  29.251  1.00  0.00    -0.248 NA
ATOM     57  C   UNL A   1      45.485  24.395  28.655  1.00  0.00     0.031 C 
ATOM     58  C   UNL A   1      47.219  29.636  31.188  1.00  0.00     0.029 A 
ATOM     59  C   UNL A   1      46.452  28.651  30.587  1.00  0.00     0.049 A 
ATOM     60  H   UNL A   1      44.439  28.728  29.963  1.00  0.00     0.167 HD
ATOM     61  C   UNL A   1      46.035  26.397  29.632  1.00  0.00     0.074 A 
ATOM     62  C   UNL A   1      46.456  25.060  29.265  1.00  0.00     0.031 C 
ATOM     63  C   UNL A   1      46.840  27.310  30.229  1.00  0.00     0.037 A 
BRANCH  50  64
ATOM     64  C   UNL A   1      44.134  32.757  31.339  1.00  0.00     0.058 A 
ATOM     65  C   UNL A   1      43.927  33.057  32.695  1.00  0.00     0.135 A 
ATOM     66  C   UNL A   1      44.484  33.812  30.482  1.00  0.00     0.135 A 
ATOM     67  F   UNL A   1      43.568  32.089  33.554  1.00  0.00    -0.206 F 
ATOM     68  C   UNL A   1      44.032  34.356  33.179  1.00  0.00     0.059 A 
ATOM     69  C   UNL A   1      44.624  35.116  30.949  1.00  0.00     0.059 A 
ATOM     70  F   UNL A   1      44.690  33.583  29.175  1.00  0.00    -0.206 F 
ATOM     71  C   UNL A   1      44.380  35.380  32.296  1.00  0.00     0.060 A 
BRANCH  71  72
ATOM     72  S   UNL A   1      44.523  37.060  32.941  1.00  0.00     0.124 S 
ATOM     73  O   UNL A   1      45.371  36.849  34.111  1.00  0.00    -0.237 OA
ATOM     74  O   UNL A   1      45.144  37.771  31.828  1.00  0.00    -0.237 OA
ATOM     75  O   UNL A   1      43.141  37.432  33.227  1.00  0.00    -0.744 OA
ENDBRANCH  71  72
ENDBRANCH  50  64
BRANCH  51  76
ATOM     76  C   UNL A   1      42.896  23.570  27.551  1.00  0.00     0.058 A 
ATOM     77  C   UNL A   1      42.500  22.484  28.345  1.00  0.00     0.135 A 
ATOM     78  C   UNL A   1      43.132  23.332  26.188  1.00  0.00     0.135 A 
ATOM     79  F   UNL A   1      42.266  22.662  29.654  1.00  0.00    -0.206 F 
ATOM     80  C   UNL A   1      42.368  21.204  27.817  1.00  0.00     0.059 A 
ATOM     81  C   UNL A   1      42.985  22.065  25.632  1.00  0.00     0.059 A 
ATOM     82  F   UNL A   1      43.495  24.343  25.382  1.00  0.00    -0.206 F 
ATOM     83  C   UNL A   1      42.616  21.004  26.458  1.00  0.00     0.060 A 
BRANCH  83  84
ATOM     84  S   UNL A   1      42.408  19.345  25.774  1.00  0.00     0.124 S 
ATOM     85  O   UNL A   1      43.311  19.386  24.630  1.00  0.00    -0.237 OA
ATOM     86  O   UNL A   1      42.824  18.497  26.887  1.00  0.00    -0.237 OA
ATOM     87  O   UNL A   1      40.984  19.293  25.456  1.00  0.00    -0.744 OA
ENDBRANCH  83  84
ENDBRANCH  51  76
BRANCH  63  88
ATOM     88  C   UNL A   1      48.243  26.885  30.555  1.00  0.00     0.058 A 
ATOM     89  C   UNL A   1      49.314  27.169  29.696  1.00  0.00     0.135 A 
ATOM     90  C   UNL A   1      48.522  26.242  31.771  1.00  0.00     0.135 A 
ATOM     91  F   UNL A   1      49.095  27.778  28.520  1.00  0.00    -0.206 F 
ATOM     92  C   UNL A   1      50.617  26.810  30.022  1.00  0.00     0.059 A 
ATOM     93  C   UNL A   1      49.820  25.895  32.129  1.00  0.00     0.059 A 
ATOM     94  F   UNL A   1      47.531  25.959  32.632  1.00  0.00    -0.206 F 
ATOM     95  C   UNL A   1      50.860  26.173  31.241  1.00  0.00     0.060 A 
BRANCH  95  96
ATOM     96  S   UNL A   1      52.561  25.748  31.673  1.00  0.00     0.124 S 
ATOM     97  O   UNL A   1      52.407  24.376  32.146  1.00  0.00    -0.237 OA
ATOM     98  O   UNL A   1      53.257  25.907  30.400  1.00  0.00    -0.237 OA
ATOM     99  O   UNL A   1      52.905  26.732  32.695  1.00  0.00    -0.744 OA
ENDBRANCH  95  96
ENDBRANCH  63  88
ENDBRANCH  37  38
ENDBRANCH  29  32
ENDBRANCH  27  28
ENDBRANCH   1  27
TORSDOF 16
ENDMDL
