MODEL 1
REMARK VINA RESULT:     -11.8      0.000      0.000
REMARK SMILES O=C(NCCCCNC(=O)[C@@H]1C=C[C@@H](Nc2ccc3ccccc3n2)C1)c1ccc(-c2c3nc(c(-c4c(F)cc(S(=O)(=O)[O-])cc4F)c4ccc([nH]4)c(-c4c(F)cc(S(=O)(=O)[O-])cc4F)c4nc(c(-c5c(F)cc(S(=O)(=O)[O-])cc5F)c5ccc2[nH]5)C=C4)C=C3)cc1
REMARK SMILES IDX 5 1 4 2 3 3 1 4 2 5 27 7 28 8 92 9 29 10 91 11 30 12 31 13
REMARK SMILES IDX 32 14 85 15 33 16 90 17 84 18 86 19 34 20 89 21 83 22 82 23
REMARK SMILES IDX 35 25 69 26 48 27 68 28 49 29 52 30 67 31 87 32 50 33 51 34
REMARK SMILES IDX 66 36 88 37 53 38 36 39 37 40 46 41 38 42 39 43 45 44 47 45
REMARK SMILES IDX 40 46 41 47 42 48 43 49 44 50 70 51 71 52 80 53 72 54 73 55
REMARK SMILES IDX 79 56 81 57 74 58 75 59 76 60 77 61 78 62 54 63 55 64 64 65
REMARK SMILES IDX 56 66 57 67 63 68 65 69 58 70 59 71 60 72 61 73 62 74 6 75
REMARK SMILES IDX 7 76 8 77 9 78 10 80 11 81 12 82 26 83 13 84 14 85 15 86
REMARK SMILES IDX 16 88 17 89 25 90 18 91 24 92 19 93 23 94 20 95 22 96 21 97
REMARK H PARENT 3 6 86 24 52 35 8 79 15 87
REMARK Flexibility Score: inf
ROOT
ATOM      1  C   UNL A   1      33.851  27.966  25.555  1.00  0.00     0.023 C 
ENDROOT
BRANCH   1   2
ATOM      2  C   UNL A   1      34.056  28.226  27.043  1.00  0.00     0.116 C 
BRANCH   2   3
ATOM      3  N   UNL A   1      33.701  29.574  27.456  1.00  0.00    -0.352 N 
ATOM      4  O   UNL A   1      34.055  31.556  28.483  1.00  0.00    -0.269 OA
ATOM      5  C   UNL A   1      34.507  30.490  28.091  1.00  0.00     0.251 C 
ATOM      6  H   UNL A   1      32.780  29.863  27.260  1.00  0.00     0.163 HD
BRANCH   5   7
ATOM      7  C   UNL A   1      35.923  30.135  28.321  1.00  0.00     0.039 A 
ATOM      8  C   UNL A   1      36.854  30.257  27.287  1.00  0.00     0.014 A 
ATOM      9  C   UNL A   1      36.303  29.643  29.572  1.00  0.00     0.014 A 
ATOM     10  C   UNL A   1      38.149  29.791  27.471  1.00  0.00     0.010 A 
ATOM     11  C   UNL A   1      37.623  29.235  29.775  1.00  0.00     0.010 A 
ATOM     12  C   UNL A   1      38.549  29.294  28.722  1.00  0.00    -0.014 A 
BRANCH  12  13
ATOM     13  C   UNL A   1      39.974  28.956  28.947  1.00  0.00     0.031 A 
ATOM     14  C   UNL A   1      40.531  27.619  28.554  1.00  0.00     0.074 A 
ATOM     15  C   UNL A   1      40.754  29.885  29.534  1.00  0.00     0.049 A 
ATOM     16  N   UNL A   1      41.743  27.158  28.725  1.00  0.00    -0.248 NA
ATOM     17  C   UNL A   1      39.617  26.674  27.893  1.00  0.00     0.031 C 
ATOM     18  C   UNL A   1      40.297  31.208  29.976  1.00  0.00     0.029 A 
ATOM     19  N   UNL A   1      42.082  29.866  29.866  1.00  0.00    -0.354 N 
ATOM     20  C   UNL A   1      41.735  25.865  28.217  1.00  0.00     0.074 A 
ATOM     21  C   UNL A   1      40.394  25.610  27.735  1.00  0.00     0.031 C 
ATOM     22  C   UNL A   1      41.329  31.874  30.511  1.00  0.00     0.029 A 
ATOM     23  C   UNL A   1      42.503  31.011  30.501  1.00  0.00     0.049 A 
ATOM     24  H   UNL A   1      42.677  29.107  29.671  1.00  0.00     0.167 HD
ATOM     25  C   UNL A   1      42.759  24.980  28.163  1.00  0.00     0.037 A 
ATOM     26  C   UNL A   1      43.691  31.317  31.051  1.00  0.00     0.037 A 
ATOM     27  C   UNL A   1      44.096  25.265  28.621  1.00  0.00     0.049 A 
ATOM     28  C   UNL A   1      44.799  30.308  30.991  1.00  0.00     0.074 A 
ATOM     29  C   UNL A   1      45.226  24.472  28.521  1.00  0.00     0.029 A 
ATOM     30  N   UNL A   1      44.480  26.427  29.276  1.00  0.00    -0.354 N 
ATOM     31  N   UNL A   1      44.792  29.116  30.444  1.00  0.00    -0.248 NA
ATOM     32  C   UNL A   1      46.069  30.675  31.630  1.00  0.00     0.031 C 
ATOM     33  C   UNL A   1      46.281  25.133  29.157  1.00  0.00     0.029 A 
ATOM     34  C   UNL A   1      45.819  26.354  29.621  1.00  0.00     0.049 A 
ATOM     35  H   UNL A   1      43.887  27.190  29.466  1.00  0.00     0.167 HD
ATOM     36  C   UNL A   1      46.053  28.587  30.680  1.00  0.00     0.074 A 
ATOM     37  C   UNL A   1      46.806  29.600  31.390  1.00  0.00     0.031 C 
ATOM     38  C   UNL A   1      46.541  27.368  30.344  1.00  0.00     0.037 A 
BRANCH  25  39
ATOM     39  C   UNL A   1      42.495  23.612  27.603  1.00  0.00     0.058 A 
ATOM     40  C   UNL A   1      42.541  23.357  26.225  1.00  0.00     0.135 A 
ATOM     41  C   UNL A   1      42.304  22.520  28.467  1.00  0.00     0.135 A 
ATOM     42  F   UNL A   1      42.709  24.367  25.356  1.00  0.00    -0.206 F 
ATOM     43  C   UNL A   1      42.411  22.066  25.720  1.00  0.00     0.059 A 
ATOM     44  C   UNL A   1      42.187  21.218  27.985  1.00  0.00     0.059 A 
ATOM     45  F   UNL A   1      42.249  22.712  29.794  1.00  0.00    -0.206 F 
ATOM     46  C   UNL A   1      42.240  21.002  26.609  1.00  0.00     0.060 A 
BRANCH  46  47
ATOM     47  S   UNL A   1      42.125  19.328  25.942  1.00  0.00     0.124 S 
ATOM     48  O   UNL A   1      40.693  19.216  25.683  1.00  0.00    -0.237 OA
ATOM     49  O   UNL A   1      42.978  19.402  24.760  1.00  0.00    -0.237 OA
ATOM     50  O   UNL A   1      42.633  18.493  27.026  1.00  0.00    -0.744 OA
ENDBRANCH  46  47
ENDBRANCH  25  39
BRANCH  26  51
ATOM     51  C   UNL A   1      43.867  32.615  31.750  1.00  0.00     0.058 A 
ATOM     52  C   UNL A   1      43.582  32.749  33.115  1.00  0.00     0.135 A 
ATOM     53  C   UNL A   1      44.344  33.743  31.063  1.00  0.00     0.135 A 
ATOM     54  F   UNL A   1      43.123  31.698  33.811  1.00  0.00    -0.206 F 
ATOM     55  C   UNL A   1      43.747  33.963  33.774  1.00  0.00     0.059 A 
ATOM     56  C   UNL A   1      44.540  34.960  31.705  1.00  0.00     0.059 A 
ATOM     57  F   UNL A   1      44.650  33.658  29.760  1.00  0.00    -0.206 F 
ATOM     58  C   UNL A   1      44.225  35.064  33.060  1.00  0.00     0.060 A 
BRANCH  58  59
ATOM     59  S   UNL A   1      44.473  36.629  33.926  1.00  0.00     0.124 S 
ATOM     60  O   UNL A   1      45.835  36.966  33.533  1.00  0.00    -0.237 OA
ATOM     61  O   UNL A   1      43.418  37.467  33.361  1.00  0.00    -0.237 OA
ATOM     62  O   UNL A   1      44.287  36.265  35.327  1.00  0.00    -0.744 OA
ENDBRANCH  58  59
ENDBRANCH  26  51
BRANCH  38  63
ATOM     63  C   UNL A   1      47.951  27.064  30.760  1.00  0.00     0.058 A 
ATOM     64  C   UNL A   1      48.225  26.451  31.992  1.00  0.00     0.135 A 
ATOM     65  C   UNL A   1      49.028  27.352  29.909  1.00  0.00     0.135 A 
ATOM     66  F   UNL A   1      47.228  26.170  32.844  1.00  0.00    -0.206 F 
ATOM     67  C   UNL A   1      49.527  26.147  32.373  1.00  0.00     0.059 A 
ATOM     68  C   UNL A   1      50.335  27.036  30.261  1.00  0.00     0.059 A 
ATOM     69  F   UNL A   1      48.813  27.933  28.718  1.00  0.00    -0.206 F 
ATOM     70  C   UNL A   1      50.575  26.443  31.500  1.00  0.00     0.060 A 
BRANCH  70  71
ATOM     71  S   UNL A   1      52.258  26.011  31.990  1.00  0.00     0.124 S 
ATOM     72  O   UNL A   1      52.177  24.556  32.066  1.00  0.00    -0.237 OA
ATOM     73  O   UNL A   1      53.054  26.545  30.889  1.00  0.00    -0.237 OA
ATOM     74  O   UNL A   1      52.425  26.699  33.267  1.00  0.00    -0.744 OA
ENDBRANCH  70  71
ENDBRANCH  38  63
ENDBRANCH  12  13
ENDBRANCH   5   7
ENDBRANCH   2   3
ENDBRANCH   1   2
BRANCH   1  75
ATOM     75  C   UNL A   1      33.260  29.137  24.769  1.00  0.00     0.023 C 
BRANCH  75  76
ATOM     76  C   UNL A   1      31.733  29.209  24.798  1.00  0.00     0.116 C 
BRANCH  76  77
ATOM     77  N   UNL A   1      31.183  29.702  23.555  1.00  0.00    -0.356 N 
ATOM     78  C   UNL A   1      30.476  29.123  22.555  1.00  0.00     0.227 C 
ATOM     79  H   UNL A   1      31.360  30.659  23.403  1.00  0.00     0.163 HD
ATOM     80  O   UNL A   1      30.126  29.883  21.639  1.00  0.00    -0.274 OA
BRANCH  78  81
ATOM     81  C   UNL A   1      30.071  27.642  22.476  1.00  0.00     0.103 C 
ATOM     82  C   UNL A   1      28.973  27.338  23.463  1.00  0.00    -0.016 C 
ATOM     83  C   UNL A   1      31.042  26.500  22.748  1.00  0.00     0.046 C 
ATOM     84  C   UNL A   1      29.359  26.444  24.382  1.00  0.00    -0.006 C 
ATOM     85  C   UNL A   1      30.791  26.073  24.205  1.00  0.00     0.104 C 
BRANCH  85  86
ATOM     86  N   UNL A   1      30.998  24.659  24.346  1.00  0.00    -0.364 N 
ATOM     87  H   UNL A   1      30.265  24.059  24.612  1.00  0.00     0.162 HD
BRANCH  86  88
ATOM     88  C   UNL A   1      32.267  24.172  24.094  1.00  0.00     0.127 A 
ATOM     89  C   UNL A   1      32.514  23.492  22.910  1.00  0.00     0.047 A 
ATOM     90  N   UNL A   1      33.251  24.449  24.971  1.00  0.00    -0.231 NA
ATOM     91  C   UNL A   1      33.809  23.070  22.625  1.00  0.00     0.014 A 
ATOM     92  C   UNL A   1      34.498  24.009  24.724  1.00  0.00     0.073 A 
ATOM     93  C   UNL A   1      34.832  23.311  23.547  1.00  0.00     0.000 A 
ATOM     94  C   UNL A   1      35.504  24.236  25.656  1.00  0.00     0.029 A 
ATOM     95  C   UNL A   1      36.150  22.877  23.325  1.00  0.00     0.010 A 
ATOM     96  C   UNL A   1      36.815  23.791  25.449  1.00  0.00     0.002 A 
ATOM     97  C   UNL A   1      37.138  23.114  24.279  1.00  0.00     0.001 A 
ENDBRANCH  86  88
ENDBRANCH  85  86
ENDBRANCH  78  81
ENDBRANCH  76  77
ENDBRANCH  75  76
ENDBRANCH   1  75
TORSDOF 16
ENDMDL
MODEL 2
REMARK VINA RESULT:     -11.6      0.982      8.365
REMARK SMILES O=C(NCCCCNC(=O)[C@@H]1C=C[C@@H](Nc2ccc3ccccc3n2)C1)c1ccc(-c2c3nc(c(-c4c(F)cc(S(=O)(=O)[O-])cc4F)c4ccc([nH]4)c(-c4c(F)cc(S(=O)(=O)[O-])cc4F)c4nc(c(-c5c(F)cc(S(=O)(=O)[O-])cc5F)c5ccc2[nH]5)C=C4)C=C3)cc1
REMARK SMILES IDX 5 1 4 2 3 3 1 4 2 5 27 7 28 8 92 9 29 10 91 11 30 12 31 13
REMARK SMILES IDX 32 14 85 15 33 16 90 17 84 18 86 19 34 20 89 21 83 22 82 23
REMARK SMILES IDX 35 25 69 26 48 27 68 28 49 29 52 30 67 31 87 32 50 33 51 34
REMARK SMILES IDX 66 36 88 37 53 38 36 39 37 40 46 41 38 42 39 43 45 44 47 45
REMARK SMILES IDX 40 46 41 47 42 48 43 49 44 50 70 51 71 52 80 53 72 54 73 55
REMARK SMILES IDX 79 56 81 57 74 58 75 59 76 60 77 61 78 62 54 63 55 64 64 65
REMARK SMILES IDX 56 66 57 67 63 68 65 69 58 70 59 71 60 72 61 73 62 74 6 75
REMARK SMILES IDX 7 76 8 77 9 78 10 80 11 81 12 82 26 83 13 84 14 85 15 86
REMARK SMILES IDX 16 88 17 89 25 90 18 91 24 92 19 93 23 94 20 95 22 96 21 97
REMARK H PARENT 3 6 86 24 52 35 8 79 15 87
REMARK Flexibility Score: inf
ROOT
ATOM      1  C   UNL A   1      33.713  27.566  25.371  1.00  0.00     0.023 C 
ENDROOT
BRANCH   1   2
ATOM      2  C   UNL A   1      33.853  27.952  26.839  1.00  0.00     0.116 C 
BRANCH   2   3
ATOM      3  N   UNL A   1      33.425  29.310  27.132  1.00  0.00    -0.352 N 
ATOM      4  O   UNL A   1      33.643  31.374  28.029  1.00  0.00    -0.269 OA
ATOM      5  C   UNL A   1      34.157  30.302  27.743  1.00  0.00     0.251 C 
ATOM      6  H   UNL A   1      32.507  29.547  26.863  1.00  0.00     0.163 HD
BRANCH   5   7
ATOM      7  C   UNL A   1      35.568  30.023  28.079  1.00  0.00     0.039 A 
ATOM      8  C   UNL A   1      36.556  30.124  27.096  1.00  0.00     0.014 A 
ATOM      9  C   UNL A   1      35.889  29.622  29.378  1.00  0.00     0.014 A 
ATOM     10  C   UNL A   1      37.856  29.726  27.386  1.00  0.00     0.010 A 
ATOM     11  C   UNL A   1      37.208  29.283  29.684  1.00  0.00     0.010 A 
ATOM     12  C   UNL A   1      38.195  29.322  28.687  1.00  0.00    -0.014 A 
BRANCH  12  13
ATOM     13  C   UNL A   1      39.615  29.060  29.017  1.00  0.00     0.031 A 
ATOM     14  C   UNL A   1      40.493  30.129  29.600  1.00  0.00     0.074 A 
ATOM     15  C   UNL A   1      40.102  27.830  28.760  1.00  0.00     0.049 A 
ATOM     16  N   UNL A   1      41.764  30.068  29.900  1.00  0.00    -0.248 NA
ATOM     17  C   UNL A   1      39.873  31.435  29.875  1.00  0.00     0.031 C 
ATOM     18  C   UNL A   1      39.334  26.728  28.169  1.00  0.00     0.029 A 
ATOM     19  N   UNL A   1      41.349  27.297  28.951  1.00  0.00    -0.354 N 
ATOM     20  C   UNL A   1      42.106  31.328  30.376  1.00  0.00     0.074 A 
ATOM     21  C   UNL A   1      40.907  32.138  30.321  1.00  0.00     0.031 C 
ATOM     22  C   UNL A   1      40.122  25.651  28.057  1.00  0.00     0.029 A 
ATOM     23  C   UNL A   1      41.461  25.999  28.514  1.00  0.00     0.049 A 
ATOM     24  H   UNL A   1      42.093  27.795  29.361  1.00  0.00     0.167 HD
ATOM     25  C   UNL A   1      43.312  31.757  30.818  1.00  0.00     0.037 A 
ATOM     26  C   UNL A   1      42.533  25.189  28.449  1.00  0.00     0.037 A 
ATOM     27  C   UNL A   1      44.486  30.925  30.894  1.00  0.00     0.049 A 
ATOM     28  C   UNL A   1      43.859  25.701  28.928  1.00  0.00     0.074 A 
ATOM     29  C   UNL A   1      45.729  31.237  31.417  1.00  0.00     0.029 A 
ATOM     30  N   UNL A   1      44.567  29.621  30.424  1.00  0.00    -0.354 N 
ATOM     31  N   UNL A   1      44.147  26.875  29.440  1.00  0.00    -0.248 NA
ATOM     32  C   UNL A   1      45.006  24.793  28.810  1.00  0.00     0.031 C 
ATOM     33  C   UNL A   1      46.575  30.141  31.219  1.00  0.00     0.029 A 
ATOM     34  C   UNL A   1      45.850  29.132  30.607  1.00  0.00     0.049 A 
ATOM     35  H   UNL A   1      43.822  29.120  30.019  1.00  0.00     0.167 HD
ATOM     36  C   UNL A   1      45.510  26.847  29.699  1.00  0.00     0.074 A 
ATOM     37  C   UNL A   1      45.982  25.532  29.317  1.00  0.00     0.031 C 
ATOM     38  C   UNL A   1      46.300  27.826  30.202  1.00  0.00     0.037 A 
BRANCH  25  39
ATOM     39  C   UNL A   1      43.449  33.190  31.247  1.00  0.00     0.058 A 
ATOM     40  C   UNL A   1      43.281  33.579  32.584  1.00  0.00     0.135 A 
ATOM     41  C   UNL A   1      43.864  34.167  30.326  1.00  0.00     0.135 A 
ATOM     42  F   UNL A   1      42.874  32.688  33.501  1.00  0.00    -0.206 F 
ATOM     43  C   UNL A   1      43.523  34.887  32.995  1.00  0.00     0.059 A 
ATOM     44  C   UNL A   1      44.126  35.477  30.717  1.00  0.00     0.059 A 
ATOM     45  F   UNL A   1      44.035  33.846  29.033  1.00  0.00    -0.206 F 
ATOM     46  C   UNL A   1      43.951  35.828  32.055  1.00  0.00     0.060 A 
BRANCH  46  47
ATOM     47  S   UNL A   1      44.311  37.506  32.614  1.00  0.00     0.124 S 
ATOM     48  O   UNL A   1      44.118  38.270  31.385  1.00  0.00    -0.237 OA
ATOM     49  O   UNL A   1      43.306  37.714  33.653  1.00  0.00    -0.237 OA
ATOM     50  O   UNL A   1      45.688  37.420  33.089  1.00  0.00    -0.744 OA
ENDBRANCH  46  47
ENDBRANCH  25  39
BRANCH  26  51
ATOM     51  C   UNL A   1      42.399  23.834  27.858  1.00  0.00     0.058 A 
ATOM     52  C   UNL A   1      42.342  23.648  26.470  1.00  0.00     0.135 A 
ATOM     53  C   UNL A   1      42.343  22.694  28.677  1.00  0.00     0.135 A 
ATOM     54  F   UNL A   1      42.391  24.708  25.649  1.00  0.00    -0.206 F 
ATOM     55  C   UNL A   1      42.217  22.380  25.913  1.00  0.00     0.059 A 
ATOM     56  C   UNL A   1      42.243  21.415  28.143  1.00  0.00     0.059 A 
ATOM     57  F   UNL A   1      42.413  22.820  30.010  1.00  0.00    -0.206 F 
ATOM     58  C   UNL A   1      42.167  21.269  26.758  1.00  0.00     0.060 A 
BRANCH  58  59
ATOM     59  S   UNL A   1      42.041  19.621  26.031  1.00  0.00     0.124 S 
ATOM     60  O   UNL A   1      42.935  19.739  24.886  1.00  0.00    -0.237 OA
ATOM     61  O   UNL A   1      42.505  18.765  27.119  1.00  0.00    -0.237 OA
ATOM     62  O   UNL A   1      40.620  19.505  25.718  1.00  0.00    -0.744 OA
ENDBRANCH  58  59
ENDBRANCH  26  51
BRANCH  38  63
ATOM     63  C   UNL A   1      47.760  27.511  30.348  1.00  0.00     0.058 A 
ATOM     64  C   UNL A   1      48.676  27.840  29.338  1.00  0.00     0.135 A 
ATOM     65  C   UNL A   1      48.250  26.911  31.518  1.00  0.00     0.135 A 
ATOM     66  F   UNL A   1      48.251  28.402  28.197  1.00  0.00    -0.206 F 
ATOM     67  C   UNL A   1      50.033  27.570  29.477  1.00  0.00     0.059 A 
ATOM     68  C   UNL A   1      49.606  26.653  31.687  1.00  0.00     0.059 A 
ATOM     69  F   UNL A   1      47.412  26.584  32.513  1.00  0.00    -0.206 F 
ATOM     70  C   UNL A   1      50.488  26.977  30.657  1.00  0.00     0.060 A 
BRANCH  70  71
ATOM     71  S   UNL A   1      52.256  26.664  30.841  1.00  0.00     0.124 S 
ATOM     72  O   UNL A   1      52.647  26.368  29.467  1.00  0.00    -0.237 OA
ATOM     73  O   UNL A   1      52.745  27.930  31.381  1.00  0.00    -0.237 OA
ATOM     74  O   UNL A   1      52.305  25.536  31.767  1.00  0.00    -0.744 OA
ENDBRANCH  70  71
ENDBRANCH  38  63
ENDBRANCH  12  13
ENDBRANCH   5   7
ENDBRANCH   2   3
ENDBRANCH   1   2
BRANCH   1  75
ATOM     75  C   UNL A   1      34.155  28.640  24.376  1.00  0.00     0.023 C 
BRANCH  75  76
ATOM     76  C   UNL A   1      33.282  28.739  23.126  1.00  0.00     0.116 C 
BRANCH  76  77
ATOM     77  N   UNL A   1      32.014  29.384  23.390  1.00  0.00    -0.356 N 
ATOM     78  C   UNL A   1      30.727  28.966  23.328  1.00  0.00     0.227 C 
ATOM     79  H   UNL A   1      32.106  30.322  23.674  1.00  0.00     0.163 HD
ATOM     80  O   UNL A   1      29.878  29.800  23.675  1.00  0.00    -0.274 OA
BRANCH  78  81
ATOM     81  C   UNL A   1      30.250  27.573  22.887  1.00  0.00     0.103 C 
ATOM     82  C   UNL A   1      29.919  26.720  24.085  1.00  0.00    -0.016 C 
ATOM     83  C   UNL A   1      31.115  26.619  22.071  1.00  0.00     0.046 C 
ATOM     84  C   UNL A   1      30.707  25.639  24.165  1.00  0.00    -0.006 C 
ATOM     85  C   UNL A   1      31.734  25.642  23.086  1.00  0.00     0.104 C 
BRANCH  85  86
ATOM     86  N   UNL A   1      31.886  24.344  22.489  1.00  0.00    -0.364 N 
ATOM     87  H   UNL A   1      31.429  24.112  21.649  1.00  0.00     0.162 HD
BRANCH  86  88
ATOM     88  C   UNL A   1      32.696  23.434  23.139  1.00  0.00     0.127 A 
ATOM     89  C   UNL A   1      32.125  22.323  23.747  1.00  0.00     0.047 A 
ATOM     90  N   UNL A   1      34.031  23.606  23.090  1.00  0.00    -0.231 NA
ATOM     91  C   UNL A   1      32.951  21.370  24.335  1.00  0.00     0.014 A 
ATOM     92  C   UNL A   1      34.835  22.711  23.692  1.00  0.00     0.073 A 
ATOM     93  C   UNL A   1      34.335  21.559  24.331  1.00  0.00     0.000 A 
ATOM     94  C   UNL A   1      36.209  22.917  23.700  1.00  0.00     0.029 A 
ATOM     95  C   UNL A   1      35.213  20.644  24.940  1.00  0.00     0.010 A 
ATOM     96  C   UNL A   1      37.086  22.019  24.319  1.00  0.00     0.002 A 
ATOM     97  C   UNL A   1      36.586  20.879  24.937  1.00  0.00     0.001 A 
ENDBRANCH  86  88
ENDBRANCH  85  86
ENDBRANCH  78  81
ENDBRANCH  76  77
ENDBRANCH  75  76
ENDBRANCH   1  75
TORSDOF 16
ENDMDL
MODEL 3
REMARK VINA RESULT:     -11.5      3.583      9.453
REMARK SMILES O=C(NCCCCNC(=O)[C@@H]1C=C[C@@H](Nc2ccc3ccccc3n2)C1)c1ccc(-c2c3nc(c(-c4c(F)cc(S(=O)(=O)[O-])cc4F)c4ccc([nH]4)c(-c4c(F)cc(S(=O)(=O)[O-])cc4F)c4nc(c(-c5c(F)cc(S(=O)(=O)[O-])cc5F)c5ccc2[nH]5)C=C4)C=C3)cc1
REMARK SMILES IDX 5 1 4 2 3 3 1 4 2 5 27 7 28 8 92 9 29 10 91 11 30 12 31 13
REMARK SMILES IDX 32 14 85 15 33 16 90 17 84 18 86 19 34 20 89 21 83 22 82 23
REMARK SMILES IDX 35 25 69 26 48 27 68 28 49 29 52 30 67 31 87 32 50 33 51 34
REMARK SMILES IDX 66 36 88 37 53 38 36 39 37 40 46 41 38 42 39 43 45 44 47 45
REMARK SMILES IDX 40 46 41 47 42 48 43 49 44 50 70 51 71 52 80 53 72 54 73 55
REMARK SMILES IDX 79 56 81 57 74 58 75 59 76 60 77 61 78 62 54 63 55 64 64 65
REMARK SMILES IDX 56 66 57 67 63 68 65 69 58 70 59 71 60 72 61 73 62 74 6 75
REMARK SMILES IDX 7 76 8 77 9 78 10 80 11 81 12 82 26 83 13 84 14 85 15 86
REMARK SMILES IDX 16 88 17 89 25 90 18 91 24 92 19 93 23 94 20 95 22 96 21 97
REMARK H PARENT 3 6 86 24 52 35 8 79 15 87
REMARK Flexibility Score: inf
ROOT
ATOM      1  C   UNL A   1      38.225  19.887  25.079  1.00  0.00     0.023 C 
ENDROOT
BRANCH   1   2
ATOM      2  C   UNL A   1      39.430  20.233  25.947  1.00  0.00     0.116 C 
BRANCH   2   3
ATOM      3  N   UNL A   1      40.461  19.207  25.955  1.00  0.00    -0.352 N 
ATOM      4  O   UNL A   1      42.589  18.448  26.004  1.00  0.00    -0.269 OA
ATOM      5  C   UNL A   1      41.813  19.386  26.126  1.00  0.00     0.251 C 
ATOM      6  H   UNL A   1      40.155  18.280  25.822  1.00  0.00     0.163 HD
BRANCH   5   7
ATOM      7  C   UNL A   1      42.307  20.746  26.422  1.00  0.00     0.039 A 
ATOM      8  C   UNL A   1      42.621  21.621  25.378  1.00  0.00     0.014 A 
ATOM      9  C   UNL A   1      42.490  21.126  27.753  1.00  0.00     0.014 A 
ATOM     10  C   UNL A   1      43.215  22.844  25.664  1.00  0.00     0.010 A 
ATOM     11  C   UNL A   1      43.028  22.382  28.040  1.00  0.00     0.010 A 
ATOM     12  C   UNL A   1      43.404  23.242  26.997  1.00  0.00    -0.014 A 
BRANCH  12  13
ATOM     13  C   UNL A   1      43.885  24.614  27.282  1.00  0.00     0.031 A 
ATOM     14  C   UNL A   1      42.948  25.690  27.747  1.00  0.00     0.074 A 
ATOM     15  C   UNL A   1      45.194  24.872  27.093  1.00  0.00     0.049 A 
ATOM     16  N   UNL A   1      43.207  26.948  27.996  1.00  0.00    -0.248 NA
ATOM     17  C   UNL A   1      41.540  25.316  27.955  1.00  0.00     0.031 C 
ATOM     18  C   UNL A   1      46.182  23.897  26.618  1.00  0.00     0.029 A 
ATOM     19  N   UNL A   1      45.921  26.019  27.268  1.00  0.00    -0.354 N 
ATOM     20  C   UNL A   1      41.998  27.523  28.365  1.00  0.00     0.074 A 
ATOM     21  C   UNL A   1      40.999  26.477  28.304  1.00  0.00     0.031 C 
ATOM     22  C   UNL A   1      47.384  24.484  26.549  1.00  0.00     0.029 A 
ATOM     23  C   UNL A   1      47.244  25.887  26.920  1.00  0.00     0.049 A 
ATOM     24  H   UNL A   1      45.533  26.858  27.608  1.00  0.00     0.167 HD
ATOM     25  C   UNL A   1      41.755  28.806  28.721  1.00  0.00     0.037 A 
ATOM     26  C   UNL A   1      48.229  26.801  26.867  1.00  0.00     0.037 A 
ATOM     27  C   UNL A   1      42.770  29.825  28.806  1.00  0.00     0.049 A 
ATOM     28  C   UNL A   1      47.922  28.219  27.250  1.00  0.00     0.074 A 
ATOM     29  C   UNL A   1      42.643  31.130  29.250  1.00  0.00     0.029 A 
ATOM     30  N   UNL A   1      44.095  29.660  28.427  1.00  0.00    -0.354 N 
ATOM     31  N   UNL A   1      46.786  28.728  27.663  1.00  0.00    -0.248 NA
ATOM     32  C   UNL A   1      49.020  29.188  27.148  1.00  0.00     0.031 C 
ATOM     33  C   UNL A   1      43.879  31.767  29.095  1.00  0.00     0.029 A 
ATOM     34  C   UNL A   1      44.785  30.849  28.589  1.00  0.00     0.049 A 
ATOM     35  H   UNL A   1      44.486  28.820  28.093  1.00  0.00     0.167 HD
ATOM     36  C   UNL A   1      47.031  30.079  27.864  1.00  0.00     0.074 A 
ATOM     37  C   UNL A   1      48.429  30.301  27.557  1.00  0.00     0.031 C 
ATOM     38  C   UNL A   1      46.173  31.050  28.260  1.00  0.00     0.037 A 
BRANCH  25  39
ATOM     39  C   UNL A   1      40.343  29.206  29.039  1.00  0.00     0.058 A 
ATOM     40  C   UNL A   1      39.912  29.408  30.359  1.00  0.00     0.135 A 
ATOM     41  C   UNL A   1      39.441  29.500  28.003  1.00  0.00     0.135 A 
ATOM     42  F   UNL A   1      40.730  29.130  31.386  1.00  0.00    -0.206 F 
ATOM     43  C   UNL A   1      38.637  29.891  30.641  1.00  0.00     0.059 A 
ATOM     44  C   UNL A   1      38.166  29.998  28.261  1.00  0.00     0.059 A 
ATOM     45  F   UNL A   1      39.803  29.320  26.722  1.00  0.00    -0.206 F 
ATOM     46  C   UNL A   1      37.773  30.188  29.584  1.00  0.00     0.060 A 
BRANCH  46  47
ATOM     47  S   UNL A   1      36.142  30.863  29.966  1.00  0.00     0.124 S 
ATOM     48  O   UNL A   1      35.854  30.222  31.245  1.00  0.00    -0.237 OA
ATOM     49  O   UNL A   1      36.402  32.299  30.021  1.00  0.00    -0.237 OA
ATOM     50  O   UNL A   1      35.320  30.421  28.844  1.00  0.00    -0.744 OA
ENDBRANCH  46  47
ENDBRANCH  25  39
BRANCH  26  51
ATOM     51  C   UNL A   1      49.575  26.408  26.382  1.00  0.00     0.058 A 
ATOM     52  C   UNL A   1      49.953  26.605  25.047  1.00  0.00     0.135 A 
ATOM     53  C   UNL A   1      50.517  25.841  27.255  1.00  0.00     0.135 A 
ATOM     54  F   UNL A   1      49.085  27.142  24.176  1.00  0.00    -0.206 F 
ATOM     55  C   UNL A   1      51.214  26.239  24.589  1.00  0.00     0.059 A 
ATOM     56  C   UNL A   1      51.791  25.490  26.827  1.00  0.00     0.059 A 
ATOM     57  F   UNL A   1      50.208  25.651  28.547  1.00  0.00    -0.206 F 
ATOM     58  C   UNL A   1      52.127  25.680  25.487  1.00  0.00     0.060 A 
BRANCH  58  59
ATOM     59  S   UNL A   1      53.775  25.238  24.898  1.00  0.00     0.124 S 
ATOM     60  O   UNL A   1      54.621  25.858  25.910  1.00  0.00    -0.237 OA
ATOM     61  O   UNL A   1      53.729  23.779  24.909  1.00  0.00    -0.237 OA
ATOM     62  O   UNL A   1      53.826  25.844  23.571  1.00  0.00    -0.744 OA
ENDBRANCH  58  59
ENDBRANCH  26  51
BRANCH  38  63
ATOM     63  C   UNL A   1      46.724  32.442  28.364  1.00  0.00     0.058 A 
ATOM     64  C   UNL A   1      46.599  33.352  27.304  1.00  0.00     0.135 A 
ATOM     65  C   UNL A   1      47.348  32.879  29.543  1.00  0.00     0.135 A 
ATOM     66  F   UNL A   1      46.022  32.973  26.154  1.00  0.00    -0.206 F 
ATOM     67  C   UNL A   1      47.088  34.649  27.404  1.00  0.00     0.059 A 
ATOM     68  C   UNL A   1      47.825  34.179  29.671  1.00  0.00     0.059 A 
ATOM     69  F   UNL A   1      47.486  32.045  30.585  1.00  0.00    -0.206 F 
ATOM     70  C   UNL A   1      47.699  35.053  28.592  1.00  0.00     0.060 A 
BRANCH  70  71
ATOM     71  S   UNL A   1      48.299  36.751  28.723  1.00  0.00     0.124 S 
ATOM     72  O   UNL A   1      49.624  36.641  28.122  1.00  0.00    -0.237 OA
ATOM     73  O   UNL A   1      47.310  37.494  27.948  1.00  0.00    -0.237 OA
ATOM     74  O   UNL A   1      48.279  37.006  30.160  1.00  0.00    -0.744 OA
ENDBRANCH  70  71
ENDBRANCH  38  63
ENDBRANCH  12  13
ENDBRANCH   5   7
ENDBRANCH   2   3
ENDBRANCH   1   2
BRANCH   1  75
ATOM     75  C   UNL A   1      37.335  21.073  24.708  1.00  0.00     0.023 C 
BRANCH  75  76
ATOM     76  C   UNL A   1      36.202  21.346  25.697  1.00  0.00     0.116 C 
BRANCH  76  77
ATOM     77  N   UNL A   1      34.899  21.272  25.075  1.00  0.00    -0.356 N 
ATOM     78  C   UNL A   1      34.177  22.136  24.321  1.00  0.00     0.227 C 
ATOM     79  H   UNL A   1      34.440  20.415  25.232  1.00  0.00     0.163 HD
ATOM     80  O   UNL A   1      33.087  21.706  23.914  1.00  0.00    -0.274 OA
BRANCH  78  81
ATOM     81  C   UNL A   1      34.598  23.561  23.928  1.00  0.00     0.103 C 
ATOM     82  C   UNL A   1      34.638  24.456  25.141  1.00  0.00    -0.016 C 
ATOM     83  C   UNL A   1      33.807  24.421  22.949  1.00  0.00     0.046 C 
ATOM     84  C   UNL A   1      33.756  25.461  25.053  1.00  0.00    -0.006 C 
ATOM     85  C   UNL A   1      32.936  25.350  23.814  1.00  0.00     0.104 C 
BRANCH  85  86
ATOM     86  N   UNL A   1      32.776  26.620  23.163  1.00  0.00    -0.364 N 
ATOM     87  H   UNL A   1      33.546  27.096  22.775  1.00  0.00     0.162 HD
BRANCH  86  88
ATOM     88  C   UNL A   1      31.502  27.150  23.103  1.00  0.00     0.127 A 
ATOM     89  C   UNL A   1      30.456  26.484  23.726  1.00  0.00     0.047 A 
ATOM     90  N   UNL A   1      31.328  28.348  22.511  1.00  0.00    -0.231 NA
ATOM     91  C   UNL A   1      29.189  27.059  23.728  1.00  0.00     0.014 A 
ATOM     92  C   UNL A   1      30.097  28.891  22.472  1.00  0.00     0.073 A 
ATOM     93  C   UNL A   1      28.983  28.279  23.080  1.00  0.00     0.000 A 
ATOM     94  C   UNL A   1      29.899  30.095  21.808  1.00  0.00     0.029 A 
ATOM     95  C   UNL A   1      27.717  28.887  23.022  1.00  0.00     0.010 A 
ATOM     96  C   UNL A   1      28.637  30.697  21.732  1.00  0.00     0.002 A 
ATOM     97  C   UNL A   1      27.546  30.092  22.344  1.00  0.00     0.001 A 
ENDBRANCH  86  88
ENDBRANCH  85  86
ENDBRANCH  78  81
ENDBRANCH  76  77
ENDBRANCH  75  76
ENDBRANCH   1  75
TORSDOF 16
ENDMDL
