MODEL 1
REMARK VINA RESULT:     -13.8      0.000      0.000
REMARK SMILES Cc1cccc(NS(=O)(=O)c2ccc(Br)c(C(=O)NCCCCNC(=O)c3ccc(-c4c5nc(c(-c6c(F)cc(S(=O)(=O)[O-])cc6F)c6ccc([nH]6)c(-c6c(F)cc(S(=O)(=O)[O-])cc6F)c6nc(c(-c7c(F)cc(S(=O)(=O)[O-])cc7F)c7ccc4[nH]7)C=C6)C=C5)cc3)c2)c1
REMARK SMILES IDX 21 1 20 2 19 3 17 4 18 5 16 7 11 8 12 9 93 10 13 11 14 12
REMARK SMILES IDX 15 13 8 14 9 15 10 16 7 17 6 19 1 20 2 21 3 22 94 23 4 24
REMARK SMILES IDX 5 25 22 26 23 27 24 28 25 29 26 31 27 32 28 33 92 34 29 35
REMARK SMILES IDX 91 36 30 37 31 38 32 39 85 40 33 41 90 42 84 43 86 44 34 45
REMARK SMILES IDX 89 46 83 47 82 48 35 50 69 51 48 52 68 53 49 54 52 55 67 56
REMARK SMILES IDX 87 57 50 58 51 59 66 61 88 62 53 63 36 64 37 65 46 66 38 67
REMARK SMILES IDX 39 68 45 69 47 70 40 71 41 72 42 73 43 74 44 75 70 76 71 77
REMARK SMILES IDX 80 78 72 79 73 80 79 81 81 82 74 83 75 84 76 85 77 86 78 87
REMARK SMILES IDX 54 88 55 89 64 90 56 91 57 92 63 93 65 94 58 95 59 96 60 97
REMARK SMILES IDX 61 98 62 99
REMARK H PARENT 19 6 7 18 24 30 86 49 52 60
REMARK Flexibility Score: inf
ROOT
ATOM      1  C   UNL A   1      32.305  30.097  26.892  1.00  0.00     0.023 C 
ENDROOT
BRANCH   1   2
ATOM      2  C   UNL A   1      31.878  29.953  25.433  1.00  0.00     0.116 C 
BRANCH   2   3
ATOM      3  N   UNL A   1      32.940  29.692  24.464  1.00  0.00    -0.352 N 
ATOM      4  C   UNL A   1      33.105  28.685  23.531  1.00  0.00     0.252 C 
ATOM      5  O   UNL A   1      34.059  28.755  22.755  1.00  0.00    -0.269 OA
ATOM      6  H   UNL A   1      33.671  30.352  24.478  1.00  0.00     0.163 HD
BRANCH   4   7
ATOM      7  C   UNL A   1      32.275  27.448  23.526  1.00  0.00     0.055 A 
ATOM      8  C   UNL A   1      32.239  25.023  23.757  1.00  0.00     0.088 A 
ATOM      9  C   UNL A   1      30.927  25.086  24.209  1.00  0.00     0.023 A 
ATOM     10  C   UNL A   1      32.947  26.213  23.521  1.00  0.00     0.037 A 
ATOM     11  C   UNL A   1      30.223  26.274  24.014  1.00  0.00     0.018 A 
ATOM     12  C   UNL A   1      30.884  27.409  23.535  1.00  0.00     0.030 A 
ATOM     13  Br  UNL A   1      29.828  28.673  22.574  1.00  0.00    -0.050 Br
BRANCH   8  14
ATOM     14  S   UNL A   1      32.988  23.479  23.302  1.00  0.00     0.261 S 
ATOM     15  O   UNL A   1      34.113  23.804  22.446  1.00  0.00    -0.201 OA
ATOM     16  O   UNL A   1      31.935  22.608  22.824  1.00  0.00    -0.201 OA
BRANCH  14  17
ATOM     17  N   UNL A   1      33.678  22.678  24.631  1.00  0.00    -0.280 N 
ATOM     18  H   UNL A   1      33.061  22.200  25.231  1.00  0.00     0.180 HD
BRANCH  17  19
ATOM     19  C   UNL A   1      35.069  22.632  24.962  1.00  0.00     0.049 A 
ATOM     20  C   UNL A   1      37.789  19.951  24.867  1.00  0.00     0.044 C 
ATOM     21  C   UNL A   1      37.098  21.271  25.047  1.00  0.00    -0.049 A 
ATOM     22  C   UNL A   1      37.821  22.399  25.438  1.00  0.00     0.003 A 
ATOM     23  C   UNL A   1      35.726  21.403  24.791  1.00  0.00     0.030 A 
ATOM     24  C   UNL A   1      37.157  23.600  25.696  1.00  0.00     0.002 A 
ATOM     25  C   UNL A   1      35.771  23.695  25.522  1.00  0.00     0.027 A 
ENDBRANCH  17  19
ENDBRANCH  14  17
ENDBRANCH   8  14
ENDBRANCH   4   7
ENDBRANCH   2   3
ENDBRANCH   1   2
BRANCH   1  26
ATOM     26  C   UNL A   1      33.691  30.667  27.135  1.00  0.00     0.023 C 
BRANCH  26  27
ATOM     27  C   UNL A   1      34.411  30.123  28.367  1.00  0.00     0.116 C 
BRANCH  27  28
ATOM     28  N   UNL A   1      35.272  31.093  29.040  1.00  0.00    -0.352 N 
ATOM     29  C   UNL A   1      36.557  30.901  29.536  1.00  0.00     0.251 C 
ATOM     30  H   UNL A   1      34.897  31.995  29.157  1.00  0.00     0.163 HD
ATOM     31  O   UNL A   1      37.151  31.742  30.189  1.00  0.00    -0.269 OA
BRANCH  29  32
ATOM     32  C   UNL A   1      37.253  29.661  29.132  1.00  0.00     0.039 A 
ATOM     33  C   UNL A   1      37.576  28.757  30.149  1.00  0.00     0.014 A 
ATOM     34  C   UNL A   1      37.868  29.596  27.886  1.00  0.00     0.014 A 
ATOM     35  C   UNL A   1      38.698  27.952  29.998  1.00  0.00     0.010 A 
ATOM     36  C   UNL A   1      39.049  28.885  27.784  1.00  0.00     0.010 A 
ATOM     37  C   UNL A   1      39.499  28.118  28.865  1.00  0.00    -0.014 A 
BRANCH  37  38
ATOM     38  C   UNL A   1      40.878  27.645  28.822  1.00  0.00     0.031 A 
ATOM     39  C   UNL A   1      41.187  26.290  28.321  1.00  0.00     0.074 A 
ATOM     40  C   UNL A   1      41.882  28.417  29.301  1.00  0.00     0.049 A 
ATOM     41  N   UNL A   1      42.113  25.540  28.822  1.00  0.00    -0.248 NA
ATOM     42  C   UNL A   1      40.440  25.648  27.243  1.00  0.00     0.031 C 
ATOM     43  C   UNL A   1      43.313  28.146  29.212  1.00  0.00     0.029 A 
ATOM     44  N   UNL A   1      41.788  29.514  30.165  1.00  0.00    -0.354 N 
ATOM     45  C   UNL A   1      42.251  24.453  27.993  1.00  0.00     0.074 A 
ATOM     46  C   UNL A   1      41.144  24.525  27.068  1.00  0.00     0.031 C 
ATOM     47  C   UNL A   1      43.947  28.850  30.162  1.00  0.00     0.029 A 
ATOM     48  C   UNL A   1      42.942  29.525  30.965  1.00  0.00     0.049 A 
ATOM     49  H   UNL A   1      41.048  30.161  30.204  1.00  0.00     0.167 HD
ATOM     50  C   UNL A   1      43.360  23.669  28.060  1.00  0.00     0.037 A 
ATOM     51  C   UNL A   1      42.868  29.471  32.325  1.00  0.00     0.037 A 
ATOM     52  C   UNL A   1      44.307  24.153  29.055  1.00  0.00     0.049 A 
ATOM     53  C   UNL A   1      43.495  28.233  32.923  1.00  0.00     0.074 A 
ATOM     54  C   UNL A   1      45.408  24.990  28.952  1.00  0.00     0.029 A 
ATOM     55  N   UNL A   1      43.997  24.080  30.408  1.00  0.00    -0.354 N 
ATOM     56  N   UNL A   1      43.810  27.172  32.231  1.00  0.00    -0.248 NA
ATOM     57  C   UNL A   1      43.815  28.083  34.339  1.00  0.00     0.031 C 
ATOM     58  C   UNL A   1      45.722  25.470  30.245  1.00  0.00     0.029 A 
ATOM     59  C   UNL A   1      44.834  24.902  31.141  1.00  0.00     0.049 A 
ATOM     60  H   UNL A   1      43.281  23.521  30.791  1.00  0.00     0.167 HD
ATOM     61  C   UNL A   1      44.341  26.214  33.061  1.00  0.00     0.074 A 
ATOM     62  C   UNL A   1      44.343  26.845  34.368  1.00  0.00     0.031 C 
ATOM     63  C   UNL A   1      44.733  24.990  32.592  1.00  0.00     0.037 A 
BRANCH  50  64
ATOM     64  C   UNL A   1      43.668  22.690  26.961  1.00  0.00     0.058 A 
ATOM     65  C   UNL A   1      42.981  21.466  26.852  1.00  0.00     0.135 A 
ATOM     66  C   UNL A   1      44.710  22.888  26.032  1.00  0.00     0.135 A 
ATOM     67  F   UNL A   1      41.943  21.173  27.646  1.00  0.00    -0.206 F 
ATOM     68  C   UNL A   1      43.359  20.470  25.953  1.00  0.00     0.059 A 
ATOM     69  C   UNL A   1      45.136  21.889  25.151  1.00  0.00     0.059 A 
ATOM     70  F   UNL A   1      45.369  24.059  25.986  1.00  0.00    -0.206 F 
ATOM     71  C   UNL A   1      44.458  20.675  25.128  1.00  0.00     0.060 A 
BRANCH  71  72
ATOM     72  S   UNL A   1      45.012  19.316  24.077  1.00  0.00     0.124 S 
ATOM     73  O   UNL A   1      46.462  19.367  24.241  1.00  0.00    -0.237 OA
ATOM     74  O   UNL A   1      44.344  18.172  24.687  1.00  0.00    -0.237 OA
ATOM     75  O   UNL A   1      44.528  19.695  22.752  1.00  0.00    -0.744 OA
ENDBRANCH  71  72
ENDBRANCH  50  64
BRANCH  51  76
ATOM     76  C   UNL A   1      41.765  30.282  32.901  1.00  0.00     0.058 A 
ATOM     77  C   UNL A   1      40.581  29.606  33.248  1.00  0.00     0.135 A 
ATOM     78  C   UNL A   1      41.974  31.545  33.471  1.00  0.00     0.135 A 
ATOM     79  F   UNL A   1      40.310  28.410  32.700  1.00  0.00    -0.206 F 
ATOM     80  C   UNL A   1      39.720  30.081  34.231  1.00  0.00     0.059 A 
ATOM     81  C   UNL A   1      41.121  32.046  34.460  1.00  0.00     0.059 A 
ATOM     82  F   UNL A   1      43.071  32.251  33.160  1.00  0.00    -0.206 F 
ATOM     83  C   UNL A   1      40.037  31.271  34.880  1.00  0.00     0.060 A 
BRANCH  83  84
ATOM     84  S   UNL A   1      39.065  31.731  36.335  1.00  0.00     0.124 S 
ATOM     85  O   UNL A   1      38.316  32.889  35.855  1.00  0.00    -0.237 OA
ATOM     86  O   UNL A   1      38.269  30.522  36.551  1.00  0.00    -0.237 OA
ATOM     87  O   UNL A   1      40.082  32.016  37.337  1.00  0.00    -0.744 OA
ENDBRANCH  83  84
ENDBRANCH  51  76
BRANCH  63  88
ATOM     88  C   UNL A   1      45.173  23.791  33.409  1.00  0.00     0.058 A 
ATOM     89  C   UNL A   1      46.467  23.610  33.926  1.00  0.00     0.135 A 
ATOM     90  C   UNL A   1      44.219  22.824  33.823  1.00  0.00     0.135 A 
ATOM     91  F   UNL A   1      47.442  24.499  33.699  1.00  0.00    -0.206 F 
ATOM     92  C   UNL A   1      46.802  22.529  34.748  1.00  0.00     0.059 A 
ATOM     93  C   UNL A   1      44.518  21.775  34.688  1.00  0.00     0.059 A 
ATOM     94  F   UNL A   1      42.943  22.873  33.411  1.00  0.00    -0.206 F 
ATOM     95  C   UNL A   1      45.820  21.620  35.131  1.00  0.00     0.060 A 
BRANCH  95  96
ATOM     96  S   UNL A   1      46.214  20.277  36.265  1.00  0.00     0.124 S 
ATOM     97  O   UNL A   1      45.601  20.749  37.503  1.00  0.00    -0.237 OA
ATOM     98  O   UNL A   1      45.568  19.125  35.643  1.00  0.00    -0.237 OA
ATOM     99  O   UNL A   1      47.673  20.249  36.250  1.00  0.00    -0.744 OA
ENDBRANCH  95  96
ENDBRANCH  63  88
ENDBRANCH  37  38
ENDBRANCH  29  32
ENDBRANCH  27  28
ENDBRANCH  26  27
ENDBRANCH   1  26
TORSDOF 17
ENDMDL
MODEL 2
REMARK VINA RESULT:     -13.7      5.016     11.602
REMARK SMILES Cc1cccc(NS(=O)(=O)c2ccc(Br)c(C(=O)NCCCCNC(=O)c3ccc(-c4c5nc(c(-c6c(F)cc(S(=O)(=O)[O-])cc6F)c6ccc([nH]6)c(-c6c(F)cc(S(=O)(=O)[O-])cc6F)c6nc(c(-c7c(F)cc(S(=O)(=O)[O-])cc7F)c7ccc4[nH]7)C=C6)C=C5)cc3)c2)c1
REMARK SMILES IDX 21 1 20 2 19 3 17 4 18 5 16 7 11 8 12 9 93 10 13 11 14 12
REMARK SMILES IDX 15 13 8 14 9 15 10 16 7 17 6 19 1 20 2 21 3 22 94 23 4 24
REMARK SMILES IDX 5 25 22 26 23 27 24 28 25 29 26 31 27 32 28 33 92 34 29 35
REMARK SMILES IDX 91 36 30 37 31 38 32 39 85 40 33 41 90 42 84 43 86 44 34 45
REMARK SMILES IDX 89 46 83 47 82 48 35 50 69 51 48 52 68 53 49 54 52 55 67 56
REMARK SMILES IDX 87 57 50 58 51 59 66 61 88 62 53 63 36 64 37 65 46 66 38 67
REMARK SMILES IDX 39 68 45 69 47 70 40 71 41 72 42 73 43 74 44 75 70 76 71 77
REMARK SMILES IDX 80 78 72 79 73 80 79 81 81 82 74 83 75 84 76 85 77 86 78 87
REMARK SMILES IDX 54 88 55 89 64 90 56 91 57 92 63 93 65 94 58 95 59 96 60 97
REMARK SMILES IDX 61 98 62 99
REMARK H PARENT 19 6 7 18 24 30 86 49 52 60
REMARK Flexibility Score: inf
ROOT
ATOM      1  C   UNL A   1      37.534  21.452  24.800  1.00  0.00     0.023 C 
ENDROOT
BRANCH   1   2
ATOM      2  C   UNL A   1      36.213  20.837  25.258  1.00  0.00     0.116 C 
BRANCH   2   3
ATOM      3  N   UNL A   1      35.536  21.498  26.372  1.00  0.00    -0.352 N 
ATOM      4  C   UNL A   1      34.360  22.221  26.434  1.00  0.00     0.252 C 
ATOM      5  O   UNL A   1      33.956  22.592  27.537  1.00  0.00    -0.269 OA
ATOM      6  H   UNL A   1      36.003  21.411  27.235  1.00  0.00     0.163 HD
BRANCH   4   7
ATOM      7  C   UNL A   1      33.648  22.705  25.218  1.00  0.00     0.055 A 
ATOM      8  C   UNL A   1      32.965  24.632  23.894  1.00  0.00     0.088 A 
ATOM      9  C   UNL A   1      32.969  23.846  22.748  1.00  0.00     0.023 A 
ATOM     10  C   UNL A   1      33.410  24.086  25.109  1.00  0.00     0.037 A 
ATOM     11  C   UNL A   1      33.004  22.460  22.904  1.00  0.00     0.018 A 
ATOM     12  C   UNL A   1      33.202  21.903  24.172  1.00  0.00     0.030 A 
ATOM     13  Br  UNL A   1      32.481  20.162  24.464  1.00  0.00    -0.050 Br
BRANCH   8  14
ATOM     14  S   UNL A   1      32.244  26.255  23.899  1.00  0.00     0.261 S 
ATOM     15  O   UNL A   1      30.903  26.111  23.368  1.00  0.00    -0.201 OA
ATOM     16  O   UNL A   1      33.188  27.153  23.265  1.00  0.00    -0.201 OA
BRANCH  14  17
ATOM     17  N   UNL A   1      32.022  26.858  25.470  1.00  0.00    -0.280 N 
ATOM     18  H   UNL A   1      31.442  26.335  26.069  1.00  0.00     0.180 HD
BRANCH  17  19
ATOM     19  C   UNL A   1      32.597  28.053  26.006  1.00  0.00     0.049 A 
ATOM     20  C   UNL A   1      31.403  31.649  26.501  1.00  0.00     0.044 C 
ATOM     21  C   UNL A   1      32.260  30.418  26.531  1.00  0.00    -0.049 A 
ATOM     22  C   UNL A   1      33.518  30.448  27.136  1.00  0.00     0.003 A 
ATOM     23  C   UNL A   1      31.800  29.209  25.988  1.00  0.00     0.030 A 
ATOM     24  C   UNL A   1      34.349  29.327  27.075  1.00  0.00     0.002 A 
ATOM     25  C   UNL A   1      33.912  28.152  26.451  1.00  0.00     0.027 A 
ENDBRANCH  17  19
ENDBRANCH  14  17
ENDBRANCH   8  14
ENDBRANCH   4   7
ENDBRANCH   2   3
ENDBRANCH   1   2
BRANCH   1  26
ATOM     26  C   UNL A   1      38.610  21.603  25.861  1.00  0.00     0.023 C 
BRANCH  26  27
ATOM     27  C   UNL A   1      38.967  23.043  26.223  1.00  0.00     0.116 C 
BRANCH  27  28
ATOM     28  N   UNL A   1      40.389  23.267  26.471  1.00  0.00    -0.352 N 
ATOM     29  C   UNL A   1      41.028  24.462  26.786  1.00  0.00     0.251 C 
ATOM     30  H   UNL A   1      40.968  22.474  26.407  1.00  0.00     0.163 HD
ATOM     31  O   UNL A   1      42.240  24.570  26.858  1.00  0.00    -0.269 OA
BRANCH  29  32
ATOM     32  C   UNL A   1      40.167  25.603  27.163  1.00  0.00     0.039 A 
ATOM     33  C   UNL A   1      40.406  26.817  26.513  1.00  0.00     0.014 A 
ATOM     34  C   UNL A   1      39.438  25.548  28.347  1.00  0.00     0.014 A 
ATOM     35  C   UNL A   1      40.133  28.002  27.187  1.00  0.00     0.010 A 
ATOM     36  C   UNL A   1      39.278  26.719  29.063  1.00  0.00     0.010 A 
ATOM     37  C   UNL A   1      39.689  27.937  28.510  1.00  0.00    -0.014 A 
BRANCH  37  38
ATOM     38  C   UNL A   1      39.783  29.083  29.409  1.00  0.00     0.031 A 
ATOM     39  C   UNL A   1      38.715  30.102  29.434  1.00  0.00     0.074 A 
ATOM     40  C   UNL A   1      40.880  29.256  30.183  1.00  0.00     0.049 A 
ATOM     41  N   UNL A   1      38.940  31.365  29.594  1.00  0.00    -0.248 NA
ATOM     42  C   UNL A   1      37.304  29.786  29.229  1.00  0.00     0.031 C 
ATOM     43  C   UNL A   1      41.069  30.267  31.219  1.00  0.00     0.029 A 
ATOM     44  N   UNL A   1      42.143  28.673  30.032  1.00  0.00    -0.354 N 
ATOM     45  C   UNL A   1      37.723  31.978  29.764  1.00  0.00     0.074 A 
ATOM     46  C   UNL A   1      36.732  30.973  29.456  1.00  0.00     0.031 C 
ATOM     47  C   UNL A   1      42.384  30.429  31.431  1.00  0.00     0.029 A 
ATOM     48  C   UNL A   1      43.098  29.604  30.472  1.00  0.00     0.049 A 
ATOM     49  H   UNL A   1      42.329  27.772  29.680  1.00  0.00     0.167 HD
ATOM     50  C   UNL A   1      37.648  33.232  30.287  1.00  0.00     0.037 A 
ATOM     51  C   UNL A   1      44.093  30.047  29.653  1.00  0.00     0.037 A 
ATOM     52  C   UNL A   1      38.962  33.755  30.634  1.00  0.00     0.049 A 
ATOM     53  C   UNL A   1      44.029  31.528  29.359  1.00  0.00     0.074 A 
ATOM     54  C   UNL A   1      39.676  33.746  31.822  1.00  0.00     0.029 A 
ATOM     55  N   UNL A   1      39.873  34.072  29.632  1.00  0.00    -0.354 N 
ATOM     56  N   UNL A   1      42.983  32.271  29.597  1.00  0.00    -0.248 NA
ATOM     57  C   UNL A   1      45.126  32.292  28.773  1.00  0.00     0.031 C 
ATOM     58  C   UNL A   1      41.035  34.000  31.524  1.00  0.00     0.029 A 
ATOM     59  C   UNL A   1      41.146  34.194  30.159  1.00  0.00     0.049 A 
ATOM     60  H   UNL A   1      39.644  34.192  28.681  1.00  0.00     0.167 HD
ATOM     61  C   UNL A   1      43.230  33.564  29.204  1.00  0.00     0.074 A 
ATOM     62  C   UNL A   1      44.596  33.528  28.716  1.00  0.00     0.031 C 
ATOM     63  C   UNL A   1      42.285  34.546  29.321  1.00  0.00     0.037 A 
BRANCH  50  64
ATOM     64  C   UNL A   1      36.332  33.776  30.773  1.00  0.00     0.058 A 
ATOM     65  C   UNL A   1      35.331  34.191  29.873  1.00  0.00     0.135 A 
ATOM     66  C   UNL A   1      36.051  33.988  32.137  1.00  0.00     0.135 A 
ATOM     67  F   UNL A   1      35.457  34.007  28.553  1.00  0.00    -0.206 F 
ATOM     68  C   UNL A   1      34.178  34.855  30.288  1.00  0.00     0.059 A 
ATOM     69  C   UNL A   1      34.922  34.689  32.575  1.00  0.00     0.059 A 
ATOM     70  F   UNL A   1      36.895  33.544  33.084  1.00  0.00    -0.206 F 
ATOM     71  C   UNL A   1      33.995  35.130  31.638  1.00  0.00     0.060 A 
BRANCH  71  72
ATOM     72  S   UNL A   1      32.565  36.115  32.130  1.00  0.00     0.124 S 
ATOM     73  O   UNL A   1      32.241  36.829  30.898  1.00  0.00    -0.237 OA
ATOM     74  O   UNL A   1      31.615  35.087  32.536  1.00  0.00    -0.237 OA
ATOM     75  O   UNL A   1      33.086  36.952  33.208  1.00  0.00    -0.744 OA
ENDBRANCH  71  72
ENDBRANCH  50  64
BRANCH  51  76
ATOM     76  C   UNL A   1      44.681  28.989  28.792  1.00  0.00     0.058 A 
ATOM     77  C   UNL A   1      44.171  28.863  27.486  1.00  0.00     0.135 A 
ATOM     78  C   UNL A   1      45.931  28.412  29.052  1.00  0.00     0.135 A 
ATOM     79  F   UNL A   1      42.960  29.362  27.192  1.00  0.00    -0.206 F 
ATOM     80  C   UNL A   1      44.926  28.332  26.446  1.00  0.00     0.059 A 
ATOM     81  C   UNL A   1      46.708  27.869  28.022  1.00  0.00     0.059 A 
ATOM     82  F   UNL A   1      46.460  28.475  30.283  1.00  0.00    -0.206 F 
ATOM     83  C   UNL A   1      46.222  27.899  26.714  1.00  0.00     0.060 A 
BRANCH  83  84
ATOM     84  S   UNL A   1      47.281  27.472  25.310  1.00  0.00     0.124 S 
ATOM     85  O   UNL A   1      48.592  27.340  25.939  1.00  0.00    -0.237 OA
ATOM     86  O   UNL A   1      46.679  26.216  24.860  1.00  0.00    -0.237 OA
ATOM     87  O   UNL A   1      47.127  28.613  24.419  1.00  0.00    -0.744 OA
ENDBRANCH  83  84
ENDBRANCH  51  76
BRANCH  63  88
ATOM     88  C   UNL A   1      42.358  35.961  28.779  1.00  0.00     0.058 A 
ATOM     89  C   UNL A   1      43.030  37.022  29.409  1.00  0.00     0.135 A 
ATOM     90  C   UNL A   1      41.846  36.255  27.488  1.00  0.00     0.135 A 
ATOM     91  F   UNL A   1      43.647  36.859  30.586  1.00  0.00    -0.206 F 
ATOM     92  C   UNL A   1      43.144  38.289  28.827  1.00  0.00     0.059 A 
ATOM     93  C   UNL A   1      42.000  37.491  26.866  1.00  0.00     0.059 A 
ATOM     94  F   UNL A   1      41.185  35.337  26.767  1.00  0.00    -0.206 F 
ATOM     95  C   UNL A   1      42.633  38.514  27.552  1.00  0.00     0.060 A 
BRANCH  95  96
ATOM     96  S   UNL A   1      42.854  40.112  26.750  1.00  0.00     0.124 S 
ATOM     97  O   UNL A   1      43.941  39.825  25.820  1.00  0.00    -0.237 OA
ATOM     98  O   UNL A   1      41.551  40.353  26.139  1.00  0.00    -0.237 OA
ATOM     99  O   UNL A   1      43.188  40.996  27.862  1.00  0.00    -0.744 OA
ENDBRANCH  95  96
ENDBRANCH  63  88
ENDBRANCH  37  38
ENDBRANCH  29  32
ENDBRANCH  27  28
ENDBRANCH  26  27
ENDBRANCH   1  26
TORSDOF 17
ENDMDL
MODEL 3
REMARK VINA RESULT:     -13.6      1.680      2.288
REMARK SMILES Cc1cccc(NS(=O)(=O)c2ccc(Br)c(C(=O)NCCCCNC(=O)c3ccc(-c4c5nc(c(-c6c(F)cc(S(=O)(=O)[O-])cc6F)c6ccc([nH]6)c(-c6c(F)cc(S(=O)(=O)[O-])cc6F)c6nc(c(-c7c(F)cc(S(=O)(=O)[O-])cc7F)c7ccc4[nH]7)C=C6)C=C5)cc3)c2)c1
REMARK SMILES IDX 21 1 20 2 19 3 17 4 18 5 16 7 11 8 12 9 93 10 13 11 14 12
REMARK SMILES IDX 15 13 8 14 9 15 10 16 7 17 6 19 1 20 2 21 3 22 94 23 4 24
REMARK SMILES IDX 5 25 22 26 23 27 24 28 25 29 26 31 27 32 28 33 92 34 29 35
REMARK SMILES IDX 91 36 30 37 31 38 32 39 85 40 33 41 90 42 84 43 86 44 34 45
REMARK SMILES IDX 89 46 83 47 82 48 35 50 69 51 48 52 68 53 49 54 52 55 67 56
REMARK SMILES IDX 87 57 50 58 51 59 66 61 88 62 53 63 36 64 37 65 46 66 38 67
REMARK SMILES IDX 39 68 45 69 47 70 40 71 41 72 42 73 43 74 44 75 70 76 71 77
REMARK SMILES IDX 80 78 72 79 73 80 79 81 81 82 74 83 75 84 76 85 77 86 78 87
REMARK SMILES IDX 54 88 55 89 64 90 56 91 57 92 63 93 65 94 58 95 59 96 60 97
REMARK SMILES IDX 61 98 62 99
REMARK H PARENT 19 6 7 18 24 30 86 49 52 60
REMARK Flexibility Score: inf
ROOT
ATOM      1  C   UNL A   1      33.783  28.964  27.660  1.00  0.00     0.023 C 
ENDROOT
BRANCH   1   2
ATOM      2  C   UNL A   1      32.848  28.207  26.720  1.00  0.00     0.116 C 
BRANCH   2   3
ATOM      3  N   UNL A   1      33.403  27.805  25.429  1.00  0.00    -0.352 N 
ATOM      4  C   UNL A   1      33.183  26.691  24.640  1.00  0.00     0.252 C 
ATOM      5  O   UNL A   1      33.714  26.643  23.530  1.00  0.00    -0.269 OA
ATOM      6  H   UNL A   1      34.053  28.443  25.053  1.00  0.00     0.163 HD
BRANCH   4   7
ATOM      7  C   UNL A   1      32.463  25.484  25.136  1.00  0.00     0.055 A 
ATOM      8  C   UNL A   1      32.654  23.276  26.147  1.00  0.00     0.088 A 
ATOM      9  C   UNL A   1      31.388  23.422  26.702  1.00  0.00     0.023 A 
ATOM     10  C   UNL A   1      33.233  24.352  25.456  1.00  0.00     0.037 A 
ATOM     11  C   UNL A   1      30.571  24.441  26.213  1.00  0.00     0.018 A 
ATOM     12  C   UNL A   1      31.088  25.383  25.317  1.00  0.00     0.030 A 
ATOM     13  Br  UNL A   1      29.844  26.201  24.125  1.00  0.00    -0.050 Br
BRANCH   8  14
ATOM     14  S   UNL A   1      33.484  21.707  26.137  1.00  0.00     0.261 S 
ATOM     15  O   UNL A   1      33.871  21.438  27.508  1.00  0.00    -0.201 OA
ATOM     16  O   UNL A   1      34.485  21.750  25.091  1.00  0.00    -0.201 OA
BRANCH  14  17
ATOM     17  N   UNL A   1      32.446  20.428  25.725  1.00  0.00    -0.280 N 
ATOM     18  H   UNL A   1      31.561  20.418  26.157  1.00  0.00     0.180 HD
BRANCH  17  19
ATOM     19  C   UNL A   1      32.733  19.366  24.812  1.00  0.00     0.049 A 
ATOM     20  C   UNL A   1      34.750  16.124  24.972  1.00  0.00     0.044 C 
ATOM     21  C   UNL A   1      33.861  17.224  24.468  1.00  0.00    -0.049 A 
ATOM     22  C   UNL A   1      33.290  17.143  23.197  1.00  0.00     0.003 A 
ATOM     23  C   UNL A   1      33.559  18.330  25.276  1.00  0.00     0.030 A 
ATOM     24  C   UNL A   1      32.544  18.213  22.698  1.00  0.00     0.002 A 
ATOM     25  C   UNL A   1      32.323  19.352  23.482  1.00  0.00     0.027 A 
ENDBRANCH  17  19
ENDBRANCH  14  17
ENDBRANCH   8  14
ENDBRANCH   4   7
ENDBRANCH   2   3
ENDBRANCH   1   2
BRANCH   1  26
ATOM     26  C   UNL A   1      33.716  30.480  27.600  1.00  0.00     0.023 C 
BRANCH  26  27
ATOM     27  C   UNL A   1      35.065  31.185  27.476  1.00  0.00     0.116 C 
BRANCH  27  28
ATOM     28  N   UNL A   1      35.598  31.694  28.737  1.00  0.00    -0.352 N 
ATOM     29  C   UNL A   1      36.496  31.077  29.601  1.00  0.00     0.251 C 
ATOM     30  H   UNL A   1      35.282  32.585  29.010  1.00  0.00     0.163 HD
ATOM     31  O   UNL A   1      36.791  31.533  30.693  1.00  0.00    -0.269 OA
BRANCH  29  32
ATOM     32  C   UNL A   1      37.199  29.880  29.094  1.00  0.00     0.039 A 
ATOM     33  C   UNL A   1      37.433  28.849  30.008  1.00  0.00     0.014 A 
ATOM     34  C   UNL A   1      37.901  29.956  27.895  1.00  0.00     0.014 A 
ATOM     35  C   UNL A   1      38.550  28.041  29.835  1.00  0.00     0.010 A 
ATOM     36  C   UNL A   1      39.075  29.235  27.786  1.00  0.00     0.010 A 
ATOM     37  C   UNL A   1      39.433  28.327  28.790  1.00  0.00    -0.014 A 
BRANCH  37  38
ATOM     38  C   UNL A   1      40.805  27.829  28.784  1.00  0.00     0.031 A 
ATOM     39  C   UNL A   1      41.098  26.459  28.316  1.00  0.00     0.074 A 
ATOM     40  C   UNL A   1      41.813  28.593  29.266  1.00  0.00     0.049 A 
ATOM     41  N   UNL A   1      42.001  25.703  28.849  1.00  0.00    -0.248 NA
ATOM     42  C   UNL A   1      40.361  25.809  27.235  1.00  0.00     0.031 C 
ATOM     43  C   UNL A   1      43.240  28.294  29.211  1.00  0.00     0.029 A 
ATOM     44  N   UNL A   1      41.723  29.708  30.106  1.00  0.00    -0.354 N 
ATOM     45  C   UNL A   1      42.135  24.598  28.045  1.00  0.00     0.074 A 
ATOM     46  C   UNL A   1      41.047  24.670  27.097  1.00  0.00     0.031 C 
ATOM     47  C   UNL A   1      43.869  29.006  30.159  1.00  0.00     0.029 A 
ATOM     48  C   UNL A   1      42.861  29.715  30.929  1.00  0.00     0.049 A 
ATOM     49  H   UNL A   1      40.993  30.369  30.119  1.00  0.00     0.167 HD
ATOM     50  C   UNL A   1      43.229  23.796  28.149  1.00  0.00     0.037 A 
ATOM     51  C   UNL A   1      42.760  29.690  32.288  1.00  0.00     0.037 A 
ATOM     52  C   UNL A   1      44.165  24.283  29.152  1.00  0.00     0.049 A 
ATOM     53  C   UNL A   1      43.353  28.453  32.922  1.00  0.00     0.074 A 
ATOM     54  C   UNL A   1      45.282  25.097  29.054  1.00  0.00     0.029 A 
ATOM     55  N   UNL A   1      43.827  24.241  30.500  1.00  0.00    -0.354 N 
ATOM     56  N   UNL A   1      43.662  27.373  32.258  1.00  0.00    -0.248 NA
ATOM     57  C   UNL A   1      43.643  28.325  34.347  1.00  0.00     0.031 C 
ATOM     58  C   UNL A   1      45.580  25.597  30.344  1.00  0.00     0.029 A 
ATOM     59  C   UNL A   1      44.665  25.064  31.233  1.00  0.00     0.049 A 
ATOM     60  H   UNL A   1      43.094  23.704  30.880  1.00  0.00     0.167 HD
ATOM     61  C   UNL A   1      44.159  26.422  33.116  1.00  0.00     0.074 A 
ATOM     62  C   UNL A   1      44.147  27.079  34.411  1.00  0.00     0.031 C 
ATOM     63  C   UNL A   1      44.538  25.183  32.679  1.00  0.00     0.037 A 
BRANCH  50  64
ATOM     64  C   UNL A   1      43.540  22.789  27.075  1.00  0.00     0.058 A 
ATOM     65  C   UNL A   1      42.847  21.566  26.990  1.00  0.00     0.135 A 
ATOM     66  C   UNL A   1      44.589  22.961  26.150  1.00  0.00     0.135 A 
ATOM     67  F   UNL A   1      41.802  21.297  27.783  1.00  0.00    -0.206 F 
ATOM     68  C   UNL A   1      43.227  20.548  26.118  1.00  0.00     0.059 A 
ATOM     69  C   UNL A   1      45.017  21.939  25.296  1.00  0.00     0.059 A 
ATOM     70  F   UNL A   1      45.254  24.127  26.081  1.00  0.00    -0.206 F 
ATOM     71  C   UNL A   1      44.333  20.728  25.297  1.00  0.00     0.060 A 
BRANCH  71  72
ATOM     72  S   UNL A   1      44.888  19.341  24.282  1.00  0.00     0.124 S 
ATOM     73  O   UNL A   1      44.202  18.210  24.901  1.00  0.00    -0.237 OA
ATOM     74  O   UNL A   1      44.412  19.726  22.959  1.00  0.00    -0.237 OA
ATOM     75  O   UNL A   1      46.338  19.353  24.459  1.00  0.00    -0.744 OA
ENDBRANCH  71  72
ENDBRANCH  50  64
BRANCH  51  76
ATOM     76  C   UNL A   1      41.661  30.531  32.826  1.00  0.00     0.058 A 
ATOM     77  C   UNL A   1      40.470  29.878  33.195  1.00  0.00     0.135 A 
ATOM     78  C   UNL A   1      41.877  31.814  33.346  1.00  0.00     0.135 A 
ATOM     79  F   UNL A   1      40.191  28.664  32.693  1.00  0.00    -0.206 F 
ATOM     80  C   UNL A   1      39.608  30.399  34.154  1.00  0.00     0.059 A 
ATOM     81  C   UNL A   1      41.023  32.360  34.311  1.00  0.00     0.059 A 
ATOM     82  F   UNL A   1      42.981  32.499  33.012  1.00  0.00    -0.206 F 
ATOM     83  C   UNL A   1      39.932  31.611  34.756  1.00  0.00     0.060 A 
BRANCH  83  84
ATOM     84  S   UNL A   1      38.957  32.136  36.187  1.00  0.00     0.124 S 
ATOM     85  O   UNL A   1      39.822  31.768  37.304  1.00  0.00    -0.237 OA
ATOM     86  O   UNL A   1      38.831  33.574  35.946  1.00  0.00    -0.237 OA
ATOM     87  O   UNL A   1      37.734  31.355  36.060  1.00  0.00    -0.744 OA
ENDBRANCH  83  84
ENDBRANCH  51  76
BRANCH  63  88
ATOM     88  C   UNL A   1      44.941  23.992  33.529  1.00  0.00     0.058 A 
ATOM     89  C   UNL A   1      44.120  22.881  33.785  1.00  0.00     0.135 A 
ATOM     90  C   UNL A   1      46.272  23.881  34.010  1.00  0.00     0.135 A 
ATOM     91  F   UNL A   1      42.872  22.808  33.304  1.00  0.00    -0.206 F 
ATOM     92  C   UNL A   1      44.567  21.767  34.503  1.00  0.00     0.059 A 
ATOM     93  C   UNL A   1      46.754  22.756  34.675  1.00  0.00     0.059 A 
ATOM     94  F   UNL A   1      47.169  24.863  33.836  1.00  0.00    -0.206 F 
ATOM     95  C   UNL A   1      45.887  21.709  34.938  1.00  0.00     0.060 A 
BRANCH  95  96
ATOM     96  S   UNL A   1      46.505  20.241  35.781  1.00  0.00     0.124 S 
ATOM     97  O   UNL A   1      46.076  20.490  37.154  1.00  0.00    -0.237 OA
ATOM     98  O   UNL A   1      45.814  19.155  35.093  1.00  0.00    -0.237 OA
ATOM     99  O   UNL A   1      47.944  20.306  35.545  1.00  0.00    -0.744 OA
ENDBRANCH  95  96
ENDBRANCH  63  88
ENDBRANCH  37  38
ENDBRANCH  29  32
ENDBRANCH  27  28
ENDBRANCH  26  27
ENDBRANCH   1  26
TORSDOF 17
ENDMDL
