MODEL 1
REMARK VINA RESULT:     -13.8      0.000      0.000
REMARK SMILES Cc1ccc(/C=C(\NC(=O)c2cccc(C)c2)C(=O)NCCCCNC(=O)c2ccc(-c3c4nc(c(-c5c(F)cc(S(=O)(=O)[O-])cc5F)c5ccc([nH]5)c(-c5c(F)cc(S(=O)(=O)[O-])cc5F)c5nc(c(-c6c(F)cc(S(=O)(=O)[O-])cc6F)c6ccc3[nH]6)C=C5)C=C4)cc2)cc1
REMARK SMILES IDX 23 1 22 2 21 3 20 4 18 5 19 6 7 8 6 9 5 10 1 11 2 12 3 13
REMARK SMILES IDX 95 14 4 15 94 16 8 17 9 18 10 20 11 21 12 22 17 23 13 24
REMARK SMILES IDX 15 25 14 26 16 27 24 28 25 29 26 30 27 32 28 33 29 34 93 35
REMARK SMILES IDX 30 36 92 37 31 38 32 39 33 40 86 41 34 42 91 43 85 44 87 45
REMARK SMILES IDX 35 46 90 47 84 48 83 49 36 51 70 52 49 53 69 54 50 55 53 56
REMARK SMILES IDX 68 57 88 58 51 59 52 60 67 62 89 63 54 64 37 65 38 66 47 67
REMARK SMILES IDX 39 68 40 69 46 70 48 71 41 72 42 73 43 74 44 75 45 76 71 77
REMARK SMILES IDX 72 78 81 79 73 80 74 81 80 82 82 83 75 84 76 85 77 86 78 87
REMARK SMILES IDX 79 88 55 89 56 90 65 91 57 92 58 93 64 94 66 95 59 96 60 97
REMARK SMILES IDX 61 98 62 99 63 100
REMARK H PARENT 20 7 8 19 25 31 87 50 53 61
REMARK Flexibility Score: inf
ROOT
ATOM      1  C   UNL A   1      32.939  29.860  27.203  1.00  0.00     0.023 C 
ENDROOT
BRANCH   1   2
ATOM      2  C   UNL A   1      31.958  28.834  26.638  1.00  0.00     0.023 C 
BRANCH   2   3
ATOM      3  C   UNL A   1      32.344  27.362  26.771  1.00  0.00     0.116 C 
BRANCH   3   4
ATOM      4  N   UNL A   1      31.255  26.399  26.722  1.00  0.00    -0.351 N 
ATOM      5  C   UNL A   1      31.229  25.079  26.349  1.00  0.00     0.267 C 
ATOM      6  O   UNL A   1      30.169  24.465  26.508  1.00  0.00    -0.268 OA
ATOM      7  H   UNL A   1      30.383  26.757  27.006  1.00  0.00     0.163 HD
BRANCH   5   8
ATOM      8  C   UNL A   1      32.405  24.396  25.664  1.00  0.00     0.107 C 
ATOM      9  C   UNL A   1      33.460  24.069  26.449  1.00  0.00     0.040 C 
BRANCH   9  10
ATOM     10  C   UNL A   1      34.743  23.387  26.109  1.00  0.00    -0.023 A 
ATOM     11  C   UNL A   1      38.659  21.596  25.538  1.00  0.00     0.044 C 
ATOM     12  C   UNL A   1      37.308  22.230  25.662  1.00  0.00    -0.051 A 
ATOM     13  C   UNL A   1      36.185  21.425  25.841  1.00  0.00     0.004 A 
ATOM     14  C   UNL A   1      37.138  23.615  25.640  1.00  0.00     0.004 A 
ATOM     15  C   UNL A   1      34.921  21.998  26.015  1.00  0.00     0.008 A 
ATOM     16  C   UNL A   1      35.873  24.184  25.865  1.00  0.00     0.008 A 
ENDBRANCH   9  10
BRANCH   8  17
ATOM     17  N   UNL A   1      32.423  24.074  24.332  1.00  0.00    -0.317 N 
ATOM     18  C   UNL A   1      32.592  24.850  23.211  1.00  0.00     0.255 C 
ATOM     19  H   UNL A   1      32.291  23.117  24.146  1.00  0.00     0.170 HD
ATOM     20  O   UNL A   1      32.723  24.287  22.126  1.00  0.00    -0.269 OA
BRANCH  18  21
ATOM     21  C   UNL A   1      32.573  26.321  23.287  1.00  0.00     0.040 A 
ATOM     22  C   UNL A   1      33.818  26.918  23.465  1.00  0.00     0.014 A 
ATOM     23  C   UNL A   1      31.429  27.100  23.071  1.00  0.00     0.017 A 
ATOM     24  C   UNL A   1      33.948  28.276  23.241  1.00  0.00     0.001 A 
ATOM     25  C   UNL A   1      31.554  28.487  22.922  1.00  0.00    -0.050 A 
ATOM     26  C   UNL A   1      32.827  29.061  22.981  1.00  0.00     0.003 A 
ATOM     27  C   UNL A   1      30.362  29.373  22.721  1.00  0.00     0.044 C 
ENDBRANCH  18  21
ENDBRANCH   8  17
ENDBRANCH   5   8
ENDBRANCH   3   4
ENDBRANCH   2   3
ENDBRANCH   1   2
BRANCH   1  28
ATOM     28  C   UNL A   1      34.414  29.465  27.271  1.00  0.00     0.116 C 
BRANCH  28  29
ATOM     29  N   UNL A   1      35.371  30.548  27.111  1.00  0.00    -0.352 N 
ATOM     30  C   UNL A   1      36.412  30.784  28.013  1.00  0.00     0.251 C 
ATOM     31  H   UNL A   1      35.282  31.143  26.332  1.00  0.00     0.163 HD
ATOM     32  O   UNL A   1      36.622  31.861  28.528  1.00  0.00    -0.269 OA
BRANCH  30  33
ATOM     33  C   UNL A   1      37.334  29.639  28.243  1.00  0.00     0.039 A 
ATOM     34  C   UNL A   1      37.315  28.965  29.471  1.00  0.00     0.014 A 
ATOM     35  C   UNL A   1      38.303  29.339  27.292  1.00  0.00     0.014 A 
ATOM     36  C   UNL A   1      38.370  28.113  29.810  1.00  0.00     0.010 A 
ATOM     37  C   UNL A   1      39.381  28.557  27.653  1.00  0.00     0.010 A 
ATOM     38  C   UNL A   1      39.443  27.980  28.929  1.00  0.00    -0.014 A 
BRANCH  38  39
ATOM     39  C   UNL A   1      40.736  27.380  29.256  1.00  0.00     0.031 A 
ATOM     40  C   UNL A   1      41.052  25.997  28.837  1.00  0.00     0.074 A 
ATOM     41  C   UNL A   1      41.726  28.183  29.708  1.00  0.00     0.049 A 
ATOM     42  N   UNL A   1      42.139  25.382  29.154  1.00  0.00    -0.248 NA
ATOM     43  C   UNL A   1      40.130  25.157  28.075  1.00  0.00     0.031 C 
ATOM     44  C   UNL A   1      43.170  27.977  29.593  1.00  0.00     0.029 A 
ATOM     45  N   UNL A   1      41.621  29.331  30.488  1.00  0.00    -0.354 N 
ATOM     46  C   UNL A   1      42.204  24.228  28.413  1.00  0.00     0.074 A 
ATOM     47  C   UNL A   1      40.879  24.067  27.871  1.00  0.00     0.031 C 
ATOM     48  C   UNL A   1      43.793  28.783  30.465  1.00  0.00     0.029 A 
ATOM     49  C   UNL A   1      42.767  29.402  31.285  1.00  0.00     0.049 A 
ATOM     50  H   UNL A   1      40.877  29.974  30.480  1.00  0.00     0.167 HD
ATOM     51  C   UNL A   1      43.415  23.625  28.250  1.00  0.00     0.037 A 
ATOM     52  C   UNL A   1      42.734  29.385  32.648  1.00  0.00     0.037 A 
ATOM     53  C   UNL A   1      44.388  24.161  29.207  1.00  0.00     0.049 A 
ATOM     54  C   UNL A   1      43.445  28.170  33.202  1.00  0.00     0.074 A 
ATOM     55  C   UNL A   1      45.479  25.005  29.095  1.00  0.00     0.029 A 
ATOM     56  N   UNL A   1      44.126  24.039  30.574  1.00  0.00    -0.354 N 
ATOM     57  N   UNL A   1      43.776  27.134  32.479  1.00  0.00    -0.248 NA
ATOM     58  C   UNL A   1      43.838  28.015  34.599  1.00  0.00     0.031 C 
ATOM     59  C   UNL A   1      45.782  25.495  30.397  1.00  0.00     0.029 A 
ATOM     60  C   UNL A   1      44.918  24.902  31.307  1.00  0.00     0.049 A 
ATOM     61  H   UNL A   1      43.466  23.422  30.962  1.00  0.00     0.167 HD
ATOM     62  C   UNL A   1      44.380  26.192  33.260  1.00  0.00     0.074 A 
ATOM     63  C   UNL A   1      44.409  26.797  34.580  1.00  0.00     0.031 C 
ATOM     64  C   UNL A   1      44.791  24.988  32.760  1.00  0.00     0.037 A 
BRANCH  51  65
ATOM     65  C   UNL A   1      43.781  22.678  27.116  1.00  0.00     0.058 A 
ATOM     66  C   UNL A   1      43.083  21.460  26.945  1.00  0.00     0.135 A 
ATOM     67  C   UNL A   1      44.884  22.837  26.245  1.00  0.00     0.135 A 
ATOM     68  F   UNL A   1      42.030  21.155  27.719  1.00  0.00    -0.206 F 
ATOM     69  C   UNL A   1      43.451  20.489  26.003  1.00  0.00     0.059 A 
ATOM     70  C   UNL A   1      45.239  21.906  25.265  1.00  0.00     0.059 A 
ATOM     71  F   UNL A   1      45.730  23.868  26.340  1.00  0.00    -0.206 F 
ATOM     72  C   UNL A   1      44.533  20.721  25.165  1.00  0.00     0.060 A 
BRANCH  72  73
ATOM     73  S   UNL A   1      45.038  19.464  23.974  1.00  0.00     0.124 S 
ATOM     74  O   UNL A   1      46.493  19.526  24.073  1.00  0.00    -0.237 OA
ATOM     75  O   UNL A   1      44.414  18.258  24.505  1.00  0.00    -0.237 OA
ATOM     76  O   UNL A   1      44.480  19.947  22.713  1.00  0.00    -0.744 OA
ENDBRANCH  72  73
ENDBRANCH  51  65
BRANCH  52  77
ATOM     77  C   UNL A   1      41.535  30.064  33.220  1.00  0.00     0.058 A 
ATOM     78  C   UNL A   1      41.545  31.474  33.193  1.00  0.00     0.135 A 
ATOM     79  C   UNL A   1      40.284  29.426  33.236  1.00  0.00     0.135 A 
ATOM     80  F   UNL A   1      42.714  32.133  33.226  1.00  0.00    -0.206 F 
ATOM     81  C   UNL A   1      40.387  32.207  32.957  1.00  0.00     0.059 A 
ATOM     82  C   UNL A   1      39.108  30.146  33.010  1.00  0.00     0.059 A 
ATOM     83  F   UNL A   1      40.210  28.087  33.244  1.00  0.00    -0.206 F 
ATOM     84  C   UNL A   1      39.188  31.522  32.779  1.00  0.00     0.060 A 
BRANCH  84  85
ATOM     85  S   UNL A   1      37.796  32.420  32.041  1.00  0.00     0.124 S 
ATOM     86  O   UNL A   1      38.449  33.202  30.997  1.00  0.00    -0.237 OA
ATOM     87  O   UNL A   1      36.947  31.322  31.579  1.00  0.00    -0.237 OA
ATOM     88  O   UNL A   1      37.268  33.184  33.166  1.00  0.00    -0.744 OA
ENDBRANCH  84  85
ENDBRANCH  52  77
BRANCH  64  89
ATOM     89  C   UNL A   1      45.190  23.806  33.612  1.00  0.00     0.058 A 
ATOM     90  C   UNL A   1      46.460  23.666  34.202  1.00  0.00     0.135 A 
ATOM     91  C   UNL A   1      44.236  22.829  33.979  1.00  0.00     0.135 A 
ATOM     92  F   UNL A   1      47.412  24.596  34.039  1.00  0.00    -0.206 F 
ATOM     93  C   UNL A   1      46.790  22.588  35.023  1.00  0.00     0.059 A 
ATOM     94  C   UNL A   1      44.527  21.776  34.844  1.00  0.00     0.059 A 
ATOM     95  F   UNL A   1      42.977  22.873  33.517  1.00  0.00    -0.206 F 
ATOM     96  C   UNL A   1      45.817  21.644  35.336  1.00  0.00     0.060 A 
BRANCH  96  97
ATOM     97  S   UNL A   1      46.220  20.273  36.433  1.00  0.00     0.124 S 
ATOM     98  O   UNL A   1      47.659  20.145  36.220  1.00  0.00    -0.237 OA
ATOM     99  O   UNL A   1      45.823  20.776  37.745  1.00  0.00    -0.237 OA
ATOM    100  O   UNL A   1      45.402  19.183  35.915  1.00  0.00    -0.744 OA
ENDBRANCH  96  97
ENDBRANCH  64  89
ENDBRANCH  38  39
ENDBRANCH  30  33
ENDBRANCH  28  29
ENDBRANCH   1  28
TORSDOF 17
ENDMDL
MODEL 2
REMARK VINA RESULT:     -13.7      1.156      2.769
REMARK SMILES Cc1ccc(/C=C(\NC(=O)c2cccc(C)c2)C(=O)NCCCCNC(=O)c2ccc(-c3c4nc(c(-c5c(F)cc(S(=O)(=O)[O-])cc5F)c5ccc([nH]5)c(-c5c(F)cc(S(=O)(=O)[O-])cc5F)c5nc(c(-c6c(F)cc(S(=O)(=O)[O-])cc6F)c6ccc3[nH]6)C=C5)C=C4)cc2)cc1
REMARK SMILES IDX 23 1 22 2 21 3 20 4 18 5 19 6 7 8 6 9 5 10 1 11 2 12 3 13
REMARK SMILES IDX 95 14 4 15 94 16 8 17 9 18 10 20 11 21 12 22 17 23 13 24
REMARK SMILES IDX 15 25 14 26 16 27 24 28 25 29 26 30 27 32 28 33 29 34 93 35
REMARK SMILES IDX 30 36 92 37 31 38 32 39 33 40 86 41 34 42 91 43 85 44 87 45
REMARK SMILES IDX 35 46 90 47 84 48 83 49 36 51 70 52 49 53 69 54 50 55 53 56
REMARK SMILES IDX 68 57 88 58 51 59 52 60 67 62 89 63 54 64 37 65 38 66 47 67
REMARK SMILES IDX 39 68 40 69 46 70 48 71 41 72 42 73 43 74 44 75 45 76 71 77
REMARK SMILES IDX 72 78 81 79 73 80 74 81 80 82 82 83 75 84 76 85 77 86 78 87
REMARK SMILES IDX 79 88 55 89 56 90 65 91 57 92 58 93 64 94 66 95 59 96 60 97
REMARK SMILES IDX 61 98 62 99 63 100
REMARK H PARENT 20 7 8 19 25 31 87 50 53 61
REMARK Flexibility Score: inf
ROOT
ATOM      1  C   UNL A   1      34.255  28.478  26.604  1.00  0.00     0.023 C 
ENDROOT
BRANCH   1   2
ATOM      2  C   UNL A   1      33.451  28.726  25.328  1.00  0.00     0.023 C 
BRANCH   2   3
ATOM      3  C   UNL A   1      33.600  27.700  24.206  1.00  0.00     0.116 C 
BRANCH   3   4
ATOM      4  N   UNL A   1      32.478  26.797  24.000  1.00  0.00    -0.351 N 
ATOM      5  C   UNL A   1      32.266  25.505  24.413  1.00  0.00     0.267 C 
ATOM      6  O   UNL A   1      31.160  25.010  24.179  1.00  0.00    -0.268 OA
ATOM      7  H   UNL A   1      31.741  27.180  23.471  1.00  0.00     0.163 HD
BRANCH   5   8
ATOM      8  C   UNL A   1      33.362  24.653  25.039  1.00  0.00     0.107 C 
ATOM      9  C   UNL A   1      34.476  24.452  24.295  1.00  0.00     0.040 C 
BRANCH   9  10
ATOM     10  C   UNL A   1      35.724  23.696  24.609  1.00  0.00    -0.023 A 
ATOM     11  C   UNL A   1      39.151  21.396  25.964  1.00  0.00     0.044 C 
ATOM     12  C   UNL A   1      38.017  22.239  25.468  1.00  0.00    -0.051 A 
ATOM     13  C   UNL A   1      37.271  21.812  24.372  1.00  0.00     0.004 A 
ATOM     14  C   UNL A   1      37.655  23.432  26.095  1.00  0.00     0.004 A 
ATOM     15  C   UNL A   1      36.173  22.555  23.927  1.00  0.00     0.008 A 
ATOM     16  C   UNL A   1      36.522  24.148  25.673  1.00  0.00     0.008 A 
ENDBRANCH   9  10
BRANCH   8  17
ATOM     17  N   UNL A   1      33.283  24.129  26.302  1.00  0.00    -0.317 N 
ATOM     18  C   UNL A   1      33.241  22.830  26.748  1.00  0.00     0.255 C 
ATOM     19  H   UNL A   1      33.251  24.803  27.019  1.00  0.00     0.170 HD
ATOM     20  O   UNL A   1      33.328  22.624  27.957  1.00  0.00    -0.269 OA
BRANCH  18  21
ATOM     21  C   UNL A   1      33.050  21.706  25.816  1.00  0.00     0.040 A 
ATOM     22  C   UNL A   1      32.012  21.868  24.902  1.00  0.00     0.014 A 
ATOM     23  C   UNL A   1      33.906  20.601  25.738  1.00  0.00     0.017 A 
ATOM     24  C   UNL A   1      31.949  21.029  23.804  1.00  0.00     0.001 A 
ATOM     25  C   UNL A   1      33.789  19.707  24.666  1.00  0.00    -0.050 A 
ATOM     26  C   UNL A   1      32.821  19.949  23.688  1.00  0.00     0.003 A 
ATOM     27  C   UNL A   1      34.657  18.491  24.549  1.00  0.00     0.044 C 
ENDBRANCH  18  21
ENDBRANCH   8  17
ENDBRANCH   5   8
ENDBRANCH   3   4
ENDBRANCH   2   3
ENDBRANCH   1   2
BRANCH   1  28
ATOM     28  C   UNL A   1      34.400  29.640  27.585  1.00  0.00     0.116 C 
BRANCH  28  29
ATOM     29  N   UNL A   1      35.363  30.666  27.219  1.00  0.00    -0.352 N 
ATOM     30  C   UNL A   1      36.512  30.934  27.967  1.00  0.00     0.251 C 
ATOM     31  H   UNL A   1      35.197  31.198  26.407  1.00  0.00     0.163 HD
ATOM     32  O   UNL A   1      36.816  32.041  28.357  1.00  0.00    -0.269 OA
BRANCH  30  33
ATOM     33  C   UNL A   1      37.420  29.776  28.185  1.00  0.00     0.039 A 
ATOM     34  C   UNL A   1      37.355  29.056  29.385  1.00  0.00     0.014 A 
ATOM     35  C   UNL A   1      38.420  29.506  27.258  1.00  0.00     0.014 A 
ATOM     36  C   UNL A   1      38.395  28.185  29.727  1.00  0.00     0.010 A 
ATOM     37  C   UNL A   1      39.482  28.704  27.625  1.00  0.00     0.010 A 
ATOM     38  C   UNL A   1      39.497  28.079  28.880  1.00  0.00    -0.014 A 
BRANCH  38  39
ATOM     39  C   UNL A   1      40.775  27.459  29.228  1.00  0.00     0.031 A 
ATOM     40  C   UNL A   1      41.073  26.069  28.821  1.00  0.00     0.074 A 
ATOM     41  C   UNL A   1      41.772  28.248  29.689  1.00  0.00     0.049 A 
ATOM     42  N   UNL A   1      42.145  25.437  29.157  1.00  0.00    -0.248 NA
ATOM     43  C   UNL A   1      40.147  25.240  28.052  1.00  0.00     0.031 C 
ATOM     44  C   UNL A   1      43.213  28.017  29.595  1.00  0.00     0.029 A 
ATOM     45  N   UNL A   1      41.675  29.402  30.461  1.00  0.00    -0.354 N 
ATOM     46  C   UNL A   1      42.200  24.278  28.423  1.00  0.00     0.074 A 
ATOM     47  C   UNL A   1      40.881  24.137  27.864  1.00  0.00     0.031 C 
ATOM     48  C   UNL A   1      43.838  28.818  30.471  1.00  0.00     0.029 A 
ATOM     49  C   UNL A   1      42.811  29.459  31.274  1.00  0.00     0.049 A 
ATOM     50  H   UNL A   1      40.942  30.058  30.439  1.00  0.00     0.167 HD
ATOM     51  C   UNL A   1      43.403  23.654  28.280  1.00  0.00     0.037 A 
ATOM     52  C   UNL A   1      42.759  29.450  32.636  1.00  0.00     0.037 A 
ATOM     53  C   UNL A   1      44.371  24.180  29.249  1.00  0.00     0.049 A 
ATOM     54  C   UNL A   1      43.441  28.227  33.207  1.00  0.00     0.074 A 
ATOM     55  C   UNL A   1      45.478  25.004  29.146  1.00  0.00     0.029 A 
ATOM     56  N   UNL A   1      44.089  24.070  30.612  1.00  0.00    -0.354 N 
ATOM     57  N   UNL A   1      43.765  27.181  32.494  1.00  0.00    -0.248 NA
ATOM     58  C   UNL A   1      43.813  28.074  34.610  1.00  0.00     0.031 C 
ATOM     59  C   UNL A   1      45.772  25.496  30.450  1.00  0.00     0.029 A 
ATOM     60  C   UNL A   1      44.885  24.924  31.351  1.00  0.00     0.049 A 
ATOM     61  H   UNL A   1      43.413  23.466  30.994  1.00  0.00     0.167 HD
ATOM     62  C   UNL A   1      44.342  26.234  33.289  1.00  0.00     0.074 A 
ATOM     63  C   UNL A   1      44.363  26.846  34.606  1.00  0.00     0.031 C 
ATOM     64  C   UNL A   1      44.739  25.020  32.802  1.00  0.00     0.037 A 
BRANCH  51  65
ATOM     65  C   UNL A   1      43.768  22.694  27.157  1.00  0.00     0.058 A 
ATOM     66  C   UNL A   1      43.070  21.475  27.001  1.00  0.00     0.135 A 
ATOM     67  C   UNL A   1      44.872  22.844  26.284  1.00  0.00     0.135 A 
ATOM     68  F   UNL A   1      42.018  21.178  27.778  1.00  0.00    -0.206 F 
ATOM     69  C   UNL A   1      43.438  20.493  26.069  1.00  0.00     0.059 A 
ATOM     70  C   UNL A   1      45.226  21.902  25.314  1.00  0.00     0.059 A 
ATOM     71  F   UNL A   1      45.718  23.875  26.367  1.00  0.00    -0.206 F 
ATOM     72  C   UNL A   1      44.520  20.715  25.228  1.00  0.00     0.060 A 
BRANCH  72  73
ATOM     73  S   UNL A   1      45.025  19.445  24.051  1.00  0.00     0.124 S 
ATOM     74  O   UNL A   1      44.344  18.265  24.574  1.00  0.00    -0.237 OA
ATOM     75  O   UNL A   1      44.517  19.966  22.787  1.00  0.00    -0.237 OA
ATOM     76  O   UNL A   1      46.480  19.428  24.173  1.00  0.00    -0.744 OA
ENDBRANCH  72  73
ENDBRANCH  51  65
BRANCH  52  77
ATOM     77  C   UNL A   1      41.564  30.153  33.187  1.00  0.00     0.058 A 
ATOM     78  C   UNL A   1      41.625  31.561  33.211  1.00  0.00     0.135 A 
ATOM     79  C   UNL A   1      40.292  29.561  33.134  1.00  0.00     0.135 A 
ATOM     80  F   UNL A   1      42.815  32.176  33.311  1.00  0.00    -0.206 F 
ATOM     81  C   UNL A   1      40.504  32.344  32.959  1.00  0.00     0.059 A 
ATOM     82  C   UNL A   1      39.151  30.331  32.891  1.00  0.00     0.059 A 
ATOM     83  F   UNL A   1      40.170  28.226  33.092  1.00  0.00    -0.206 F 
ATOM     84  C   UNL A   1      39.288  31.710  32.713  1.00  0.00     0.060 A 
BRANCH  84  85
ATOM     85  S   UNL A   1      37.958  32.683  31.956  1.00  0.00     0.124 S 
ATOM     86  O   UNL A   1      36.965  31.663  31.642  1.00  0.00    -0.237 OA
ATOM     87  O   UNL A   1      37.609  33.600  33.041  1.00  0.00    -0.237 OA
ATOM     88  O   UNL A   1      38.616  33.299  30.810  1.00  0.00    -0.744 OA
ENDBRANCH  84  85
ENDBRANCH  52  77
BRANCH  64  89
ATOM     89  C   UNL A   1      45.107  23.836  33.666  1.00  0.00     0.058 A 
ATOM     90  C   UNL A   1      44.196  22.829  34.034  1.00  0.00     0.135 A 
ATOM     91  C   UNL A   1      46.452  23.607  34.037  1.00  0.00     0.135 A 
ATOM     92  F   UNL A   1      42.918  22.861  33.629  1.00  0.00    -0.206 F 
ATOM     93  C   UNL A   1      44.571  21.721  34.793  1.00  0.00     0.059 A 
ATOM     94  C   UNL A   1      46.859  22.479  34.745  1.00  0.00     0.059 A 
ATOM     95  F   UNL A   1      47.424  24.473  33.710  1.00  0.00    -0.206 F 
ATOM     96  C   UNL A   1      45.906  21.556  35.149  1.00  0.00     0.060 A 
BRANCH  96  97
ATOM     97  S   UNL A   1      46.408  20.105  36.090  1.00  0.00     0.124 S 
ATOM     98  O   UNL A   1      45.715  20.326  37.356  1.00  0.00    -0.237 OA
ATOM     99  O   UNL A   1      45.901  18.998  35.282  1.00  0.00    -0.237 OA
ATOM    100  O   UNL A   1      47.861  20.224  36.132  1.00  0.00    -0.744 OA
ENDBRANCH  96  97
ENDBRANCH  64  89
ENDBRANCH  38  39
ENDBRANCH  30  33
ENDBRANCH  28  29
ENDBRANCH   1  28
TORSDOF 17
ENDMDL
MODEL 3
REMARK VINA RESULT:     -13.3      2.102      3.707
REMARK SMILES Cc1ccc(/C=C(\NC(=O)c2cccc(C)c2)C(=O)NCCCCNC(=O)c2ccc(-c3c4nc(c(-c5c(F)cc(S(=O)(=O)[O-])cc5F)c5ccc([nH]5)c(-c5c(F)cc(S(=O)(=O)[O-])cc5F)c5nc(c(-c6c(F)cc(S(=O)(=O)[O-])cc6F)c6ccc3[nH]6)C=C5)C=C4)cc2)cc1
REMARK SMILES IDX 23 1 22 2 21 3 20 4 18 5 19 6 7 8 6 9 5 10 1 11 2 12 3 13
REMARK SMILES IDX 95 14 4 15 94 16 8 17 9 18 10 20 11 21 12 22 17 23 13 24
REMARK SMILES IDX 15 25 14 26 16 27 24 28 25 29 26 30 27 32 28 33 29 34 93 35
REMARK SMILES IDX 30 36 92 37 31 38 32 39 33 40 86 41 34 42 91 43 85 44 87 45
REMARK SMILES IDX 35 46 90 47 84 48 83 49 36 51 70 52 49 53 69 54 50 55 53 56
REMARK SMILES IDX 68 57 88 58 51 59 52 60 67 62 89 63 54 64 37 65 38 66 47 67
REMARK SMILES IDX 39 68 40 69 46 70 48 71 41 72 42 73 43 74 44 75 45 76 71 77
REMARK SMILES IDX 72 78 81 79 73 80 74 81 80 82 82 83 75 84 76 85 77 86 78 87
REMARK SMILES IDX 79 88 55 89 56 90 65 91 57 92 58 93 64 94 66 95 59 96 60 97
REMARK SMILES IDX 61 98 62 99 63 100
REMARK H PARENT 20 7 8 19 25 31 87 50 53 61
REMARK Flexibility Score: inf
ROOT
ATOM      1  C   UNL A   1      32.441  28.801  26.007  1.00  0.00     0.023 C 
ENDROOT
BRANCH   1   2
ATOM      2  C   UNL A   1      33.307  27.555  25.831  1.00  0.00     0.023 C 
BRANCH   2   3
ATOM      3  C   UNL A   1      33.957  27.353  24.463  1.00  0.00     0.116 C 
BRANCH   3   4
ATOM      4  N   UNL A   1      33.396  26.302  23.628  1.00  0.00    -0.351 N 
ATOM      5  C   UNL A   1      33.454  24.935  23.729  1.00  0.00     0.267 C 
ATOM      6  O   UNL A   1      32.787  24.277  22.925  1.00  0.00    -0.268 OA
ATOM      7  H   UNL A   1      32.885  26.629  22.853  1.00  0.00     0.163 HD
BRANCH   5   8
ATOM      8  C   UNL A   1      34.376  24.223  24.711  1.00  0.00     0.107 C 
ATOM      9  C   UNL A   1      35.620  23.921  24.268  1.00  0.00     0.040 C 
BRANCH   9  10
ATOM     10  C   UNL A   1      36.759  23.255  24.966  1.00  0.00    -0.023 A 
ATOM     11  C   UNL A   1      40.284  21.272  26.550  1.00  0.00     0.044 C 
ATOM     12  C   UNL A   1      39.026  21.914  26.050  1.00  0.00    -0.051 A 
ATOM     13  C   UNL A   1      38.728  23.222  26.422  1.00  0.00     0.004 A 
ATOM     14  C   UNL A   1      38.153  21.252  25.185  1.00  0.00     0.004 A 
ATOM     15  C   UNL A   1      37.589  23.860  25.922  1.00  0.00     0.008 A 
ATOM     16  C   UNL A   1      37.038  21.915  24.649  1.00  0.00     0.008 A 
ENDBRANCH   9  10
BRANCH   8  17
ATOM     17  N   UNL A   1      34.019  23.917  25.998  1.00  0.00    -0.317 N 
ATOM     18  C   UNL A   1      33.631  22.734  26.579  1.00  0.00     0.255 C 
ATOM     19  H   UNL A   1      34.044  24.683  26.617  1.00  0.00     0.170 HD
ATOM     20  O   UNL A   1      33.512  22.695  27.802  1.00  0.00    -0.269 OA
BRANCH  18  21
ATOM     21  C   UNL A   1      33.319  21.547  25.765  1.00  0.00     0.040 A 
ATOM     22  C   UNL A   1      32.166  21.649  24.992  1.00  0.00     0.014 A 
ATOM     23  C   UNL A   1      34.161  20.433  25.652  1.00  0.00     0.017 A 
ATOM     24  C   UNL A   1      31.957  20.734  23.977  1.00  0.00     0.001 A 
ATOM     25  C   UNL A   1      33.901  19.466  24.674  1.00  0.00    -0.050 A 
ATOM     26  C   UNL A   1      32.808  19.643  23.821  1.00  0.00     0.003 A 
ATOM     27  C   UNL A   1      34.750  18.239  24.528  1.00  0.00     0.044 C 
ENDBRANCH  18  21
ENDBRANCH   8  17
ENDBRANCH   5   8
ENDBRANCH   3   4
ENDBRANCH   2   3
ENDBRANCH   1   2
BRANCH   1  28
ATOM     28  C   UNL A   1      32.710  29.682  27.226  1.00  0.00     0.116 C 
BRANCH  28  29
ATOM     29  N   UNL A   1      33.451  30.908  26.975  1.00  0.00    -0.352 N 
ATOM     30  C   UNL A   1      34.391  31.428  27.869  1.00  0.00     0.251 C 
ATOM     31  H   UNL A   1      33.283  31.395  26.135  1.00  0.00     0.163 HD
ATOM     32  O   UNL A   1      34.371  32.571  28.272  1.00  0.00    -0.269 OA
BRANCH  30  33
ATOM     33  C   UNL A   1      35.502  30.511  28.236  1.00  0.00     0.039 A 
ATOM     34  C   UNL A   1      35.565  29.977  29.530  1.00  0.00     0.014 A 
ATOM     35  C   UNL A   1      36.545  30.304  27.341  1.00  0.00     0.014 A 
ATOM     36  C   UNL A   1      36.749  29.382  29.977  1.00  0.00     0.010 A 
ATOM     37  C   UNL A   1      37.737  29.785  27.802  1.00  0.00     0.010 A 
ATOM     38  C   UNL A   1      37.860  29.366  29.134  1.00  0.00    -0.014 A 
BRANCH  38  39
ATOM     39  C   UNL A   1      39.230  29.061  29.546  1.00  0.00     0.031 A 
ATOM     40  C   UNL A   1      39.874  27.794  29.138  1.00  0.00     0.074 A 
ATOM     41  C   UNL A   1      39.983  30.054  30.072  1.00  0.00     0.049 A 
ATOM     42  N   UNL A   1      41.048  27.429  29.525  1.00  0.00    -0.248 NA
ATOM     43  C   UNL A   1      39.216  26.788  28.307  1.00  0.00     0.031 C 
ATOM     44  C   UNL A   1      41.440  30.177  30.056  1.00  0.00     0.029 A 
ATOM     45  N   UNL A   1      39.571  31.131  30.853  1.00  0.00    -0.354 N 
ATOM     46  C   UNL A   1      41.419  26.337  28.781  1.00  0.00     0.074 A 
ATOM     47  C   UNL A   1      40.202  25.898  28.147  1.00  0.00     0.031 C 
ATOM     48  C   UNL A   1      41.808  31.082  30.977  1.00  0.00     0.029 A 
ATOM     49  C   UNL A   1      40.617  31.437  31.728  1.00  0.00     0.049 A 
ATOM     50  H   UNL A   1      38.704  31.592  30.798  1.00  0.00     0.167 HD
ATOM     51  C   UNL A   1      42.742  26.023  28.698  1.00  0.00     0.037 A 
ATOM     52  C   UNL A   1      40.498  31.380  33.086  1.00  0.00     0.037 A 
ATOM     53  C   UNL A   1      43.504  26.740  29.726  1.00  0.00     0.049 A 
ATOM     54  C   UNL A   1      41.424  30.341  33.678  1.00  0.00     0.074 A 
ATOM     55  C   UNL A   1      44.384  27.807  29.697  1.00  0.00     0.029 A 
ATOM     56  N   UNL A   1      43.187  26.530  31.069  1.00  0.00    -0.354 N 
ATOM     57  N   UNL A   1      42.026  29.423  32.971  1.00  0.00    -0.248 NA
ATOM     58  C   UNL A   1      41.749  30.245  35.097  1.00  0.00     0.031 C 
ATOM     59  C   UNL A   1      44.483  28.321  31.021  1.00  0.00     0.029 A 
ATOM     60  C   UNL A   1      43.715  27.530  31.863  1.00  0.00     0.049 A 
ATOM     61  H   UNL A   1      42.657  25.772  31.405  1.00  0.00     0.167 HD
ATOM     62  C   UNL A   1      42.773  28.620  33.784  1.00  0.00     0.074 A 
ATOM     63  C   UNL A   1      42.579  29.185  35.108  1.00  0.00     0.031 C 
ATOM     64  C   UNL A   1      43.475  27.550  33.305  1.00  0.00     0.037 A 
BRANCH  51  65
ATOM     65  C   UNL A   1      43.385  25.208  27.584  1.00  0.00     0.058 A 
ATOM     66  C   UNL A   1      43.255  23.801  27.559  1.00  0.00     0.135 A 
ATOM     67  C   UNL A   1      44.248  25.727  26.589  1.00  0.00     0.135 A 
ATOM     68  F   UNL A   1      42.493  23.162  28.460  1.00  0.00    -0.206 F 
ATOM     69  C   UNL A   1      43.926  22.984  26.637  1.00  0.00     0.059 A 
ATOM     70  C   UNL A   1      44.885  24.937  25.629  1.00  0.00     0.059 A 
ATOM     71  F   UNL A   1      44.584  27.019  26.533  1.00  0.00    -0.206 F 
ATOM     72  C   UNL A   1      44.741  23.562  25.673  1.00  0.00     0.060 A 
BRANCH  72  73
ATOM     73  S   UNL A   1      45.636  22.519  24.505  1.00  0.00     0.124 S 
ATOM     74  O   UNL A   1      46.258  21.541  25.392  1.00  0.00    -0.237 OA
ATOM     75  O   UNL A   1      44.568  22.015  23.649  1.00  0.00    -0.237 OA
ATOM     76  O   UNL A   1      46.560  23.449  23.859  1.00  0.00    -0.744 OA
ENDBRANCH  72  73
ENDBRANCH  51  65
BRANCH  52  77
ATOM     77  C   UNL A   1      39.142  31.761  33.577  1.00  0.00     0.058 A 
ATOM     78  C   UNL A   1      38.879  33.143  33.673  1.00  0.00     0.135 A 
ATOM     79  C   UNL A   1      38.044  30.904  33.401  1.00  0.00     0.135 A 
ATOM     80  F   UNL A   1      39.889  34.000  33.892  1.00  0.00    -0.206 F 
ATOM     81  C   UNL A   1      37.628  33.670  33.374  1.00  0.00     0.059 A 
ATOM     82  C   UNL A   1      36.775  31.413  33.109  1.00  0.00     0.059 A 
ATOM     83  F   UNL A   1      38.233  29.581  33.286  1.00  0.00    -0.206 F 
ATOM     84  C   UNL A   1      36.607  32.797  33.007  1.00  0.00     0.060 A 
BRANCH  84  85
ATOM     85  S   UNL A   1      35.140  33.494  32.200  1.00  0.00     0.124 S 
ATOM     86  O   UNL A   1      34.314  32.312  31.980  1.00  0.00    -0.237 OA
ATOM     87  O   UNL A   1      34.659  34.429  33.216  1.00  0.00    -0.237 OA
ATOM     88  O   UNL A   1      35.692  34.111  30.999  1.00  0.00    -0.744 OA
ENDBRANCH  84  85
ENDBRANCH  52  77
BRANCH  64  89
ATOM     89  C   UNL A   1      44.072  26.467  34.172  1.00  0.00     0.058 A 
ATOM     90  C   UNL A   1      43.303  25.540  34.898  1.00  0.00     0.135 A 
ATOM     91  C   UNL A   1      45.468  26.242  34.183  1.00  0.00     0.135 A 
ATOM     92  F   UNL A   1      41.962  25.564  34.862  1.00  0.00    -0.206 F 
ATOM     93  C   UNL A   1      43.877  24.519  35.655  1.00  0.00     0.059 A 
ATOM     94  C   UNL A   1      46.059  25.194  34.885  1.00  0.00     0.059 A 
ATOM     95  F   UNL A   1      46.309  27.032  33.497  1.00  0.00    -0.206 F 
ATOM     96  C   UNL A   1      45.258  24.356  35.647  1.00  0.00     0.060 A 
BRANCH  96  97
ATOM     97  S   UNL A   1      46.006  23.012  36.584  1.00  0.00     0.124 S 
ATOM     98  O   UNL A   1      47.422  23.196  36.274  1.00  0.00    -0.237 OA
ATOM     99  O   UNL A   1      45.620  23.316  37.959  1.00  0.00    -0.237 OA
ATOM    100  O   UNL A   1      45.381  21.823  36.014  1.00  0.00    -0.744 OA
ENDBRANCH  96  97
ENDBRANCH  64  89
ENDBRANCH  38  39
ENDBRANCH  30  33
ENDBRANCH  28  29
ENDBRANCH   1  28
TORSDOF 17
ENDMDL
