MODEL 1
REMARK VINA RESULT:     -10.7      0.000      0.000
REMARK SMILES CO[C@H]1CCC[C@H]1NC(=O)N[C@](C)(C(=O)NCCCCNC(=O)c1ccc(-c2c3nc(c(-c4c(F)cc(S(=O)(=O)[O-])cc4F)c4ccc([nH]4)c(-c4c(F)cc(S(=O)(=O)[O-])cc4F)c4nc(c(-c5c(F)cc(S(=O)(=O)[O-])cc5F)c5ccc2[nH]5)C=C4)C=C3)cc1)C(F)(F)F
REMARK SMILES IDX 18 1 17 2 16 3 14 4 15 5 12 7 13 8 11 9 8 10 9 11 10 13 7 15
REMARK SMILES IDX 3 16 4 17 5 18 6 19 2 20 1 21 90 22 91 23 92 24 93 25 19 26
REMARK SMILES IDX 20 27 21 28 22 29 23 31 24 32 25 33 89 34 26 35 88 36 27 37
REMARK SMILES IDX 28 38 29 39 82 40 30 41 87 42 81 43 83 44 31 45 86 46 80 47
REMARK SMILES IDX 79 48 32 50 66 51 45 52 65 53 46 54 49 55 64 56 84 57 47 58
REMARK SMILES IDX 48 59 63 61 85 62 50 63 33 64 34 65 43 66 35 67 36 68 42 69
REMARK SMILES IDX 44 70 37 71 38 72 39 73 40 74 41 75 67 76 68 77 77 78 69 79
REMARK SMILES IDX 70 80 76 81 78 82 71 83 72 84 73 85 74 86 75 87 51 88 52 89
REMARK SMILES IDX 61 90 53 91 54 92 60 93 62 94 55 95 56 96 57 97 58 98 59 99
REMARK H PARENT 16 6 8 12 11 14 21 30 83 49 49 60
REMARK Flexibility Score: inf
ROOT
ATOM      1  C   UNL A   1      34.858  24.083  23.550  1.00  0.00     0.023 C 
ENDROOT
BRANCH   1   2
ATOM      2  C   UNL A   1      33.527  24.441  24.212  1.00  0.00     0.116 C 
BRANCH   2   3
ATOM      3  N   UNL A   1      33.664  25.417  25.284  1.00  0.00    -0.354 N 
ATOM      4  C   UNL A   1      32.923  26.514  25.641  1.00  0.00     0.255 C 
ATOM      5  O   UNL A   1      33.429  27.237  26.502  1.00  0.00    -0.272 OA
ATOM      6  H   UNL A   1      34.441  25.259  25.867  1.00  0.00     0.163 HD
BRANCH   4   7
ATOM      7  C   UNL A   1      31.634  26.904  24.875  1.00  0.00     0.213 C 
ATOM      8  C   UNL A   1      31.352  28.358  25.298  1.00  0.00     0.056 C 
BRANCH   7   9
ATOM      9  N   UNL A   1      31.932  26.745  23.414  1.00  0.00    -0.316 N 
ATOM     10  N   UNL A   1      30.356  27.837  22.015  1.00  0.00    -0.333 N 
ATOM     11  C   UNL A   1      31.417  27.061  22.226  1.00  0.00     0.316 C 
ATOM     12  H   UNL A   1      30.105  27.888  21.065  1.00  0.00     0.165 HD
ATOM     13  O   UNL A   1      31.996  26.601  21.239  1.00  0.00    -0.249 OA
ATOM     14  H   UNL A   1      32.774  26.249  23.293  1.00  0.00     0.166 HD
BRANCH  10  15
ATOM     15  C   UNL A   1      29.495  28.618  22.863  1.00  0.00     0.112 C 
ATOM     16  C   UNL A   1      29.422  30.110  22.503  1.00  0.00     0.140 C 
ATOM     17  C   UNL A   1      28.275  30.584  23.404  1.00  0.00     0.034 C 
ATOM     18  C   UNL A   1      27.365  29.358  23.599  1.00  0.00     0.005 C 
ATOM     19  C   UNL A   1      28.031  28.203  22.848  1.00  0.00     0.028 C 
BRANCH  16  20
ATOM     20  O   UNL A   1      29.051  30.267  21.127  1.00  0.00    -0.379 OA
ATOM     21  C   UNL A   1      28.425  31.519  20.877  1.00  0.00     0.195 C 
ENDBRANCH  16  20
ENDBRANCH  10  15
ENDBRANCH   7   9
BRANCH   7  22
ATOM     22  C   UNL A   1      30.544  25.925  25.371  1.00  0.00     0.420 C 
ATOM     23  F   UNL A   1      29.309  26.478  25.361  1.00  0.00    -0.168 F 
ATOM     24  F   UNL A   1      30.457  24.824  24.580  1.00  0.00    -0.168 F 
ATOM     25  F   UNL A   1      30.794  25.458  26.617  1.00  0.00    -0.168 F 
ENDBRANCH   7  22
ENDBRANCH   4   7
ENDBRANCH   2   3
ENDBRANCH   1   2
BRANCH   1  26
ATOM     26  C   UNL A   1      35.728  23.083  24.311  1.00  0.00     0.023 C 
BRANCH  26  27
ATOM     27  C   UNL A   1      36.918  23.681  25.049  1.00  0.00     0.116 C 
BRANCH  27  28
ATOM     28  N   UNL A   1      37.995  22.730  25.270  1.00  0.00    -0.352 N 
ATOM     29  C   UNL A   1      39.160  22.907  25.979  1.00  0.00     0.251 C 
ATOM     30  H   UNL A   1      37.876  21.844  24.859  1.00  0.00     0.163 HD
ATOM     31  O   UNL A   1      40.018  22.030  25.983  1.00  0.00    -0.269 OA
BRANCH  29  32
ATOM     32  C   UNL A   1      39.384  24.179  26.699  1.00  0.00     0.039 A 
ATOM     33  C   UNL A   1      38.840  24.337  27.976  1.00  0.00     0.014 A 
ATOM     34  C   UNL A   1      40.167  25.190  26.135  1.00  0.00     0.014 A 
ATOM     35  C   UNL A   1      39.145  25.478  28.720  1.00  0.00     0.010 A 
ATOM     36  C   UNL A   1      40.527  26.292  26.904  1.00  0.00     0.010 A 
ATOM     37  C   UNL A   1      40.023  26.445  28.206  1.00  0.00    -0.014 A 
BRANCH  37  38
ATOM     38  C   UNL A   1      40.439  27.625  29.007  1.00  0.00     0.031 A 
ATOM     39  C   UNL A   1      41.729  27.587  29.779  1.00  0.00     0.074 A 
ATOM     40  C   UNL A   1      39.616  28.688  29.108  1.00  0.00     0.049 A 
ATOM     41  N   UNL A   1      42.206  28.457  30.630  1.00  0.00    -0.248 NA
ATOM     42  C   UNL A   1      42.578  26.401  29.591  1.00  0.00     0.031 C 
ATOM     43  C   UNL A   1      38.319  28.822  28.442  1.00  0.00     0.029 A 
ATOM     44  N   UNL A   1      39.740  29.851  29.827  1.00  0.00    -0.354 N 
ATOM     45  C   UNL A   1      43.397  27.914  31.096  1.00  0.00     0.074 A 
ATOM     46  C   UNL A   1      43.548  26.621  30.466  1.00  0.00     0.031 C 
ATOM     47  C   UNL A   1      37.774  30.004  28.773  1.00  0.00     0.029 A 
ATOM     48  C   UNL A   1      38.661  30.695  29.703  1.00  0.00     0.049 A 
ATOM     49  H   UNL A   1      40.528  30.060  30.378  1.00  0.00     0.167 HD
ATOM     50  C   UNL A   1      44.294  28.455  31.956  1.00  0.00     0.037 A 
ATOM     51  C   UNL A   1      38.410  31.884  30.285  1.00  0.00     0.037 A 
ATOM     52  C   UNL A   1      44.155  29.756  32.551  1.00  0.00     0.049 A 
ATOM     53  C   UNL A   1      39.427  32.470  31.227  1.00  0.00     0.074 A 
ATOM     54  C   UNL A   1      45.035  30.417  33.391  1.00  0.00     0.029 A 
ATOM     55  N   UNL A   1      43.067  30.599  32.368  1.00  0.00    -0.354 N 
ATOM     56  N   UNL A   1      40.573  31.966  31.617  1.00  0.00    -0.248 NA
ATOM     57  C   UNL A   1      39.122  33.787  31.804  1.00  0.00     0.031 C 
ATOM     58  C   UNL A   1      44.464  31.646  33.741  1.00  0.00     0.029 A 
ATOM     59  C   UNL A   1      43.248  31.768  33.086  1.00  0.00     0.049 A 
ATOM     60  H   UNL A   1      42.283  30.394  31.809  1.00  0.00     0.167 HD
ATOM     61  C   UNL A   1      41.140  32.915  32.458  1.00  0.00     0.074 A 
ATOM     62  C   UNL A   1      40.212  34.026  32.519  1.00  0.00     0.031 C 
ATOM     63  C   UNL A   1      42.324  32.873  33.118  1.00  0.00     0.037 A 
BRANCH  50  64
ATOM     64  C   UNL A   1      45.510  27.638  32.296  1.00  0.00     0.058 A 
ATOM     65  C   UNL A   1      45.544  26.806  33.427  1.00  0.00     0.135 A 
ATOM     66  C   UNL A   1      46.645  27.666  31.469  1.00  0.00     0.135 A 
ATOM     67  F   UNL A   1      44.492  26.754  34.260  1.00  0.00    -0.206 F 
ATOM     68  C   UNL A   1      46.669  26.054  33.743  1.00  0.00     0.059 A 
ATOM     69  C   UNL A   1      47.773  26.900  31.752  1.00  0.00     0.059 A 
ATOM     70  F   UNL A   1      46.666  28.445  30.376  1.00  0.00    -0.206 F 
ATOM     71  C   UNL A   1      47.781  26.109  32.899  1.00  0.00     0.060 A 
BRANCH  71  72
ATOM     72  S   UNL A   1      49.235  25.128  33.323  1.00  0.00     0.124 S 
ATOM     73  O   UNL A   1      49.797  24.858  32.003  1.00  0.00    -0.237 OA
ATOM     74  O   UNL A   1      50.000  26.045  34.161  1.00  0.00    -0.237 OA
ATOM     75  O   UNL A   1      48.674  23.971  34.014  1.00  0.00    -0.744 OA
ENDBRANCH  71  72
ENDBRANCH  50  64
BRANCH  51  76
ATOM     76  C   UNL A   1      37.151  32.611  29.973  1.00  0.00     0.058 A 
ATOM     77  C   UNL A   1      35.971  32.343  30.682  1.00  0.00     0.135 A 
ATOM     78  C   UNL A   1      37.105  33.597  28.975  1.00  0.00     0.135 A 
ATOM     79  F   UNL A   1      35.964  31.406  31.641  1.00  0.00    -0.206 F 
ATOM     80  C   UNL A   1      34.786  33.017  30.407  1.00  0.00     0.059 A 
ATOM     81  C   UNL A   1      35.937  34.300  28.697  1.00  0.00     0.059 A 
ATOM     82  F   UNL A   1      38.211  33.902  28.280  1.00  0.00    -0.206 F 
ATOM     83  C   UNL A   1      34.779  33.996  29.412  1.00  0.00     0.060 A 
BRANCH  83  84
ATOM     84  S   UNL A   1      33.249  34.904  29.098  1.00  0.00     0.124 S 
ATOM     85  O   UNL A   1      32.602  34.052  28.107  1.00  0.00    -0.237 OA
ATOM     86  O   UNL A   1      32.631  34.930  30.420  1.00  0.00    -0.237 OA
ATOM     87  O   UNL A   1      33.721  36.196  28.610  1.00  0.00    -0.744 OA
ENDBRANCH  83  84
ENDBRANCH  51  76
BRANCH  63  88
ATOM     88  C   UNL A   1      42.713  34.078  33.926  1.00  0.00     0.058 A 
ATOM     89  C   UNL A   1      42.261  34.263  35.241  1.00  0.00     0.135 A 
ATOM     90  C   UNL A   1      43.615  35.018  33.401  1.00  0.00     0.135 A 
ATOM     91  F   UNL A   1      41.392  33.396  35.785  1.00  0.00    -0.206 F 
ATOM     92  C   UNL A   1      42.682  35.347  36.005  1.00  0.00     0.059 A 
ATOM     93  C   UNL A   1      44.067  36.095  34.156  1.00  0.00     0.059 A 
ATOM     94  F   UNL A   1      44.084  34.880  32.150  1.00  0.00    -0.206 F 
ATOM     95  C   UNL A   1      43.589  36.254  35.455  1.00  0.00     0.060 A 
BRANCH  95  96
ATOM     96  S   UNL A   1      44.171  37.625  36.477  1.00  0.00     0.124 S 
ATOM     97  O   UNL A   1      43.873  38.773  35.627  1.00  0.00    -0.237 OA
ATOM     98  O   UNL A   1      43.348  37.493  37.676  1.00  0.00    -0.237 OA
ATOM     99  O   UNL A   1      45.589  37.331  36.663  1.00  0.00    -0.744 OA
ENDBRANCH  95  96
ENDBRANCH  63  88
ENDBRANCH  37  38
ENDBRANCH  29  32
ENDBRANCH  27  28
ENDBRANCH  26  27
ENDBRANCH   1  26
TORSDOF 18
ENDMDL
MODEL 2
REMARK VINA RESULT:     -10.6      5.087     10.418
REMARK SMILES CO[C@H]1CCC[C@H]1NC(=O)N[C@](C)(C(=O)NCCCCNC(=O)c1ccc(-c2c3nc(c(-c4c(F)cc(S(=O)(=O)[O-])cc4F)c4ccc([nH]4)c(-c4c(F)cc(S(=O)(=O)[O-])cc4F)c4nc(c(-c5c(F)cc(S(=O)(=O)[O-])cc5F)c5ccc2[nH]5)C=C4)C=C3)cc1)C(F)(F)F
REMARK SMILES IDX 18 1 17 2 16 3 14 4 15 5 12 7 13 8 11 9 8 10 9 11 10 13 7 15
REMARK SMILES IDX 3 16 4 17 5 18 6 19 2 20 1 21 90 22 91 23 92 24 93 25 19 26
REMARK SMILES IDX 20 27 21 28 22 29 23 31 24 32 25 33 89 34 26 35 88 36 27 37
REMARK SMILES IDX 28 38 29 39 82 40 30 41 87 42 81 43 83 44 31 45 86 46 80 47
REMARK SMILES IDX 79 48 32 50 66 51 45 52 65 53 46 54 49 55 64 56 84 57 47 58
REMARK SMILES IDX 48 59 63 61 85 62 50 63 33 64 34 65 43 66 35 67 36 68 42 69
REMARK SMILES IDX 44 70 37 71 38 72 39 73 40 74 41 75 67 76 68 77 77 78 69 79
REMARK SMILES IDX 70 80 76 81 78 82 71 83 72 84 73 85 74 86 75 87 51 88 52 89
REMARK SMILES IDX 61 90 53 91 54 92 60 93 62 94 55 95 56 96 57 97 58 98 59 99
REMARK H PARENT 16 6 8 12 11 14 21 30 83 49 49 60
REMARK Flexibility Score: inf
ROOT
ATOM      1  C   UNL A   1      35.325  29.581  26.917  1.00  0.00     0.023 C 
ENDROOT
BRANCH   1   2
ATOM      2  C   UNL A   1      34.422  28.412  26.523  1.00  0.00     0.116 C 
BRANCH   2   3
ATOM      3  N   UNL A   1      33.191  28.351  27.298  1.00  0.00    -0.354 N 
ATOM      4  C   UNL A   1      32.075  27.561  27.208  1.00  0.00     0.255 C 
ATOM      5  O   UNL A   1      31.126  27.901  27.919  1.00  0.00    -0.272 OA
ATOM      6  H   UNL A   1      33.152  29.007  28.031  1.00  0.00     0.163 HD
BRANCH   4   7
ATOM      7  C   UNL A   1      31.962  26.437  26.148  1.00  0.00     0.213 C 
ATOM      8  C   UNL A   1      33.415  26.014  25.868  1.00  0.00     0.056 C 
BRANCH   7   9
ATOM      9  N   UNL A   1      31.120  25.352  26.753  1.00  0.00    -0.316 N 
ATOM     10  N   UNL A   1      31.181  23.325  25.520  1.00  0.00    -0.333 N 
ATOM     11  C   UNL A   1      30.737  24.100  26.507  1.00  0.00     0.316 C 
ATOM     12  H   UNL A   1      30.719  22.458  25.479  1.00  0.00     0.165 HD
ATOM     13  O   UNL A   1      29.907  23.620  27.283  1.00  0.00    -0.249 OA
ATOM     14  H   UNL A   1      30.725  25.664  27.600  1.00  0.00     0.166 HD
BRANCH  10  15
ATOM     15  C   UNL A   1      32.185  23.472  24.499  1.00  0.00     0.112 C 
ATOM     16  C   UNL A   1      33.341  22.464  24.588  1.00  0.00     0.140 C 
ATOM     17  C   UNL A   1      34.072  22.722  23.265  1.00  0.00     0.034 C 
ATOM     18  C   UNL A   1      32.994  23.219  22.284  1.00  0.00     0.005 C 
ATOM     19  C   UNL A   1      31.686  23.277  23.075  1.00  0.00     0.028 C 
BRANCH  16  20
ATOM     20  O   UNL A   1      32.827  21.125  24.601  1.00  0.00    -0.379 OA
ATOM     21  C   UNL A   1      33.856  20.153  24.741  1.00  0.00     0.195 C 
ENDBRANCH  16  20
ENDBRANCH  10  15
ENDBRANCH   7   9
BRANCH   7  22
ATOM     22  C   UNL A   1      31.292  27.093  24.917  1.00  0.00     0.420 C 
ATOM     23  F   UNL A   1      31.412  28.441  24.921  1.00  0.00    -0.168 F 
ATOM     24  F   UNL A   1      31.860  26.680  23.754  1.00  0.00    -0.168 F 
ATOM     25  F   UNL A   1      29.980  26.779  24.811  1.00  0.00    -0.168 F 
ENDBRANCH   7  22
ENDBRANCH   4   7
ENDBRANCH   2   3
ENDBRANCH   1   2
BRANCH   1  26
ATOM     26  C   UNL A   1      34.731  30.566  27.923  1.00  0.00     0.023 C 
BRANCH  26  27
ATOM     27  C   UNL A   1      35.737  31.262  28.829  1.00  0.00     0.116 C 
BRANCH  27  28
ATOM     28  N   UNL A   1      35.605  30.890  30.229  1.00  0.00    -0.352 N 
ATOM     29  C   UNL A   1      36.557  30.354  31.065  1.00  0.00     0.251 C 
ATOM     30  H   UNL A   1      34.719  31.040  30.630  1.00  0.00     0.163 HD
ATOM     31  O   UNL A   1      36.251  29.999  32.198  1.00  0.00    -0.269 OA
BRANCH  29  32
ATOM     32  C   UNL A   1      37.938  30.172  30.569  1.00  0.00     0.039 A 
ATOM     33  C   UNL A   1      38.957  29.916  31.489  1.00  0.00     0.014 A 
ATOM     34  C   UNL A   1      38.214  30.207  29.199  1.00  0.00     0.014 A 
ATOM     35  C   UNL A   1      40.242  29.618  31.031  1.00  0.00     0.010 A 
ATOM     36  C   UNL A   1      39.477  29.840  28.743  1.00  0.00     0.010 A 
ATOM     37  C   UNL A   1      40.501  29.538  29.654  1.00  0.00    -0.014 A 
BRANCH  37  38
ATOM     38  C   UNL A   1      41.833  29.134  29.134  1.00  0.00     0.031 A 
ATOM     39  C   UNL A   1      42.920  30.162  28.985  1.00  0.00     0.074 A 
ATOM     40  C   UNL A   1      42.032  27.869  28.714  1.00  0.00     0.049 A 
ATOM     41  N   UNL A   1      44.102  30.040  28.439  1.00  0.00    -0.248 NA
ATOM     42  C   UNL A   1      42.628  31.512  29.492  1.00  0.00     0.031 C 
ATOM     43  C   UNL A   1      41.039  26.793  28.766  1.00  0.00     0.029 A 
ATOM     44  N   UNL A   1      43.131  27.277  28.144  1.00  0.00    -0.354 N 
ATOM     45  C   UNL A   1      44.684  31.300  28.514  1.00  0.00     0.074 A 
ATOM     46  C   UNL A   1      43.709  32.181  29.119  1.00  0.00     0.031 C 
ATOM     47  C   UNL A   1      41.579  25.672  28.261  1.00  0.00     0.029 A 
ATOM     48  C   UNL A   1      42.939  25.955  27.814  1.00  0.00     0.049 A 
ATOM     49  H   UNL A   1      43.978  27.754  27.987  1.00  0.00     0.167 HD
ATOM     50  C   UNL A   1      45.926  31.682  28.133  1.00  0.00     0.037 A 
ATOM     51  C   UNL A   1      43.761  25.077  27.207  1.00  0.00     0.037 A 
ATOM     52  C   UNL A   1      46.903  30.792  27.564  1.00  0.00     0.049 A 
ATOM     53  C   UNL A   1      45.140  25.521  26.804  1.00  0.00     0.074 A 
ATOM     54  C   UNL A   1      48.208  31.069  27.196  1.00  0.00     0.029 A 
ATOM     55  N   UNL A   1      46.684  29.451  27.285  1.00  0.00    -0.354 N 
ATOM     56  N   UNL A   1      45.694  26.704  26.929  1.00  0.00    -0.248 NA
ATOM     57  C   UNL A   1      46.011  24.513  26.182  1.00  0.00     0.031 C 
ATOM     58  C   UNL A   1      48.768  29.903  26.663  1.00  0.00     0.029 A 
ATOM     59  C   UNL A   1      47.825  28.889  26.738  1.00  0.00     0.049 A 
ATOM     60  H   UNL A   1      45.841  28.970  27.450  1.00  0.00     0.167 HD
ATOM     61  C   UNL A   1      46.985  26.575  26.432  1.00  0.00     0.074 A 
ATOM     62  C   UNL A   1      47.133  25.198  26.007  1.00  0.00     0.031 C 
ATOM     63  C   UNL A   1      47.962  27.511  26.340  1.00  0.00     0.037 A 
BRANCH  50  64
ATOM     64  C   UNL A   1      46.300  33.126  28.325  1.00  0.00     0.058 A 
ATOM     65  C   UNL A   1      46.092  34.080  27.317  1.00  0.00     0.135 A 
ATOM     66  C   UNL A   1      46.846  33.567  29.541  1.00  0.00     0.135 A 
ATOM     67  F   UNL A   1      45.588  33.709  26.129  1.00  0.00    -0.206 F 
ATOM     68  C   UNL A   1      46.441  35.414  27.495  1.00  0.00     0.059 A 
ATOM     69  C   UNL A   1      47.178  34.903  29.751  1.00  0.00     0.059 A 
ATOM     70  F   UNL A   1      47.066  32.696  30.539  1.00  0.00    -0.206 F 
ATOM     71  C   UNL A   1      46.986  35.816  28.716  1.00  0.00     0.060 A 
BRANCH  71  72
ATOM     72  S   UNL A   1      47.433  37.551  28.932  1.00  0.00     0.124 S 
ATOM     73  O   UNL A   1      48.227  37.797  27.732  1.00  0.00    -0.237 OA
ATOM     74  O   UNL A   1      46.131  38.208  28.974  1.00  0.00    -0.237 OA
ATOM     75  O   UNL A   1      48.176  37.556  30.188  1.00  0.00    -0.744 OA
ENDBRANCH  71  72
ENDBRANCH  50  64
BRANCH  51  76
ATOM     76  C   UNL A   1      43.308  23.681  26.968  1.00  0.00     0.058 A 
ATOM     77  C   UNL A   1      43.212  22.765  28.026  1.00  0.00     0.135 A 
ATOM     78  C   UNL A   1      42.946  23.239  25.686  1.00  0.00     0.135 A 
ATOM     79  F   UNL A   1      43.553  23.138  29.269  1.00  0.00    -0.206 F 
ATOM     80  C   UNL A   1      42.786  21.457  27.822  1.00  0.00     0.059 A 
ATOM     81  C   UNL A   1      42.494  21.943  25.461  1.00  0.00     0.059 A 
ATOM     82  F   UNL A   1      43.003  24.082  24.644  1.00  0.00    -0.206 F 
ATOM     83  C   UNL A   1      42.427  21.055  26.534  1.00  0.00     0.060 A 
BRANCH  83  84
ATOM     84  S   UNL A   1      41.823  19.370  26.288  1.00  0.00     0.124 S 
ATOM     85  O   UNL A   1      42.309  18.707  27.492  1.00  0.00    -0.237 OA
ATOM     86  O   UNL A   1      40.380  19.571  26.205  1.00  0.00    -0.237 OA
ATOM     87  O   UNL A   1      42.464  18.965  25.040  1.00  0.00    -0.744 OA
ENDBRANCH  83  84
ENDBRANCH  51  76
BRANCH  63  88
ATOM     88  C   UNL A   1      49.295  27.075  25.803  1.00  0.00     0.058 A 
ATOM     89  C   UNL A   1      49.602  27.151  24.437  1.00  0.00     0.135 A 
ATOM     90  C   UNL A   1      50.305  26.648  26.682  1.00  0.00     0.135 A 
ATOM     91  F   UNL A   1      48.669  27.546  23.556  1.00  0.00    -0.206 F 
ATOM     92  C   UNL A   1      50.863  26.810  23.958  1.00  0.00     0.059 A 
ATOM     93  C   UNL A   1      51.578  26.325  26.227  1.00  0.00     0.059 A 
ATOM     94  F   UNL A   1      50.063  26.567  28.000  1.00  0.00    -0.206 F 
ATOM     95  C   UNL A   1      51.845  26.403  24.862  1.00  0.00     0.060 A 
BRANCH  95  96
ATOM     96  S   UNL A   1      53.494  26.017  24.234  1.00  0.00     0.124 S 
ATOM     97  O   UNL A   1      54.283  27.114  24.786  1.00  0.00    -0.237 OA
ATOM     98  O   UNL A   1      53.749  24.700  24.809  1.00  0.00    -0.237 OA
ATOM     99  O   UNL A   1      53.319  26.037  22.784  1.00  0.00    -0.744 OA
ENDBRANCH  95  96
ENDBRANCH  63  88
ENDBRANCH  37  38
ENDBRANCH  29  32
ENDBRANCH  27  28
ENDBRANCH  26  27
ENDBRANCH   1  26
TORSDOF 18
ENDMDL
MODEL 3
REMARK VINA RESULT:     -10.6      4.848      6.387
REMARK SMILES CO[C@H]1CCC[C@H]1NC(=O)N[C@](C)(C(=O)NCCCCNC(=O)c1ccc(-c2c3nc(c(-c4c(F)cc(S(=O)(=O)[O-])cc4F)c4ccc([nH]4)c(-c4c(F)cc(S(=O)(=O)[O-])cc4F)c4nc(c(-c5c(F)cc(S(=O)(=O)[O-])cc5F)c5ccc2[nH]5)C=C4)C=C3)cc1)C(F)(F)F
REMARK SMILES IDX 18 1 17 2 16 3 14 4 15 5 12 7 13 8 11 9 8 10 9 11 10 13 7 15
REMARK SMILES IDX 3 16 4 17 5 18 6 19 2 20 1 21 90 22 91 23 92 24 93 25 19 26
REMARK SMILES IDX 20 27 21 28 22 29 23 31 24 32 25 33 89 34 26 35 88 36 27 37
REMARK SMILES IDX 28 38 29 39 82 40 30 41 87 42 81 43 83 44 31 45 86 46 80 47
REMARK SMILES IDX 79 48 32 50 66 51 45 52 65 53 46 54 49 55 64 56 84 57 47 58
REMARK SMILES IDX 48 59 63 61 85 62 50 63 33 64 34 65 43 66 35 67 36 68 42 69
REMARK SMILES IDX 44 70 37 71 38 72 39 73 40 74 41 75 67 76 68 77 77 78 69 79
REMARK SMILES IDX 70 80 76 81 78 82 71 83 72 84 73 85 74 86 75 87 51 88 52 89
REMARK SMILES IDX 61 90 53 91 54 92 60 93 62 94 55 95 56 96 57 97 58 98 59 99
REMARK H PARENT 16 6 8 12 11 14 21 30 83 49 49 60
REMARK Flexibility Score: inf
ROOT
ATOM      1  C   UNL A   1      37.238  19.943  25.012  1.00  0.00     0.023 C 
ENDROOT
BRANCH   1   2
ATOM      2  C   UNL A   1      35.927  20.723  24.909  1.00  0.00     0.116 C 
BRANCH   2   3
ATOM      3  N   UNL A   1      34.755  19.922  25.229  1.00  0.00    -0.354 N 
ATOM      4  C   UNL A   1      33.494  20.249  25.656  1.00  0.00     0.255 C 
ATOM      5  O   UNL A   1      32.793  19.300  26.013  1.00  0.00    -0.272 OA
ATOM      6  H   UNL A   1      34.894  18.954  25.117  1.00  0.00     0.163 HD
BRANCH   4   7
ATOM      7  C   UNL A   1      33.062  21.724  25.849  1.00  0.00     0.213 C 
ATOM      8  C   UNL A   1      33.481  22.429  24.546  1.00  0.00     0.056 C 
BRANCH   7   9
ATOM      9  N   UNL A   1      31.581  21.716  26.084  1.00  0.00    -0.316 N 
ATOM     10  N   UNL A   1      30.589  23.862  25.875  1.00  0.00    -0.333 N 
ATOM     11  C   UNL A   1      30.553  22.561  26.154  1.00  0.00     0.316 C 
ATOM     12  H   UNL A   1      29.735  24.314  26.055  1.00  0.00     0.165 HD
ATOM     13  O   UNL A   1      29.470  22.078  26.493  1.00  0.00    -0.249 OA
ATOM     14  H   UNL A   1      31.268  20.794  26.236  1.00  0.00     0.166 HD
BRANCH  10  15
ATOM     15  C   UNL A   1      31.598  24.755  25.369  1.00  0.00     0.112 C 
ATOM     16  C   UNL A   1      31.096  25.764  24.324  1.00  0.00     0.140 C 
ATOM     17  C   UNL A   1      32.311  26.689  24.185  1.00  0.00     0.034 C 
ATOM     18  C   UNL A   1      33.030  26.638  25.546  1.00  0.00     0.005 C 
ATOM     19  C   UNL A   1      32.241  25.655  26.413  1.00  0.00     0.028 C 
BRANCH  16  20
ATOM     20  O   UNL A   1      29.984  26.503  24.848  1.00  0.00    -0.379 OA
ATOM     21  C   UNL A   1      28.849  26.448  23.993  1.00  0.00     0.195 C 
ENDBRANCH  16  20
ENDBRANCH  10  15
ENDBRANCH   7   9
BRANCH   7  22
ATOM     22  C   UNL A   1      33.857  22.233  27.075  1.00  0.00     0.420 C 
ATOM     23  F   UNL A   1      34.505  21.236  27.721  1.00  0.00    -0.168 F 
ATOM     24  F   UNL A   1      34.821  23.122  26.718  1.00  0.00    -0.168 F 
ATOM     25  F   UNL A   1      33.075  22.885  27.966  1.00  0.00    -0.168 F 
ENDBRANCH   7  22
ENDBRANCH   4   7
ENDBRANCH   2   3
ENDBRANCH   1   2
BRANCH   1  26
ATOM     26  C   UNL A   1      38.512  20.787  25.009  1.00  0.00     0.023 C 
BRANCH  26  27
ATOM     27  C   UNL A   1      39.397  20.639  26.239  1.00  0.00     0.116 C 
BRANCH  27  28
ATOM     28  N   UNL A   1      40.348  19.543  26.135  1.00  0.00    -0.352 N 
ATOM     29  C   UNL A   1      41.722  19.600  26.141  1.00  0.00     0.251 C 
ATOM     30  H   UNL A   1      39.958  18.644  26.050  1.00  0.00     0.163 HD
ATOM     31  O   UNL A   1      42.381  18.585  25.940  1.00  0.00    -0.269 OA
BRANCH  29  32
ATOM     32  C   UNL A   1      42.393  20.901  26.349  1.00  0.00     0.039 A 
ATOM     33  C   UNL A   1      42.742  21.666  25.233  1.00  0.00     0.014 A 
ATOM     34  C   UNL A   1      42.634  21.382  27.639  1.00  0.00     0.014 A 
ATOM     35  C   UNL A   1      43.262  22.950  25.411  1.00  0.00     0.010 A 
ATOM     36  C   UNL A   1      43.084  22.687  27.813  1.00  0.00     0.010 A 
ATOM     37  C   UNL A   1      43.399  23.485  26.702  1.00  0.00    -0.014 A 
BRANCH  37  38
ATOM     38  C   UNL A   1      43.862  24.879  26.922  1.00  0.00     0.031 A 
ATOM     39  C   UNL A   1      45.315  25.221  26.742  1.00  0.00     0.074 A 
ATOM     40  C   UNL A   1      42.995  25.809  27.370  1.00  0.00     0.049 A 
ATOM     41  N   UNL A   1      45.938  26.340  27.004  1.00  0.00    -0.248 NA
ATOM     42  C   UNL A   1      46.187  24.153  26.227  1.00  0.00     0.031 C 
ATOM     43  C   UNL A   1      41.570  25.587  27.625  1.00  0.00     0.029 A 
ATOM     44  N   UNL A   1      43.189  27.126  27.706  1.00  0.00    -0.354 N 
ATOM     45  C   UNL A   1      47.276  26.105  26.709  1.00  0.00     0.074 A 
ATOM     46  C   UNL A   1      47.381  24.724  26.290  1.00  0.00     0.031 C 
ATOM     47  C   UNL A   1      41.018  26.729  28.066  1.00  0.00     0.029 A 
ATOM     48  C   UNL A   1      42.053  27.754  28.161  1.00  0.00     0.049 A 
ATOM     49  H   UNL A   1      44.060  27.578  27.628  1.00  0.00     0.167 HD
ATOM     50  C   UNL A   1      48.318  26.969  26.762  1.00  0.00     0.037 A 
ATOM     51  C   UNL A   1      41.871  29.008  28.618  1.00  0.00     0.037 A 
ATOM     52  C   UNL A   1      48.200  28.350  27.147  1.00  0.00     0.049 A 
ATOM     53  C   UNL A   1      43.041  29.953  28.657  1.00  0.00     0.074 A 
ATOM     54  C   UNL A   1      49.186  29.321  27.179  1.00  0.00     0.029 A 
ATOM     55  N   UNL A   1      47.024  28.959  27.560  1.00  0.00    -0.354 N 
ATOM     56  N   UNL A   1      44.290  29.729  28.324  1.00  0.00    -0.248 NA
ATOM     57  C   UNL A   1      42.779  31.321  29.125  1.00  0.00     0.031 C 
ATOM     58  C   UNL A   1      48.612  30.509  27.645  1.00  0.00     0.029 A 
ATOM     59  C   UNL A   1      47.261  30.289  27.862  1.00  0.00     0.049 A 
ATOM     60  H   UNL A   1      46.150  28.511  27.630  1.00  0.00     0.167 HD
ATOM     61  C   UNL A   1      44.956  30.934  28.513  1.00  0.00     0.074 A 
ATOM     62  C   UNL A   1      43.971  31.885  28.986  1.00  0.00     0.031 C 
ATOM     63  C   UNL A   1      46.264  31.228  28.310  1.00  0.00     0.037 A 
BRANCH  50  64
ATOM     64  C   UNL A   1      49.677  26.443  26.389  1.00  0.00     0.058 A 
ATOM     65  C   UNL A   1      50.201  26.610  25.097  1.00  0.00     0.135 A 
ATOM     66  C   UNL A   1      50.476  25.789  27.341  1.00  0.00     0.135 A 
ATOM     67  F   UNL A   1      49.472  27.214  24.145  1.00  0.00    -0.206 F 
ATOM     68  C   UNL A   1      51.455  26.120  24.753  1.00  0.00     0.059 A 
ATOM     69  C   UNL A   1      51.746  25.315  27.025  1.00  0.00     0.059 A 
ATOM     70  F   UNL A   1      50.023  25.602  28.590  1.00  0.00    -0.206 F 
ATOM     71  C   UNL A   1      52.220  25.471  25.724  1.00  0.00     0.060 A 
BRANCH  71  72
ATOM     72  S   UNL A   1      53.847  24.841  25.262  1.00  0.00     0.124 S 
ATOM     73  O   UNL A   1      53.567  23.421  25.078  1.00  0.00    -0.237 OA
ATOM     74  O   UNL A   1      54.140  25.591  24.044  1.00  0.00    -0.237 OA
ATOM     75  O   UNL A   1      54.680  25.173  26.413  1.00  0.00    -0.744 OA
ENDBRANCH  71  72
ENDBRANCH  50  64
BRANCH  51  76
ATOM     76  C   UNL A   1      40.518  29.450  29.051  1.00  0.00     0.058 A 
ATOM     77  C   UNL A   1      39.505  29.691  28.111  1.00  0.00     0.135 A 
ATOM     78  C   UNL A   1      40.206  29.622  30.409  1.00  0.00     0.135 A 
ATOM     79  F   UNL A   1      39.757  29.545  26.802  1.00  0.00    -0.206 F 
ATOM     80  C   UNL A   1      38.234  30.099  28.499  1.00  0.00     0.059 A 
ATOM     81  C   UNL A   1      38.935  30.008  30.822  1.00  0.00     0.059 A 
ATOM     82  F   UNL A   1      41.135  29.387  31.348  1.00  0.00    -0.206 F 
ATOM     83  C   UNL A   1      37.957  30.255  29.858  1.00  0.00     0.060 A 
BRANCH  83  84
ATOM     84  S   UNL A   1      36.287  30.733  30.355  1.00  0.00     0.124 S 
ATOM     85  O   UNL A   1      35.568  30.638  29.090  1.00  0.00    -0.237 OA
ATOM     86  O   UNL A   1      35.962  29.720  31.354  1.00  0.00    -0.237 OA
ATOM     87  O   UNL A   1      36.469  32.084  30.879  1.00  0.00    -0.744 OA
ENDBRANCH  83  84
ENDBRANCH  51  76
BRANCH  63  88
ATOM     88  C   UNL A   1      46.704  32.644  28.549  1.00  0.00     0.058 A 
ATOM     89  C   UNL A   1      46.642  33.617  27.541  1.00  0.00     0.135 A 
ATOM     90  C   UNL A   1      47.121  33.047  29.829  1.00  0.00     0.135 A 
ATOM     91  F   UNL A   1      46.257  33.280  26.300  1.00  0.00    -0.206 F 
ATOM     92  C   UNL A   1      46.987  34.941  27.791  1.00  0.00     0.059 A 
ATOM     93  C   UNL A   1      47.448  34.370  30.105  1.00  0.00     0.059 A 
ATOM     94  F   UNL A   1      47.189  32.154  30.830  1.00  0.00    -0.206 F 
ATOM     95  C   UNL A   1      47.384  35.309  29.078  1.00  0.00     0.060 A 
BRANCH  95  96
ATOM     96  S   UNL A   1      47.775  37.042  29.402  1.00  0.00     0.124 S 
ATOM     97  O   UNL A   1      49.234  37.019  29.402  1.00  0.00    -0.237 OA
ATOM     98  O   UNL A   1      47.151  37.721  28.271  1.00  0.00    -0.237 OA
ATOM     99  O   UNL A   1      47.150  37.293  30.698  1.00  0.00    -0.744 OA
ENDBRANCH  95  96
ENDBRANCH  63  88
ENDBRANCH  37  38
ENDBRANCH  29  32
ENDBRANCH  27  28
ENDBRANCH  26  27
ENDBRANCH   1  26
TORSDOF 18
ENDMDL
