MODEL 1
REMARK VINA RESULT:     -12.9      0.000      0.000
REMARK SMILES Cc1ccc(-c2nc(C)c(C)c(OCCC(=O)NCCCCNC(=O)c3ccc(-c4c5nc(c(-c6c(F)cc(S(=O)(=O)[O-])cc6F)c6ccc([nH]6)c(-c6c(F)cc(S(=O)(=O)[O-])cc6F)c6nc(c(-c7c(F)cc(S(=O)(=O)[O-])cc7F)c7ccc4[nH]7)C=C6)C=C5)cc3)n2)cc1
REMARK SMILES IDX 20 1 19 2 18 3 16 4 17 5 15 7 14 8 13 9 12 10 6 11 7 12
REMARK SMILES IDX 92 13 8 14 9 15 10 16 11 17 5 18 1 19 2 20 3 21 94 22 4 23
REMARK SMILES IDX 93 24 21 25 22 26 23 27 24 28 25 30 26 31 27 32 91 33 28 34
REMARK SMILES IDX 90 35 29 36 30 37 31 38 84 39 32 40 89 41 83 42 85 43 33 44
REMARK SMILES IDX 88 45 82 46 81 47 34 49 68 50 47 51 67 52 48 53 51 54 66 55
REMARK SMILES IDX 86 56 49 57 50 58 65 60 87 61 52 62 35 63 36 64 45 65 37 66
REMARK SMILES IDX 38 67 44 68 46 69 39 70 40 71 41 72 42 73 43 74 69 75 70 76
REMARK SMILES IDX 79 77 71 78 72 79 78 80 80 81 73 82 74 83 75 84 76 85 77 86
REMARK SMILES IDX 53 87 54 88 63 89 55 90 56 91 62 92 64 93 57 94 58 95 59 96
REMARK SMILES IDX 60 97 61 98
REMARK H PARENT 18 6 23 29 85 48 51 59
REMARK Flexibility Score: inf
ROOT
ATOM      1  C   UNL A   1      31.530  30.037  25.201  1.00  0.00     0.023 C 
ENDROOT
BRANCH   1   2
ATOM      2  C   UNL A   1      32.682  29.034  25.085  1.00  0.00     0.116 C 
BRANCH   2   3
ATOM      3  N   UNL A   1      33.279  28.944  23.762  1.00  0.00    -0.356 N 
ATOM      4  C   UNL A   1      33.737  27.862  23.079  1.00  0.00     0.223 C 
ATOM      5  O   UNL A   1      34.083  28.001  21.904  1.00  0.00    -0.275 OA
ATOM      6  H   UNL A   1      33.364  29.803  23.285  1.00  0.00     0.163 HD
BRANCH   4   7
ATOM      7  C   UNL A   1      33.766  26.506  23.740  1.00  0.00     0.141 C 
BRANCH   7   8
ATOM      8  C   UNL A   1      32.920  25.502  22.966  1.00  0.00     0.241 C 
BRANCH   8   9
ATOM      9  O   UNL A   1      33.754  24.529  22.327  1.00  0.00    -0.477 OA
BRANCH   9  10
ATOM     10  C   UNL A   1      34.154  23.454  23.098  1.00  0.00     0.220 A 
ATOM     11  C   UNL A   1      35.712  22.427  24.407  1.00  0.00     0.163 A 
ATOM     12  N   UNL A   1      34.909  21.382  24.663  1.00  0.00    -0.233 NA
ATOM     13  N   UNL A   1      35.390  23.463  23.616  1.00  0.00    -0.193 NA
ATOM     14  C   UNL A   1      33.648  21.434  24.172  1.00  0.00     0.048 A 
ATOM     15  C   UNL A   1      32.752  20.308  24.602  1.00  0.00     0.067 C 
ATOM     16  C   UNL A   1      33.208  22.470  23.355  1.00  0.00     0.032 A 
ATOM     17  C   UNL A   1      31.779  22.616  22.930  1.00  0.00     0.052 C 
BRANCH  11  18
ATOM     18  C   UNL A   1      36.983  22.504  25.145  1.00  0.00     0.019 A 
ATOM     19  C   UNL A   1      40.749  22.675  27.295  1.00  0.00     0.044 C 
ATOM     20  C   UNL A   1      39.460  22.620  26.531  1.00  0.00    -0.051 A 
ATOM     21  C   UNL A   1      38.623  23.741  26.470  1.00  0.00     0.004 A 
ATOM     22  C   UNL A   1      39.061  21.445  25.892  1.00  0.00     0.004 A 
ATOM     23  C   UNL A   1      37.407  23.685  25.776  1.00  0.00     0.012 A 
ATOM     24  C   UNL A   1      37.841  21.393  25.215  1.00  0.00     0.012 A 
ENDBRANCH  11  18
ENDBRANCH   9  10
ENDBRANCH   8   9
ENDBRANCH   7   8
ENDBRANCH   4   7
ENDBRANCH   2   3
ENDBRANCH   1   2
BRANCH   1  25
ATOM     25  C   UNL A   1      31.691  30.977  26.395  1.00  0.00     0.023 C 
BRANCH  25  26
ATOM     26  C   UNL A   1      32.874  30.659  27.300  1.00  0.00     0.116 C 
BRANCH  26  27
ATOM     27  N   UNL A   1      33.742  31.791  27.625  1.00  0.00    -0.352 N 
ATOM     28  C   UNL A   1      34.984  31.762  28.253  1.00  0.00     0.251 C 
ATOM     29  H   UNL A   1      33.409  32.680  27.368  1.00  0.00     0.163 HD
ATOM     30  O   UNL A   1      35.596  32.770  28.588  1.00  0.00    -0.269 OA
BRANCH  28  31
ATOM     31  C   UNL A   1      35.602  30.434  28.429  1.00  0.00     0.039 A 
ATOM     32  C   UNL A   1      35.775  30.034  29.759  1.00  0.00     0.014 A 
ATOM     33  C   UNL A   1      36.431  29.976  27.412  1.00  0.00     0.014 A 
ATOM     34  C   UNL A   1      36.973  29.438  30.127  1.00  0.00     0.010 A 
ATOM     35  C   UNL A   1      37.658  29.465  27.797  1.00  0.00     0.010 A 
ATOM     36  C   UNL A   1      37.966  29.301  29.160  1.00  0.00    -0.014 A 
BRANCH  36  37
ATOM     37  C   UNL A   1      39.386  29.186  29.503  1.00  0.00     0.031 A 
ATOM     38  C   UNL A   1      40.117  27.935  29.169  1.00  0.00     0.074 A 
ATOM     39  C   UNL A   1      40.067  30.224  30.053  1.00  0.00     0.049 A 
ATOM     40  N   UNL A   1      41.246  27.586  29.686  1.00  0.00    -0.248 NA
ATOM     41  C   UNL A   1      39.596  26.942  28.235  1.00  0.00     0.031 C 
ATOM     42  C   UNL A   1      41.524  30.353  30.139  1.00  0.00     0.029 A 
ATOM     43  N   UNL A   1      39.638  31.353  30.749  1.00  0.00    -0.354 N 
ATOM     44  C   UNL A   1      41.727  26.506  28.979  1.00  0.00     0.074 A 
ATOM     45  C   UNL A   1      40.640  26.121  28.110  1.00  0.00     0.031 C 
ATOM     46  C   UNL A   1      41.831  31.258  31.080  1.00  0.00     0.029 A 
ATOM     47  C   UNL A   1      40.594  31.634  31.733  1.00  0.00     0.049 A 
ATOM     48  H   UNL A   1      38.813  31.863  30.580  1.00  0.00     0.167 HD
ATOM     49  C   UNL A   1      43.032  26.133  29.130  1.00  0.00     0.037 A 
ATOM     50  C   UNL A   1      40.390  31.576  33.085  1.00  0.00     0.037 A 
ATOM     51  C   UNL A   1      43.680  26.907  30.191  1.00  0.00     0.049 A 
ATOM     52  C   UNL A   1      41.299  30.592  33.803  1.00  0.00     0.074 A 
ATOM     53  C   UNL A   1      44.498  28.026  30.181  1.00  0.00     0.029 A 
ATOM     54  N   UNL A   1      43.264  26.739  31.507  1.00  0.00    -0.354 N 
ATOM     55  N   UNL A   1      42.044  29.713  33.190  1.00  0.00    -0.248 NA
ATOM     56  C   UNL A   1      41.415  30.486  35.257  1.00  0.00     0.031 C 
ATOM     57  C   UNL A   1      44.523  28.566  31.492  1.00  0.00     0.029 A 
ATOM     58  C   UNL A   1      43.734  27.767  32.303  1.00  0.00     0.049 A 
ATOM     59  H   UNL A   1      42.711  25.990  31.829  1.00  0.00     0.167 HD
ATOM     60  C   UNL A   1      42.660  28.899  34.106  1.00  0.00     0.074 A 
ATOM     61  C   UNL A   1      42.273  29.456  35.388  1.00  0.00     0.031 C 
ATOM     62  C   UNL A   1      43.407  27.819  33.723  1.00  0.00     0.037 A 
BRANCH  49  63
ATOM     63  C   UNL A   1      43.777  25.273  28.127  1.00  0.00     0.058 A 
ATOM     64  C   UNL A   1      44.030  25.742  26.817  1.00  0.00     0.135 A 
ATOM     65  C   UNL A   1      44.204  23.952  28.363  1.00  0.00     0.135 A 
ATOM     66  F   UNL A   1      43.780  27.010  26.466  1.00  0.00    -0.206 F 
ATOM     67  C   UNL A   1      44.540  24.930  25.801  1.00  0.00     0.059 A 
ATOM     68  C   UNL A   1      44.655  23.099  27.350  1.00  0.00     0.059 A 
ATOM     69  F   UNL A   1      44.256  23.448  29.602  1.00  0.00    -0.206 F 
ATOM     70  C   UNL A   1      44.811  23.596  26.064  1.00  0.00     0.060 A 
BRANCH  70  71
ATOM     71  S   UNL A   1      45.375  22.535  24.721  1.00  0.00     0.124 S 
ATOM     72  O   UNL A   1      45.815  23.506  23.723  1.00  0.00    -0.237 OA
ATOM     73  O   UNL A   1      46.432  21.765  25.367  1.00  0.00    -0.237 OA
ATOM     74  O   UNL A   1      44.179  21.778  24.360  1.00  0.00    -0.744 OA
ENDBRANCH  70  71
ENDBRANCH  49  63
BRANCH  50  75
ATOM     75  C   UNL A   1      39.024  31.960  33.519  1.00  0.00     0.058 A 
ATOM     76  C   UNL A   1      38.741  33.334  33.597  1.00  0.00     0.135 A 
ATOM     77  C   UNL A   1      37.946  31.074  33.389  1.00  0.00     0.135 A 
ATOM     78  F   UNL A   1      39.738  34.218  33.763  1.00  0.00    -0.206 F 
ATOM     79  C   UNL A   1      37.466  33.825  33.350  1.00  0.00     0.059 A 
ATOM     80  C   UNL A   1      36.657  31.546  33.140  1.00  0.00     0.059 A 
ATOM     81  F   UNL A   1      38.161  29.752  33.327  1.00  0.00    -0.206 F 
ATOM     82  C   UNL A   1      36.450  32.923  33.042  1.00  0.00     0.060 A 
BRANCH  82  83
ATOM     83  S   UNL A   1      34.948  33.591  32.284  1.00  0.00     0.124 S 
ATOM     84  O   UNL A   1      34.327  34.288  33.404  1.00  0.00    -0.237 OA
ATOM     85  O   UNL A   1      35.515  34.442  31.239  1.00  0.00    -0.237 OA
ATOM     86  O   UNL A   1      34.257  32.395  31.817  1.00  0.00    -0.744 OA
ENDBRANCH  82  83
ENDBRANCH  50  75
BRANCH  62  87
ATOM     87  C   UNL A   1      43.958  26.744  34.636  1.00  0.00     0.058 A 
ATOM     88  C   UNL A   1      43.175  25.766  35.273  1.00  0.00     0.135 A 
ATOM     89  C   UNL A   1      45.359  26.588  34.786  1.00  0.00     0.135 A 
ATOM     90  F   UNL A   1      41.844  25.727  35.118  1.00  0.00    -0.206 F 
ATOM     91  C   UNL A   1      43.732  24.752  36.058  1.00  0.00     0.059 A 
ATOM     92  C   UNL A   1      45.937  25.550  35.514  1.00  0.00     0.059 A 
ATOM     93  F   UNL A   1      46.223  27.439  34.212  1.00  0.00    -0.206 F 
ATOM     94  C   UNL A   1      45.114  24.650  36.172  1.00  0.00     0.060 A 
BRANCH  94  95
ATOM     95  S   UNL A   1      45.849  23.310  37.128  1.00  0.00     0.124 S 
ATOM     96  O   UNL A   1      45.287  23.556  38.452  1.00  0.00    -0.237 OA
ATOM     97  O   UNL A   1      45.357  22.115  36.448  1.00  0.00    -0.237 OA
ATOM     98  O   UNL A   1      47.281  23.554  36.990  1.00  0.00    -0.744 OA
ENDBRANCH  94  95
ENDBRANCH  62  87
ENDBRANCH  36  37
ENDBRANCH  28  31
ENDBRANCH  26  27
ENDBRANCH  25  26
ENDBRANCH   1  25
TORSDOF 18
ENDMDL
MODEL 2
REMARK VINA RESULT:     -11.9      1.510      2.859
REMARK SMILES Cc1ccc(-c2nc(C)c(C)c(OCCC(=O)NCCCCNC(=O)c3ccc(-c4c5nc(c(-c6c(F)cc(S(=O)(=O)[O-])cc6F)c6ccc([nH]6)c(-c6c(F)cc(S(=O)(=O)[O-])cc6F)c6nc(c(-c7c(F)cc(S(=O)(=O)[O-])cc7F)c7ccc4[nH]7)C=C6)C=C5)cc3)n2)cc1
REMARK SMILES IDX 20 1 19 2 18 3 16 4 17 5 15 7 14 8 13 9 12 10 6 11 7 12
REMARK SMILES IDX 92 13 8 14 9 15 10 16 11 17 5 18 1 19 2 20 3 21 94 22 4 23
REMARK SMILES IDX 93 24 21 25 22 26 23 27 24 28 25 30 26 31 27 32 91 33 28 34
REMARK SMILES IDX 90 35 29 36 30 37 31 38 84 39 32 40 89 41 83 42 85 43 33 44
REMARK SMILES IDX 88 45 82 46 81 47 34 49 68 50 47 51 67 52 48 53 51 54 66 55
REMARK SMILES IDX 86 56 49 57 50 58 65 60 87 61 52 62 35 63 36 64 45 65 37 66
REMARK SMILES IDX 38 67 44 68 46 69 39 70 40 71 41 72 42 73 43 74 69 75 70 76
REMARK SMILES IDX 79 77 71 78 72 79 78 80 80 81 73 82 74 83 75 84 76 85 77 86
REMARK SMILES IDX 53 87 54 88 63 89 55 90 56 91 62 92 64 93 57 94 58 95 59 96
REMARK SMILES IDX 60 97 61 98
REMARK H PARENT 18 6 23 29 85 48 51 59
REMARK Flexibility Score: inf
ROOT
ATOM      1  C   UNL A   1      31.525  29.626  25.113  1.00  0.00     0.023 C 
ENDROOT
BRANCH   1   2
ATOM      2  C   UNL A   1      31.407  28.168  24.657  1.00  0.00     0.116 C 
BRANCH   2   3
ATOM      3  N   UNL A   1      30.652  27.310  25.558  1.00  0.00    -0.356 N 
ATOM      4  C   UNL A   1      30.488  25.961  25.550  1.00  0.00     0.223 C 
ATOM      5  O   UNL A   1      29.909  25.425  26.498  1.00  0.00    -0.275 OA
ATOM      6  H   UNL A   1      30.187  27.781  26.288  1.00  0.00     0.163 HD
BRANCH   4   7
ATOM      7  C   UNL A   1      31.056  25.136  24.422  1.00  0.00     0.141 C 
BRANCH   7   8
ATOM      8  C   UNL A   1      31.798  23.916  24.956  1.00  0.00     0.241 C 
BRANCH   8   9
ATOM      9  O   UNL A   1      32.336  23.142  23.878  1.00  0.00    -0.477 OA
BRANCH   9  10
ATOM     10  C   UNL A   1      33.365  22.275  24.191  1.00  0.00     0.220 A 
ATOM     11  C   UNL A   1      34.097  20.187  24.744  1.00  0.00     0.163 A 
ATOM     12  N   UNL A   1      35.386  20.563  24.737  1.00  0.00    -0.233 NA
ATOM     13  N   UNL A   1      33.061  21.008  24.506  1.00  0.00    -0.193 NA
ATOM     14  C   UNL A   1      35.660  21.833  24.358  1.00  0.00     0.048 A 
ATOM     15  C   UNL A   1      37.122  22.158  24.236  1.00  0.00     0.067 C 
ATOM     16  C   UNL A   1      34.661  22.759  24.075  1.00  0.00     0.032 A 
ATOM     17  C   UNL A   1      34.951  24.117  23.512  1.00  0.00     0.052 C 
BRANCH  11  18
ATOM     18  C   UNL A   1      33.807  18.753  24.898  1.00  0.00     0.019 A 
ATOM     19  C   UNL A   1      32.895  14.537  25.373  1.00  0.00     0.044 C 
ATOM     20  C   UNL A   1      33.194  15.995  25.189  1.00  0.00    -0.051 A 
ATOM     21  C   UNL A   1      34.325  16.402  24.473  1.00  0.00     0.004 A 
ATOM     22  C   UNL A   1      32.366  16.967  25.752  1.00  0.00     0.004 A 
ATOM     23  C   UNL A   1      34.620  17.764  24.321  1.00  0.00     0.012 A 
ATOM     24  C   UNL A   1      32.674  18.321  25.608  1.00  0.00     0.012 A 
ENDBRANCH  11  18
ENDBRANCH   9  10
ENDBRANCH   8   9
ENDBRANCH   7   8
ENDBRANCH   4   7
ENDBRANCH   2   3
ENDBRANCH   1   2
BRANCH   1  25
ATOM     25  C   UNL A   1      32.829  29.901  25.861  1.00  0.00     0.023 C 
BRANCH  25  26
ATOM     26  C   UNL A   1      32.667  30.698  27.149  1.00  0.00     0.116 C 
BRANCH  26  27
ATOM     27  N   UNL A   1      33.574  31.834  27.307  1.00  0.00    -0.352 N 
ATOM     28  C   UNL A   1      34.787  31.871  27.989  1.00  0.00     0.251 C 
ATOM     29  H   UNL A   1      33.295  32.674  26.877  1.00  0.00     0.163 HD
ATOM     30  O   UNL A   1      35.433  32.898  28.165  1.00  0.00    -0.269 OA
BRANCH  28  31
ATOM     31  C   UNL A   1      35.333  30.574  28.432  1.00  0.00     0.039 A 
ATOM     32  C   UNL A   1      35.604  30.483  29.802  1.00  0.00     0.014 A 
ATOM     33  C   UNL A   1      36.031  29.822  27.495  1.00  0.00     0.014 A 
ATOM     34  C   UNL A   1      36.790  29.891  30.210  1.00  0.00     0.010 A 
ATOM     35  C   UNL A   1      37.254  29.314  27.896  1.00  0.00     0.010 A 
ATOM     36  C   UNL A   1      37.678  29.449  29.232  1.00  0.00    -0.014 A 
BRANCH  36  37
ATOM     37  C   UNL A   1      39.113  29.297  29.483  1.00  0.00     0.031 A 
ATOM     38  C   UNL A   1      39.797  28.042  29.072  1.00  0.00     0.074 A 
ATOM     39  C   UNL A   1      39.848  30.307  30.017  1.00  0.00     0.049 A 
ATOM     40  N   UNL A   1      40.948  27.658  29.509  1.00  0.00    -0.248 NA
ATOM     41  C   UNL A   1      39.199  27.085  28.146  1.00  0.00     0.031 C 
ATOM     42  C   UNL A   1      41.310  30.406  30.016  1.00  0.00     0.029 A 
ATOM     43  N   UNL A   1      39.486  31.425  30.767  1.00  0.00    -0.354 N 
ATOM     44  C   UNL A   1      41.363  26.588  28.746  1.00  0.00     0.074 A 
ATOM     45  C   UNL A   1      40.217  26.248  27.935  1.00  0.00     0.031 C 
ATOM     46  C   UNL A   1      41.693  31.279  30.960  1.00  0.00     0.029 A 
ATOM     47  C   UNL A   1      40.506  31.660  31.697  1.00  0.00     0.049 A 
ATOM     48  H   UNL A   1      38.662  31.954  30.663  1.00  0.00     0.167 HD
ATOM     49  C   UNL A   1      42.667  26.188  28.806  1.00  0.00     0.037 A 
ATOM     50  C   UNL A   1      40.384  31.569  33.057  1.00  0.00     0.037 A 
ATOM     51  C   UNL A   1      43.394  26.920  29.844  1.00  0.00     0.049 A 
ATOM     52  C   UNL A   1      41.315  30.549  33.692  1.00  0.00     0.074 A 
ATOM     53  C   UNL A   1      44.232  28.023  29.813  1.00  0.00     0.029 A 
ATOM     54  N   UNL A   1      43.056  26.724  31.179  1.00  0.00    -0.354 N 
ATOM     55  N   UNL A   1      42.003  29.673  33.011  1.00  0.00    -0.248 NA
ATOM     56  C   UNL A   1      41.518  30.401  35.133  1.00  0.00     0.031 C 
ATOM     57  C   UNL A   1      44.349  28.526  31.134  1.00  0.00     0.029 A 
ATOM     58  C   UNL A   1      43.595  27.721  31.971  1.00  0.00     0.049 A 
ATOM     59  H   UNL A   1      42.509  25.977  31.514  1.00  0.00     0.167 HD
ATOM     60  C   UNL A   1      42.657  28.823  33.866  1.00  0.00     0.074 A 
ATOM     61  C   UNL A   1      42.360  29.352  35.183  1.00  0.00     0.031 C 
ATOM     62  C   UNL A   1      43.357  27.740  33.409  1.00  0.00     0.037 A 
BRANCH  49  63
ATOM     63  C   UNL A   1      43.331  25.342  27.736  1.00  0.00     0.058 A 
ATOM     64  C   UNL A   1      44.006  24.147  28.073  1.00  0.00     0.135 A 
ATOM     65  C   UNL A   1      43.405  25.687  26.372  1.00  0.00     0.135 A 
ATOM     66  F   UNL A   1      43.942  23.628  29.306  1.00  0.00    -0.206 F 
ATOM     67  C   UNL A   1      44.791  23.431  27.164  1.00  0.00     0.059 A 
ATOM     68  C   UNL A   1      44.235  25.027  25.458  1.00  0.00     0.059 A 
ATOM     69  F   UNL A   1      42.628  26.646  25.854  1.00  0.00    -0.206 F 
ATOM     70  C   UNL A   1      44.934  23.902  25.867  1.00  0.00     0.060 A 
BRANCH  70  71
ATOM     71  S   UNL A   1      46.027  23.026  24.733  1.00  0.00     0.124 S 
ATOM     72  O   UNL A   1      47.189  23.909  24.678  1.00  0.00    -0.237 OA
ATOM     73  O   UNL A   1      46.226  21.757  25.424  1.00  0.00    -0.237 OA
ATOM     74  O   UNL A   1      45.249  22.953  23.499  1.00  0.00    -0.744 OA
ENDBRANCH  70  71
ENDBRANCH  49  63
BRANCH  50  75
ATOM     75  C   UNL A   1      39.056  31.967  33.584  1.00  0.00     0.058 A 
ATOM     76  C   UNL A   1      38.850  33.334  33.835  1.00  0.00     0.135 A 
ATOM     77  C   UNL A   1      37.927  31.158  33.392  1.00  0.00     0.135 A 
ATOM     78  F   UNL A   1      39.899  34.140  34.066  1.00  0.00    -0.206 F 
ATOM     79  C   UNL A   1      37.596  33.915  33.696  1.00  0.00     0.059 A 
ATOM     80  C   UNL A   1      36.658  31.721  33.250  1.00  0.00     0.059 A 
ATOM     81  F   UNL A   1      38.068  29.844  33.166  1.00  0.00    -0.206 F 
ATOM     82  C   UNL A   1      36.524  33.108  33.322  1.00  0.00     0.060 A 
BRANCH  82  83
ATOM     83  S   UNL A   1      35.037  33.937  32.705  1.00  0.00     0.124 S 
ATOM     84  O   UNL A   1      35.055  33.580  31.292  1.00  0.00    -0.237 OA
ATOM     85  O   UNL A   1      34.001  33.293  33.512  1.00  0.00    -0.237 OA
ATOM     86  O   UNL A   1      35.294  35.339  33.011  1.00  0.00    -0.744 OA
ENDBRANCH  82  83
ENDBRANCH  50  75
BRANCH  62  87
ATOM     87  C   UNL A   1      43.940  26.630  34.258  1.00  0.00     0.058 A 
ATOM     88  C   UNL A   1      43.183  25.617  34.871  1.00  0.00     0.135 A 
ATOM     89  C   UNL A   1      45.346  26.481  34.364  1.00  0.00     0.135 A 
ATOM     90  F   UNL A   1      41.848  25.573  34.750  1.00  0.00    -0.206 F 
ATOM     91  C   UNL A   1      43.769  24.575  35.594  1.00  0.00     0.059 A 
ATOM     92  C   UNL A   1      45.952  25.416  35.029  1.00  0.00     0.059 A 
ATOM     93  F   UNL A   1      46.188  27.365  33.806  1.00  0.00    -0.206 F 
ATOM     94  C   UNL A   1      45.154  24.481  35.667  1.00  0.00     0.060 A 
BRANCH  94  95
ATOM     95  S   UNL A   1      45.925  23.106  36.542  1.00  0.00     0.124 S 
ATOM     96  O   UNL A   1      47.319  23.245  36.134  1.00  0.00    -0.237 OA
ATOM     97  O   UNL A   1      45.646  23.411  37.943  1.00  0.00    -0.237 OA
ATOM     98  O   UNL A   1      45.221  21.943  36.012  1.00  0.00    -0.744 OA
ENDBRANCH  94  95
ENDBRANCH  62  87
ENDBRANCH  36  37
ENDBRANCH  28  31
ENDBRANCH  26  27
ENDBRANCH  25  26
ENDBRANCH   1  25
TORSDOF 18
ENDMDL
MODEL 3
REMARK VINA RESULT:     -11.6      3.923     10.779
REMARK SMILES Cc1ccc(-c2nc(C)c(C)c(OCCC(=O)NCCCCNC(=O)c3ccc(-c4c5nc(c(-c6c(F)cc(S(=O)(=O)[O-])cc6F)c6ccc([nH]6)c(-c6c(F)cc(S(=O)(=O)[O-])cc6F)c6nc(c(-c7c(F)cc(S(=O)(=O)[O-])cc7F)c7ccc4[nH]7)C=C6)C=C5)cc3)n2)cc1
REMARK SMILES IDX 20 1 19 2 18 3 16 4 17 5 15 7 14 8 13 9 12 10 6 11 7 12
REMARK SMILES IDX 92 13 8 14 9 15 10 16 11 17 5 18 1 19 2 20 3 21 94 22 4 23
REMARK SMILES IDX 93 24 21 25 22 26 23 27 24 28 25 30 26 31 27 32 91 33 28 34
REMARK SMILES IDX 90 35 29 36 30 37 31 38 84 39 32 40 89 41 83 42 85 43 33 44
REMARK SMILES IDX 88 45 82 46 81 47 34 49 68 50 47 51 67 52 48 53 51 54 66 55
REMARK SMILES IDX 86 56 49 57 50 58 65 60 87 61 52 62 35 63 36 64 45 65 37 66
REMARK SMILES IDX 38 67 44 68 46 69 39 70 40 71 41 72 42 73 43 74 69 75 70 76
REMARK SMILES IDX 79 77 71 78 72 79 78 80 80 81 73 82 74 83 75 84 76 85 77 86
REMARK SMILES IDX 53 87 54 88 63 89 55 90 56 91 62 92 64 93 57 94 58 95 59 96
REMARK SMILES IDX 60 97 61 98
REMARK H PARENT 18 6 23 29 85 48 51 59
REMARK Flexibility Score: inf
ROOT
ATOM      1  C   UNL A   1      40.650  21.224  26.787  1.00  0.00     0.023 C 
ENDROOT
BRANCH   1   2
ATOM      2  C   UNL A   1      39.639  22.358  26.587  1.00  0.00     0.116 C 
BRANCH   2   3
ATOM      3  N   UNL A   1      38.819  22.236  25.392  1.00  0.00    -0.356 N 
ATOM      4  C   UNL A   1      37.591  22.749  25.116  1.00  0.00     0.223 C 
ATOM      5  O   UNL A   1      37.137  22.628  23.976  1.00  0.00    -0.275 OA
ATOM      6  H   UNL A   1      39.216  21.696  24.669  1.00  0.00     0.163 HD
BRANCH   4   7
ATOM      7  C   UNL A   1      36.829  23.500  26.179  1.00  0.00     0.141 C 
BRANCH   7   8
ATOM      8  C   UNL A   1      35.573  24.142  25.601  1.00  0.00     0.241 C 
BRANCH   8   9
ATOM      9  O   UNL A   1      34.407  23.407  25.991  1.00  0.00    -0.477 OA
BRANCH   9  10
ATOM     10  C   UNL A   1      33.378  23.344  25.071  1.00  0.00     0.220 A 
ATOM     11  C   UNL A   1      31.678  24.347  23.929  1.00  0.00     0.163 A 
ATOM     12  N   UNL A   1      31.410  23.239  23.220  1.00  0.00    -0.233 NA
ATOM     13  N   UNL A   1      32.626  24.437  24.875  1.00  0.00    -0.193 NA
ATOM     14  C   UNL A   1      32.225  22.173  23.400  1.00  0.00     0.048 A 
ATOM     15  C   UNL A   1      31.965  21.011  22.485  1.00  0.00     0.067 C 
ATOM     16  C   UNL A   1      33.247  22.168  24.344  1.00  0.00     0.032 A 
ATOM     17  C   UNL A   1      34.247  21.057  24.450  1.00  0.00     0.052 C 
BRANCH  11  18
ATOM     18  C   UNL A   1      30.971  25.581  23.555  1.00  0.00     0.019 A 
ATOM     19  C   UNL A   1      28.842  29.213  22.499  1.00  0.00     0.044 C 
ATOM     20  C   UNL A   1      29.586  27.969  22.885  1.00  0.00    -0.051 A 
ATOM     21  C   UNL A   1      30.848  27.701  22.344  1.00  0.00     0.004 A 
ATOM     22  C   UNL A   1      29.020  27.047  23.767  1.00  0.00     0.004 A 
ATOM     23  C   UNL A   1      31.535  26.528  22.684  1.00  0.00     0.012 A 
ATOM     24  C   UNL A   1      29.705  25.873  24.090  1.00  0.00     0.012 A 
ENDBRANCH  11  18
ENDBRANCH   9  10
ENDBRANCH   8   9
ENDBRANCH   7   8
ENDBRANCH   4   7
ENDBRANCH   2   3
ENDBRANCH   1   2
BRANCH   1  25
ATOM     25  C   UNL A   1      41.998  21.518  26.130  1.00  0.00     0.023 C 
BRANCH  25  26
ATOM     26  C   UNL A   1      42.825  22.590  26.828  1.00  0.00     0.116 C 
BRANCH  26  27
ATOM     27  N   UNL A   1      43.404  23.609  25.953  1.00  0.00    -0.352 N 
ATOM     28  C   UNL A   1      42.904  24.877  25.671  1.00  0.00     0.251 C 
ATOM     29  H   UNL A   1      44.251  23.371  25.512  1.00  0.00     0.163 HD
ATOM     30  O   UNL A   1      43.398  25.629  24.837  1.00  0.00    -0.269 OA
BRANCH  28  31
ATOM     31  C   UNL A   1      41.774  25.338  26.499  1.00  0.00     0.039 A 
ATOM     32  C   UNL A   1      41.032  26.392  25.953  1.00  0.00     0.014 A 
ATOM     33  C   UNL A   1      41.866  25.140  27.872  1.00  0.00     0.014 A 
ATOM     34  C   UNL A   1      40.653  27.440  26.780  1.00  0.00     0.010 A 
ATOM     35  C   UNL A   1      41.567  26.226  28.675  1.00  0.00     0.010 A 
ATOM     36  C   UNL A   1      41.064  27.414  28.110  1.00  0.00    -0.014 A 
BRANCH  36  37
ATOM     37  C   UNL A   1      41.187  28.628  28.919  1.00  0.00     0.031 A 
ATOM     38  C   UNL A   1      40.073  29.613  28.929  1.00  0.00     0.074 A 
ATOM     39  C   UNL A   1      42.266  28.840  29.717  1.00  0.00     0.049 A 
ATOM     40  N   UNL A   1      40.180  30.836  29.327  1.00  0.00    -0.248 NA
ATOM     41  C   UNL A   1      38.735  29.296  28.442  1.00  0.00     0.031 C 
ATOM     42  C   UNL A   1      42.361  29.826  30.797  1.00  0.00     0.029 A 
ATOM     43  N   UNL A   1      43.554  28.309  29.699  1.00  0.00    -0.354 N 
ATOM     44  C   UNL A   1      38.914  31.373  29.414  1.00  0.00     0.074 A 
ATOM     45  C   UNL A   1      38.052  30.381  28.813  1.00  0.00     0.031 C 
ATOM     46  C   UNL A   1      43.654  30.044  31.081  1.00  0.00     0.029 A 
ATOM     47  C   UNL A   1      44.436  29.321  30.099  1.00  0.00     0.049 A 
ATOM     48  H   UNL A   1      43.802  27.390  29.450  1.00  0.00     0.167 HD
ATOM     49  C   UNL A   1      38.727  32.544  30.089  1.00  0.00     0.037 A 
ATOM     50  C   UNL A   1      45.406  29.890  29.320  1.00  0.00     0.037 A 
ATOM     51  C   UNL A   1      40.008  33.126  30.495  1.00  0.00     0.049 A 
ATOM     52  C   UNL A   1      45.244  31.390  29.132  1.00  0.00     0.074 A 
ATOM     53  C   UNL A   1      40.720  33.109  31.684  1.00  0.00     0.029 A 
ATOM     54  N   UNL A   1      40.886  33.588  29.521  1.00  0.00    -0.354 N 
ATOM     55  N   UNL A   1      44.173  32.052  29.474  1.00  0.00    -0.248 NA
ATOM     56  C   UNL A   1      46.246  32.257  28.512  1.00  0.00     0.031 C 
ATOM     57  C   UNL A   1      42.053  33.507  31.406  1.00  0.00     0.029 A 
ATOM     58  C   UNL A   1      42.147  33.782  30.052  1.00  0.00     0.049 A 
ATOM     59  H   UNL A   1      40.642  33.754  28.581  1.00  0.00     0.167 HD
ATOM     60  C   UNL A   1      44.282  33.360  29.078  1.00  0.00     0.074 A 
ATOM     61  C   UNL A   1      45.620  33.449  28.524  1.00  0.00     0.031 C 
ATOM     62  C   UNL A   1      43.246  34.243  29.212  1.00  0.00     0.037 A 
BRANCH  49  63
ATOM     63  C   UNL A   1      37.379  33.000  30.616  1.00  0.00     0.058 A 
ATOM     64  C   UNL A   1      36.390  33.499  29.738  1.00  0.00     0.135 A 
ATOM     65  C   UNL A   1      37.023  33.042  31.978  1.00  0.00     0.135 A 
ATOM     66  F   UNL A   1      36.533  33.431  28.408  1.00  0.00    -0.206 F 
ATOM     67  C   UNL A   1      35.211  34.103  30.183  1.00  0.00     0.059 A 
ATOM     68  C   UNL A   1      35.882  33.699  32.452  1.00  0.00     0.059 A 
ATOM     69  F   UNL A   1      37.739  32.395  32.905  1.00  0.00    -0.206 F 
ATOM     70  C   UNL A   1      34.983  34.238  31.544  1.00  0.00     0.060 A 
BRANCH  70  71
ATOM     71  S   UNL A   1      33.507  35.107  32.103  1.00  0.00     0.124 S 
ATOM     72  O   UNL A   1      32.775  35.310  30.856  1.00  0.00    -0.237 OA
ATOM     73  O   UNL A   1      32.924  34.146  33.033  1.00  0.00    -0.237 OA
ATOM     74  O   UNL A   1      34.038  36.324  32.711  1.00  0.00    -0.744 OA
ENDBRANCH  70  71
ENDBRANCH  49  63
BRANCH  50  75
ATOM     75  C   UNL A   1      46.036  28.964  28.347  1.00  0.00     0.058 A 
ATOM     76  C   UNL A   1      47.158  28.241  28.786  1.00  0.00     0.135 A 
ATOM     77  C   UNL A   1      45.316  28.459  27.255  1.00  0.00     0.135 A 
ATOM     78  F   UNL A   1      47.902  28.706  29.802  1.00  0.00    -0.206 F 
ATOM     79  C   UNL A   1      47.434  26.969  28.302  1.00  0.00     0.059 A 
ATOM     80  C   UNL A   1      45.578  27.184  26.753  1.00  0.00     0.059 A 
ATOM     81  F   UNL A   1      44.248  29.120  26.786  1.00  0.00    -0.206 F 
ATOM     82  C   UNL A   1      46.586  26.420  27.342  1.00  0.00     0.060 A 
BRANCH  82  83
ATOM     83  S   UNL A   1      46.684  24.633  27.073  1.00  0.00     0.124 S 
ATOM     84  O   UNL A   1      46.350  24.520  25.658  1.00  0.00    -0.237 OA
ATOM     85  O   UNL A   1      48.081  24.373  27.420  1.00  0.00    -0.237 OA
ATOM     86  O   UNL A   1      45.694  24.106  28.004  1.00  0.00    -0.744 OA
ENDBRANCH  82  83
ENDBRANCH  50  75
BRANCH  62  87
ATOM     87  C   UNL A   1      43.181  35.640  28.630  1.00  0.00     0.058 A 
ATOM     88  C   UNL A   1      42.765  35.936  27.322  1.00  0.00     0.135 A 
ATOM     89  C   UNL A   1      43.417  36.766  29.459  1.00  0.00     0.135 A 
ATOM     90  F   UNL A   1      42.398  34.969  26.469  1.00  0.00    -0.206 F 
ATOM     91  C   UNL A   1      42.659  37.246  26.846  1.00  0.00     0.059 A 
ATOM     92  C   UNL A   1      43.259  38.080  29.023  1.00  0.00     0.059 A 
ATOM     93  F   UNL A   1      43.799  36.626  30.738  1.00  0.00    -0.206 F 
ATOM     94  C   UNL A   1      42.907  38.313  27.703  1.00  0.00     0.060 A 
BRANCH  94  95
ATOM     95  S   UNL A   1      42.712  40.007  27.122  1.00  0.00     0.124 S 
ATOM     96  O   UNL A   1      41.260  40.114  27.016  1.00  0.00    -0.237 OA
ATOM     97  O   UNL A   1      43.324  40.793  28.190  1.00  0.00    -0.237 OA
ATOM     98  O   UNL A   1      43.442  40.008  25.859  1.00  0.00    -0.744 OA
ENDBRANCH  94  95
ENDBRANCH  62  87
ENDBRANCH  36  37
ENDBRANCH  28  31
ENDBRANCH  26  27
ENDBRANCH  25  26
ENDBRANCH   1  25
TORSDOF 18
ENDMDL
