MODEL 1
REMARK VINA RESULT:     -12.1      0.000      0.000
REMARK SMILES Cc1cc(C)c(NC(=O)C[C@H](C(=O)NCCCCNC(=O)c2ccc(-c3c4nc(c(-c5c(F)cc(S(=O)(=O)[O-])cc5F)c5ccc([nH]5)c(-c5c(F)cc(S(=O)(=O)[O-])cc5F)c5nc(c(-c6c(F)cc(S(=O)(=O)[O-])cc6F)c6ccc3[nH]6)C=C5)C=C4)cc2)[NH+]2CC[NH+](C)CC2)c(C)c1
REMARK SMILES IDX 16 1 15 2 14 3 12 4 13 5 11 7 10 8 8 9 7 10 9 12 6 13 1 14
REMARK SMILES IDX 2 15 3 16 97 17 4 18 95 19 5 20 96 21 88 22 89 23 94 24
REMARK SMILES IDX 90 26 93 27 91 28 92 29 17 31 18 32 19 33 20 34 21 36 22 37
REMARK SMILES IDX 23 38 87 39 24 40 86 41 25 42 26 43 27 44 80 45 28 46 85 47
REMARK SMILES IDX 79 48 81 49 29 50 84 51 78 52 77 53 30 55 64 56 43 57 63 58
REMARK SMILES IDX 44 59 47 60 62 61 82 62 45 63 46 64 61 66 83 67 48 68 31 69
REMARK SMILES IDX 32 70 41 71 33 72 34 73 40 74 42 75 35 76 36 77 37 78 38 79
REMARK SMILES IDX 39 80 65 81 66 82 75 83 67 84 68 85 74 86 76 87 69 88 70 89
REMARK SMILES IDX 71 90 72 91 73 92 49 93 50 94 59 95 51 96 52 97 58 98 60 99
REMARK SMILES IDX 53 100 54 101 55 102 56 103 57 104
REMARK H PARENT 14 6 7 11 88 25 91 30 19 35 81 54 47 65
REMARK Flexibility Score: inf
ROOT
ATOM      1  C   UNL A   1      31.329  27.996  26.007  1.00  0.00     0.023 C 
ENDROOT
BRANCH   1   2
ATOM      2  C   UNL A   1      31.465  29.319  25.258  1.00  0.00     0.116 C 
BRANCH   2   3
ATOM      3  N   UNL A   1      32.419  29.260  24.161  1.00  0.00    -0.351 N 
ATOM      4  C   UNL A   1      32.447  28.844  22.870  1.00  0.00     0.278 C 
ATOM      5  O   UNL A   1      33.517  29.150  22.310  1.00  0.00    -0.268 OA
ATOM      6  H   UNL A   1      33.291  29.628  24.432  1.00  0.00     0.163 HD
BRANCH   4   7
ATOM      7  C   UNL A   1      31.410  27.946  22.093  1.00  0.00     0.283 C 
BRANCH   7   8
ATOM      8  C   UNL A   1      31.440  26.428  22.292  1.00  0.00     0.175 C 
BRANCH   8   9
ATOM      9  C   UNL A   1      32.539  25.433  21.909  1.00  0.00     0.230 C 
ATOM     10  N   UNL A   1      33.160  24.452  22.599  1.00  0.00    -0.325 N 
ATOM     11  H   UNL A   1      33.741  23.922  22.007  1.00  0.00     0.169 HD
ATOM     12  O   UNL A   1      32.909  25.488  20.716  1.00  0.00    -0.274 OA
BRANCH  10  13
ATOM     13  C   UNL A   1      33.219  23.969  23.918  1.00  0.00     0.047 A 
ATOM     14  C   UNL A   1      32.872  22.356  27.925  1.00  0.00     0.044 C 
ATOM     15  C   UNL A   1      33.075  22.870  26.533  1.00  0.00    -0.050 A 
ATOM     16  C   UNL A   1      33.485  24.183  26.327  1.00  0.00     0.009 A 
ATOM     17  C   UNL A   1      32.844  22.067  25.418  1.00  0.00     0.009 A 
ATOM     18  C   UNL A   1      33.607  24.722  25.030  1.00  0.00    -0.027 A 
ATOM     19  C   UNL A   1      32.944  22.590  24.114  1.00  0.00    -0.027 A 
ATOM     20  C   UNL A   1      34.348  26.011  24.937  1.00  0.00     0.046 C 
ATOM     21  C   UNL A   1      32.711  21.642  22.963  1.00  0.00     0.046 C 
ENDBRANCH  10  13
ENDBRANCH   8   9
ENDBRANCH   7   8
BRANCH   7  22
ATOM     22  N   UNL A   1      30.020  28.479  21.989  1.00  0.00    -0.315 N 
ATOM     23  C   UNL A   1      30.011  29.946  21.787  1.00  0.00     0.325 C 
ATOM     24  C   UNL A   1      29.092  28.183  23.097  1.00  0.00     0.325 C 
ATOM     25  H   UNL A   1      29.670  27.965  21.181  1.00  0.00     0.349 HD
ATOM     26  C   UNL A   1      28.601  30.457  21.427  1.00  0.00     0.324 C 
ATOM     27  C   UNL A   1      27.661  28.738  22.840  1.00  0.00     0.324 C 
ATOM     28  N   UNL A   1      27.546  30.145  22.403  1.00  0.00    -0.328 N 
ATOM     29  C   UNL A   1      27.545  31.075  23.520  1.00  0.00     0.333 C 
ATOM     30  H   UNL A   1      26.641  30.257  21.945  1.00  0.00     0.348 HD
ENDBRANCH   7  22
ENDBRANCH   4   7
ENDBRANCH   2   3
ENDBRANCH   1   2
BRANCH   1  31
ATOM     31  C   UNL A   1      32.079  27.947  27.342  1.00  0.00     0.023 C 
BRANCH  31  32
ATOM     32  C   UNL A   1      33.457  28.613  27.369  1.00  0.00     0.116 C 
BRANCH  32  33
ATOM     33  N   UNL A   1      33.436  30.013  27.771  1.00  0.00    -0.352 N 
ATOM     34  C   UNL A   1      34.463  30.765  28.296  1.00  0.00     0.251 C 
ATOM     35  H   UNL A   1      32.578  30.481  27.654  1.00  0.00     0.163 HD
ATOM     36  O   UNL A   1      34.272  31.924  28.649  1.00  0.00    -0.269 OA
BRANCH  34  37
ATOM     37  C   UNL A   1      35.791  30.140  28.467  1.00  0.00     0.039 A 
ATOM     38  C   UNL A   1      36.705  30.197  27.413  1.00  0.00     0.014 A 
ATOM     39  C   UNL A   1      36.154  29.580  29.695  1.00  0.00     0.014 A 
ATOM     40  C   UNL A   1      38.019  29.771  27.621  1.00  0.00     0.010 A 
ATOM     41  C   UNL A   1      37.478  29.218  29.918  1.00  0.00     0.010 A 
ATOM     42  C   UNL A   1      38.428  29.324  28.888  1.00  0.00    -0.014 A 
BRANCH  42  43
ATOM     43  C   UNL A   1      39.849  28.990  29.167  1.00  0.00     0.031 A 
ATOM     44  C   UNL A   1      40.757  30.019  29.786  1.00  0.00     0.074 A 
ATOM     45  C   UNL A   1      40.341  27.793  28.785  1.00  0.00     0.049 A 
ATOM     46  N   UNL A   1      42.040  29.947  30.025  1.00  0.00    -0.248 NA
ATOM     47  C   UNL A   1      40.148  31.306  30.157  1.00  0.00     0.031 C 
ATOM     48  C   UNL A   1      39.576  26.734  28.120  1.00  0.00     0.029 A 
ATOM     49  N   UNL A   1      41.605  27.269  28.887  1.00  0.00    -0.354 N 
ATOM     50  C   UNL A   1      42.398  31.185  30.545  1.00  0.00     0.074 A 
ATOM     51  C   UNL A   1      41.203  32.002  30.553  1.00  0.00     0.031 C 
ATOM     52  C   UNL A   1      40.381  25.682  27.897  1.00  0.00     0.029 A 
ATOM     53  C   UNL A   1      41.724  26.001  28.369  1.00  0.00     0.049 A 
ATOM     54  H   UNL A   1      42.357  27.757  29.295  1.00  0.00     0.167 HD
ATOM     55  C   UNL A   1      43.608  31.597  30.993  1.00  0.00     0.037 A 
ATOM     56  C   UNL A   1      42.796  25.189  28.281  1.00  0.00     0.037 A 
ATOM     57  C   UNL A   1      44.779  30.762  31.036  1.00  0.00     0.049 A 
ATOM     58  C   UNL A   1      44.120  25.661  28.817  1.00  0.00     0.074 A 
ATOM     59  C   UNL A   1      46.025  31.055  31.562  1.00  0.00     0.029 A 
ATOM     60  N   UNL A   1      44.849  29.470  30.538  1.00  0.00    -0.354 N 
ATOM     61  N   UNL A   1      44.419  26.807  29.381  1.00  0.00    -0.248 NA
ATOM     62  C   UNL A   1      45.253  24.730  28.711  1.00  0.00     0.031 C 
ATOM     63  C   UNL A   1      46.859  29.953  31.351  1.00  0.00     0.029 A 
ATOM     64  C   UNL A   1      46.121  28.959  30.729  1.00  0.00     0.049 A 
ATOM     65  H   UNL A   1      44.103  28.986  30.113  1.00  0.00     0.167 HD
ATOM     66  C   UNL A   1      45.764  26.720  29.726  1.00  0.00     0.074 A 
ATOM     67  C   UNL A   1      46.218  25.409  29.314  1.00  0.00     0.031 C 
ATOM     68  C   UNL A   1      46.551  27.643  30.331  1.00  0.00     0.037 A 
BRANCH  55  69
ATOM     69  C   UNL A   1      43.729  33.008  31.491  1.00  0.00     0.058 A 
ATOM     70  C   UNL A   1      43.497  33.338  32.835  1.00  0.00     0.135 A 
ATOM     71  C   UNL A   1      44.142  34.034  30.626  1.00  0.00     0.135 A 
ATOM     72  F   UNL A   1      43.084  32.398  33.700  1.00  0.00    -0.206 F 
ATOM     73  C   UNL A   1      43.653  34.639  33.302  1.00  0.00     0.059 A 
ATOM     74  C   UNL A   1      44.328  35.338  31.075  1.00  0.00     0.059 A 
ATOM     75  F   UNL A   1      44.374  33.773  29.330  1.00  0.00    -0.206 F 
ATOM     76  C   UNL A   1      44.072  35.631  32.414  1.00  0.00     0.060 A 
BRANCH  76  77
ATOM     77  S   UNL A   1      44.298  37.309  33.041  1.00  0.00     0.124 S 
ATOM     78  O   UNL A   1      43.175  37.427  33.967  1.00  0.00    -0.237 OA
ATOM     79  O   UNL A   1      45.620  37.239  33.656  1.00  0.00    -0.237 OA
ATOM     80  O   UNL A   1      44.212  38.135  31.842  1.00  0.00    -0.744 OA
ENDBRANCH  76  77
ENDBRANCH  55  69
BRANCH  56  81
ATOM     81  C   UNL A   1      42.668  23.832  27.683  1.00  0.00     0.058 A 
ATOM     82  C   UNL A   1      42.452  22.708  28.495  1.00  0.00     0.135 A 
ATOM     83  C   UNL A   1      42.784  23.627  26.300  1.00  0.00     0.135 A 
ATOM     84  F   UNL A   1      42.339  22.854  29.824  1.00  0.00    -0.206 F 
ATOM     85  C   UNL A   1      42.388  21.425  27.963  1.00  0.00     0.059 A 
ATOM     86  C   UNL A   1      42.700  22.355  25.741  1.00  0.00     0.059 A 
ATOM     87  F   UNL A   1      42.972  24.671  25.479  1.00  0.00    -0.206 F 
ATOM     88  C   UNL A   1      42.519  21.258  26.584  1.00  0.00     0.060 A 
BRANCH  88  89
ATOM     89  S   UNL A   1      42.420  19.590  25.897  1.00  0.00     0.124 S 
ATOM     90  O   UNL A   1      43.420  19.651  24.837  1.00  0.00    -0.237 OA
ATOM     91  O   UNL A   1      42.759  18.760  27.049  1.00  0.00    -0.237 OA
ATOM     92  O   UNL A   1      41.032  19.495  25.453  1.00  0.00    -0.744 OA
ENDBRANCH  88  89
ENDBRANCH  56  81
BRANCH  68  93
ATOM     93  C   UNL A   1      47.971  27.254  30.625  1.00  0.00     0.058 A 
ATOM     94  C   UNL A   1      48.313  26.521  31.770  1.00  0.00     0.135 A 
ATOM     95  C   UNL A   1      48.995  27.574  29.717  1.00  0.00     0.135 A 
ATOM     96  F   UNL A   1      47.370  26.197  32.670  1.00  0.00    -0.206 F 
ATOM     97  C   UNL A   1      49.625  26.131  32.018  1.00  0.00     0.059 A 
ATOM     98  C   UNL A   1      50.309  27.175  29.933  1.00  0.00     0.059 A 
ATOM     99  F   UNL A   1      48.718  28.266  28.601  1.00  0.00    -0.206 F 
ATOM    100  C   UNL A   1      50.617  26.463  31.093  1.00  0.00     0.060 A 
BRANCH 100 101
ATOM    101  S   UNL A   1      52.311  25.920  31.403  1.00  0.00     0.124 S 
ATOM    102  O   UNL A   1      52.888  25.982  30.065  1.00  0.00    -0.237 OA
ATOM    103  O   UNL A   1      52.794  26.923  32.348  1.00  0.00    -0.237 OA
ATOM    104  O   UNL A   1      52.141  24.580  31.955  1.00  0.00    -0.744 OA
ENDBRANCH 100 101
ENDBRANCH  68  93
ENDBRANCH  42  43
ENDBRANCH  34  37
ENDBRANCH  32  33
ENDBRANCH  31  32
ENDBRANCH   1  31
TORSDOF 18
ENDMDL
MODEL 2
REMARK VINA RESULT:     -11.7      2.594      3.200
REMARK SMILES Cc1cc(C)c(NC(=O)C[C@H](C(=O)NCCCCNC(=O)c2ccc(-c3c4nc(c(-c5c(F)cc(S(=O)(=O)[O-])cc5F)c5ccc([nH]5)c(-c5c(F)cc(S(=O)(=O)[O-])cc5F)c5nc(c(-c6c(F)cc(S(=O)(=O)[O-])cc6F)c6ccc3[nH]6)C=C5)C=C4)cc2)[NH+]2CC[NH+](C)CC2)c(C)c1
REMARK SMILES IDX 16 1 15 2 14 3 12 4 13 5 11 7 10 8 8 9 7 10 9 12 6 13 1 14
REMARK SMILES IDX 2 15 3 16 97 17 4 18 95 19 5 20 96 21 88 22 89 23 94 24
REMARK SMILES IDX 90 26 93 27 91 28 92 29 17 31 18 32 19 33 20 34 21 36 22 37
REMARK SMILES IDX 23 38 87 39 24 40 86 41 25 42 26 43 27 44 80 45 28 46 85 47
REMARK SMILES IDX 79 48 81 49 29 50 84 51 78 52 77 53 30 55 64 56 43 57 63 58
REMARK SMILES IDX 44 59 47 60 62 61 82 62 45 63 46 64 61 66 83 67 48 68 31 69
REMARK SMILES IDX 32 70 41 71 33 72 34 73 40 74 42 75 35 76 36 77 37 78 38 79
REMARK SMILES IDX 39 80 65 81 66 82 75 83 67 84 68 85 74 86 76 87 69 88 70 89
REMARK SMILES IDX 71 90 72 91 73 92 49 93 50 94 59 95 51 96 52 97 58 98 60 99
REMARK SMILES IDX 53 100 54 101 55 102 56 103 57 104
REMARK H PARENT 14 6 7 11 88 25 91 30 19 35 81 54 47 65
REMARK Flexibility Score: inf
ROOT
ATOM      1  C   UNL A   1      33.001  29.187  27.091  1.00  0.00     0.023 C 
ENDROOT
BRANCH   1   2
ATOM      2  C   UNL A   1      32.699  30.206  25.995  1.00  0.00     0.116 C 
BRANCH   2   3
ATOM      3  N   UNL A   1      33.083  29.750  24.668  1.00  0.00    -0.351 N 
ATOM      4  C   UNL A   1      32.507  29.129  23.608  1.00  0.00     0.278 C 
ATOM      5  O   UNL A   1      33.272  29.086  22.627  1.00  0.00    -0.268 OA
ATOM      6  H   UNL A   1      34.030  29.949  24.488  1.00  0.00     0.163 HD
BRANCH   4   7
ATOM      7  C   UNL A   1      31.125  28.373  23.530  1.00  0.00     0.283 C 
BRANCH   7   8
ATOM      8  C   UNL A   1      30.784  27.328  24.596  1.00  0.00     0.175 C 
BRANCH   8   9
ATOM      9  C   UNL A   1      29.908  26.078  24.467  1.00  0.00     0.230 C 
ATOM     10  N   UNL A   1      30.156  24.768  24.677  1.00  0.00    -0.325 N 
ATOM     11  H   UNL A   1      29.327  24.241  24.612  1.00  0.00     0.169 HD
ATOM     12  O   UNL A   1      28.717  26.299  24.160  1.00  0.00    -0.274 OA
BRANCH  10  13
ATOM     13  C   UNL A   1      31.254  23.936  24.960  1.00  0.00     0.047 A 
ATOM     14  C   UNL A   1      34.694  21.663  26.292  1.00  0.00     0.044 C 
ATOM     15  C   UNL A   1      33.465  22.367  25.804  1.00  0.00    -0.050 A 
ATOM     16  C   UNL A   1      33.482  23.035  24.584  1.00  0.00     0.009 A 
ATOM     17  C   UNL A   1      32.292  22.392  26.555  1.00  0.00     0.009 A 
ATOM     18  C   UNL A   1      32.370  23.776  24.134  1.00  0.00    -0.027 A 
ATOM     19  C   UNL A   1      31.176  23.139  26.132  1.00  0.00    -0.027 A 
ATOM     20  C   UNL A   1      32.398  24.168  22.697  1.00  0.00     0.046 C 
ATOM     21  C   UNL A   1      29.934  23.083  26.988  1.00  0.00     0.046 C 
ENDBRANCH  10  13
ENDBRANCH   8   9
ENDBRANCH   7   8
BRANCH   7  22
ATOM     22  N   UNL A   1      29.942  29.196  23.142  1.00  0.00    -0.315 N 
ATOM     23  C   UNL A   1      30.131  29.834  21.818  1.00  0.00     0.325 C 
ATOM     24  C   UNL A   1      29.507  30.249  24.077  1.00  0.00     0.325 C 
ATOM     25  H   UNL A   1      29.204  28.494  23.141  1.00  0.00     0.349 HD
ATOM     26  C   UNL A   1      28.822  30.468  21.306  1.00  0.00     0.324 C 
ATOM     27  C   UNL A   1      28.229  30.991  23.588  1.00  0.00     0.324 C 
ATOM     28  N   UNL A   1      28.216  31.473  22.192  1.00  0.00    -0.328 N 
ATOM     29  C   UNL A   1      28.847  32.775  22.048  1.00  0.00     0.333 C 
ATOM     30  H   UNL A   1      27.243  31.602  21.914  1.00  0.00     0.348 HD
ENDBRANCH   7  22
ENDBRANCH   4   7
ENDBRANCH   2   3
ENDBRANCH   1   2
BRANCH   1  31
ATOM     31  C   UNL A   1      34.489  29.042  27.423  1.00  0.00     0.023 C 
BRANCH  31  32
ATOM     32  C   UNL A   1      35.252  30.341  27.698  1.00  0.00     0.116 C 
BRANCH  32  33
ATOM     33  N   UNL A   1      35.239  30.757  29.094  1.00  0.00    -0.352 N 
ATOM     34  C   UNL A   1      36.219  30.578  30.045  1.00  0.00     0.251 C 
ATOM     35  H   UNL A   1      34.428  31.224  29.396  1.00  0.00     0.163 HD
ATOM     36  O   UNL A   1      36.033  30.930  31.206  1.00  0.00    -0.269 OA
BRANCH  34  37
ATOM     37  C   UNL A   1      37.480  29.916  29.656  1.00  0.00     0.039 A 
ATOM     38  C   UNL A   1      37.922  30.026  28.336  1.00  0.00     0.014 A 
ATOM     39  C   UNL A   1      38.261  29.266  30.617  1.00  0.00     0.014 A 
ATOM     40  C   UNL A   1      39.194  29.560  27.997  1.00  0.00     0.010 A 
ATOM     41  C   UNL A   1      39.551  28.862  30.290  1.00  0.00     0.010 A 
ATOM     42  C   UNL A   1      40.037  29.018  28.982  1.00  0.00    -0.014 A 
BRANCH  42  43
ATOM     43  C   UNL A   1      41.439  28.637  28.672  1.00  0.00     0.031 A 
ATOM     44  C   UNL A   1      42.524  29.680  28.687  1.00  0.00     0.074 A 
ATOM     45  C   UNL A   1      41.719  27.372  28.295  1.00  0.00     0.049 A 
ATOM     46  N   UNL A   1      43.786  29.561  28.362  1.00  0.00    -0.248 NA
ATOM     47  C   UNL A   1      42.134  31.039  29.091  1.00  0.00     0.031 C 
ATOM     48  C   UNL A   1      40.743  26.284  28.182  1.00  0.00     0.029 A 
ATOM     49  N   UNL A   1      42.904  26.789  27.922  1.00  0.00    -0.354 N 
ATOM     50  C   UNL A   1      44.331  30.832  28.494  1.00  0.00     0.074 A 
ATOM     51  C   UNL A   1      43.257  31.715  28.893  1.00  0.00     0.031 C 
ATOM     52  C   UNL A   1      41.374  25.164  27.791  1.00  0.00     0.029 A 
ATOM     53  C   UNL A   1      42.789  25.458  27.593  1.00  0.00     0.049 A 
ATOM     54  H   UNL A   1      43.758  27.278  27.893  1.00  0.00     0.167 HD
ATOM     55  C   UNL A   1      45.616  31.223  28.317  1.00  0.00     0.037 A 
ATOM     56  C   UNL A   1      43.719  24.577  27.174  1.00  0.00     0.037 A 
ATOM     57  C   UNL A   1      46.691  30.330  27.976  1.00  0.00     0.049 A 
ATOM     58  C   UNL A   1      45.144  25.033  27.018  1.00  0.00     0.074 A 
ATOM     59  C   UNL A   1      48.042  30.613  27.871  1.00  0.00     0.029 A 
ATOM     60  N   UNL A   1      46.541  28.982  27.690  1.00  0.00    -0.354 N 
ATOM     61  N   UNL A   1      45.657  26.222  27.227  1.00  0.00    -0.248 NA
ATOM     62  C   UNL A   1      46.121  24.027  26.574  1.00  0.00     0.031 C 
ATOM     63  C   UNL A   1      48.704  29.443  27.486  1.00  0.00     0.029 A 
ATOM     64  C   UNL A   1      47.772  28.423  27.390  1.00  0.00     0.049 A 
ATOM     65  H   UNL A   1      45.686  28.493  27.699  1.00  0.00     0.167 HD
ATOM     66  C   UNL A   1      47.018  26.098  26.973  1.00  0.00     0.074 A 
ATOM     67  C   UNL A   1      47.252  24.719  26.602  1.00  0.00     0.031 C 
ATOM     68  C   UNL A   1      47.988  27.043  27.043  1.00  0.00     0.037 A 
BRANCH  55  69
ATOM     69  C   UNL A   1      45.939  32.678  28.505  1.00  0.00     0.058 A 
ATOM     70  C   UNL A   1      46.335  33.189  29.750  1.00  0.00     0.135 A 
ATOM     71  C   UNL A   1      45.911  33.559  27.412  1.00  0.00     0.135 A 
ATOM     72  F   UNL A   1      46.362  32.394  30.830  1.00  0.00    -0.206 F 
ATOM     73  C   UNL A   1      46.675  34.529  29.910  1.00  0.00     0.059 A 
ATOM     74  C   UNL A   1      46.271  34.896  27.543  1.00  0.00     0.059 A 
ATOM     75  F   UNL A   1      45.537  33.120  26.200  1.00  0.00    -0.206 F 
ATOM     76  C   UNL A   1      46.643  35.374  28.800  1.00  0.00     0.060 A 
BRANCH  76  77
ATOM     77  S   UNL A   1      47.116  37.102  29.017  1.00  0.00     0.124 S 
ATOM     78  O   UNL A   1      48.553  37.043  28.765  1.00  0.00    -0.237 OA
ATOM     79  O   UNL A   1      46.323  37.776  27.995  1.00  0.00    -0.237 OA
ATOM     80  O   UNL A   1      46.733  37.389  30.395  1.00  0.00    -0.744 OA
ENDBRANCH  76  77
ENDBRANCH  55  69
BRANCH  56  81
ATOM     81  C   UNL A   1      43.347  23.164  26.892  1.00  0.00     0.058 A 
ATOM     82  C   UNL A   1      43.073  22.272  27.939  1.00  0.00     0.135 A 
ATOM     83  C   UNL A   1      43.282  22.671  25.579  1.00  0.00     0.135 A 
ATOM     84  F   UNL A   1      43.127  22.696  29.211  1.00  0.00    -0.206 F 
ATOM     85  C   UNL A   1      42.781  20.933  27.700  1.00  0.00     0.059 A 
ATOM     86  C   UNL A   1      42.969  21.342  25.314  1.00  0.00     0.059 A 
ATOM     87  F   UNL A   1      43.517  23.489  24.542  1.00  0.00    -0.206 F 
ATOM     88  C   UNL A   1      42.737  20.476  26.383  1.00  0.00     0.060 A 
BRANCH  88  89
ATOM     89  S   UNL A   1      42.342  18.740  26.079  1.00  0.00     0.124 S 
ATOM     90  O   UNL A   1      43.299  18.403  25.031  1.00  0.00    -0.237 OA
ATOM     91  O   UNL A   1      42.583  18.134  27.384  1.00  0.00    -0.237 OA
ATOM     92  O   UNL A   1      40.942  18.785  25.667  1.00  0.00    -0.744 OA
ENDBRANCH  88  89
ENDBRANCH  56  81
BRANCH  68  93
ATOM     93  C   UNL A   1      49.397  26.609  26.754  1.00  0.00     0.058 A 
ATOM     94  C   UNL A   1      50.223  26.074  27.754  1.00  0.00     0.135 A 
ATOM     95  C   UNL A   1      49.906  26.678  25.447  1.00  0.00     0.135 A 
ATOM     96  F   UNL A   1      49.784  25.993  29.021  1.00  0.00    -0.206 F 
ATOM     97  C   UNL A   1      51.514  25.639  27.473  1.00  0.00     0.059 A 
ATOM     98  C   UNL A   1      51.185  26.228  25.139  1.00  0.00     0.059 A 
ATOM     99  F   UNL A   1      49.151  27.173  24.453  1.00  0.00    -0.206 F 
ATOM    100  C   UNL A   1      51.986  25.720  26.161  1.00  0.00     0.060 A 
BRANCH 100 101
ATOM    101  S   UNL A   1      53.649  25.118  25.798  1.00  0.00     0.124 S 
ATOM    102  O   UNL A   1      53.376  23.758  25.346  1.00  0.00    -0.237 OA
ATOM    103  O   UNL A   1      54.103  26.049  24.770  1.00  0.00    -0.237 OA
ATOM    104  O   UNL A   1      54.337  25.228  27.081  1.00  0.00    -0.744 OA
ENDBRANCH 100 101
ENDBRANCH  68  93
ENDBRANCH  42  43
ENDBRANCH  34  37
ENDBRANCH  32  33
ENDBRANCH  31  32
ENDBRANCH   1  31
TORSDOF 18
ENDMDL
MODEL 3
REMARK VINA RESULT:     -11.7      3.666      9.600
REMARK SMILES Cc1cc(C)c(NC(=O)C[C@H](C(=O)NCCCCNC(=O)c2ccc(-c3c4nc(c(-c5c(F)cc(S(=O)(=O)[O-])cc5F)c5ccc([nH]5)c(-c5c(F)cc(S(=O)(=O)[O-])cc5F)c5nc(c(-c6c(F)cc(S(=O)(=O)[O-])cc6F)c6ccc3[nH]6)C=C5)C=C4)cc2)[NH+]2CC[NH+](C)CC2)c(C)c1
REMARK SMILES IDX 16 1 15 2 14 3 12 4 13 5 11 7 10 8 8 9 7 10 9 12 6 13 1 14
REMARK SMILES IDX 2 15 3 16 97 17 4 18 95 19 5 20 96 21 88 22 89 23 94 24
REMARK SMILES IDX 90 26 93 27 91 28 92 29 17 31 18 32 19 33 20 34 21 36 22 37
REMARK SMILES IDX 23 38 87 39 24 40 86 41 25 42 26 43 27 44 80 45 28 46 85 47
REMARK SMILES IDX 79 48 81 49 29 50 84 51 78 52 77 53 30 55 64 56 43 57 63 58
REMARK SMILES IDX 44 59 47 60 62 61 82 62 45 63 46 64 61 66 83 67 48 68 31 69
REMARK SMILES IDX 32 70 41 71 33 72 34 73 40 74 42 75 35 76 36 77 37 78 38 79
REMARK SMILES IDX 39 80 65 81 66 82 75 83 67 84 68 85 74 86 76 87 69 88 70 89
REMARK SMILES IDX 71 90 72 91 73 92 49 93 50 94 59 95 51 96 52 97 58 98 60 99
REMARK SMILES IDX 53 100 54 101 55 102 56 103 57 104
REMARK H PARENT 14 6 7 11 88 25 91 30 19 35 81 54 47 65
REMARK Flexibility Score: inf
ROOT
ATOM      1  C   UNL A   1      37.348  21.865  25.507  1.00  0.00     0.023 C 
ENDROOT
BRANCH   1   2
ATOM      2  C   UNL A   1      35.899  21.395  25.600  1.00  0.00     0.116 C 
BRANCH   2   3
ATOM      3  N   UNL A   1      35.029  22.024  24.619  1.00  0.00    -0.351 N 
ATOM      4  C   UNL A   1      33.698  22.190  24.409  1.00  0.00     0.278 C 
ATOM      5  O   UNL A   1      33.474  22.951  23.449  1.00  0.00    -0.268 OA
ATOM      6  H   UNL A   1      35.554  22.452  23.905  1.00  0.00     0.163 HD
BRANCH   4   7
ATOM      7  C   UNL A   1      32.485  21.460  25.102  1.00  0.00     0.283 C 
BRANCH   7   8
ATOM      8  C   UNL A   1      31.203  22.249  25.388  1.00  0.00     0.175 C 
BRANCH   8   9
ATOM      9  C   UNL A   1      31.001  23.439  26.329  1.00  0.00     0.230 C 
ATOM     10  N   UNL A   1      31.196  24.766  26.174  1.00  0.00    -0.325 N 
ATOM     11  H   UNL A   1      30.850  25.264  26.949  1.00  0.00     0.169 HD
ATOM     12  O   UNL A   1      30.510  23.154  27.443  1.00  0.00    -0.274 OA
BRANCH  10  13
ATOM     13  C   UNL A   1      31.753  25.644  25.227  1.00  0.00     0.047 A 
ATOM     14  C   UNL A   1      33.630  28.651  22.734  1.00  0.00     0.044 C 
ATOM     15  C   UNL A   1      33.018  27.546  23.539  1.00  0.00    -0.050 A 
ATOM     16  C   UNL A   1      31.665  27.249  23.400  1.00  0.00     0.009 A 
ATOM     17  C   UNL A   1      33.766  26.806  24.451  1.00  0.00     0.009 A 
ATOM     18  C   UNL A   1      31.040  26.272  24.201  1.00  0.00    -0.027 A 
ATOM     19  C   UNL A   1      33.158  25.836  25.271  1.00  0.00    -0.027 A 
ATOM     20  C   UNL A   1      29.692  25.832  23.742  1.00  0.00     0.046 C 
ATOM     21  C   UNL A   1      34.050  25.056  26.206  1.00  0.00     0.046 C 
ENDBRANCH  10  13
ENDBRANCH   8   9
ENDBRANCH   7   8
BRANCH   7  22
ATOM     22  N   UNL A   1      32.205  20.065  24.652  1.00  0.00    -0.315 N 
ATOM     23  C   UNL A   1      32.924  19.069  25.480  1.00  0.00     0.325 C 
ATOM     24  C   UNL A   1      32.476  19.737  23.240  1.00  0.00     0.325 C 
ATOM     25  H   UNL A   1      31.193  20.019  24.765  1.00  0.00     0.349 HD
ATOM     26  C   UNL A   1      32.441  17.635  25.183  1.00  0.00     0.324 C 
ATOM     27  C   UNL A   1      32.084  18.275  22.881  1.00  0.00     0.324 C 
ATOM     28  N   UNL A   1      32.559  17.204  23.782  1.00  0.00    -0.328 N 
ATOM     29  C   UNL A   1      33.907  16.765  23.461  1.00  0.00     0.333 C 
ATOM     30  H   UNL A   1      31.960  16.390  23.644  1.00  0.00     0.348 HD
ENDBRANCH   7  22
ENDBRANCH   4   7
ENDBRANCH   2   3
ENDBRANCH   1   2
BRANCH   1  31
ATOM     31  C   UNL A   1      38.364  20.738  25.296  1.00  0.00     0.023 C 
BRANCH  31  32
ATOM     32  C   UNL A   1      39.550  20.705  26.263  1.00  0.00     0.116 C 
BRANCH  32  33
ATOM     33  N   UNL A   1      40.435  19.562  26.085  1.00  0.00    -0.352 N 
ATOM     34  C   UNL A   1      41.811  19.542  26.084  1.00  0.00     0.251 C 
ATOM     35  H   UNL A   1      39.993  18.694  25.946  1.00  0.00     0.163 HD
ATOM     36  O   UNL A   1      42.421  18.503  25.854  1.00  0.00    -0.269 OA
BRANCH  34  37
ATOM     37  C   UNL A   1      42.545  20.802  26.322  1.00  0.00     0.039 A 
ATOM     38  C   UNL A   1      42.999  21.536  25.225  1.00  0.00     0.014 A 
ATOM     39  C   UNL A   1      42.702  21.293  27.621  1.00  0.00     0.014 A 
ATOM     40  C   UNL A   1      43.534  22.810  25.425  1.00  0.00     0.010 A 
ATOM     41  C   UNL A   1      43.175  22.587  27.812  1.00  0.00     0.010 A 
ATOM     42  C   UNL A   1      43.582  23.365  26.715  1.00  0.00    -0.014 A 
BRANCH  42  43
ATOM     43  C   UNL A   1      44.024  24.766  26.936  1.00  0.00     0.031 A 
ATOM     44  C   UNL A   1      45.461  25.148  26.702  1.00  0.00     0.074 A 
ATOM     45  C   UNL A   1      43.154  25.672  27.428  1.00  0.00     0.049 A 
ATOM     46  N   UNL A   1      46.056  26.292  26.920  1.00  0.00    -0.248 NA
ATOM     47  C   UNL A   1      46.352  24.098  26.183  1.00  0.00     0.031 C 
ATOM     48  C   UNL A   1      41.749  25.409  27.754  1.00  0.00     0.029 A 
ATOM     49  N   UNL A   1      43.323  26.994  27.754  1.00  0.00    -0.354 N 
ATOM     50  C   UNL A   1      47.391  26.092  26.595  1.00  0.00     0.074 A 
ATOM     51  C   UNL A   1      47.529  24.707  26.198  1.00  0.00     0.031 C 
ATOM     52  C   UNL A   1      41.182  26.539  28.210  1.00  0.00     0.029 A 
ATOM     53  C   UNL A   1      42.187  27.596  28.242  1.00  0.00     0.049 A 
ATOM     54  H   UNL A   1      44.180  27.468  27.647  1.00  0.00     0.167 HD
ATOM     55  C   UNL A   1      48.408  26.987  26.606  1.00  0.00     0.037 A 
ATOM     56  C   UNL A   1      41.980  28.857  28.671  1.00  0.00     0.037 A 
ATOM     57  C   UNL A   1      48.255  28.377  26.946  1.00  0.00     0.049 A 
ATOM     58  C   UNL A   1      43.120  29.838  28.641  1.00  0.00     0.074 A 
ATOM     59  C   UNL A   1      49.203  29.384  26.893  1.00  0.00     0.029 A 
ATOM     60  N   UNL A   1      47.079  28.958  27.397  1.00  0.00    -0.354 N 
ATOM     61  N   UNL A   1      44.359  29.651  28.251  1.00  0.00    -0.248 NA
ATOM     62  C   UNL A   1      42.836  31.204  29.105  1.00  0.00     0.031 C 
ATOM     63  C   UNL A   1      48.609  30.567  27.346  1.00  0.00     0.029 A 
ATOM     64  C   UNL A   1      47.282  30.305  27.644  1.00  0.00     0.049 A 
ATOM     65  H   UNL A   1      46.225  28.482  27.523  1.00  0.00     0.167 HD
ATOM     66  C   UNL A   1      44.990  30.882  28.391  1.00  0.00     0.074 A 
ATOM     67  C   UNL A   1      43.997  31.808  28.894  1.00  0.00     0.031 C 
ATOM     68  C   UNL A   1      46.277  31.216  28.125  1.00  0.00     0.037 A 
BRANCH  55  69
ATOM     69  C   UNL A   1      49.776  26.501  26.225  1.00  0.00     0.058 A 
ATOM     70  C   UNL A   1      50.290  26.687  24.933  1.00  0.00     0.135 A 
ATOM     71  C   UNL A   1      50.608  25.896  27.181  1.00  0.00     0.135 A 
ATOM     72  F   UNL A   1      49.531  27.245  23.977  1.00  0.00    -0.206 F 
ATOM     73  C   UNL A   1      51.575  26.274  24.595  1.00  0.00     0.059 A 
ATOM     74  C   UNL A   1      51.905  25.497  26.873  1.00  0.00     0.059 A 
ATOM     75  F   UNL A   1      50.163  25.692  28.431  1.00  0.00    -0.206 F 
ATOM     76  C   UNL A   1      52.376  25.682  25.573  1.00  0.00     0.060 A 
BRANCH  76  77
ATOM     77  S   UNL A   1      54.051  25.179  25.129  1.00  0.00     0.124 S 
ATOM     78  O   UNL A   1      53.892  23.735  24.987  1.00  0.00    -0.237 OA
ATOM     79  O   UNL A   1      54.282  25.915  23.889  1.00  0.00    -0.237 OA
ATOM     80  O   UNL A   1      54.851  25.613  26.269  1.00  0.00    -0.744 OA
ENDBRANCH  76  77
ENDBRANCH  55  69
BRANCH  56  81
ATOM     81  C   UNL A   1      40.635  29.282  29.146  1.00  0.00     0.058 A 
ATOM     82  C   UNL A   1      39.598  29.528  28.234  1.00  0.00     0.135 A 
ATOM     83  C   UNL A   1      40.366  29.474  30.509  1.00  0.00     0.135 A 
ATOM     84  F   UNL A   1      39.809  29.363  26.919  1.00  0.00    -0.206 F 
ATOM     85  C   UNL A   1      38.352  29.982  28.651  1.00  0.00     0.059 A 
ATOM     86  C   UNL A   1      39.120  29.905  30.954  1.00  0.00     0.059 A 
ATOM     87  F   UNL A   1      41.319  29.234  31.423  1.00  0.00    -0.206 F 
ATOM     88  C   UNL A   1      38.124  30.173  30.015  1.00  0.00     0.060 A 
BRANCH  88  89
ATOM     89  S   UNL A   1      36.498  30.749  30.552  1.00  0.00     0.124 S 
ATOM     90  O   UNL A   1      36.828  32.037  31.151  1.00  0.00    -0.237 OA
ATOM     91  O   UNL A   1      35.756  30.799  29.296  1.00  0.00    -0.237 OA
ATOM     92  O   UNL A   1      36.069  29.710  31.483  1.00  0.00    -0.744 OA
ENDBRANCH  88  89
ENDBRANCH  56  81
BRANCH  68  93
ATOM     93  C   UNL A   1      46.675  32.650  28.329  1.00  0.00     0.058 A 
ATOM     94  C   UNL A   1      47.265  33.088  29.524  1.00  0.00     0.135 A 
ATOM     95  C   UNL A   1      46.514  33.584  27.293  1.00  0.00     0.135 A 
ATOM     96  F   UNL A   1      47.435  32.233  30.546  1.00  0.00    -0.206 F 
ATOM     97  C   UNL A   1      47.667  34.408  29.694  1.00  0.00     0.059 A 
ATOM     98  C   UNL A   1      46.929  34.904  27.432  1.00  0.00     0.059 A 
ATOM     99  F   UNL A   1      45.963  33.212  26.127  1.00  0.00    -0.206 F 
ATOM    100  C   UNL A   1      47.494  35.310  28.641  1.00  0.00     0.060 A 
BRANCH 100 101
ATOM    101  S   UNL A   1      48.053  37.013  28.856  1.00  0.00     0.124 S 
ATOM    102  O   UNL A   1      49.446  36.818  29.243  1.00  0.00    -0.237 OA
ATOM    103  O   UNL A   1      47.838  37.584  27.529  1.00  0.00    -0.237 OA
ATOM    104  O   UNL A   1      47.175  37.528  29.902  1.00  0.00    -0.744 OA
ENDBRANCH 100 101
ENDBRANCH  68  93
ENDBRANCH  42  43
ENDBRANCH  34  37
ENDBRANCH  32  33
ENDBRANCH  31  32
ENDBRANCH   1  31
TORSDOF 18
ENDMDL
