MODEL 1
REMARK VINA RESULT:     -11.1      0.000      0.000
REMARK SMILES CC[C@@H](C)[NH2+][C@H](Cc1c[nH]c2ccccc12)C(=O)NCCCCNC(=O)c1ccc(-c2c3nc(c(-c4c(F)cc(S(=O)(=O)[O-])cc4F)c4ccc([nH]4)c(-c4c(F)cc(S(=O)(=O)[O-])cc4F)c4nc(c(-c5c(F)cc(S(=O)(=O)[O-])cc5F)c5ccc2[nH]5)C=C4)C=C3)cc1
REMARK SMILES IDX 21 1 20 2 19 3 17 4 18 5 6 7 5 8 3 11 4 12 2 13 1 14 7 15
REMARK SMILES IDX 8 16 9 17 16 18 10 19 11 20 15 21 12 23 14 24 13 25 22 26
REMARK SMILES IDX 23 27 24 28 25 29 26 31 27 32 28 33 92 34 29 35 91 36 30 37
REMARK SMILES IDX 31 38 32 39 85 40 33 41 90 42 84 43 86 44 34 45 89 46 83 47
REMARK SMILES IDX 82 48 35 50 69 51 48 52 68 53 49 54 52 55 67 56 87 57 50 58
REMARK SMILES IDX 51 59 66 61 88 62 53 63 36 64 37 65 46 66 38 67 39 68 45 69
REMARK SMILES IDX 47 70 40 71 41 72 42 73 43 74 44 75 70 76 71 77 80 78 72 79
REMARK SMILES IDX 73 80 79 81 81 82 74 83 75 84 76 85 77 86 78 87 54 88 55 89
REMARK SMILES IDX 64 90 56 91 57 92 63 93 65 94 58 95 59 96 60 97 61 98 62 99
REMARK H PARENT 19 6 5 9 5 10 10 22 24 30 86 49 52 60
REMARK Flexibility Score: inf
ROOT
ATOM      1  C   UNL A   1      36.281  23.080  26.057  1.00  0.00     0.023 C 
ENDROOT
BRANCH   1   2
ATOM      2  C   UNL A   1      35.382  24.209  25.544  1.00  0.00     0.116 C 
BRANCH   2   3
ATOM      3  N   UNL A   1      34.101  23.714  25.076  1.00  0.00    -0.351 N 
ATOM      4  C   UNL A   1      32.981  24.393  24.687  1.00  0.00     0.278 C 
ATOM      5  O   UNL A   1      32.028  23.721  24.280  1.00  0.00    -0.268 OA
ATOM      6  H   UNL A   1      34.028  22.733  25.031  1.00  0.00     0.163 HD
BRANCH   4   7
ATOM      7  C   UNL A   1      32.908  25.951  24.651  1.00  0.00     0.277 C 
BRANCH   7   8
ATOM      8  N   UNL A   1      33.775  26.405  23.531  1.00  0.00    -0.334 N 
ATOM      9  H   UNL A   1      34.585  26.883  23.926  1.00  0.00     0.347 HD
ATOM     10  H   UNL A   1      34.030  25.574  22.998  1.00  0.00     0.347 HD
BRANCH   8  11
ATOM     11  C   UNL A   1      33.103  27.327  22.591  1.00  0.00     0.179 C 
ATOM     12  C   UNL A   1      33.425  28.800  22.884  1.00  0.00     0.075 C 
BRANCH  11  13
ATOM     13  C   UNL A   1      31.582  27.089  22.708  1.00  0.00     0.061 C 
ATOM     14  C   UNL A   1      30.784  28.388  22.669  1.00  0.00     0.010 C 
ENDBRANCH  11  13
ENDBRANCH   8  11
ENDBRANCH   7   8
BRANCH   7  15
ATOM     15  C   UNL A   1      33.072  26.526  26.078  1.00  0.00     0.113 C 
BRANCH  15  16
ATOM     16  C   UNL A   1      32.772  27.967  26.373  1.00  0.00    -0.016 A 
ATOM     17  C   UNL A   1      31.513  28.533  26.295  1.00  0.00     0.087 A 
ATOM     18  C   UNL A   1      33.641  28.987  26.903  1.00  0.00     0.003 A 
ATOM     19  N   UNL A   1      31.590  29.833  26.708  1.00  0.00    -0.361 N 
ATOM     20  C   UNL A   1      32.881  30.148  27.053  1.00  0.00     0.046 A 
ATOM     21  C   UNL A   1      35.006  29.054  27.254  1.00  0.00     0.010 A 
ATOM     22  H   UNL A   1      30.828  30.456  26.751  1.00  0.00     0.166 HD
ATOM     23  C   UNL A   1      33.423  31.365  27.491  1.00  0.00     0.026 A 
ATOM     24  C   UNL A   1      35.571  30.263  27.675  1.00  0.00     0.001 A 
ATOM     25  C   UNL A   1      34.788  31.405  27.784  1.00  0.00     0.002 A 
ENDBRANCH  15  16
ENDBRANCH   7  15
ENDBRANCH   4   7
ENDBRANCH   2   3
ENDBRANCH   1   2
BRANCH   1  26
ATOM     26  C   UNL A   1      37.733  23.158  25.594  1.00  0.00     0.023 C 
BRANCH  26  27
ATOM     27  C   UNL A   1      38.645  23.983  26.489  1.00  0.00     0.116 C 
BRANCH  27  28
ATOM     28  N   UNL A   1      40.053  23.633  26.357  1.00  0.00    -0.352 N 
ATOM     29  C   UNL A   1      41.142  24.321  26.846  1.00  0.00     0.251 C 
ATOM     30  H   UNL A   1      40.250  22.807  25.860  1.00  0.00     0.163 HD
ATOM     31  O   UNL A   1      42.282  23.969  26.579  1.00  0.00    -0.269 OA
BRANCH  29  32
ATOM     32  C   UNL A   1      40.896  25.522  27.668  1.00  0.00     0.039 A 
ATOM     33  C   UNL A   1      39.813  25.532  28.549  1.00  0.00     0.014 A 
ATOM     34  C   UNL A   1      41.805  26.583  27.638  1.00  0.00     0.014 A 
ATOM     35  C   UNL A   1      39.687  26.576  29.467  1.00  0.00     0.010 A 
ATOM     36  C   UNL A   1      41.716  27.581  28.598  1.00  0.00     0.010 A 
ATOM     37  C   UNL A   1      40.663  27.582  29.527  1.00  0.00    -0.014 A 
BRANCH  37  38
ATOM     38  C   UNL A   1      40.631  28.652  30.555  1.00  0.00     0.031 A 
ATOM     39  C   UNL A   1      41.503  28.533  31.772  1.00  0.00     0.074 A 
ATOM     40  C   UNL A   1      39.727  29.645  30.462  1.00  0.00     0.049 A 
ATOM     41  N   UNL A   1      41.489  29.237  32.871  1.00  0.00    -0.248 NA
ATOM     42  C   UNL A   1      42.492  27.444  31.762  1.00  0.00     0.031 C 
ATOM     43  C   UNL A   1      38.785  29.834  29.356  1.00  0.00     0.029 A 
ATOM     44  N   UNL A   1      39.427  30.665  31.331  1.00  0.00    -0.354 N 
ATOM     45  C   UNL A   1      42.433  28.650  33.704  1.00  0.00     0.074 A 
ATOM     46  C   UNL A   1      42.977  27.514  32.992  1.00  0.00     0.031 C 
ATOM     47  C   UNL A   1      38.009  30.898  29.617  1.00  0.00     0.029 A 
ATOM     48  C   UNL A   1      38.370  31.443  30.922  1.00  0.00     0.049 A 
ATOM     49  H   UNL A   1      39.920  30.822  32.167  1.00  0.00     0.167 HD
ATOM     50  C   UNL A   1      42.817  29.031  34.946  1.00  0.00     0.037 A 
ATOM     51  C   UNL A   1      37.745  32.465  31.540  1.00  0.00     0.037 A 
ATOM     52  C   UNL A   1      42.303  30.188  35.627  1.00  0.00     0.049 A 
ATOM     53  C   UNL A   1      38.226  32.911  32.892  1.00  0.00     0.074 A 
ATOM     54  C   UNL A   1      42.686  30.710  36.849  1.00  0.00     0.029 A 
ATOM     55  N   UNL A   1      41.290  31.004  35.141  1.00  0.00    -0.354 N 
ATOM     56  N   UNL A   1      39.166  32.388  33.642  1.00  0.00    -0.248 NA
ATOM     57  C   UNL A   1      37.569  34.086  33.481  1.00  0.00     0.031 C 
ATOM     58  C   UNL A   1      41.886  31.828  37.115  1.00  0.00     0.029 A 
ATOM     59  C   UNL A   1      41.027  32.020  36.044  1.00  0.00     0.049 A 
ATOM     60  H   UNL A   1      40.827  30.878  34.281  1.00  0.00     0.167 HD
ATOM     61  C   UNL A   1      39.229  33.180  34.782  1.00  0.00     0.074 A 
ATOM     62  C   UNL A   1      38.233  34.221  34.622  1.00  0.00     0.031 C 
ATOM     63  C   UNL A   1      40.041  33.056  35.861  1.00  0.00     0.037 A 
BRANCH  50  64
ATOM     64  C   UNL A   1      43.836  28.172  35.639  1.00  0.00     0.058 A 
ATOM     65  C   UNL A   1      43.461  27.116  36.484  1.00  0.00     0.135 A 
ATOM     66  C   UNL A   1      45.207  28.427  35.479  1.00  0.00     0.135 A 
ATOM     67  F   UNL A   1      42.162  26.840  36.684  1.00  0.00    -0.206 F 
ATOM     68  C   UNL A   1      44.405  26.377  37.189  1.00  0.00     0.059 A 
ATOM     69  C   UNL A   1      46.172  27.683  36.153  1.00  0.00     0.059 A 
ATOM     70  F   UNL A   1      45.621  29.424  34.680  1.00  0.00    -0.206 F 
ATOM     71  C   UNL A   1      45.759  26.678  37.026  1.00  0.00     0.060 A 
BRANCH  71  72
ATOM     72  S   UNL A   1      46.976  25.748  37.981  1.00  0.00     0.124 S 
ATOM     73  O   UNL A   1      46.182  24.607  38.426  1.00  0.00    -0.237 OA
ATOM     74  O   UNL A   1      48.002  25.453  36.986  1.00  0.00    -0.237 OA
ATOM     75  O   UNL A   1      47.373  26.686  39.026  1.00  0.00    -0.744 OA
ENDBRANCH  71  72
ENDBRANCH  50  64
BRANCH  51  76
ATOM     76  C   UNL A   1      36.611  33.140  30.859  1.00  0.00     0.058 A 
ATOM     77  C   UNL A   1      35.296  32.974  31.318  1.00  0.00     0.135 A 
ATOM     78  C   UNL A   1      36.825  34.021  29.787  1.00  0.00     0.135 A 
ATOM     79  F   UNL A   1      35.043  32.137  32.336  1.00  0.00    -0.206 F 
ATOM     80  C   UNL A   1      34.233  33.664  30.747  1.00  0.00     0.059 A 
ATOM     81  C   UNL A   1      35.780  34.737  29.211  1.00  0.00     0.059 A 
ATOM     82  F   UNL A   1      38.068  34.225  29.324  1.00  0.00    -0.206 F 
ATOM     83  C   UNL A   1      34.487  34.552  29.699  1.00  0.00     0.060 A 
BRANCH  83  84
ATOM     84  S   UNL A   1      33.116  35.523  29.034  1.00  0.00     0.124 S 
ATOM     85  O   UNL A   1      32.434  34.537  28.203  1.00  0.00    -0.237 OA
ATOM     86  O   UNL A   1      32.413  35.933  30.246  1.00  0.00    -0.237 OA
ATOM     87  O   UNL A   1      33.787  36.601  28.316  1.00  0.00    -0.744 OA
ENDBRANCH  83  84
ENDBRANCH  51  76
BRANCH  63  88
ATOM     88  C   UNL A   1      39.917  34.086  36.946  1.00  0.00     0.058 A 
ATOM     89  C   UNL A   1      40.518  35.348  36.833  1.00  0.00     0.135 A 
ATOM     90  C   UNL A   1      39.110  33.837  38.069  1.00  0.00     0.135 A 
ATOM     91  F   UNL A   1      41.304  35.630  35.783  1.00  0.00    -0.206 F 
ATOM     92  C   UNL A   1      40.324  36.331  37.799  1.00  0.00     0.059 A 
ATOM     93  C   UNL A   1      38.888  34.811  39.037  1.00  0.00     0.059 A 
ATOM     94  F   UNL A   1      38.509  32.646  38.218  1.00  0.00    -0.206 F 
ATOM     95  C   UNL A   1      39.503  36.054  38.894  1.00  0.00     0.060 A 
BRANCH  95  96
ATOM     96  S   UNL A   1      39.202  37.360  40.105  1.00  0.00     0.124 S 
ATOM     97  O   UNL A   1      38.431  38.318  39.320  1.00  0.00    -0.237 OA
ATOM     98  O   UNL A   1      38.463  36.656  41.150  1.00  0.00    -0.237 OA
ATOM     99  O   UNL A   1      40.546  37.790  40.480  1.00  0.00    -0.744 OA
ENDBRANCH  95  96
ENDBRANCH  63  88
ENDBRANCH  37  38
ENDBRANCH  29  32
ENDBRANCH  27  28
ENDBRANCH  26  27
ENDBRANCH   1  26
TORSDOF 19
ENDMDL
MODEL 2
REMARK VINA RESULT:     -11.1      3.244      9.574
REMARK SMILES CC[C@@H](C)[NH2+][C@H](Cc1c[nH]c2ccccc12)C(=O)NCCCCNC(=O)c1ccc(-c2c3nc(c(-c4c(F)cc(S(=O)(=O)[O-])cc4F)c4ccc([nH]4)c(-c4c(F)cc(S(=O)(=O)[O-])cc4F)c4nc(c(-c5c(F)cc(S(=O)(=O)[O-])cc5F)c5ccc2[nH]5)C=C4)C=C3)cc1
REMARK SMILES IDX 21 1 20 2 19 3 17 4 18 5 6 7 5 8 3 11 4 12 2 13 1 14 7 15
REMARK SMILES IDX 8 16 9 17 16 18 10 19 11 20 15 21 12 23 14 24 13 25 22 26
REMARK SMILES IDX 23 27 24 28 25 29 26 31 27 32 28 33 92 34 29 35 91 36 30 37
REMARK SMILES IDX 31 38 32 39 85 40 33 41 90 42 84 43 86 44 34 45 89 46 83 47
REMARK SMILES IDX 82 48 35 50 69 51 48 52 68 53 49 54 52 55 67 56 87 57 50 58
REMARK SMILES IDX 51 59 66 61 88 62 53 63 36 64 37 65 46 66 38 67 39 68 45 69
REMARK SMILES IDX 47 70 40 71 41 72 42 73 43 74 44 75 70 76 71 77 80 78 72 79
REMARK SMILES IDX 73 80 79 81 81 82 74 83 75 84 76 85 77 86 78 87 54 88 55 89
REMARK SMILES IDX 64 90 56 91 57 92 63 93 65 94 58 95 59 96 60 97 61 98 62 99
REMARK H PARENT 19 6 5 9 5 10 10 22 24 30 86 49 52 60
REMARK Flexibility Score: inf
ROOT
ATOM      1  C   UNL A   1      31.915  27.855  26.991  1.00  0.00     0.023 C 
ENDROOT
BRANCH   1   2
ATOM      2  C   UNL A   1      31.052  27.124  25.957  1.00  0.00     0.116 C 
BRANCH   2   3
ATOM      3  N   UNL A   1      30.443  25.927  26.506  1.00  0.00    -0.351 N 
ATOM      4  C   UNL A   1      30.882  24.633  26.503  1.00  0.00     0.278 C 
ATOM      5  O   UNL A   1      30.184  23.800  27.091  1.00  0.00    -0.268 OA
ATOM      6  H   UNL A   1      29.577  26.070  26.952  1.00  0.00     0.163 HD
BRANCH   4   7
ATOM      7  C   UNL A   1      32.247  24.206  25.880  1.00  0.00     0.277 C 
BRANCH   7   8
ATOM      8  N   UNL A   1      31.972  23.741  24.495  1.00  0.00    -0.334 N 
ATOM      9  H   UNL A   1      32.272  22.769  24.417  1.00  0.00     0.347 HD
ATOM     10  H   UNL A   1      30.971  23.856  24.337  1.00  0.00     0.347 HD
BRANCH   8  11
ATOM     11  C   UNL A   1      32.663  24.526  23.451  1.00  0.00     0.179 C 
ATOM     12  C   UNL A   1      33.779  25.411  24.026  1.00  0.00     0.075 C 
BRANCH  11  13
ATOM     13  C   UNL A   1      31.605  25.406  22.749  1.00  0.00     0.061 C 
ATOM     14  C   UNL A   1      32.036  25.831  21.350  1.00  0.00     0.010 C 
ENDBRANCH  11  13
ENDBRANCH   8  11
ENDBRANCH   7   8
BRANCH   7  15
ATOM     15  C   UNL A   1      33.039  23.330  26.880  1.00  0.00     0.113 C 
BRANCH  15  16
ATOM     16  C   UNL A   1      34.020  22.300  26.401  1.00  0.00    -0.016 A 
ATOM     17  C   UNL A   1      33.693  20.985  26.117  1.00  0.00     0.087 A 
ATOM     18  C   UNL A   1      35.399  22.464  26.021  1.00  0.00     0.003 A 
ATOM     19  N   UNL A   1      34.803  20.354  25.630  1.00  0.00    -0.361 N 
ATOM     20  C   UNL A   1      35.867  21.221  25.592  1.00  0.00     0.046 A 
ATOM     21  C   UNL A   1      36.313  23.539  26.015  1.00  0.00     0.010 A 
ATOM     22  H   UNL A   1      34.835  19.411  25.348  1.00  0.00     0.166 HD
ATOM     23  C   UNL A   1      37.195  20.997  25.202  1.00  0.00     0.026 A 
ATOM     24  C   UNL A   1      37.648  23.333  25.650  1.00  0.00     0.001 A 
ATOM     25  C   UNL A   1      38.083  22.074  25.255  1.00  0.00     0.002 A 
ENDBRANCH  15  16
ENDBRANCH   7  15
ENDBRANCH   4   7
ENDBRANCH   2   3
ENDBRANCH   1   2
BRANCH   1  26
ATOM     26  C   UNL A   1      33.418  27.785  26.734  1.00  0.00     0.023 C 
BRANCH  26  27
ATOM     27  C   UNL A   1      33.974  28.923  25.893  1.00  0.00     0.116 C 
BRANCH  27  28
ATOM     28  N   UNL A   1      33.723  30.240  26.465  1.00  0.00    -0.352 N 
ATOM     29  C   UNL A   1      34.438  30.879  27.455  1.00  0.00     0.251 C 
ATOM     30  H   UNL A   1      32.952  30.731  26.102  1.00  0.00     0.163 HD
ATOM     31  O   UNL A   1      34.061  31.947  27.916  1.00  0.00    -0.269 OA
BRANCH  29  32
ATOM     32  C   UNL A   1      35.652  30.219  27.974  1.00  0.00     0.039 A 
ATOM     33  C   UNL A   1      36.836  30.297  27.239  1.00  0.00     0.014 A 
ATOM     34  C   UNL A   1      35.631  29.623  29.238  1.00  0.00     0.014 A 
ATOM     35  C   UNL A   1      38.028  29.849  27.810  1.00  0.00     0.010 A 
ATOM     36  C   UNL A   1      36.828  29.244  29.830  1.00  0.00     0.010 A 
ATOM     37  C   UNL A   1      38.038  29.363  29.127  1.00  0.00    -0.014 A 
BRANCH  37  38
ATOM     38  C   UNL A   1      39.295  28.977  29.816  1.00  0.00     0.031 A 
ATOM     39  C   UNL A   1      39.802  29.817  30.952  1.00  0.00     0.074 A 
ATOM     40  C   UNL A   1      40.041  27.965  29.332  1.00  0.00     0.049 A 
ATOM     41  N   UNL A   1      40.959  29.780  31.556  1.00  0.00    -0.248 NA
ATOM     42  C   UNL A   1      38.897  30.868  31.441  1.00  0.00     0.031 C 
ATOM     43  C   UNL A   1      39.681  27.113  28.197  1.00  0.00     0.029 A 
ATOM     44  N   UNL A   1      41.276  27.504  29.715  1.00  0.00    -0.354 N 
ATOM     45  C   UNL A   1      40.941  30.830  32.464  1.00  0.00     0.074 A 
ATOM     46  C   UNL A   1      39.670  31.503  32.309  1.00  0.00     0.031 C 
ATOM     47  C   UNL A   1      40.676  26.240  27.970  1.00  0.00     0.029 A 
ATOM     48  C   UNL A   1      41.758  26.493  28.918  1.00  0.00     0.049 A 
ATOM     49  H   UNL A   1      41.770  27.864  30.486  1.00  0.00     0.167 HD
ATOM     50  C   UNL A   1      41.896  31.193  33.354  1.00  0.00     0.037 A 
ATOM     51  C   UNL A   1      42.946  25.858  28.932  1.00  0.00     0.037 A 
ATOM     52  C   UNL A   1      43.138  30.491  33.531  1.00  0.00     0.049 A 
ATOM     53  C   UNL A   1      43.969  26.236  29.965  1.00  0.00     0.074 A 
ATOM     54  C   UNL A   1      44.134  30.725  34.462  1.00  0.00     0.029 A 
ATOM     55  N   UNL A   1      43.554  29.415  32.759  1.00  0.00    -0.354 N 
ATOM     56  N   UNL A   1      43.914  27.190  30.864  1.00  0.00    -0.248 NA
ATOM     57  C   UNL A   1      45.212  25.453  29.994  1.00  0.00     0.031 C 
ATOM     58  C   UNL A   1      45.166  29.805  34.235  1.00  0.00     0.029 A 
ATOM     59  C   UNL A   1      44.797  28.979  33.185  1.00  0.00     0.049 A 
ATOM     60  H   UNL A   1      43.039  29.020  32.018  1.00  0.00     0.167 HD
ATOM     61  C   UNL A   1      45.103  27.109  31.579  1.00  0.00     0.074 A 
ATOM     62  C   UNL A   1      45.858  26.011  31.009  1.00  0.00     0.031 C 
ATOM     63  C   UNL A   1      45.527  27.875  32.614  1.00  0.00     0.037 A 
BRANCH  50  64
ATOM     64  C   UNL A   1      41.624  32.414  34.187  1.00  0.00     0.058 A 
ATOM     65  C   UNL A   1      42.057  33.689  33.793  1.00  0.00     0.135 A 
ATOM     66  C   UNL A   1      40.946  32.300  35.411  1.00  0.00     0.135 A 
ATOM     67  F   UNL A   1      42.724  33.850  32.639  1.00  0.00    -0.206 F 
ATOM     68  C   UNL A   1      41.877  34.803  34.608  1.00  0.00     0.059 A 
ATOM     69  C   UNL A   1      40.730  33.405  36.230  1.00  0.00     0.059 A 
ATOM     70  F   UNL A   1      40.508  31.104  35.834  1.00  0.00    -0.206 F 
ATOM     71  C   UNL A   1      41.223  34.647  35.831  1.00  0.00     0.060 A 
BRANCH  71  72
ATOM     72  S   UNL A   1      41.036  36.086  36.905  1.00  0.00     0.124 S 
ATOM     73  O   UNL A   1      40.959  35.456  38.219  1.00  0.00    -0.237 OA
ATOM     74  O   UNL A   1      42.254  36.842  36.637  1.00  0.00    -0.237 OA
ATOM     75  O   UNL A   1      39.802  36.704  36.429  1.00  0.00    -0.744 OA
ENDBRANCH  71  72
ENDBRANCH  50  64
BRANCH  51  76
ATOM     76  C   UNL A   1      43.207  24.786  27.938  1.00  0.00     0.058 A 
ATOM     77  C   UNL A   1      43.746  25.089  26.679  1.00  0.00     0.135 A 
ATOM     78  C   UNL A   1      42.996  23.435  28.253  1.00  0.00     0.135 A 
ATOM     79  F   UNL A   1      43.959  26.367  26.331  1.00  0.00    -0.206 F 
ATOM     80  C   UNL A   1      44.077  24.090  25.770  1.00  0.00     0.059 A 
ATOM     81  C   UNL A   1      43.336  22.417  27.367  1.00  0.00     0.059 A 
ATOM     82  F   UNL A   1      42.498  23.095  29.452  1.00  0.00    -0.206 F 
ATOM     83  C   UNL A   1      43.877  22.755  26.128  1.00  0.00     0.060 A 
BRANCH  83  84
ATOM     84  S   UNL A   1      44.407  21.462  24.982  1.00  0.00     0.124 S 
ATOM     85  O   UNL A   1      45.719  21.116  25.517  1.00  0.00    -0.237 OA
ATOM     86  O   UNL A   1      43.363  20.455  25.152  1.00  0.00    -0.237 OA
ATOM     87  O   UNL A   1      44.407  22.139  23.690  1.00  0.00    -0.744 OA
ENDBRANCH  83  84
ENDBRANCH  51  76
BRANCH  63  88
ATOM     88  C   UNL A   1      46.856  27.540  33.228  1.00  0.00     0.058 A 
ATOM     89  C   UNL A   1      48.038  28.164  32.807  1.00  0.00     0.135 A 
ATOM     90  C   UNL A   1      46.929  26.651  34.313  1.00  0.00     0.135 A 
ATOM     91  F   UNL A   1      48.021  29.015  31.770  1.00  0.00    -0.206 F 
ATOM     92  C   UNL A   1      49.252  27.918  33.441  1.00  0.00     0.059 A 
ATOM     93  C   UNL A   1      48.128  26.404  34.973  1.00  0.00     0.059 A 
ATOM     94  F   UNL A   1      45.822  26.033  34.757  1.00  0.00    -0.206 F 
ATOM     95  C   UNL A   1      49.285  27.040  34.527  1.00  0.00     0.060 A 
BRANCH  95  96
ATOM     96  S   UNL A   1      50.852  26.781  35.387  1.00  0.00     0.124 S 
ATOM     97  O   UNL A   1      51.138  28.121  35.887  1.00  0.00    -0.237 OA
ATOM     98  O   UNL A   1      50.497  25.789  36.398  1.00  0.00    -0.237 OA
ATOM     99  O   UNL A   1      51.741  26.300  34.333  1.00  0.00    -0.744 OA
ENDBRANCH  95  96
ENDBRANCH  63  88
ENDBRANCH  37  38
ENDBRANCH  29  32
ENDBRANCH  27  28
ENDBRANCH  26  27
ENDBRANCH   1  26
TORSDOF 19
ENDMDL
MODEL 3
REMARK VINA RESULT:     -10.8      6.491     12.041
REMARK SMILES CC[C@@H](C)[NH2+][C@H](Cc1c[nH]c2ccccc12)C(=O)NCCCCNC(=O)c1ccc(-c2c3nc(c(-c4c(F)cc(S(=O)(=O)[O-])cc4F)c4ccc([nH]4)c(-c4c(F)cc(S(=O)(=O)[O-])cc4F)c4nc(c(-c5c(F)cc(S(=O)(=O)[O-])cc5F)c5ccc2[nH]5)C=C4)C=C3)cc1
REMARK SMILES IDX 21 1 20 2 19 3 17 4 18 5 6 7 5 8 3 11 4 12 2 13 1 14 7 15
REMARK SMILES IDX 8 16 9 17 16 18 10 19 11 20 15 21 12 23 14 24 13 25 22 26
REMARK SMILES IDX 23 27 24 28 25 29 26 31 27 32 28 33 92 34 29 35 91 36 30 37
REMARK SMILES IDX 31 38 32 39 85 40 33 41 90 42 84 43 86 44 34 45 89 46 83 47
REMARK SMILES IDX 82 48 35 50 69 51 48 52 68 53 49 54 52 55 67 56 87 57 50 58
REMARK SMILES IDX 51 59 66 61 88 62 53 63 36 64 37 65 46 66 38 67 39 68 45 69
REMARK SMILES IDX 47 70 40 71 41 72 42 73 43 74 44 75 70 76 71 77 80 78 72 79
REMARK SMILES IDX 73 80 79 81 81 82 74 83 75 84 76 85 77 86 78 87 54 88 55 89
REMARK SMILES IDX 64 90 56 91 57 92 63 93 65 94 58 95 59 96 60 97 61 98 62 99
REMARK H PARENT 19 6 5 9 5 10 10 22 24 30 86 49 52 60
REMARK Flexibility Score: inf
ROOT
ATOM      1  C   UNL A   1      34.279  28.189  26.578  1.00  0.00     0.023 C 
ENDROOT
BRANCH   1   2
ATOM      2  C   UNL A   1      33.060  28.129  25.652  1.00  0.00     0.116 C 
BRANCH   2   3
ATOM      3  N   UNL A   1      31.986  27.335  26.218  1.00  0.00    -0.351 N 
ATOM      4  C   UNL A   1      31.817  25.980  26.259  1.00  0.00     0.278 C 
ATOM      5  O   UNL A   1      30.821  25.554  26.853  1.00  0.00    -0.268 OA
ATOM      6  H   UNL A   1      31.265  27.855  26.641  1.00  0.00     0.163 HD
BRANCH   4   7
ATOM      7  C   UNL A   1      32.865  24.981  25.678  1.00  0.00     0.277 C 
BRANCH   7   8
ATOM      8  N   UNL A   1      32.521  24.766  24.247  1.00  0.00    -0.334 N 
ATOM      9  H   UNL A   1      32.172  23.813  24.141  1.00  0.00     0.347 HD
ATOM     10  H   UNL A   1      31.824  25.469  24.001  1.00  0.00     0.347 HD
BRANCH   8  11
ATOM     11  C   UNL A   1      33.660  24.950  23.323  1.00  0.00     0.179 C 
ATOM     12  C   UNL A   1      33.316  25.875  22.147  1.00  0.00     0.075 C 
BRANCH  11  13
ATOM     13  C   UNL A   1      34.064  23.556  22.794  1.00  0.00     0.061 C 
ATOM     14  C   UNL A   1      33.158  23.077  21.665  1.00  0.00     0.010 C 
ENDBRANCH  11  13
ENDBRANCH   8  11
ENDBRANCH   7   8
BRANCH   7  15
ATOM     15  C   UNL A   1      33.060  23.790  26.646  1.00  0.00     0.113 C 
BRANCH  15  16
ATOM     16  C   UNL A   1      33.974  22.650  26.300  1.00  0.00    -0.016 A 
ATOM     17  C   UNL A   1      33.553  21.349  26.093  1.00  0.00     0.087 A 
ATOM     18  C   UNL A   1      35.380  22.674  25.989  1.00  0.00     0.003 A 
ATOM     19  N   UNL A   1      34.629  20.595  25.718  1.00  0.00    -0.361 N 
ATOM     20  C   UNL A   1      35.763  21.368  25.678  1.00  0.00     0.046 A 
ATOM     21  C   UNL A   1      36.381  23.669  25.959  1.00  0.00     0.010 A 
ATOM     22  H   UNL A   1      34.596  19.633  25.506  1.00  0.00     0.166 HD
ATOM     23  C   UNL A   1      37.085  21.009  25.383  1.00  0.00     0.026 A 
ATOM     24  C   UNL A   1      37.711  23.328  25.686  1.00  0.00     0.001 A 
ATOM     25  C   UNL A   1      38.057  22.012  25.409  1.00  0.00     0.002 A 
ENDBRANCH  15  16
ENDBRANCH   7  15
ENDBRANCH   4   7
ENDBRANCH   2   3
ENDBRANCH   1   2
BRANCH   1  26
ATOM     26  C   UNL A   1      34.600  29.577  27.124  1.00  0.00     0.023 C 
BRANCH  26  27
ATOM     27  C   UNL A   1      35.823  29.641  28.026  1.00  0.00     0.116 C 
BRANCH  27  28
ATOM     28  N   UNL A   1      35.536  30.179  29.350  1.00  0.00    -0.352 N 
ATOM     29  C   UNL A   1      36.431  30.458  30.359  1.00  0.00     0.251 C 
ATOM     30  H   UNL A   1      34.589  30.365  29.547  1.00  0.00     0.163 HD
ATOM     31  O   UNL A   1      36.046  30.815  31.463  1.00  0.00    -0.269 OA
BRANCH  29  32
ATOM     32  C   UNL A   1      37.870  30.273  30.085  1.00  0.00     0.039 A 
ATOM     33  C   UNL A   1      38.714  29.870  31.121  1.00  0.00     0.014 A 
ATOM     34  C   UNL A   1      38.349  30.395  28.778  1.00  0.00     0.014 A 
ATOM     35  C   UNL A   1      40.030  29.504  30.831  1.00  0.00     0.010 A 
ATOM     36  C   UNL A   1      39.635  29.963  28.482  1.00  0.00     0.010 A 
ATOM     37  C   UNL A   1      40.483  29.505  29.503  1.00  0.00    -0.014 A 
BRANCH  37  38
ATOM     38  C   UNL A   1      41.836  29.022  29.131  1.00  0.00     0.031 A 
ATOM     39  C   UNL A   1      42.966  30.005  29.021  1.00  0.00     0.074 A 
ATOM     40  C   UNL A   1      42.012  27.739  28.761  1.00  0.00     0.049 A 
ATOM     41  N   UNL A   1      44.163  29.837  28.525  1.00  0.00    -0.248 NA
ATOM     42  C   UNL A   1      42.692  31.371  29.492  1.00  0.00     0.031 C 
ATOM     43  C   UNL A   1      40.977  26.704  28.770  1.00  0.00     0.029 A 
ATOM     44  N   UNL A   1      43.121  27.095  28.271  1.00  0.00    -0.354 N 
ATOM     45  C   UNL A   1      44.770  31.085  28.582  1.00  0.00     0.074 A 
ATOM     46  C   UNL A   1      43.797  32.004  29.131  1.00  0.00     0.031 C 
ATOM     47  C   UNL A   1      41.496  25.559  28.300  1.00  0.00     0.029 A 
ATOM     48  C   UNL A   1      42.888  25.786  27.922  1.00  0.00     0.049 A 
ATOM     49  H   UNL A   1      43.999  27.530  28.177  1.00  0.00     0.167 HD
ATOM     50  C   UNL A   1      46.028  31.429  28.217  1.00  0.00     0.037 A 
ATOM     51  C   UNL A   1      43.696  24.878  27.340  1.00  0.00     0.037 A 
ATOM     52  C   UNL A   1      47.002  30.498  27.713  1.00  0.00     0.049 A 
ATOM     53  C   UNL A   1      45.107  25.263  26.997  1.00  0.00     0.074 A 
ATOM     54  C   UNL A   1      48.328  30.727  27.396  1.00  0.00     0.029 A 
ATOM     55  N   UNL A   1      46.752  29.158  27.454  1.00  0.00    -0.354 N 
ATOM     56  N   UNL A   1      45.691  26.431  27.117  1.00  0.00    -0.248 NA
ATOM     57  C   UNL A   1      45.972  24.210  26.447  1.00  0.00     0.031 C 
ATOM     58  C   UNL A   1      48.875  29.529  26.919  1.00  0.00     0.029 A 
ATOM     59  C   UNL A   1      47.897  28.548  26.970  1.00  0.00     0.049 A 
ATOM     60  H   UNL A   1      45.888  28.707  27.594  1.00  0.00     0.167 HD
ATOM     61  C   UNL A   1      46.997  26.251  26.677  1.00  0.00     0.074 A 
ATOM     62  C   UNL A   1      47.119  24.859  26.291  1.00  0.00     0.031 C 
ATOM     63  C   UNL A   1      48.003  27.157  26.603  1.00  0.00     0.037 A 
BRANCH  50  64
ATOM     64  C   UNL A   1      46.404  32.878  28.344  1.00  0.00     0.058 A 
ATOM     65  C   UNL A   1      46.929  33.404  29.534  1.00  0.00     0.135 A 
ATOM     66  C   UNL A   1      46.208  33.759  27.269  1.00  0.00     0.135 A 
ATOM     67  F   UNL A   1      47.121  32.607  30.597  1.00  0.00    -0.206 F 
ATOM     68  C   UNL A   1      47.196  34.762  29.675  1.00  0.00     0.059 A 
ATOM     69  C   UNL A   1      46.494  35.117  27.377  1.00  0.00     0.059 A 
ATOM     70  F   UNL A   1      45.710  33.308  26.106  1.00  0.00    -0.206 F 
ATOM     71  C   UNL A   1      46.963  35.612  28.593  1.00  0.00     0.060 A 
BRANCH  71  72
ATOM     72  S   UNL A   1      47.265  37.380  28.797  1.00  0.00     0.124 S 
ATOM     73  O   UNL A   1      46.348  37.705  29.886  1.00  0.00    -0.237 OA
ATOM     74  O   UNL A   1      48.685  37.422  29.133  1.00  0.00    -0.237 OA
ATOM     75  O   UNL A   1      46.917  37.935  27.493  1.00  0.00    -0.744 OA
ENDBRANCH  71  72
ENDBRANCH  50  64
BRANCH  51  76
ATOM     76  C   UNL A   1      43.177  23.513  27.070  1.00  0.00     0.058 A 
ATOM     77  C   UNL A   1      42.830  23.120  25.770  1.00  0.00     0.135 A 
ATOM     78  C   UNL A   1      43.090  22.553  28.091  1.00  0.00     0.135 A 
ATOM     79  F   UNL A   1      42.892  24.005  24.764  1.00  0.00    -0.206 F 
ATOM     80  C   UNL A   1      42.425  21.820  25.486  1.00  0.00     0.059 A 
ATOM     81  C   UNL A   1      42.704  21.242  27.829  1.00  0.00     0.059 A 
ATOM     82  F   UNL A   1      43.427  22.878  29.349  1.00  0.00    -0.206 F 
ATOM     83  C   UNL A   1      42.375  20.885  26.522  1.00  0.00     0.060 A 
BRANCH  83  84
ATOM     84  S   UNL A   1      41.948  19.174  26.126  1.00  0.00     0.124 S 
ATOM     85  O   UNL A   1      42.359  18.480  27.342  1.00  0.00    -0.237 OA
ATOM     86  O   UNL A   1      40.509  19.262  25.896  1.00  0.00    -0.237 OA
ATOM     87  O   UNL A   1      42.748  18.897  24.937  1.00  0.00    -0.744 OA
ENDBRANCH  83  84
ENDBRANCH  51  76
BRANCH  63  88
ATOM     88  C   UNL A   1      49.339  26.675  26.118  1.00  0.00     0.058 A 
ATOM     89  C   UNL A   1      49.751  26.867  24.791  1.00  0.00     0.135 A 
ATOM     90  C   UNL A   1      50.252  26.098  27.015  1.00  0.00     0.135 A 
ATOM     91  F   UNL A   1      48.912  27.407  23.894  1.00  0.00    -0.206 F 
ATOM     92  C   UNL A   1      51.025  26.501  24.369  1.00  0.00     0.059 A 
ATOM     93  C   UNL A   1      51.536  25.741  26.620  1.00  0.00     0.059 A 
ATOM     94  F   UNL A   1      49.905  25.900  28.297  1.00  0.00    -0.206 F 
ATOM     95  C   UNL A   1      51.913  25.945  25.293  1.00  0.00     0.060 A 
BRANCH  95  96
ATOM     96  S   UNL A   1      53.587  25.537  24.752  1.00  0.00     0.124 S 
ATOM     97  O   UNL A   1      53.626  26.150  23.428  1.00  0.00    -0.237 OA
ATOM     98  O   UNL A   1      54.412  26.179  25.772  1.00  0.00    -0.237 OA
ATOM     99  O   UNL A   1      53.603  24.078  24.770  1.00  0.00    -0.744 OA
ENDBRANCH  95  96
ENDBRANCH  63  88
ENDBRANCH  37  38
ENDBRANCH  29  32
ENDBRANCH  27  28
ENDBRANCH  26  27
ENDBRANCH   1  26
TORSDOF 19
ENDMDL
