MODEL 1
REMARK VINA RESULT:     -13.4      0.000      0.000
REMARK SMILES O=C(NCCCCNC(=O)c1nn(Cc2ccc(F)cc2)c2c1CN(C(=O)[C@H]1CC1(F)F)CC2)c1ccc(-c2c3nc(c(-c4c(F)cc(S(=O)(=O)[O-])cc4F)c4ccc([nH]4)c(-c4c(F)cc(S(=O)(=O)[O-])cc4F)c4nc(c(-c5c(F)cc(S(=O)(=O)[O-])cc5F)c5ccc2[nH]5)C=C4)C=C3)cc1
REMARK SMILES IDX 5 1 4 2 3 3 1 4 2 5 35 7 36 8 100 9 37 10 99 11 38 12 39 13
REMARK SMILES IDX 40 14 93 15 41 16 98 17 92 18 94 19 42 20 97 21 91 22 90 23
REMARK SMILES IDX 43 25 77 26 56 27 76 28 57 29 60 30 75 31 95 32 58 33 59 34
REMARK SMILES IDX 74 36 96 37 61 38 44 39 45 40 54 41 46 42 47 43 53 44 55 45
REMARK SMILES IDX 48 46 49 47 50 48 51 49 52 50 78 51 79 52 88 53 80 54 81 55
REMARK SMILES IDX 87 56 89 57 82 58 83 59 84 60 85 61 86 62 62 63 63 64 72 65
REMARK SMILES IDX 64 66 65 67 71 68 73 69 66 70 67 71 68 72 69 73 70 74 6 75
REMARK SMILES IDX 7 76 8 77 9 78 10 80 11 81 12 82 23 83 13 84 22 85 24 86
REMARK SMILES IDX 34 87 25 88 33 89 14 90 15 91 16 92 21 93 17 94 20 95 18 96
REMARK SMILES IDX 19 97 26 98 27 99 28 100 29 101 30 102 31 103 32 104
REMARK H PARENT 3 6 94 24 60 35 8 79
REMARK Flexibility Score: inf
ROOT
ATOM      1  C   UNL A   1      39.557  21.647  26.081  1.00  0.00     0.023 C 
ENDROOT
BRANCH   1   2
ATOM      2  C   UNL A   1      41.046  21.442  26.357  1.00  0.00     0.116 C 
BRANCH   2   3
ATOM      3  N   UNL A   1      41.943  22.038  25.388  1.00  0.00    -0.352 N 
ATOM      4  O   UNL A   1      43.526  23.254  24.458  1.00  0.00    -0.269 OA
ATOM      5  C   UNL A   1      42.628  23.220  25.305  1.00  0.00     0.251 C 
ATOM      6  H   UNL A   1      42.094  21.458  24.607  1.00  0.00     0.163 HD
BRANCH   5   7
ATOM      7  C   UNL A   1      42.317  24.460  26.067  1.00  0.00     0.039 A 
ATOM      8  C   UNL A   1      41.627  25.577  25.595  1.00  0.00     0.014 A 
ATOM      9  C   UNL A   1      42.816  24.489  27.386  1.00  0.00     0.014 A 
ATOM     10  C   UNL A   1      41.523  26.726  26.388  1.00  0.00     0.010 A 
ATOM     11  C   UNL A   1      42.721  25.628  28.175  1.00  0.00     0.010 A 
ATOM     12  C   UNL A   1      42.107  26.765  27.660  1.00  0.00    -0.014 A 
BRANCH  12  13
ATOM     13  C   UNL A   1      41.900  27.935  28.518  1.00  0.00     0.031 A 
ATOM     14  C   UNL A   1      43.009  28.935  28.440  1.00  0.00     0.074 A 
ATOM     15  C   UNL A   1      40.746  28.198  29.173  1.00  0.00     0.049 A 
ATOM     16  N   UNL A   1      43.817  29.304  29.379  1.00  0.00    -0.248 NA
ATOM     17  C   UNL A   1      43.351  29.487  27.117  1.00  0.00     0.031 C 
ATOM     18  C   UNL A   1      39.484  27.456  29.107  1.00  0.00     0.029 A 
ATOM     19  N   UNL A   1      40.423  29.251  29.983  1.00  0.00    -0.354 N 
ATOM     20  C   UNL A   1      44.625  30.297  28.825  1.00  0.00     0.074 A 
ATOM     21  C   UNL A   1      44.415  30.239  27.402  1.00  0.00     0.031 C 
ATOM     22  C   UNL A   1      38.490  28.201  29.647  1.00  0.00     0.029 A 
ATOM     23  C   UNL A   1      39.056  29.411  30.219  1.00  0.00     0.049 A 
ATOM     24  H   UNL A   1      41.102  29.850  30.369  1.00  0.00     0.167 HD
ATOM     25  C   UNL A   1      45.231  31.241  29.597  1.00  0.00     0.037 A 
ATOM     26  C   UNL A   1      38.439  30.476  30.806  1.00  0.00     0.037 A 
ATOM     27  C   UNL A   1      45.246  30.850  30.981  1.00  0.00     0.049 A 
ATOM     28  C   UNL A   1      39.476  31.201  31.583  1.00  0.00     0.074 A 
ATOM     29  C   UNL A   1      45.799  29.805  31.694  1.00  0.00     0.029 A 
ATOM     30  N   UNL A   1      44.298  31.406  31.802  1.00  0.00    -0.354 N 
ATOM     31  N   UNL A   1      40.074  30.710  32.633  1.00  0.00    -0.248 NA
ATOM     32  C   UNL A   1      40.176  32.283  30.911  1.00  0.00     0.031 C 
ATOM     33  C   UNL A   1      44.830  29.486  32.689  1.00  0.00     0.029 A 
ATOM     34  C   UNL A   1      43.780  30.399  32.574  1.00  0.00     0.049 A 
ATOM     35  H   UNL A   1      44.036  32.354  31.832  1.00  0.00     0.167 HD
ATOM     36  C   UNL A   1      41.398  31.099  32.495  1.00  0.00     0.074 A 
ATOM     37  C   UNL A   1      41.386  32.123  31.451  1.00  0.00     0.031 C 
ATOM     38  C   UNL A   1      42.410  30.361  33.034  1.00  0.00     0.037 A 
BRANCH  25  39
ATOM     39  C   UNL A   1      45.481  32.671  29.171  1.00  0.00     0.058 A 
ATOM     40  C   UNL A   1      46.770  33.221  29.000  1.00  0.00     0.135 A 
ATOM     41  C   UNL A   1      44.420  33.434  28.637  1.00  0.00     0.135 A 
ATOM     42  F   UNL A   1      47.880  32.570  29.367  1.00  0.00    -0.206 F 
ATOM     43  C   UNL A   1      46.994  34.429  28.351  1.00  0.00     0.059 A 
ATOM     44  C   UNL A   1      44.628  34.624  27.935  1.00  0.00     0.059 A 
ATOM     45  F   UNL A   1      43.154  32.997  28.725  1.00  0.00    -0.206 F 
ATOM     46  C   UNL A   1      45.922  35.111  27.796  1.00  0.00     0.060 A 
BRANCH  46  47
ATOM     47  S   UNL A   1      46.274  36.591  26.831  1.00  0.00     0.124 S 
ATOM     48  O   UNL A   1      45.156  37.452  27.201  1.00  0.00    -0.237 OA
ATOM     49  O   UNL A   1      47.579  36.983  27.350  1.00  0.00    -0.237 OA
ATOM     50  O   UNL A   1      46.266  36.105  25.454  1.00  0.00    -0.744 OA
ENDBRANCH  46  47
ENDBRANCH  25  39
BRANCH  26  51
ATOM     51  C   UNL A   1      37.148  31.137  30.435  1.00  0.00     0.058 A 
ATOM     52  C   UNL A   1      36.894  31.559  29.115  1.00  0.00     0.135 A 
ATOM     53  C   UNL A   1      36.280  31.656  31.420  1.00  0.00     0.135 A 
ATOM     54  F   UNL A   1      37.676  31.161  28.102  1.00  0.00    -0.206 F 
ATOM     55  C   UNL A   1      35.894  32.479  28.800  1.00  0.00     0.059 A 
ATOM     56  C   UNL A   1      35.269  32.585  31.127  1.00  0.00     0.059 A 
ATOM     57  F   UNL A   1      36.448  31.322  32.710  1.00  0.00    -0.206 F 
ATOM     58  C   UNL A   1      35.108  33.016  29.814  1.00  0.00     0.060 A 
BRANCH  58  59
ATOM     59  S   UNL A   1      33.952  34.340  29.382  1.00  0.00     0.124 S 
ATOM     60  O   UNL A   1      33.319  34.616  30.667  1.00  0.00    -0.237 OA
ATOM     61  O   UNL A   1      34.850  35.380  28.888  1.00  0.00    -0.237 OA
ATOM     62  O   UNL A   1      33.090  33.730  28.374  1.00  0.00    -0.744 OA
ENDBRANCH  58  59
ENDBRANCH  26  51
BRANCH  38  63
ATOM     63  C   UNL A   1      42.068  29.284  34.033  1.00  0.00     0.058 A 
ATOM     64  C   UNL A   1      42.373  29.531  35.380  1.00  0.00     0.135 A 
ATOM     65  C   UNL A   1      41.628  27.990  33.701  1.00  0.00     0.135 A 
ATOM     66  F   UNL A   1      42.846  30.732  35.753  1.00  0.00    -0.206 F 
ATOM     67  C   UNL A   1      42.264  28.545  36.352  1.00  0.00     0.059 A 
ATOM     68  C   UNL A   1      41.477  26.991  34.669  1.00  0.00     0.059 A 
ATOM     69  F   UNL A   1      41.400  27.643  32.425  1.00  0.00    -0.206 F 
ATOM     70  C   UNL A   1      41.815  27.276  35.991  1.00  0.00     0.060 A 
BRANCH  70  71
ATOM     71  S   UNL A   1      41.715  26.016  37.278  1.00  0.00     0.124 S 
ATOM     72  O   UNL A   1      42.092  24.809  36.549  1.00  0.00    -0.237 OA
ATOM     73  O   UNL A   1      42.693  26.492  38.253  1.00  0.00    -0.237 OA
ATOM     74  O   UNL A   1      40.323  26.071  37.715  1.00  0.00    -0.744 OA
ENDBRANCH  70  71
ENDBRANCH  38  63
ENDBRANCH  12  13
ENDBRANCH   5   7
ENDBRANCH   2   3
ENDBRANCH   1   2
BRANCH   1  75
ATOM     75  C   UNL A   1      38.985  23.020  26.463  1.00  0.00     0.023 C 
BRANCH  75  76
ATOM     76  C   UNL A   1      37.553  23.325  26.006  1.00  0.00     0.116 C 
BRANCH  76  77
ATOM     77  N   UNL A   1      37.441  23.474  24.562  1.00  0.00    -0.351 N 
ATOM     78  C   UNL A   1      36.375  23.210  23.724  1.00  0.00     0.272 C 
ATOM     79  H   UNL A   1      38.249  23.816  24.114  1.00  0.00     0.163 HD
ATOM     80  O   UNL A   1      36.569  23.254  22.508  1.00  0.00    -0.267 OA
BRANCH  78  81
ATOM     81  C   UNL A   1      35.052  22.854  24.272  1.00  0.00     0.155 A 
ATOM     82  N   UNL A   1      34.665  21.578  24.489  1.00  0.00    -0.167 NA
ATOM     83  C   UNL A   1      34.037  23.756  24.713  1.00  0.00     0.026 A 
ATOM     84  N   UNL A   1      33.387  21.662  24.915  1.00  0.00    -0.264 N 
ATOM     85  C   UNL A   1      32.961  22.948  25.028  1.00  0.00     0.046 A 
ATOM     86  C   UNL A   1      34.001  25.253  24.774  1.00  0.00     0.159 C 
ATOM     87  C   UNL A   1      31.617  23.444  25.418  1.00  0.00     0.078 C 
ATOM     88  N   UNL A   1      32.706  25.673  25.375  1.00  0.00    -0.337 N 
ATOM     89  C   UNL A   1      31.514  24.912  24.952  1.00  0.00     0.126 C 
BRANCH  84  90
ATOM     90  C   UNL A   1      32.673  20.453  25.307  1.00  0.00     0.180 C 
BRANCH  90  91
ATOM     91  C   UNL A   1      33.145  19.232  24.555  1.00  0.00    -0.026 A 
ATOM     92  C   UNL A   1      32.489  18.837  23.375  1.00  0.00     0.008 A 
ATOM     93  C   UNL A   1      34.241  18.483  25.009  1.00  0.00     0.008 A 
ATOM     94  C   UNL A   1      32.926  17.722  22.659  1.00  0.00     0.039 A 
ATOM     95  C   UNL A   1      34.680  17.371  24.287  1.00  0.00     0.039 A 
ATOM     96  C   UNL A   1      34.021  17.004  23.118  1.00  0.00     0.123 A 
ATOM     97  F   UNL A   1      34.455  15.944  22.424  1.00  0.00    -0.207 F 
ENDBRANCH  90  91
ENDBRANCH  84  90
BRANCH  88  98
ATOM     98  C   UNL A   1      32.685  26.712  26.293  1.00  0.00     0.232 C 
ATOM     99  O   UNL A   1      31.805  26.864  27.137  1.00  0.00    -0.274 OA
BRANCH  98 100
ATOM    100  C   UNL A   1      33.822  27.658  26.258  1.00  0.00     0.154 C 
ATOM    101  C   UNL A   1      33.751  28.900  25.382  1.00  0.00     0.097 C 
ATOM    102  C   UNL A   1      33.729  29.008  26.860  1.00  0.00     0.260 C 
ATOM    103  F   UNL A   1      32.603  29.507  27.466  1.00  0.00    -0.206 F 
ATOM    104  F   UNL A   1      34.816  29.579  27.487  1.00  0.00    -0.206 F 
ENDBRANCH  98 100
ENDBRANCH  88  98
ENDBRANCH  78  81
ENDBRANCH  76  77
ENDBRANCH  75  76
ENDBRANCH   1  75
TORSDOF 18
ENDMDL
MODEL 2
REMARK VINA RESULT:     -13.3      1.045      4.491
REMARK SMILES O=C(NCCCCNC(=O)c1nn(Cc2ccc(F)cc2)c2c1CN(C(=O)[C@H]1CC1(F)F)CC2)c1ccc(-c2c3nc(c(-c4c(F)cc(S(=O)(=O)[O-])cc4F)c4ccc([nH]4)c(-c4c(F)cc(S(=O)(=O)[O-])cc4F)c4nc(c(-c5c(F)cc(S(=O)(=O)[O-])cc5F)c5ccc2[nH]5)C=C4)C=C3)cc1
REMARK SMILES IDX 5 1 4 2 3 3 1 4 2 5 35 7 36 8 100 9 37 10 99 11 38 12 39 13
REMARK SMILES IDX 40 14 93 15 41 16 98 17 92 18 94 19 42 20 97 21 91 22 90 23
REMARK SMILES IDX 43 25 77 26 56 27 76 28 57 29 60 30 75 31 95 32 58 33 59 34
REMARK SMILES IDX 74 36 96 37 61 38 44 39 45 40 54 41 46 42 47 43 53 44 55 45
REMARK SMILES IDX 48 46 49 47 50 48 51 49 52 50 78 51 79 52 88 53 80 54 81 55
REMARK SMILES IDX 87 56 89 57 82 58 83 59 84 60 85 61 86 62 62 63 63 64 72 65
REMARK SMILES IDX 64 66 65 67 71 68 73 69 66 70 67 71 68 72 69 73 70 74 6 75
REMARK SMILES IDX 7 76 8 77 9 78 10 80 11 81 12 82 23 83 13 84 22 85 24 86
REMARK SMILES IDX 34 87 25 88 33 89 14 90 15 91 16 92 21 93 17 94 20 95 18 96
REMARK SMILES IDX 19 97 26 98 27 99 28 100 29 101 30 102 31 103 32 104
REMARK H PARENT 3 6 94 24 60 35 8 79
REMARK Flexibility Score: inf
ROOT
ATOM      1  C   UNL A   1      39.583  21.506  26.121  1.00  0.00     0.023 C 
ENDROOT
BRANCH   1   2
ATOM      2  C   UNL A   1      41.083  21.316  26.333  1.00  0.00     0.116 C 
BRANCH   2   3
ATOM      3  N   UNL A   1      41.930  21.870  25.297  1.00  0.00    -0.352 N 
ATOM      4  O   UNL A   1      43.536  22.955  24.251  1.00  0.00    -0.269 OA
ATOM      5  C   UNL A   1      42.744  22.966  25.198  1.00  0.00     0.251 C 
ATOM      6  H   UNL A   1      41.917  21.334  24.472  1.00  0.00     0.163 HD
BRANCH   5   7
ATOM      7  C   UNL A   1      42.680  24.177  26.061  1.00  0.00     0.039 A 
ATOM      8  C   UNL A   1      43.480  24.452  27.172  1.00  0.00     0.014 A 
ATOM      9  C   UNL A   1      41.673  25.102  25.715  1.00  0.00     0.014 A 
ATOM     10  C   UNL A   1      43.216  25.574  27.967  1.00  0.00     0.010 A 
ATOM     11  C   UNL A   1      41.405  26.213  26.504  1.00  0.00     0.010 A 
ATOM     12  C   UNL A   1      42.152  26.430  27.656  1.00  0.00    -0.014 A 
BRANCH  12  13
ATOM     13  C   UNL A   1      41.955  27.654  28.436  1.00  0.00     0.031 A 
ATOM     14  C   UNL A   1      43.058  28.650  28.272  1.00  0.00     0.074 A 
ATOM     15  C   UNL A   1      40.811  27.956  29.092  1.00  0.00     0.049 A 
ATOM     16  N   UNL A   1      43.880  29.085  29.171  1.00  0.00    -0.248 NA
ATOM     17  C   UNL A   1      43.375  29.113  26.909  1.00  0.00     0.031 C 
ATOM     18  C   UNL A   1      39.551  27.208  29.097  1.00  0.00     0.029 A 
ATOM     19  N   UNL A   1      40.496  29.061  29.834  1.00  0.00    -0.354 N 
ATOM     20  C   UNL A   1      44.673  30.040  28.537  1.00  0.00     0.074 A 
ATOM     21  C   UNL A   1      44.441  29.886  27.125  1.00  0.00     0.031 C 
ATOM     22  C   UNL A   1      38.563  27.984  29.603  1.00  0.00     0.029 A 
ATOM     23  C   UNL A   1      39.133  29.232  30.082  1.00  0.00     0.049 A 
ATOM     24  H   UNL A   1      41.179  29.687  30.168  1.00  0.00     0.167 HD
ATOM     25  C   UNL A   1      45.288  31.037  29.233  1.00  0.00     0.037 A 
ATOM     26  C   UNL A   1      38.521  30.332  30.606  1.00  0.00     0.037 A 
ATOM     27  C   UNL A   1      45.328  30.739  30.641  1.00  0.00     0.049 A 
ATOM     28  C   UNL A   1      39.568  31.111  31.315  1.00  0.00     0.074 A 
ATOM     29  C   UNL A   1      45.898  29.747  31.412  1.00  0.00     0.029 A 
ATOM     30  N   UNL A   1      44.391  31.346  31.438  1.00  0.00    -0.354 N 
ATOM     31  N   UNL A   1      40.185  30.694  32.386  1.00  0.00    -0.248 NA
ATOM     32  C   UNL A   1      40.252  32.148  30.559  1.00  0.00     0.031 C 
ATOM     33  C   UNL A   1      44.947  29.493  32.443  1.00  0.00     0.029 A 
ATOM     34  C   UNL A   1      43.891  30.392  32.285  1.00  0.00     0.049 A 
ATOM     35  H   UNL A   1      44.126  32.293  31.408  1.00  0.00     0.167 HD
ATOM     36  C   UNL A   1      41.505  31.078  32.199  1.00  0.00     0.074 A 
ATOM     37  C   UNL A   1      41.471  32.029  31.089  1.00  0.00     0.031 C 
ATOM     38  C   UNL A   1      42.529  30.381  32.770  1.00  0.00     0.037 A 
BRANCH  25  39
ATOM     39  C   UNL A   1      45.525  32.435  28.708  1.00  0.00     0.058 A 
ATOM     40  C   UNL A   1      44.488  33.352  28.432  1.00  0.00     0.135 A 
ATOM     41  C   UNL A   1      46.824  32.985  28.755  1.00  0.00     0.135 A 
ATOM     42  F   UNL A   1      43.197  32.999  28.449  1.00  0.00    -0.206 F 
ATOM     43  C   UNL A   1      44.716  34.706  28.219  1.00  0.00     0.059 A 
ATOM     44  C   UNL A   1      47.070  34.351  28.596  1.00  0.00     0.059 A 
ATOM     45  F   UNL A   1      47.884  32.209  29.030  1.00  0.00    -0.206 F 
ATOM     46  C   UNL A   1      46.005  35.204  28.330  1.00  0.00     0.060 A 
BRANCH  46  47
ATOM     47  S   UNL A   1      46.233  36.986  28.201  1.00  0.00     0.124 S 
ATOM     48  O   UNL A   1      46.045  37.200  26.771  1.00  0.00    -0.237 OA
ATOM     49  O   UNL A   1      45.172  37.488  29.066  1.00  0.00    -0.237 OA
ATOM     50  O   UNL A   1      47.593  37.188  28.694  1.00  0.00    -0.744 OA
ENDBRANCH  46  47
ENDBRANCH  25  39
BRANCH  26  51
ATOM     51  C   UNL A   1      37.221  30.962  30.213  1.00  0.00     0.058 A 
ATOM     52  C   UNL A   1      36.949  31.307  28.875  1.00  0.00     0.135 A 
ATOM     53  C   UNL A   1      36.360  31.530  31.178  1.00  0.00     0.135 A 
ATOM     54  F   UNL A   1      37.722  30.857  27.876  1.00  0.00    -0.206 F 
ATOM     55  C   UNL A   1      35.938  32.201  28.520  1.00  0.00     0.059 A 
ATOM     56  C   UNL A   1      35.339  32.435  30.844  1.00  0.00     0.059 A 
ATOM     57  F   UNL A   1      36.545  31.271  32.482  1.00  0.00    -0.206 F 
ATOM     58  C   UNL A   1      35.160  32.789  29.511  1.00  0.00     0.060 A 
BRANCH  58  59
ATOM     59  S   UNL A   1      33.990  34.078  29.018  1.00  0.00     0.124 S 
ATOM     60  O   UNL A   1      33.152  33.369  28.056  1.00  0.00    -0.237 OA
ATOM     61  O   UNL A   1      33.348  34.410  30.286  1.00  0.00    -0.237 OA
ATOM     62  O   UNL A   1      34.842  35.123  28.458  1.00  0.00    -0.744 OA
ENDBRANCH  58  59
ENDBRANCH  26  51
BRANCH  38  63
ATOM     63  C   UNL A   1      42.209  29.373  33.844  1.00  0.00     0.058 A 
ATOM     64  C   UNL A   1      42.626  29.666  35.151  1.00  0.00     0.135 A 
ATOM     65  C   UNL A   1      41.679  28.090  33.612  1.00  0.00     0.135 A 
ATOM     66  F   UNL A   1      43.186  30.855  35.428  1.00  0.00    -0.206 F 
ATOM     67  C   UNL A   1      42.540  28.734  36.178  1.00  0.00     0.059 A 
ATOM     68  C   UNL A   1      41.551  27.148  34.638  1.00  0.00     0.059 A 
ATOM     69  F   UNL A   1      41.339  27.696  32.375  1.00  0.00    -0.206 F 
ATOM     70  C   UNL A   1      42.001  27.476  35.915  1.00  0.00     0.060 A 
BRANCH  70  71
ATOM     71  S   UNL A   1      41.934  26.286  37.270  1.00  0.00     0.124 S 
ATOM     72  O   UNL A   1      40.580  26.483  37.778  1.00  0.00    -0.237 OA
ATOM     73  O   UNL A   1      42.169  25.020  36.581  1.00  0.00    -0.237 OA
ATOM     74  O   UNL A   1      43.004  26.715  38.166  1.00  0.00    -0.744 OA
ENDBRANCH  70  71
ENDBRANCH  38  63
ENDBRANCH  12  13
ENDBRANCH   5   7
ENDBRANCH   2   3
ENDBRANCH   1   2
BRANCH   1  75
ATOM     75  C   UNL A   1      39.019  22.884  26.497  1.00  0.00     0.023 C 
BRANCH  75  76
ATOM     76  C   UNL A   1      37.647  23.253  25.921  1.00  0.00     0.116 C 
BRANCH  76  77
ATOM     77  N   UNL A   1      37.631  23.258  24.464  1.00  0.00    -0.351 N 
ATOM     78  C   UNL A   1      36.561  23.202  23.590  1.00  0.00     0.272 C 
ATOM     79  H   UNL A   1      38.516  23.311  24.038  1.00  0.00     0.163 HD
ATOM     80  O   UNL A   1      36.801  23.050  22.392  1.00  0.00    -0.267 OA
BRANCH  78  81
ATOM     81  C   UNL A   1      35.174  23.288  24.085  1.00  0.00     0.155 A 
ATOM     82  N   UNL A   1      34.419  24.402  23.965  1.00  0.00    -0.167 NA
ATOM     83  C   UNL A   1      34.409  22.238  24.676  1.00  0.00     0.026 A 
ATOM     84  N   UNL A   1      33.261  24.114  24.596  1.00  0.00    -0.264 N 
ATOM     85  C   UNL A   1      33.228  22.840  25.068  1.00  0.00     0.046 A 
ATOM     86  C   UNL A   1      34.741  20.802  24.947  1.00  0.00     0.159 C 
ATOM     87  C   UNL A   1      32.157  22.171  25.849  1.00  0.00     0.078 C 
ATOM     88  N   UNL A   1      33.546  20.140  25.535  1.00  0.00    -0.337 N 
ATOM     89  C   UNL A   1      32.781  20.930  26.520  1.00  0.00     0.126 C 
BRANCH  84  90
ATOM     90  C   UNL A   1      32.178  25.091  24.602  1.00  0.00     0.180 C 
BRANCH  90  91
ATOM     91  C   UNL A   1      32.457  26.261  25.513  1.00  0.00    -0.026 A 
ATOM     92  C   UNL A   1      33.746  26.822  25.562  1.00  0.00     0.008 A 
ATOM     93  C   UNL A   1      31.444  26.811  26.313  1.00  0.00     0.008 A 
ATOM     94  C   UNL A   1      34.013  27.917  26.384  1.00  0.00     0.039 A 
ATOM     95  C   UNL A   1      31.713  27.910  27.131  1.00  0.00     0.039 A 
ATOM     96  C   UNL A   1      32.993  28.454  27.156  1.00  0.00     0.123 A 
ATOM     97  F   UNL A   1      33.241  29.516  27.934  1.00  0.00    -0.207 F 
ENDBRANCH  90  91
ENDBRANCH  84  90
BRANCH  88  98
ATOM     98  C   UNL A   1      33.204  18.860  25.125  1.00  0.00     0.232 C 
ATOM     99  O   UNL A   1      32.145  18.307  25.414  1.00  0.00    -0.274 OA
BRANCH  98 100
ATOM    100  C   UNL A   1      34.172  18.156  24.256  1.00  0.00     0.154 C 
ATOM    101  C   UNL A   1      35.043  17.048  24.831  1.00  0.00     0.097 C 
ATOM    102  C   UNL A   1      33.972  16.744  23.853  1.00  0.00     0.260 C 
ATOM    103  F   UNL A   1      32.914  15.968  24.258  1.00  0.00    -0.206 F 
ATOM    104  F   UNL A   1      34.340  16.308  22.599  1.00  0.00    -0.206 F 
ENDBRANCH  98 100
ENDBRANCH  88  98
ENDBRANCH  78  81
ENDBRANCH  76  77
ENDBRANCH  75  76
ENDBRANCH   1  75
TORSDOF 18
ENDMDL
MODEL 3
REMARK VINA RESULT:     -13.2      2.748      4.841
REMARK SMILES O=C(NCCCCNC(=O)c1nn(Cc2ccc(F)cc2)c2c1CN(C(=O)[C@H]1CC1(F)F)CC2)c1ccc(-c2c3nc(c(-c4c(F)cc(S(=O)(=O)[O-])cc4F)c4ccc([nH]4)c(-c4c(F)cc(S(=O)(=O)[O-])cc4F)c4nc(c(-c5c(F)cc(S(=O)(=O)[O-])cc5F)c5ccc2[nH]5)C=C4)C=C3)cc1
REMARK SMILES IDX 5 1 4 2 3 3 1 4 2 5 35 7 36 8 100 9 37 10 99 11 38 12 39 13
REMARK SMILES IDX 40 14 93 15 41 16 98 17 92 18 94 19 42 20 97 21 91 22 90 23
REMARK SMILES IDX 43 25 77 26 56 27 76 28 57 29 60 30 75 31 95 32 58 33 59 34
REMARK SMILES IDX 74 36 96 37 61 38 44 39 45 40 54 41 46 42 47 43 53 44 55 45
REMARK SMILES IDX 48 46 49 47 50 48 51 49 52 50 78 51 79 52 88 53 80 54 81 55
REMARK SMILES IDX 87 56 89 57 82 58 83 59 84 60 85 61 86 62 62 63 63 64 72 65
REMARK SMILES IDX 64 66 65 67 71 68 73 69 66 70 67 71 68 72 69 73 70 74 6 75
REMARK SMILES IDX 7 76 8 77 9 78 10 80 11 81 12 82 23 83 13 84 22 85 24 86
REMARK SMILES IDX 34 87 25 88 33 89 14 90 15 91 16 92 21 93 17 94 20 95 18 96
REMARK SMILES IDX 19 97 26 98 27 99 28 100 29 101 30 102 31 103 32 104
REMARK H PARENT 3 6 94 24 60 35 8 79
REMARK Flexibility Score: inf
ROOT
ATOM      1  C   UNL A   1      35.890  23.222  25.982  1.00  0.00     0.023 C 
ENDROOT
BRANCH   1   2
ATOM      2  C   UNL A   1      37.096  23.236  25.045  1.00  0.00     0.116 C 
BRANCH   2   3
ATOM      3  N   UNL A   1      38.239  22.469  25.495  1.00  0.00    -0.352 N 
ATOM      4  O   UNL A   1      39.834  21.611  26.749  1.00  0.00    -0.269 OA
ATOM      5  C   UNL A   1      39.179  22.622  26.478  1.00  0.00     0.251 C 
ATOM      6  H   UNL A   1      38.371  21.645  24.972  1.00  0.00     0.163 HD
BRANCH   5   7
ATOM      7  C   UNL A   1      39.527  23.901  27.155  1.00  0.00     0.039 A 
ATOM      8  C   UNL A   1      38.784  25.083  27.137  1.00  0.00     0.014 A 
ATOM      9  C   UNL A   1      40.757  23.894  27.846  1.00  0.00     0.014 A 
ATOM     10  C   UNL A   1      39.302  26.248  27.713  1.00  0.00     0.010 A 
ATOM     11  C   UNL A   1      41.278  25.049  28.414  1.00  0.00     0.010 A 
ATOM     12  C   UNL A   1      40.568  26.241  28.313  1.00  0.00    -0.014 A 
BRANCH  12  13
ATOM     13  C   UNL A   1      41.051  27.440  29.002  1.00  0.00     0.031 A 
ATOM     14  C   UNL A   1      42.241  28.065  28.348  1.00  0.00     0.074 A 
ATOM     15  C   UNL A   1      40.392  28.048  30.014  1.00  0.00     0.049 A 
ATOM     16  N   UNL A   1      43.435  28.201  28.827  1.00  0.00    -0.248 NA
ATOM     17  C   UNL A   1      42.125  28.459  26.932  1.00  0.00     0.031 C 
ATOM     18  C   UNL A   1      39.074  27.712  30.561  1.00  0.00     0.029 A 
ATOM     19  N   UNL A   1      40.723  29.169  30.724  1.00  0.00    -0.354 N 
ATOM     20  C   UNL A   1      44.161  28.896  27.860  1.00  0.00     0.074 A 
ATOM     21  C   UNL A   1      43.366  28.869  26.661  1.00  0.00     0.031 C 
ATOM     22  C   UNL A   1      38.629  28.730  31.336  1.00  0.00     0.029 A 
ATOM     23  C   UNL A   1      39.675  29.732  31.455  1.00  0.00     0.049 A 
ATOM     24  H   UNL A   1      41.631  29.550  30.718  1.00  0.00     0.167 HD
ATOM     25  C   UNL A   1      45.257  29.638  28.183  1.00  0.00     0.037 A 
ATOM     26  C   UNL A   1      39.661  30.946  32.075  1.00  0.00     0.037 A 
ATOM     27  C   UNL A   1      45.751  29.293  29.490  1.00  0.00     0.049 A 
ATOM     28  C   UNL A   1      41.077  31.350  32.264  1.00  0.00     0.074 A 
ATOM     29  C   UNL A   1      46.261  28.149  30.070  1.00  0.00     0.029 A 
ATOM     30  N   UNL A   1      45.415  30.125  30.528  1.00  0.00    -0.354 N 
ATOM     31  N   UNL A   1      41.911  30.730  33.053  1.00  0.00    -0.248 NA
ATOM     32  C   UNL A   1      41.684  32.161  31.220  1.00  0.00     0.031 C 
ATOM     33  C   UNL A   1      45.755  28.156  31.401  1.00  0.00     0.029 A 
ATOM     34  C   UNL A   1      45.029  29.335  31.580  1.00  0.00     0.049 A 
ATOM     35  H   UNL A   1      45.446  31.108  30.520  1.00  0.00     0.167 HD
ATOM     36  C   UNL A   1      43.105  30.707  32.347  1.00  0.00     0.074 A 
ATOM     37  C   UNL A   1      42.921  31.663  31.256  1.00  0.00     0.031 C 
ATOM     38  C   UNL A   1      44.022  29.716  32.544  1.00  0.00     0.037 A 
BRANCH  25  39
ATOM     39  C   UNL A   1      45.666  30.918  27.490  1.00  0.00     0.058 A 
ATOM     40  C   UNL A   1      44.895  32.101  27.515  1.00  0.00     0.135 A 
ATOM     41  C   UNL A   1      46.993  31.068  27.032  1.00  0.00     0.135 A 
ATOM     42  F   UNL A   1      43.653  32.135  28.013  1.00  0.00    -0.206 F 
ATOM     43  C   UNL A   1      45.396  33.336  27.120  1.00  0.00     0.059 A 
ATOM     44  C   UNL A   1      47.532  32.309  26.681  1.00  0.00     0.059 A 
ATOM     45  F   UNL A   1      47.822  30.014  26.986  1.00  0.00    -0.206 F 
ATOM     46  C   UNL A   1      46.722  33.438  26.731  1.00  0.00     0.060 A 
BRANCH  46  47
ATOM     47  S   UNL A   1      47.372  35.080  26.377  1.00  0.00     0.124 S 
ATOM     48  O   UNL A   1      48.249  34.807  25.244  1.00  0.00    -0.237 OA
ATOM     49  O   UNL A   1      46.155  35.825  26.076  1.00  0.00    -0.237 OA
ATOM     50  O   UNL A   1      48.044  35.451  27.619  1.00  0.00    -0.744 OA
ENDBRANCH  46  47
ENDBRANCH  25  39
BRANCH  26  51
ATOM     51  C   UNL A   1      38.554  31.950  32.152  1.00  0.00     0.058 A 
ATOM     52  C   UNL A   1      37.695  32.010  33.267  1.00  0.00     0.135 A 
ATOM     53  C   UNL A   1      38.115  32.650  31.006  1.00  0.00     0.135 A 
ATOM     54  F   UNL A   1      37.989  31.354  34.399  1.00  0.00    -0.206 F 
ATOM     55  C   UNL A   1      36.461  32.659  33.232  1.00  0.00     0.059 A 
ATOM     56  C   UNL A   1      36.876  33.307  30.946  1.00  0.00     0.059 A 
ATOM     57  F   UNL A   1      38.858  32.643  29.888  1.00  0.00    -0.206 F 
ATOM     58  C   UNL A   1      36.040  33.275  32.058  1.00  0.00     0.060 A 
BRANCH  58  59
ATOM     59  S   UNL A   1      34.358  33.941  32.004  1.00  0.00     0.124 S 
ATOM     60  O   UNL A   1      34.581  35.344  32.340  1.00  0.00    -0.237 OA
ATOM     61  O   UNL A   1      33.971  33.680  30.621  1.00  0.00    -0.237 OA
ATOM     62  O   UNL A   1      33.645  33.160  33.009  1.00  0.00    -0.744 OA
ENDBRANCH  58  59
ENDBRANCH  26  51
BRANCH  38  63
ATOM     63  C   UNL A   1      43.865  28.813  33.742  1.00  0.00     0.058 A 
ATOM     64  C   UNL A   1      43.094  27.653  33.580  1.00  0.00     0.135 A 
ATOM     65  C   UNL A   1      44.287  29.128  35.047  1.00  0.00     0.135 A 
ATOM     66  F   UNL A   1      42.619  27.324  32.367  1.00  0.00    -0.206 F 
ATOM     67  C   UNL A   1      42.740  26.848  34.656  1.00  0.00     0.059 A 
ATOM     68  C   UNL A   1      43.972  28.313  36.140  1.00  0.00     0.059 A 
ATOM     69  F   UNL A   1      44.951  30.264  35.304  1.00  0.00    -0.206 F 
ATOM     70  C   UNL A   1      43.183  27.183  35.934  1.00  0.00     0.060 A 
BRANCH  70  71
ATOM     71  S   UNL A   1      42.677  26.127  37.307  1.00  0.00     0.124 S 
ATOM     72  O   UNL A   1      41.287  26.529  37.501  1.00  0.00    -0.237 OA
ATOM     73  O   UNL A   1      42.873  24.789  36.756  1.00  0.00    -0.237 OA
ATOM     74  O   UNL A   1      43.589  26.496  38.386  1.00  0.00    -0.744 OA
ENDBRANCH  70  71
ENDBRANCH  38  63
ENDBRANCH  12  13
ENDBRANCH   5   7
ENDBRANCH   2   3
ENDBRANCH   1   2
BRANCH   1  75
ATOM     75  C   UNL A   1      34.695  22.370  25.530  1.00  0.00     0.023 C 
BRANCH  75  76
ATOM     76  C   UNL A   1      33.491  23.119  24.946  1.00  0.00     0.116 C 
BRANCH  76  77
ATOM     77  N   UNL A   1      32.450  23.370  25.933  1.00  0.00    -0.351 N 
ATOM     78  C   UNL A   1      31.674  24.495  26.135  1.00  0.00     0.272 C 
ATOM     79  H   UNL A   1      32.272  22.624  26.550  1.00  0.00     0.163 HD
ATOM     80  O   UNL A   1      30.969  24.538  27.145  1.00  0.00    -0.267 OA
BRANCH  78  81
ATOM     81  C   UNL A   1      31.714  25.623  25.185  1.00  0.00     0.155 A 
ATOM     82  N   UNL A   1      30.904  25.706  24.107  1.00  0.00    -0.167 NA
ATOM     83  C   UNL A   1      32.523  26.796  25.282  1.00  0.00     0.026 A 
ATOM     84  N   UNL A   1      31.292  26.824  23.457  1.00  0.00    -0.264 N 
ATOM     85  C   UNL A   1      32.284  27.486  24.109  1.00  0.00     0.046 A 
ATOM     86  C   UNL A   1      33.511  27.235  26.320  1.00  0.00     0.159 C 
ATOM     87  C   UNL A   1      33.000  28.718  23.692  1.00  0.00     0.078 C 
ATOM     88  N   UNL A   1      34.030  28.577  25.945  1.00  0.00    -0.337 N 
ATOM     89  C   UNL A   1      34.307  28.792  24.511  1.00  0.00     0.126 C 
BRANCH  84  90
ATOM     90  C   UNL A   1      30.573  27.253  22.264  1.00  0.00     0.180 C 
BRANCH  90  91
ATOM     91  C   UNL A   1      29.648  28.416  22.532  1.00  0.00    -0.026 A 
ATOM     92  C   UNL A   1      30.013  29.712  22.126  1.00  0.00     0.008 A 
ATOM     93  C   UNL A   1      28.415  28.225  23.175  1.00  0.00     0.008 A 
ATOM     94  C   UNL A   1      29.159  30.793  22.349  1.00  0.00     0.039 A 
ATOM     95  C   UNL A   1      27.561  29.307  23.392  1.00  0.00     0.039 A 
ATOM     96  C   UNL A   1      27.939  30.579  22.974  1.00  0.00     0.123 A 
ATOM     97  F   UNL A   1      27.109  31.611  23.174  1.00  0.00    -0.207 F 
ENDBRANCH  90  91
ENDBRANCH  84  90
BRANCH  88  98
ATOM     98  C   UNL A   1      34.202  29.541  26.927  1.00  0.00     0.232 C 
ATOM     99  O   UNL A   1      33.491  30.537  27.043  1.00  0.00    -0.274 OA
BRANCH  98 100
ATOM    100  C   UNL A   1      35.289  29.313  27.904  1.00  0.00     0.154 C 
ATOM    101  C   UNL A   1      36.680  29.872  27.638  1.00  0.00     0.097 C 
ATOM    102  C   UNL A   1      35.836  30.415  28.729  1.00  0.00     0.260 C 
ATOM    103  F   UNL A   1      35.419  31.720  28.650  1.00  0.00    -0.206 F 
ATOM    104  F   UNL A   1      36.234  30.193  30.031  1.00  0.00    -0.206 F 
ENDBRANCH  98 100
ENDBRANCH  88  98
ENDBRANCH  78  81
ENDBRANCH  76  77
ENDBRANCH  75  76
ENDBRANCH   1  75
TORSDOF 18
ENDMDL
