MODEL 1
REMARK VINA RESULT:     -13.5      0.000      0.000
REMARK SMILES CCOc1cc2c(cc1/C=C1/C(=O)N(c3cccc(C(=O)NCCCCNC(=O)c4ccc(-c5c6nc(c(-c7c(F)cc(S(=O)(=O)[O-])cc7F)c7ccc([nH]7)c(-c7c(F)cc(S(=O)(=O)[O-])cc7F)c7nc(c(-c8c(F)cc(S(=O)(=O)[O-])cc8F)c8ccc5[nH]8)C=C7)C=C6)cc4)c3)C(=S)N=C1O)OCO2
REMARK SMILES IDX 24 1 23 2 22 3 20 4 21 5 19 7 15 8 16 9 96 10 17 11 18 12
REMARK SMILES IDX 14 13 10 14 11 15 12 16 100 17 13 18 99 19 97 20 98 21 9 22
REMARK SMILES IDX 4 23 5 24 6 25 8 26 7 27 104 28 102 29 103 30 3 31 2 32 1 33
REMARK SMILES IDX 101 34 25 36 26 37 27 38 28 39 29 41 30 42 31 43 95 44 32 45
REMARK SMILES IDX 94 46 33 47 34 48 35 49 88 50 36 51 93 52 87 53 89 54 37 55
REMARK SMILES IDX 92 56 86 57 85 58 38 60 72 61 51 62 71 63 52 64 55 65 70 66
REMARK SMILES IDX 90 67 53 68 54 69 69 71 91 72 56 73 39 74 40 75 49 76 41 77
REMARK SMILES IDX 42 78 48 79 50 80 43 81 44 82 45 83 46 84 47 85 73 86 74 87
REMARK SMILES IDX 83 88 75 89 76 90 82 91 84 92 77 93 78 94 79 95 80 96 81 97
REMARK SMILES IDX 57 98 58 99 67 100 59 101 60 102 66 103 68 104 61 105 62 106
REMARK SMILES IDX 63 107 64 108 65 109
REMARK H PARENT 22 6 101 35 27 40 89 59 55 70
REMARK Flexibility Score: inf
ROOT
ATOM      1  C   UNL A   1      37.689  23.746  25.472  1.00  0.00     0.023 C 
ENDROOT
BRANCH   1   2
ATOM      2  C   UNL A   1      36.703  22.651  25.848  1.00  0.00     0.116 C 
BRANCH   2   3
ATOM      3  N   UNL A   1      37.134  21.296  25.538  1.00  0.00    -0.352 N 
ATOM      4  C   UNL A   1      36.446  20.208  25.039  1.00  0.00     0.251 C 
ATOM      5  O   UNL A   1      37.056  19.154  24.863  1.00  0.00    -0.269 OA
ATOM      6  H   UNL A   1      38.086  21.124  25.717  1.00  0.00     0.163 HD
BRANCH   4   7
ATOM      7  C   UNL A   1      34.978  20.241  24.786  1.00  0.00     0.041 A 
ATOM      8  C   UNL A   1      32.877  21.453  24.819  1.00  0.00     0.052 A 
ATOM      9  C   UNL A   1      32.190  20.230  24.760  1.00  0.00     0.027 A 
ATOM     10  C   UNL A   1      34.267  21.435  24.666  1.00  0.00     0.040 A 
ATOM     11  C   UNL A   1      32.889  19.023  24.686  1.00  0.00     0.003 A 
ATOM     12  C   UNL A   1      34.282  19.027  24.749  1.00  0.00     0.014 A 
BRANCH   8  13
ATOM     13  N   UNL A   1      32.209  22.685  25.186  1.00  0.00    -0.251 N 
ATOM     14  C   UNL A   1      31.055  25.823  23.668  1.00  0.00     0.031 C 
ATOM     15  C   UNL A   1      31.195  24.846  24.597  1.00  0.00     0.103 C 
ATOM     16  C   UNL A   1      31.786  23.541  24.152  1.00  0.00     0.270 C 
ATOM     17  C   UNL A   1      30.815  24.852  26.006  1.00  0.00     0.226 C 
ATOM     18  O   UNL A   1      31.868  23.285  22.950  1.00  0.00    -0.268 OA
ATOM     19  N   UNL A   1      31.216  24.036  26.902  1.00  0.00    -0.184 NA
ATOM     20  C   UNL A   1      32.124  23.070  26.547  1.00  0.00     0.210 C 
ATOM     21  S   UNL A   1      33.119  22.482  27.800  1.00  0.00    -0.038 S 
BRANCH  14  22
ATOM     22  C   UNL A   1      30.438  27.170  23.763  1.00  0.00     0.021 A 
ATOM     23  C   UNL A   1      31.187  28.272  24.262  1.00  0.00     0.130 A 
ATOM     24  C   UNL A   1      30.734  29.589  24.115  1.00  0.00     0.097 A 
ATOM     25  C   UNL A   1      29.484  29.779  23.583  1.00  0.00     0.169 A 
ATOM     26  C   UNL A   1      29.116  27.409  23.356  1.00  0.00     0.062 A 
ATOM     27  C   UNL A   1      28.686  28.718  23.240  1.00  0.00     0.166 A 
ATOM     28  O   UNL A   1      28.899  30.980  23.339  1.00  0.00    -0.453 OA
ATOM     29  O   UNL A   1      27.486  29.119  22.739  1.00  0.00    -0.454 OA
ATOM     30  C   UNL A   1      27.659  30.552  22.740  1.00  0.00     0.468 C 
BRANCH  23  31
ATOM     31  O   UNL A   1      32.419  28.089  24.843  1.00  0.00    -0.493 OA
BRANCH  31  32
ATOM     32  C   UNL A   1      32.364  28.292  26.270  1.00  0.00     0.226 C 
ATOM     33  C   UNL A   1      33.748  28.334  26.909  1.00  0.00     0.049 C 
ENDBRANCH  31  32
ENDBRANCH  23  31
ENDBRANCH  14  22
BRANCH  17  34
ATOM     34  O   UNL A   1      29.929  25.758  26.411  1.00  0.00    -0.493 OA
ATOM     35  H   UNL A   1      29.750  25.863  27.325  1.00  0.00     0.295 HD
ENDBRANCH  17  34
ENDBRANCH   8  13
ENDBRANCH   4   7
ENDBRANCH   2   3
ENDBRANCH   1   2
BRANCH   1  36
ATOM     36  C   UNL A   1      38.478  24.372  26.612  1.00  0.00     0.023 C 
BRANCH  36  37
ATOM     37  C   UNL A   1      39.892  23.843  26.816  1.00  0.00     0.116 C 
BRANCH  37  38
ATOM     38  N   UNL A   1      40.872  24.411  25.900  1.00  0.00    -0.352 N 
ATOM     39  C   UNL A   1      41.639  25.545  26.027  1.00  0.00     0.251 C 
ATOM     40  H   UNL A   1      41.005  23.907  25.066  1.00  0.00     0.163 HD
ATOM     41  O   UNL A   1      42.352  25.902  25.091  1.00  0.00    -0.269 OA
BRANCH  39  42
ATOM     42  C   UNL A   1      41.578  26.355  27.265  1.00  0.00     0.039 A 
ATOM     43  C   UNL A   1      42.062  27.665  27.238  1.00  0.00     0.014 A 
ATOM     44  C   UNL A   1      41.031  25.838  28.443  1.00  0.00     0.014 A 
ATOM     45  C   UNL A   1      41.924  28.478  28.367  1.00  0.00     0.010 A 
ATOM     46  C   UNL A   1      40.809  26.677  29.532  1.00  0.00     0.010 A 
ATOM     47  C   UNL A   1      41.255  28.006  29.509  1.00  0.00    -0.014 A 
BRANCH  47  48
ATOM     48  C   UNL A   1      41.012  28.898  30.675  1.00  0.00     0.031 A 
ATOM     49  C   UNL A   1      41.865  28.790  31.911  1.00  0.00     0.074 A 
ATOM     50  C   UNL A   1      39.992  29.780  30.633  1.00  0.00     0.049 A 
ATOM     51  N   UNL A   1      41.803  29.485  33.019  1.00  0.00    -0.248 NA
ATOM     52  C   UNL A   1      42.905  27.750  31.917  1.00  0.00     0.031 C 
ATOM     53  C   UNL A   1      39.051  29.933  29.521  1.00  0.00     0.029 A 
ATOM     54  N   UNL A   1      39.576  30.715  31.548  1.00  0.00    -0.354 N 
ATOM     55  C   UNL A   1      42.788  28.965  33.850  1.00  0.00     0.074 A 
ATOM     56  C   UNL A   1      43.389  27.853  33.146  1.00  0.00     0.031 C 
ATOM     57  C   UNL A   1      38.195  30.929  29.800  1.00  0.00     0.029 A 
ATOM     58  C   UNL A   1      38.500  31.462  31.124  1.00  0.00     0.049 A 
ATOM     59  H   UNL A   1      40.005  30.840  32.424  1.00  0.00     0.167 HD
ATOM     60  C   UNL A   1      43.179  29.392  35.075  1.00  0.00     0.037 A 
ATOM     61  C   UNL A   1      37.837  32.465  31.731  1.00  0.00     0.037 A 
ATOM     62  C   UNL A   1      42.587  30.509  35.765  1.00  0.00     0.049 A 
ATOM     63  C   UNL A   1      38.294  32.927  33.088  1.00  0.00     0.074 A 
ATOM     64  C   UNL A   1      42.946  31.056  36.985  1.00  0.00     0.029 A 
ATOM     65  N   UNL A   1      41.509  31.249  35.298  1.00  0.00    -0.354 N 
ATOM     66  N   UNL A   1      39.279  32.472  33.827  1.00  0.00    -0.248 NA
ATOM     67  C   UNL A   1      37.558  34.046  33.690  1.00  0.00     0.031 C 
ATOM     68  C   UNL A   1      42.053  32.093  37.279  1.00  0.00     0.029 A 
ATOM     69  C   UNL A   1      41.175  32.232  36.216  1.00  0.00     0.049 A 
ATOM     70  H   UNL A   1      41.049  31.097  34.441  1.00  0.00     0.167 HD
ATOM     71  C   UNL A   1      39.298  33.268  34.967  1.00  0.00     0.074 A 
ATOM     72  C   UNL A   1      38.239  34.244  34.810  1.00  0.00     0.031 C 
ATOM     73  C   UNL A   1      40.116  33.196  36.048  1.00  0.00     0.037 A 
BRANCH  60  74
ATOM     74  C   UNL A   1      44.306  28.652  35.746  1.00  0.00     0.058 A 
ATOM     75  C   UNL A   1      45.650  29.003  35.531  1.00  0.00     0.135 A 
ATOM     76  C   UNL A   1      44.043  27.602  36.641  1.00  0.00     0.135 A 
ATOM     77  F   UNL A   1      45.964  29.988  34.674  1.00  0.00    -0.206 F 
ATOM     78  C   UNL A   1      46.691  28.322  36.154  1.00  0.00     0.059 A 
ATOM     79  C   UNL A   1      45.067  26.927  37.300  1.00  0.00     0.059 A 
ATOM     80  F   UNL A   1      42.779  27.223  36.885  1.00  0.00    -0.206 F 
ATOM     81  C   UNL A   1      46.389  27.285  37.038  1.00  0.00     0.060 A 
BRANCH  81  82
ATOM     82  S   UNL A   1      47.752  26.418  37.843  1.00  0.00     0.124 S 
ATOM     83  O   UNL A   1      48.163  25.485  36.798  1.00  0.00    -0.237 OA
ATOM     84  O   UNL A   1      48.686  27.502  38.128  1.00  0.00    -0.237 OA
ATOM     85  O   UNL A   1      47.126  25.810  39.014  1.00  0.00    -0.744 OA
ENDBRANCH  81  82
ENDBRANCH  60  74
BRANCH  61  86
ATOM     86  C   UNL A   1      36.692  33.125  31.046  1.00  0.00     0.058 A 
ATOM     87  C   UNL A   1      35.370  32.897  31.460  1.00  0.00     0.135 A 
ATOM     88  C   UNL A   1      36.893  34.003  29.970  1.00  0.00     0.135 A 
ATOM     89  F   UNL A   1      35.122  32.061  32.481  1.00  0.00    -0.206 F 
ATOM     90  C   UNL A   1      34.290  33.497  30.821  1.00  0.00     0.059 A 
ATOM     91  C   UNL A   1      35.832  34.639  29.334  1.00  0.00     0.059 A 
ATOM     92  F   UNL A   1      38.139  34.270  29.545  1.00  0.00    -0.206 F 
ATOM     93  C   UNL A   1      34.532  34.370  29.760  1.00  0.00     0.060 A 
BRANCH  93  94
ATOM     94  S   UNL A   1      33.126  35.182  28.968  1.00  0.00     0.124 S 
ATOM     95  O   UNL A   1      33.763  36.344  28.359  1.00  0.00    -0.237 OA
ATOM     96  O   UNL A   1      32.659  34.152  28.046  1.00  0.00    -0.237 OA
ATOM     97  O   UNL A   1      32.229  35.465  30.084  1.00  0.00    -0.744 OA
ENDBRANCH  93  94
ENDBRANCH  61  86
BRANCH  73  98
ATOM     98  C   UNL A   1      39.919  34.226  37.129  1.00  0.00     0.058 A 
ATOM     99  C   UNL A   1      40.532  35.487  37.071  1.00  0.00     0.135 A 
ATOM    100  C   UNL A   1      39.090  33.951  38.229  1.00  0.00     0.135 A 
ATOM    101  F   UNL A   1      41.337  35.802  36.043  1.00  0.00    -0.206 F 
ATOM    102  C   UNL A   1      40.369  36.423  38.088  1.00  0.00     0.059 A 
ATOM    103  C   UNL A   1      38.885  34.884  39.240  1.00  0.00     0.059 A 
ATOM    104  F   UNL A   1      38.466  32.767  38.327  1.00  0.00    -0.206 F 
ATOM    105  C   UNL A   1      39.545  36.110  39.171  1.00  0.00     0.060 A 
BRANCH 105 106
ATOM    106  S   UNL A   1      39.343  37.329  40.487  1.00  0.00     0.124 S 
ATOM    107  O   UNL A   1      40.668  37.939  40.528  1.00  0.00    -0.237 OA
ATOM    108  O   UNL A   1      38.272  38.175  39.966  1.00  0.00    -0.237 OA
ATOM    109  O   UNL A   1      38.987  36.521  41.648  1.00  0.00    -0.744 OA
ENDBRANCH 105 106
ENDBRANCH  73  98
ENDBRANCH  47  48
ENDBRANCH  39  42
ENDBRANCH  37  38
ENDBRANCH  36  37
ENDBRANCH   1  36
TORSDOF 19
ENDMDL
MODEL 2
REMARK VINA RESULT:     -12.9      0.550      7.791
REMARK SMILES CCOc1cc2c(cc1/C=C1/C(=O)N(c3cccc(C(=O)NCCCCNC(=O)c4ccc(-c5c6nc(c(-c7c(F)cc(S(=O)(=O)[O-])cc7F)c7ccc([nH]7)c(-c7c(F)cc(S(=O)(=O)[O-])cc7F)c7nc(c(-c8c(F)cc(S(=O)(=O)[O-])cc8F)c8ccc5[nH]8)C=C7)C=C6)cc4)c3)C(=S)N=C1O)OCO2
REMARK SMILES IDX 24 1 23 2 22 3 20 4 21 5 19 7 15 8 16 9 96 10 17 11 18 12
REMARK SMILES IDX 14 13 10 14 11 15 12 16 100 17 13 18 99 19 97 20 98 21 9 22
REMARK SMILES IDX 4 23 5 24 6 25 8 26 7 27 104 28 102 29 103 30 3 31 2 32 1 33
REMARK SMILES IDX 101 34 25 36 26 37 27 38 28 39 29 41 30 42 31 43 95 44 32 45
REMARK SMILES IDX 94 46 33 47 34 48 35 49 88 50 36 51 93 52 87 53 89 54 37 55
REMARK SMILES IDX 92 56 86 57 85 58 38 60 72 61 51 62 71 63 52 64 55 65 70 66
REMARK SMILES IDX 90 67 53 68 54 69 69 71 91 72 56 73 39 74 40 75 49 76 41 77
REMARK SMILES IDX 42 78 48 79 50 80 43 81 44 82 45 83 46 84 47 85 73 86 74 87
REMARK SMILES IDX 83 88 75 89 76 90 82 91 84 92 77 93 78 94 79 95 80 96 81 97
REMARK SMILES IDX 57 98 58 99 67 100 59 101 60 102 66 103 68 104 61 105 62 106
REMARK SMILES IDX 63 107 64 108 65 109
REMARK H PARENT 22 6 101 35 27 40 89 59 55 70
REMARK Flexibility Score: inf
ROOT
ATOM      1  C   UNL A   1      36.840  23.437  26.207  1.00  0.00     0.023 C 
ENDROOT
BRANCH   1   2
ATOM      2  C   UNL A   1      36.953  22.677  24.895  1.00  0.00     0.116 C 
BRANCH   2   3
ATOM      3  N   UNL A   1      37.321  21.275  25.020  1.00  0.00    -0.352 N 
ATOM      4  C   UNL A   1      36.568  20.120  24.942  1.00  0.00     0.251 C 
ATOM      5  O   UNL A   1      37.133  19.036  25.085  1.00  0.00    -0.269 OA
ATOM      6  H   UNL A   1      38.278  21.122  25.192  1.00  0.00     0.163 HD
BRANCH   4   7
ATOM      7  C   UNL A   1      35.088  20.143  24.773  1.00  0.00     0.041 A 
ATOM      8  C   UNL A   1      32.991  21.358  24.875  1.00  0.00     0.052 A 
ATOM      9  C   UNL A   1      32.303  20.134  24.912  1.00  0.00     0.027 A 
ATOM     10  C   UNL A   1      34.369  21.331  24.641  1.00  0.00     0.040 A 
ATOM     11  C   UNL A   1      32.999  18.924  24.852  1.00  0.00     0.003 A 
ATOM     12  C   UNL A   1      34.393  18.930  24.833  1.00  0.00     0.014 A 
BRANCH   8  13
ATOM     13  N   UNL A   1      32.343  22.606  25.223  1.00  0.00    -0.251 N 
ATOM     14  C   UNL A   1      31.063  25.655  23.628  1.00  0.00     0.031 C 
ATOM     15  C   UNL A   1      31.275  24.730  24.596  1.00  0.00     0.103 C 
ATOM     16  C   UNL A   1      31.841  23.405  24.179  1.00  0.00     0.270 C 
ATOM     17  C   UNL A   1      30.999  24.810  26.026  1.00  0.00     0.226 C 
ATOM     18  O   UNL A   1      31.837  23.084  22.989  1.00  0.00    -0.268 OA
ATOM     19  N   UNL A   1      31.470  24.044  26.933  1.00  0.00    -0.184 NA
ATOM     20  C   UNL A   1      32.356  23.063  26.564  1.00  0.00     0.210 C 
ATOM     21  S   UNL A   1      33.442  22.545  27.771  1.00  0.00    -0.038 S 
BRANCH  14  22
ATOM     22  C   UNL A   1      30.445  27.004  23.697  1.00  0.00     0.021 A 
ATOM     23  C   UNL A   1      31.241  28.147  23.990  1.00  0.00     0.130 A 
ATOM     24  C   UNL A   1      30.753  29.445  23.799  1.00  0.00     0.097 A 
ATOM     25  C   UNL A   1      29.438  29.586  23.435  1.00  0.00     0.169 A 
ATOM     26  C   UNL A   1      29.076  27.205  23.463  1.00  0.00     0.062 A 
ATOM     27  C   UNL A   1      28.614  28.497  23.300  1.00  0.00     0.166 A 
ATOM     28  O   UNL A   1      28.806  30.760  23.177  1.00  0.00    -0.453 OA
ATOM     29  O   UNL A   1      27.350  28.851  22.943  1.00  0.00    -0.454 OA
ATOM     30  C   UNL A   1      27.500  30.280  22.798  1.00  0.00     0.468 C 
BRANCH  23  31
ATOM     31  O   UNL A   1      32.546  28.017  24.403  1.00  0.00    -0.493 OA
BRANCH  31  32
ATOM     32  C   UNL A   1      32.681  28.290  25.813  1.00  0.00     0.226 C 
ATOM     33  C   UNL A   1      33.671  27.355  26.498  1.00  0.00     0.049 C 
ENDBRANCH  31  32
ENDBRANCH  23  31
ENDBRANCH  14  22
BRANCH  17  34
ATOM     34  O   UNL A   1      30.139  25.735  26.446  1.00  0.00    -0.493 OA
ATOM     35  H   UNL A   1      29.571  26.158  25.835  1.00  0.00     0.295 HD
ENDBRANCH  17  34
ENDBRANCH   8  13
ENDBRANCH   4   7
ENDBRANCH   2   3
ENDBRANCH   1   2
BRANCH   1  36
ATOM     36  C   UNL A   1      37.895  24.502  26.468  1.00  0.00     0.023 C 
BRANCH  36  37
ATOM     37  C   UNL A   1      39.294  23.992  26.790  1.00  0.00     0.116 C 
BRANCH  37  38
ATOM     38  N   UNL A   1      40.323  24.475  25.879  1.00  0.00    -0.352 N 
ATOM     39  C   UNL A   1      41.193  25.530  26.016  1.00  0.00     0.251 C 
ATOM     40  H   UNL A   1      40.407  23.970  25.038  1.00  0.00     0.163 HD
ATOM     41  O   UNL A   1      41.936  25.828  25.082  1.00  0.00    -0.269 OA
BRANCH  39  42
ATOM     42  C   UNL A   1      41.211  26.329  27.262  1.00  0.00     0.039 A 
ATOM     43  C   UNL A   1      41.785  27.602  27.239  1.00  0.00     0.014 A 
ATOM     44  C   UNL A   1      40.648  25.839  28.444  1.00  0.00     0.014 A 
ATOM     45  C   UNL A   1      41.722  28.410  28.378  1.00  0.00     0.010 A 
ATOM     46  C   UNL A   1      40.504  26.680  29.545  1.00  0.00     0.010 A 
ATOM     47  C   UNL A   1      41.042  27.974  29.527  1.00  0.00    -0.014 A 
BRANCH  47  48
ATOM     48  C   UNL A   1      40.881  28.868  30.705  1.00  0.00     0.031 A 
ATOM     49  C   UNL A   1      39.811  29.928  30.722  1.00  0.00     0.074 A 
ATOM     50  C   UNL A   1      41.730  28.750  31.747  1.00  0.00     0.049 A 
ATOM     51  N   UNL A   1      39.521  30.792  31.661  1.00  0.00    -0.248 NA
ATOM     52  C   UNL A   1      38.975  30.053  29.518  1.00  0.00     0.031 C 
ATOM     53  C   UNL A   1      42.851  27.810  31.822  1.00  0.00     0.029 A 
ATOM     54  N   UNL A   1      41.784  29.423  32.942  1.00  0.00    -0.354 N 
ATOM     55  C   UNL A   1      38.477  31.562  31.161  1.00  0.00     0.074 A 
ATOM     56  C   UNL A   1      38.229  31.107  29.810  1.00  0.00     0.031 C 
ATOM     57  C   UNL A   1      43.455  27.937  33.015  1.00  0.00     0.029 A 
ATOM     58  C   UNL A   1      42.791  28.990  33.775  1.00  0.00     0.049 A 
ATOM     59  H   UNL A   1      41.162  30.146  33.182  1.00  0.00     0.167 HD
ATOM     60  C   UNL A   1      37.768  32.537  31.779  1.00  0.00     0.037 A 
ATOM     61  C   UNL A   1      43.138  29.394  35.013  1.00  0.00     0.037 A 
ATOM     62  C   UNL A   1      38.010  32.975  33.130  1.00  0.00     0.049 A 
ATOM     63  C   UNL A   1      42.331  30.474  35.682  1.00  0.00     0.074 A 
ATOM     64  C   UNL A   1      37.314  33.917  33.867  1.00  0.00     0.029 A 
ATOM     65  N   UNL A   1      39.030  32.504  33.946  1.00  0.00    -0.354 N 
ATOM     66  N   UNL A   1      41.296  31.137  35.221  1.00  0.00    -0.248 NA
ATOM     67  C   UNL A   1      42.730  30.852  37.044  1.00  0.00     0.031 C 
ATOM     68  C   UNL A   1      37.943  34.053  35.110  1.00  0.00     0.029 A 
ATOM     69  C   UNL A   1      38.995  33.153  35.170  1.00  0.00     0.049 A 
ATOM     70  H   UNL A   1      39.681  31.811  33.692  1.00  0.00     0.167 HD
ATOM     71  C   UNL A   1      40.905  31.991  36.247  1.00  0.00     0.074 A 
ATOM     72  C   UNL A   1      41.801  31.744  37.357  1.00  0.00     0.031 C 
ATOM     73  C   UNL A   1      39.896  32.899  36.267  1.00  0.00     0.037 A 
BRANCH  60  74
ATOM     74  C   UNL A   1      36.657  33.193  31.001  1.00  0.00     0.058 A 
ATOM     75  C   UNL A   1      36.913  34.211  30.067  1.00  0.00     0.135 A 
ATOM     76  C   UNL A   1      35.326  32.777  31.164  1.00  0.00     0.135 A 
ATOM     77  F   UNL A   1      38.164  34.661  29.880  1.00  0.00    -0.206 F 
ATOM     78  C   UNL A   1      35.886  34.813  29.346  1.00  0.00     0.059 A 
ATOM     79  C   UNL A   1      34.287  33.343  30.430  1.00  0.00     0.059 A 
ATOM     80  F   UNL A   1      35.022  31.809  32.042  1.00  0.00    -0.206 F 
ATOM     81  C   UNL A   1      34.576  34.371  29.534  1.00  0.00     0.060 A 
BRANCH  81  82
ATOM     82  S   UNL A   1      33.259  35.159  28.584  1.00  0.00     0.124 S 
ATOM     83  O   UNL A   1      34.023  35.950  27.624  1.00  0.00    -0.237 OA
ATOM     84  O   UNL A   1      32.544  34.012  28.033  1.00  0.00    -0.237 OA
ATOM     85  O   UNL A   1      32.527  35.927  29.587  1.00  0.00    -0.744 OA
ENDBRANCH  81  82
ENDBRANCH  60  74
BRANCH  61  86
ATOM     86  C   UNL A   1      44.282  28.749  35.714  1.00  0.00     0.058 A 
ATOM     87  C   UNL A   1      45.592  29.224  35.550  1.00  0.00     0.135 A 
ATOM     88  C   UNL A   1      44.089  27.654  36.570  1.00  0.00     0.135 A 
ATOM     89  F   UNL A   1      45.832  30.266  34.739  1.00  0.00    -0.206 F 
ATOM     90  C   UNL A   1      46.672  28.624  36.191  1.00  0.00     0.059 A 
ATOM     91  C   UNL A   1      45.148  27.056  37.245  1.00  0.00     0.059 A 
ATOM     92  F   UNL A   1      42.853  27.172  36.777  1.00  0.00    -0.206 F 
ATOM     93  C   UNL A   1      46.439  27.541  37.039  1.00  0.00     0.060 A 
BRANCH  93  94
ATOM     94  S   UNL A   1      47.841  26.800  37.903  1.00  0.00     0.124 S 
ATOM     95  O   UNL A   1      48.847  26.759  36.848  1.00  0.00    -0.237 OA
ATOM     96  O   UNL A   1      48.080  27.758  38.977  1.00  0.00    -0.237 OA
ATOM     97  O   UNL A   1      47.324  25.504  38.333  1.00  0.00    -0.744 OA
ENDBRANCH  93  94
ENDBRANCH  61  86
BRANCH  73  98
ATOM     98  C   UNL A   1      39.688  33.666  37.545  1.00  0.00     0.058 A 
ATOM     99  C   UNL A   1      38.841  33.197  38.562  1.00  0.00     0.135 A 
ATOM    100  C   UNL A   1      40.359  34.881  37.762  1.00  0.00     0.135 A 
ATOM    101  F   UNL A   1      38.174  32.042  38.406  1.00  0.00    -0.206 F 
ATOM    102  C   UNL A   1      38.631  33.926  39.728  1.00  0.00     0.059 A 
ATOM    103  C   UNL A   1      40.190  35.610  38.935  1.00  0.00     0.059 A 
ATOM    104  F   UNL A   1      41.193  35.370  36.831  1.00  0.00    -0.206 F 
ATOM    105  C   UNL A   1      39.308  35.134  39.904  1.00  0.00     0.060 A 
BRANCH 105 106
ATOM    106  S   UNL A   1      39.025  36.074  41.419  1.00  0.00     0.124 S 
ATOM    107  O   UNL A   1      39.031  37.445  40.920  1.00  0.00    -0.237 OA
ATOM    108  O   UNL A   1      37.730  35.566  41.864  1.00  0.00    -0.237 OA
ATOM    109  O   UNL A   1      40.159  35.707  42.262  1.00  0.00    -0.744 OA
ENDBRANCH 105 106
ENDBRANCH  73  98
ENDBRANCH  47  48
ENDBRANCH  39  42
ENDBRANCH  37  38
ENDBRANCH  36  37
ENDBRANCH   1  36
TORSDOF 19
ENDMDL
MODEL 3
REMARK VINA RESULT:     -12.5      2.714      9.308
REMARK SMILES CCOc1cc2c(cc1/C=C1/C(=O)N(c3cccc(C(=O)NCCCCNC(=O)c4ccc(-c5c6nc(c(-c7c(F)cc(S(=O)(=O)[O-])cc7F)c7ccc([nH]7)c(-c7c(F)cc(S(=O)(=O)[O-])cc7F)c7nc(c(-c8c(F)cc(S(=O)(=O)[O-])cc8F)c8ccc5[nH]8)C=C7)C=C6)cc4)c3)C(=S)N=C1O)OCO2
REMARK SMILES IDX 24 1 23 2 22 3 20 4 21 5 19 7 15 8 16 9 96 10 17 11 18 12
REMARK SMILES IDX 14 13 10 14 11 15 12 16 100 17 13 18 99 19 97 20 98 21 9 22
REMARK SMILES IDX 4 23 5 24 6 25 8 26 7 27 104 28 102 29 103 30 3 31 2 32 1 33
REMARK SMILES IDX 101 34 25 36 26 37 27 38 28 39 29 41 30 42 31 43 95 44 32 45
REMARK SMILES IDX 94 46 33 47 34 48 35 49 88 50 36 51 93 52 87 53 89 54 37 55
REMARK SMILES IDX 92 56 86 57 85 58 38 60 72 61 51 62 71 63 52 64 55 65 70 66
REMARK SMILES IDX 90 67 53 68 54 69 69 71 91 72 56 73 39 74 40 75 49 76 41 77
REMARK SMILES IDX 42 78 48 79 50 80 43 81 44 82 45 83 46 84 47 85 73 86 74 87
REMARK SMILES IDX 83 88 75 89 76 90 82 91 84 92 77 93 78 94 79 95 80 96 81 97
REMARK SMILES IDX 57 98 58 99 67 100 59 101 60 102 66 103 68 104 61 105 62 106
REMARK SMILES IDX 63 107 64 108 65 109
REMARK H PARENT 22 6 101 35 27 40 89 59 55 70
REMARK Flexibility Score: inf
ROOT
ATOM      1  C   UNL A   1      34.349  33.638  28.320  1.00  0.00     0.023 C 
ENDROOT
BRANCH   1   2
ATOM      2  C   UNL A   1      34.097  32.198  28.739  1.00  0.00     0.116 C 
BRANCH   2   3
ATOM      3  N   UNL A   1      35.151  31.257  28.392  1.00  0.00    -0.352 N 
ATOM      4  C   UNL A   1      35.141  30.116  27.615  1.00  0.00     0.251 C 
ATOM      5  O   UNL A   1      36.190  29.487  27.477  1.00  0.00    -0.269 OA
ATOM      6  H   UNL A   1      36.029  31.473  28.782  1.00  0.00     0.163 HD
BRANCH   4   7
ATOM      7  C   UNL A   1      33.892  29.575  27.009  1.00  0.00     0.041 A 
ATOM      8  C   UNL A   1      32.759  27.828  25.765  1.00  0.00     0.052 A 
ATOM      9  C   UNL A   1      31.720  28.728  25.481  1.00  0.00     0.027 A 
ATOM     10  C   UNL A   1      33.750  28.230  26.666  1.00  0.00     0.040 A 
ATOM     11  C   UNL A   1      31.750  30.033  25.979  1.00  0.00     0.003 A 
ATOM     12  C   UNL A   1      32.861  30.469  26.701  1.00  0.00     0.014 A 
BRANCH   8  13
ATOM     13  N   UNL A   1      32.907  26.582  25.040  1.00  0.00    -0.251 N 
ATOM     14  C   UNL A   1      33.302  22.987  25.672  1.00  0.00     0.031 C 
ATOM     15  C   UNL A   1      33.078  24.130  24.979  1.00  0.00     0.103 C 
ATOM     16  C   UNL A   1      32.813  25.380  25.765  1.00  0.00     0.270 C 
ATOM     17  C   UNL A   1      33.017  24.339  23.536  1.00  0.00     0.226 C 
ATOM     18  O   UNL A   1      32.532  25.302  26.963  1.00  0.00    -0.268 OA
ATOM     19  N   UNL A   1      33.089  25.459  22.929  1.00  0.00    -0.184 NA
ATOM     20  C   UNL A   1      33.282  26.596  23.674  1.00  0.00     0.210 C 
ATOM     21  S   UNL A   1      34.032  27.898  22.871  1.00  0.00    -0.038 S 
BRANCH  14  22
ATOM     22  C   UNL A   1      33.504  21.593  25.201  1.00  0.00     0.021 A 
ATOM     23  C   UNL A   1      34.801  21.137  24.833  1.00  0.00     0.130 A 
ATOM     24  C   UNL A   1      35.071  19.777  24.646  1.00  0.00     0.097 A 
ATOM     25  C   UNL A   1      34.017  18.901  24.710  1.00  0.00     0.169 A 
ATOM     26  C   UNL A   1      32.443  20.679  25.118  1.00  0.00     0.062 A 
ATOM     27  C   UNL A   1      32.734  19.343  24.911  1.00  0.00     0.166 A 
ATOM     28  O   UNL A   1      34.096  17.552  24.587  1.00  0.00    -0.453 OA
ATOM     29  O   UNL A   1      31.837  18.321  24.933  1.00  0.00    -0.454 OA
ATOM     30  C   UNL A   1      32.718  17.185  24.799  1.00  0.00     0.468 C 
BRANCH  23  31
ATOM     31  O   UNL A   1      35.855  22.013  24.716  1.00  0.00    -0.493 OA
BRANCH  31  32
ATOM     32  C   UNL A   1      36.772  21.881  25.821  1.00  0.00     0.226 C 
ATOM     33  C   UNL A   1      38.226  21.796  25.368  1.00  0.00     0.049 C 
ENDBRANCH  31  32
ENDBRANCH  23  31
ENDBRANCH  14  22
BRANCH  17  34
ATOM     34  O   UNL A   1      32.822  23.277  22.759  1.00  0.00    -0.493 OA
ATOM     35  H   UNL A   1      33.550  22.752  22.490  1.00  0.00     0.295 HD
ENDBRANCH  17  34
ENDBRANCH   8  13
ENDBRANCH   4   7
ENDBRANCH   2   3
ENDBRANCH   1   2
BRANCH   1  36
ATOM     36  C   UNL A   1      33.164  34.588  28.403  1.00  0.00     0.023 C 
BRANCH  36  37
ATOM     37  C   UNL A   1      33.388  35.869  29.196  1.00  0.00     0.116 C 
BRANCH  37  38
ATOM     38  N   UNL A   1      32.591  35.958  30.412  1.00  0.00    -0.352 N 
ATOM     39  C   UNL A   1      32.815  35.406  31.651  1.00  0.00     0.251 C 
ATOM     40  H   UNL A   1      31.769  36.494  30.335  1.00  0.00     0.163 HD
ATOM     41  O   UNL A   1      31.965  35.532  32.532  1.00  0.00    -0.269 OA
BRANCH  39  42
ATOM     42  C   UNL A   1      34.049  34.632  31.914  1.00  0.00     0.039 A 
ATOM     43  C   UNL A   1      35.287  35.237  31.681  1.00  0.00     0.014 A 
ATOM     44  C   UNL A   1      33.992  33.326  32.407  1.00  0.00     0.014 A 
ATOM     45  C   UNL A   1      36.462  34.559  32.017  1.00  0.00     0.010 A 
ATOM     46  C   UNL A   1      35.159  32.692  32.828  1.00  0.00     0.010 A 
ATOM     47  C   UNL A   1      36.408  33.299  32.635  1.00  0.00    -0.014 A 
BRANCH  47  48
ATOM     48  C   UNL A   1      37.650  32.617  33.090  1.00  0.00     0.031 A 
ATOM     49  C   UNL A   1      38.329  33.036  34.368  1.00  0.00     0.074 A 
ATOM     50  C   UNL A   1      38.190  31.645  32.327  1.00  0.00     0.049 A 
ATOM     51  N   UNL A   1      39.412  32.555  34.922  1.00  0.00    -0.248 NA
ATOM     52  C   UNL A   1      37.729  34.158  35.107  1.00  0.00     0.031 C 
ATOM     53  C   UNL A   1      37.666  31.196  31.035  1.00  0.00     0.029 A 
ATOM     54  N   UNL A   1      39.296  30.857  32.526  1.00  0.00    -0.354 N 
ATOM     55  C   UNL A   1      39.625  33.315  36.066  1.00  0.00     0.074 A 
ATOM     56  C   UNL A   1      38.597  34.332  36.092  1.00  0.00     0.031 C 
ATOM     57  C   UNL A   1      38.426  30.188  30.577  1.00  0.00     0.029 A 
ATOM     58  C   UNL A   1      39.510  29.941  31.521  1.00  0.00     0.049 A 
ATOM     59  H   UNL A   1      39.882  30.940  33.312  1.00  0.00     0.167 HD
ATOM     60  C   UNL A   1      40.570  33.163  37.025  1.00  0.00     0.037 A 
ATOM     61  C   UNL A   1      40.469  29.006  31.378  1.00  0.00     0.037 A 
ATOM     62  C   UNL A   1      41.582  32.138  37.002  1.00  0.00     0.049 A 
ATOM     63  C   UNL A   1      41.505  28.850  32.459  1.00  0.00     0.074 A 
ATOM     64  C   UNL A   1      42.552  31.864  37.950  1.00  0.00     0.029 A 
ATOM     65  N   UNL A   1      41.758  31.220  35.974  1.00  0.00    -0.354 N 
ATOM     66  N   UNL A   1      41.643  29.529  33.574  1.00  0.00    -0.248 NA
ATOM     67  C   UNL A   1      42.506  27.793  32.271  1.00  0.00     0.031 C 
ATOM     68  C   UNL A   1      43.346  30.814  37.473  1.00  0.00     0.029 A 
ATOM     69  C   UNL A   1      42.835  30.394  36.256  1.00  0.00     0.049 A 
ATOM     70  H   UNL A   1      41.201  31.164  35.165  1.00  0.00     0.167 HD
ATOM     71  C   UNL A   1      42.730  28.964  34.231  1.00  0.00     0.074 A 
ATOM     72  C   UNL A   1      43.197  27.874  33.399  1.00  0.00     0.031 C 
ATOM     73  C   UNL A   1      43.292  29.315  35.416  1.00  0.00     0.037 A 
BRANCH  60  74
ATOM     74  C   UNL A   1      40.550  34.123  38.185  1.00  0.00     0.058 A 
ATOM     75  C   UNL A   1      39.872  33.822  39.379  1.00  0.00     0.135 A 
ATOM     76  C   UNL A   1      41.244  35.342  38.119  1.00  0.00     0.135 A 
ATOM     77  F   UNL A   1      39.178  32.679  39.495  1.00  0.00    -0.206 F 
ATOM     78  C   UNL A   1      39.857  34.708  40.452  1.00  0.00     0.059 A 
ATOM     79  C   UNL A   1      41.269  36.229  39.192  1.00  0.00     0.059 A 
ATOM     80  F   UNL A   1      41.909  35.682  37.004  1.00  0.00    -0.206 F 
ATOM     81  C   UNL A   1      40.560  35.909  40.349  1.00  0.00     0.060 A 
BRANCH  81  82
ATOM     82  S   UNL A   1      40.536  37.042  41.754  1.00  0.00     0.124 S 
ATOM     83  O   UNL A   1      41.537  36.442  42.631  1.00  0.00    -0.237 OA
ATOM     84  O   UNL A   1      40.914  38.310  41.138  1.00  0.00    -0.237 OA
ATOM     85  O   UNL A   1      39.158  36.966  42.230  1.00  0.00    -0.744 OA
ENDBRANCH  81  82
ENDBRANCH  60  74
BRANCH  61  86
ATOM     86  C   UNL A   1      40.475  28.120  30.182  1.00  0.00     0.058 A 
ATOM     87  C   UNL A   1      39.562  27.061  30.060  1.00  0.00     0.135 A 
ATOM     88  C   UNL A   1      41.385  28.318  29.133  1.00  0.00     0.135 A 
ATOM     89  F   UNL A   1      38.673  26.826  31.039  1.00  0.00    -0.206 F 
ATOM     90  C   UNL A   1      39.564  26.218  28.953  1.00  0.00     0.059 A 
ATOM     91  C   UNL A   1      41.388  27.508  28.002  1.00  0.00     0.059 A 
ATOM     92  F   UNL A   1      42.269  29.328  29.190  1.00  0.00    -0.206 F 
ATOM     93  C   UNL A   1      40.480  26.452  27.927  1.00  0.00     0.060 A 
BRANCH  93  94
ATOM     94  S   UNL A   1      40.444  25.381  26.472  1.00  0.00     0.124 S 
ATOM     95  O   UNL A   1      39.030  25.030  26.403  1.00  0.00    -0.237 OA
ATOM     96  O   UNL A   1      40.933  26.272  25.426  1.00  0.00    -0.237 OA
ATOM     97  O   UNL A   1      41.348  24.294  26.833  1.00  0.00    -0.744 OA
ENDBRANCH  93  94
ENDBRANCH  61  86
BRANCH  73  98
ATOM     98  C   UNL A   1      44.454  28.488  35.897  1.00  0.00     0.058 A 
ATOM     99  C   UNL A   1      44.271  27.341  36.686  1.00  0.00     0.135 A 
ATOM    100  C   UNL A   1      45.769  28.839  35.550  1.00  0.00     0.135 A 
ATOM    101  F   UNL A   1      43.036  26.960  37.050  1.00  0.00    -0.206 F 
ATOM    102  C   UNL A   1      45.351  26.598  37.151  1.00  0.00     0.059 A 
ATOM    103  C   UNL A   1      46.862  28.091  35.976  1.00  0.00     0.059 A 
ATOM    104  F   UNL A   1      46.002  29.917  34.785  1.00  0.00    -0.206 F 
ATOM    105  C   UNL A   1      46.645  26.984  36.793  1.00  0.00     0.060 A 
BRANCH 105 106
ATOM    106  S   UNL A   1      48.039  26.015  37.406  1.00  0.00     0.124 S 
ATOM    107  O   UNL A   1      49.150  26.596  36.659  1.00  0.00    -0.237 OA
ATOM    108  O   UNL A   1      48.016  26.305  38.837  1.00  0.00    -0.237 OA
ATOM    109  O   UNL A   1      47.687  24.646  37.044  1.00  0.00    -0.744 OA
ENDBRANCH 105 106
ENDBRANCH  73  98
ENDBRANCH  47  48
ENDBRANCH  39  42
ENDBRANCH  37  38
ENDBRANCH  36  37
ENDBRANCH   1  36
TORSDOF 19
ENDMDL
