MODEL 1
REMARK VINA RESULT:     -11.0      0.000      0.000
REMARK SMILES O=C(CCCC(=O)Nc1ccc([N+](=O)[O-])cc1)NCCCCNC(=O)c1ccc(-c2c3nc(c(-c4c(F)cc(S(=O)(=O)[O-])cc4F)c4ccc([nH]4)c(-c4c(F)cc(S(=O)(=O)[O-])cc4F)c4nc(c(-c5c(F)cc(S(=O)(=O)[O-])cc5F)c5ccc2[nH]5)C=C4)C=C3)cc1
REMARK SMILES IDX 19 1 18 2 1 3 2 4 3 6 4 7 5 8 6 9 7 10 8 11 9 13 10 14 17 15
REMARK SMILES IDX 11 16 16 17 12 18 13 19 14 20 15 21 20 22 21 23 22 24 23 25
REMARK SMILES IDX 24 26 25 28 26 29 27 30 91 31 28 32 90 33 29 34 30 35 31 36
REMARK SMILES IDX 84 37 32 38 89 39 83 40 85 41 33 42 88 43 82 44 81 45 34 47
REMARK SMILES IDX 68 48 47 49 67 50 48 51 51 52 66 53 86 54 49 55 50 56 65 58
REMARK SMILES IDX 87 59 52 60 35 61 36 62 45 63 37 64 38 65 44 66 46 67 39 68
REMARK SMILES IDX 40 69 41 70 42 71 43 72 69 73 70 74 79 75 71 76 72 77 78 78
REMARK SMILES IDX 80 79 73 80 74 81 75 82 76 83 77 84 53 85 54 86 63 87 55 88
REMARK SMILES IDX 56 89 62 90 64 91 57 92 58 93 59 94 60 95 61 96
REMARK H PARENT 18 5 8 12 23 27 85 46 51 57
REMARK Flexibility Score: inf
ROOT
ATOM      1  C   UNL A   1      33.767  32.680  28.044  1.00  0.00     0.116 C 
ENDROOT
BRANCH   1   2
ATOM      2  N   UNL A   1      33.984  31.285  27.712  1.00  0.00    -0.356 N 
ATOM      3  O   UNL A   1      31.891  30.999  26.869  1.00  0.00    -0.275 OA
ATOM      4  C   UNL A   1      33.019  30.550  27.068  1.00  0.00     0.220 C 
ATOM      5  H   UNL A   1      34.837  30.859  27.952  1.00  0.00     0.163 HD
BRANCH   4   6
ATOM      6  C   UNL A   1      33.346  29.104  26.720  1.00  0.00     0.100 C 
BRANCH   6   7
ATOM      7  C   UNL A   1      33.870  28.690  25.337  1.00  0.00     0.020 C 
BRANCH   7   8
ATOM      8  C   UNL A   1      32.935  28.397  24.168  1.00  0.00     0.101 C 
BRANCH   8   9
ATOM      9  C   UNL A   1      31.557  27.758  24.388  1.00  0.00     0.224 C 
ATOM     10  O   UNL A   1      31.470  26.579  24.735  1.00  0.00    -0.275 OA
ATOM     11  N   UNL A   1      30.441  28.552  24.467  1.00  0.00    -0.326 N 
ATOM     12  H   UNL A   1      29.851  28.375  25.235  1.00  0.00     0.169 HD
BRANCH  11  13
ATOM     13  C   UNL A   1      30.021  29.574  23.614  1.00  0.00     0.041 A 
ATOM     14  C   UNL A   1      29.930  29.322  22.243  1.00  0.00     0.033 A 
ATOM     15  C   UNL A   1      29.709  30.841  24.098  1.00  0.00     0.033 A 
ATOM     16  C   UNL A   1      29.309  30.254  21.401  1.00  0.00     0.088 A 
ATOM     17  C   UNL A   1      29.109  31.790  23.264  1.00  0.00     0.088 A 
ATOM     18  C   UNL A   1      28.839  31.460  21.933  1.00  0.00     0.269 A 
BRANCH  18  19
ATOM     19  N   UNL A   1      27.996  32.346  21.121  1.00  0.00     0.062 N 
ATOM     20  O   UNL A   1      27.570  31.908  20.043  1.00  0.00    -0.258 OA
ATOM     21  O   UNL A   1      27.737  33.470  21.576  1.00  0.00    -0.258 OA
ENDBRANCH  18  19
ENDBRANCH  11  13
ENDBRANCH   8   9
ENDBRANCH   7   8
ENDBRANCH   6   7
ENDBRANCH   4   6
ENDBRANCH   1   2
BRANCH   1  22
ATOM     22  C   UNL A   1      35.026  33.545  27.978  1.00  0.00     0.023 C 
BRANCH  22  23
ATOM     23  C   UNL A   1      35.587  34.016  29.321  1.00  0.00     0.023 C 
BRANCH  23  24
ATOM     24  C   UNL A   1      36.682  33.140  29.915  1.00  0.00     0.116 C 
BRANCH  24  25
ATOM     25  N   UNL A   1      36.151  31.980  30.609  1.00  0.00    -0.352 N 
ATOM     26  C   UNL A   1      36.660  30.709  30.732  1.00  0.00     0.251 C 
ATOM     27  H   UNL A   1      35.290  32.127  31.063  1.00  0.00     0.163 HD
ATOM     28  O   UNL A   1      35.962  29.831  31.228  1.00  0.00    -0.269 OA
BRANCH  26  29
ATOM     29  C   UNL A   1      38.025  30.388  30.251  1.00  0.00     0.039 A 
ATOM     30  C   UNL A   1      39.050  30.245  31.191  1.00  0.00     0.014 A 
ATOM     31  C   UNL A   1      38.309  30.251  28.890  1.00  0.00     0.014 A 
ATOM     32  C   UNL A   1      40.339  29.904  30.772  1.00  0.00     0.010 A 
ATOM     33  C   UNL A   1      39.574  29.831  28.481  1.00  0.00     0.010 A 
ATOM     34  C   UNL A   1      40.604  29.656  29.415  1.00  0.00    -0.014 A 
BRANCH  34  35
ATOM     35  C   UNL A   1      41.948  29.213  28.959  1.00  0.00     0.031 A 
ATOM     36  C   UNL A   1      43.082  30.199  28.863  1.00  0.00     0.074 A 
ATOM     37  C   UNL A   1      42.131  27.935  28.570  1.00  0.00     0.049 A 
ATOM     38  N   UNL A   1      44.301  30.015  28.423  1.00  0.00    -0.248 NA
ATOM     39  C   UNL A   1      42.803  31.578  29.294  1.00  0.00     0.031 C 
ATOM     40  C   UNL A   1      41.100  26.894  28.573  1.00  0.00     0.029 A 
ATOM     41  N   UNL A   1      43.245  27.294  28.085  1.00  0.00    -0.354 N 
ATOM     42  C   UNL A   1      44.927  31.254  28.510  1.00  0.00     0.074 A 
ATOM     43  C   UNL A   1      43.937  32.192  28.994  1.00  0.00     0.031 C 
ATOM     44  C   UNL A   1      41.635  25.743  28.134  1.00  0.00     0.029 A 
ATOM     45  C   UNL A   1      43.031  25.972  27.777  1.00  0.00     0.049 A 
ATOM     46  H   UNL A   1      44.114  27.741  27.968  1.00  0.00     0.167 HD
ATOM     47  C   UNL A   1      46.214  31.575  28.234  1.00  0.00     0.037 A 
ATOM     48  C   UNL A   1      43.862  25.047  27.256  1.00  0.00     0.037 A 
ATOM     49  C   UNL A   1      47.199  30.631  27.771  1.00  0.00     0.049 A 
ATOM     50  C   UNL A   1      45.284  25.429  26.946  1.00  0.00     0.074 A 
ATOM     51  C   UNL A   1      48.543  30.846  27.519  1.00  0.00     0.029 A 
ATOM     52  N   UNL A   1      46.947  29.297  27.486  1.00  0.00    -0.354 N 
ATOM     53  N   UNL A   1      45.877  26.590  27.098  1.00  0.00    -0.248 NA
ATOM     54  C   UNL A   1      46.153  24.377  26.402  1.00  0.00     0.031 C 
ATOM     55  C   UNL A   1      49.091  29.655  27.031  1.00  0.00     0.029 A 
ATOM     56  C   UNL A   1      48.105  28.683  27.035  1.00  0.00     0.049 A 
ATOM     57  H   UNL A   1      46.074  28.853  27.587  1.00  0.00     0.167 HD
ATOM     58  C   UNL A   1      47.194  26.400  26.695  1.00  0.00     0.074 A 
ATOM     59  C   UNL A   1      47.314  25.010  26.305  1.00  0.00     0.031 C 
ATOM     60  C   UNL A   1      48.212  27.295  26.655  1.00  0.00     0.037 A 
BRANCH  47  61
ATOM     61  C   UNL A   1      46.633  33.010  28.422  1.00  0.00     0.058 A 
ATOM     62  C   UNL A   1      47.138  33.477  29.646  1.00  0.00     0.135 A 
ATOM     63  C   UNL A   1      46.561  33.921  27.356  1.00  0.00     0.135 A 
ATOM     64  F   UNL A   1      47.219  32.655  30.704  1.00  0.00    -0.206 F 
ATOM     65  C   UNL A   1      47.525  34.803  29.815  1.00  0.00     0.059 A 
ATOM     66  C   UNL A   1      46.973  35.244  27.493  1.00  0.00     0.059 A 
ATOM     67  F   UNL A   1      46.087  33.529  26.162  1.00  0.00    -0.206 F 
ATOM     68  C   UNL A   1      47.438  35.679  28.733  1.00  0.00     0.060 A 
BRANCH  68  69
ATOM     69  S   UNL A   1      47.943  37.396  28.971  1.00  0.00     0.124 S 
ATOM     70  O   UNL A   1      49.101  37.239  29.845  1.00  0.00    -0.237 OA
ATOM     71  O   UNL A   1      48.234  37.826  27.607  1.00  0.00    -0.237 OA
ATOM     72  O   UNL A   1      46.773  38.015  29.584  1.00  0.00    -0.744 OA
ENDBRANCH  68  69
ENDBRANCH  47  61
BRANCH  48  73
ATOM     73  C   UNL A   1      43.373  23.662  27.013  1.00  0.00     0.058 A 
ATOM     74  C   UNL A   1      43.051  23.227  25.719  1.00  0.00     0.135 A 
ATOM     75  C   UNL A   1      43.234  22.742  28.064  1.00  0.00     0.135 A 
ATOM     76  F   UNL A   1      43.160  24.071  24.681  1.00  0.00    -0.206 F 
ATOM     77  C   UNL A   1      42.594  21.936  25.476  1.00  0.00     0.059 A 
ATOM     78  C   UNL A   1      42.807  21.437  27.842  1.00  0.00     0.059 A 
ATOM     79  F   UNL A   1      43.547  23.102  29.319  1.00  0.00    -0.206 F 
ATOM     80  C   UNL A   1      42.481  21.045  26.544  1.00  0.00     0.060 A 
BRANCH  80  81
ATOM     81  S   UNL A   1      41.942  19.355  26.210  1.00  0.00     0.124 S 
ATOM     82  O   UNL A   1      42.744  19.015  25.041  1.00  0.00    -0.237 OA
ATOM     83  O   UNL A   1      42.297  18.671  27.450  1.00  0.00    -0.237 OA
ATOM     84  O   UNL A   1      40.509  19.500  25.974  1.00  0.00    -0.744 OA
ENDBRANCH  80  81
ENDBRANCH  48  73
BRANCH  60  85
ATOM     85  C   UNL A   1      49.560  26.795  26.207  1.00  0.00     0.058 A 
ATOM     86  C   UNL A   1      50.001  26.938  24.883  1.00  0.00     0.135 A 
ATOM     87  C   UNL A   1      50.442  26.212  27.132  1.00  0.00     0.135 A 
ATOM     88  F   UNL A   1      49.196  27.482  23.957  1.00  0.00    -0.206 F 
ATOM     89  C   UNL A   1      51.260  26.499  24.485  1.00  0.00     0.059 A 
ATOM     90  C   UNL A   1      51.716  25.793  26.763  1.00  0.00     0.059 A 
ATOM     91  F   UNL A   1      50.074  26.060  28.414  1.00  0.00    -0.206 F 
ATOM     92  C   UNL A   1      52.112  25.930  25.434  1.00  0.00     0.060 A 
BRANCH  92  93
ATOM     93  S   UNL A   1      53.755  25.397  24.911  1.00  0.00     0.124 S 
ATOM     94  O   UNL A   1      53.548  23.969  24.699  1.00  0.00    -0.237 OA
ATOM     95  O   UNL A   1      53.973  26.193  23.707  1.00  0.00    -0.237 OA
ATOM     96  O   UNL A   1      54.605  25.746  26.047  1.00  0.00    -0.744 OA
ENDBRANCH  92  93
ENDBRANCH  60  85
ENDBRANCH  34  35
ENDBRANCH  26  29
ENDBRANCH  24  25
ENDBRANCH  23  24
ENDBRANCH  22  23
ENDBRANCH   1  22
TORSDOF 19
ENDMDL
MODEL 2
REMARK VINA RESULT:     -10.6      4.022     10.701
REMARK SMILES O=C(CCCC(=O)Nc1ccc([N+](=O)[O-])cc1)NCCCCNC(=O)c1ccc(-c2c3nc(c(-c4c(F)cc(S(=O)(=O)[O-])cc4F)c4ccc([nH]4)c(-c4c(F)cc(S(=O)(=O)[O-])cc4F)c4nc(c(-c5c(F)cc(S(=O)(=O)[O-])cc5F)c5ccc2[nH]5)C=C4)C=C3)cc1
REMARK SMILES IDX 19 1 18 2 1 3 2 4 3 6 4 7 5 8 6 9 7 10 8 11 9 13 10 14 17 15
REMARK SMILES IDX 11 16 16 17 12 18 13 19 14 20 15 21 20 22 21 23 22 24 23 25
REMARK SMILES IDX 24 26 25 28 26 29 27 30 91 31 28 32 90 33 29 34 30 35 31 36
REMARK SMILES IDX 84 37 32 38 89 39 83 40 85 41 33 42 88 43 82 44 81 45 34 47
REMARK SMILES IDX 68 48 47 49 67 50 48 51 51 52 66 53 86 54 49 55 50 56 65 58
REMARK SMILES IDX 87 59 52 60 35 61 36 62 45 63 37 64 38 65 44 66 46 67 39 68
REMARK SMILES IDX 40 69 41 70 42 71 43 72 69 73 70 74 79 75 71 76 72 77 78 78
REMARK SMILES IDX 80 79 73 80 74 81 75 82 76 83 77 84 53 85 54 86 63 87 55 88
REMARK SMILES IDX 56 89 62 90 64 91 57 92 58 93 59 94 60 95 61 96
REMARK H PARENT 18 5 8 12 23 27 85 46 51 57
REMARK Flexibility Score: inf
ROOT
ATOM      1  C   UNL A   1      33.204  35.640  29.790  1.00  0.00     0.116 C 
ENDROOT
BRANCH   1   2
ATOM      2  N   UNL A   1      34.099  35.276  30.871  1.00  0.00    -0.356 N 
ATOM      3  O   UNL A   1      33.318  36.890  32.270  1.00  0.00    -0.275 OA
ATOM      4  C   UNL A   1      34.036  35.907  32.089  1.00  0.00     0.220 C 
ATOM      5  H   UNL A   1      34.763  34.564  30.729  1.00  0.00     0.163 HD
BRANCH   4   6
ATOM      6  C   UNL A   1      34.985  35.433  33.182  1.00  0.00     0.100 C 
BRANCH   6   7
ATOM      7  C   UNL A   1      36.363  34.833  32.870  1.00  0.00     0.020 C 
BRANCH   7   8
ATOM      8  C   UNL A   1      36.686  33.364  33.121  1.00  0.00     0.101 C 
BRANCH   8   9
ATOM      9  C   UNL A   1      36.876  32.820  34.544  1.00  0.00     0.224 C 
ATOM     10  O   UNL A   1      36.372  33.407  35.503  1.00  0.00    -0.275 OA
ATOM     11  N   UNL A   1      37.364  31.552  34.730  1.00  0.00    -0.326 N 
ATOM     12  H   UNL A   1      36.849  30.989  35.353  1.00  0.00     0.169 HD
BRANCH  11  13
ATOM     13  C   UNL A   1      38.486  30.944  34.164  1.00  0.00     0.041 A 
ATOM     14  C   UNL A   1      39.748  31.496  34.396  1.00  0.00     0.033 A 
ATOM     15  C   UNL A   1      38.371  29.814  33.360  1.00  0.00     0.033 A 
ATOM     16  C   UNL A   1      40.899  30.787  34.025  1.00  0.00     0.088 A 
ATOM     17  C   UNL A   1      39.513  29.109  32.963  1.00  0.00     0.088 A 
ATOM     18  C   UNL A   1      40.772  29.559  33.367  1.00  0.00     0.269 A 
BRANCH  18  19
ATOM     19  N   UNL A   1      41.948  28.704  33.168  1.00  0.00     0.062 N 
ATOM     20  O   UNL A   1      42.058  28.119  32.081  1.00  0.00    -0.258 OA
ATOM     21  O   UNL A   1      42.776  28.639  34.088  1.00  0.00    -0.258 OA
ENDBRANCH  18  19
ENDBRANCH  11  13
ENDBRANCH   8   9
ENDBRANCH   7   8
ENDBRANCH   6   7
ENDBRANCH   4   6
ENDBRANCH   1   2
BRANCH   1  22
ATOM     22  C   UNL A   1      33.056  34.569  28.709  1.00  0.00     0.023 C 
BRANCH  22  23
ATOM     23  C   UNL A   1      34.345  33.857  28.290  1.00  0.00     0.023 C 
BRANCH  23  24
ATOM     24  C   UNL A   1      34.654  32.571  29.045  1.00  0.00     0.116 C 
BRANCH  24  25
ATOM     25  N   UNL A   1      33.978  31.417  28.478  1.00  0.00    -0.352 N 
ATOM     26  C   UNL A   1      34.486  30.213  28.049  1.00  0.00     0.251 C 
ATOM     27  H   UNL A   1      33.002  31.511  28.386  1.00  0.00     0.163 HD
ATOM     28  O   UNL A   1      33.753  29.436  27.446  1.00  0.00    -0.269 OA
BRANCH  26  29
ATOM     29  C   UNL A   1      35.907  29.862  28.284  1.00  0.00     0.039 A 
ATOM     30  C   UNL A   1      36.826  30.061  27.250  1.00  0.00     0.014 A 
ATOM     31  C   UNL A   1      36.336  29.319  29.497  1.00  0.00     0.014 A 
ATOM     32  C   UNL A   1      38.179  29.776  27.454  1.00  0.00     0.010 A 
ATOM     33  C   UNL A   1      37.696  29.113  29.727  1.00  0.00     0.010 A 
ATOM     34  C   UNL A   1      38.633  29.335  28.707  1.00  0.00    -0.014 A 
BRANCH  34  35
ATOM     35  C   UNL A   1      40.078  29.105  28.969  1.00  0.00     0.031 A 
ATOM     36  C   UNL A   1      40.710  27.780  28.635  1.00  0.00     0.074 A 
ATOM     37  C   UNL A   1      40.808  30.068  29.568  1.00  0.00     0.049 A 
ATOM     38  N   UNL A   1      41.934  27.370  28.853  1.00  0.00    -0.248 NA
ATOM     39  C   UNL A   1      39.848  26.774  27.994  1.00  0.00     0.031 C 
ATOM     40  C   UNL A   1      40.301  31.379  29.982  1.00  0.00     0.029 A 
ATOM     41  N   UNL A   1      42.129  30.092  29.943  1.00  0.00    -0.354 N 
ATOM     42  C   UNL A   1      41.984  26.059  28.392  1.00  0.00     0.074 A 
ATOM     43  C   UNL A   1      40.653  25.725  27.932  1.00  0.00     0.031 C 
ATOM     44  C   UNL A   1      41.302  32.085  30.532  1.00  0.00     0.029 A 
ATOM     45  C   UNL A   1      42.509  31.264  30.551  1.00  0.00     0.049 A 
ATOM     46  H   UNL A   1      42.744  29.339  29.792  1.00  0.00     0.167 HD
ATOM     47  C   UNL A   1      43.045  25.219  28.336  1.00  0.00     0.037 A 
ATOM     48  C   UNL A   1      43.694  31.637  31.075  1.00  0.00     0.037 A 
ATOM     49  C   UNL A   1      44.372  25.566  28.778  1.00  0.00     0.049 A 
ATOM     50  C   UNL A   1      44.856  30.683  31.012  1.00  0.00     0.074 A 
ATOM     51  C   UNL A   1      45.527  24.806  28.709  1.00  0.00     0.029 A 
ATOM     52  N   UNL A   1      44.720  26.769  29.374  1.00  0.00    -0.354 N 
ATOM     53  N   UNL A   1      44.901  29.470  30.512  1.00  0.00    -0.248 NA
ATOM     54  C   UNL A   1      46.130  31.148  31.577  1.00  0.00     0.031 C 
ATOM     55  C   UNL A   1      46.561  25.529  29.312  1.00  0.00     0.029 A 
ATOM     56  C   UNL A   1      46.066  26.763  29.703  1.00  0.00     0.049 A 
ATOM     57  H   UNL A   1      44.102  27.517  29.541  1.00  0.00     0.167 HD
ATOM     58  C   UNL A   1      46.213  29.039  30.676  1.00  0.00     0.074 A 
ATOM     59  C   UNL A   1      46.932  30.125  31.311  1.00  0.00     0.031 C 
ATOM     60  C   UNL A   1      46.772  27.854  30.330  1.00  0.00     0.037 A 
BRANCH  47  61
ATOM     61  C   UNL A   1      42.816  23.838  27.779  1.00  0.00     0.058 A 
ATOM     62  C   UNL A   1      42.559  22.738  28.613  1.00  0.00     0.135 A 
ATOM     63  C   UNL A   1      42.816  23.619  26.392  1.00  0.00     0.135 A 
ATOM     64  F   UNL A   1      42.558  22.886  29.948  1.00  0.00    -0.206 F 
ATOM     65  C   UNL A   1      42.346  21.465  28.094  1.00  0.00     0.059 A 
ATOM     66  C   UNL A   1      42.574  22.360  25.850  1.00  0.00     0.059 A 
ATOM     67  F   UNL A   1      43.055  24.634  25.547  1.00  0.00    -0.206 F 
ATOM     68  C   UNL A   1      42.356  21.285  26.711  1.00  0.00     0.060 A 
BRANCH  68  69
ATOM     69  S   UNL A   1      42.079  19.626  26.055  1.00  0.00     0.124 S 
ATOM     70  O   UNL A   1      42.991  19.609  24.916  1.00  0.00    -0.237 OA
ATOM     71  O   UNL A   1      42.457  18.779  27.182  1.00  0.00    -0.237 OA
ATOM     72  O   UNL A   1      40.659  19.624  25.721  1.00  0.00    -0.744 OA
ENDBRANCH  68  69
ENDBRANCH  47  61
BRANCH  48  73
ATOM     73  C   UNL A   1      43.844  32.985  31.688  1.00  0.00     0.058 A 
ATOM     74  C   UNL A   1      44.038  34.123  30.891  1.00  0.00     0.135 A 
ATOM     75  C   UNL A   1      43.779  33.165  33.079  1.00  0.00     0.135 A 
ATOM     76  F   UNL A   1      44.114  34.003  29.557  1.00  0.00    -0.206 F 
ATOM     77  C   UNL A   1      44.178  35.389  31.450  1.00  0.00     0.059 A 
ATOM     78  C   UNL A   1      43.888  34.425  33.659  1.00  0.00     0.059 A 
ATOM     79  F   UNL A   1      43.577  32.111  33.885  1.00  0.00    -0.206 F 
ATOM     80  C   UNL A   1      44.096  35.531  32.836  1.00  0.00     0.060 A 
BRANCH  80  81
ATOM     81  S   UNL A   1      44.221  37.186  33.547  1.00  0.00     0.124 S 
ATOM     82  O   UNL A   1      42.941  37.309  34.235  1.00  0.00    -0.237 OA
ATOM     83  O   UNL A   1      45.398  37.062  34.402  1.00  0.00    -0.237 OA
ATOM     84  O   UNL A   1      44.395  38.041  32.377  1.00  0.00    -0.744 OA
ENDBRANCH  80  81
ENDBRANCH  48  73
BRANCH  60  85
ATOM     85  C   UNL A   1      48.244  27.675  30.594  1.00  0.00     0.058 A 
ATOM     86  C   UNL A   1      48.716  27.052  31.760  1.00  0.00     0.135 A 
ATOM     87  C   UNL A   1      49.189  28.086  29.641  1.00  0.00     0.135 A 
ATOM     88  F   UNL A   1      47.856  26.646  32.707  1.00  0.00    -0.206 F 
ATOM     89  C   UNL A   1      50.077  26.865  31.982  1.00  0.00     0.059 A 
ATOM     90  C   UNL A   1      50.552  27.882  29.829  1.00  0.00     0.059 A 
ATOM     91  F   UNL A   1      48.790  28.678  28.504  1.00  0.00    -0.206 F 
ATOM     92  C   UNL A   1      50.988  27.281  31.009  1.00  0.00     0.060 A 
BRANCH  92  93
ATOM     93  S   UNL A   1      52.748  27.001  31.294  1.00  0.00     0.124 S 
ATOM     94  O   UNL A   1      53.293  28.342  31.117  1.00  0.00    -0.237 OA
ATOM     95  O   UNL A   1      52.764  26.485  32.660  1.00  0.00    -0.237 OA
ATOM     96  O   UNL A   1      53.112  26.034  30.263  1.00  0.00    -0.744 OA
ENDBRANCH  92  93
ENDBRANCH  60  85
ENDBRANCH  34  35
ENDBRANCH  26  29
ENDBRANCH  24  25
ENDBRANCH  23  24
ENDBRANCH  22  23
ENDBRANCH   1  22
TORSDOF 19
ENDMDL
MODEL 3
REMARK VINA RESULT:     -10.5      1.473      8.529
REMARK SMILES O=C(CCCC(=O)Nc1ccc([N+](=O)[O-])cc1)NCCCCNC(=O)c1ccc(-c2c3nc(c(-c4c(F)cc(S(=O)(=O)[O-])cc4F)c4ccc([nH]4)c(-c4c(F)cc(S(=O)(=O)[O-])cc4F)c4nc(c(-c5c(F)cc(S(=O)(=O)[O-])cc5F)c5ccc2[nH]5)C=C4)C=C3)cc1
REMARK SMILES IDX 19 1 18 2 1 3 2 4 3 6 4 7 5 8 6 9 7 10 8 11 9 13 10 14 17 15
REMARK SMILES IDX 11 16 16 17 12 18 13 19 14 20 15 21 20 22 21 23 22 24 23 25
REMARK SMILES IDX 24 26 25 28 26 29 27 30 91 31 28 32 90 33 29 34 30 35 31 36
REMARK SMILES IDX 84 37 32 38 89 39 83 40 85 41 33 42 88 43 82 44 81 45 34 47
REMARK SMILES IDX 68 48 47 49 67 50 48 51 51 52 66 53 86 54 49 55 50 56 65 58
REMARK SMILES IDX 87 59 52 60 35 61 36 62 45 63 37 64 38 65 44 66 46 67 39 68
REMARK SMILES IDX 40 69 41 70 42 71 43 72 69 73 70 74 79 75 71 76 72 77 78 78
REMARK SMILES IDX 80 79 73 80 74 81 75 82 76 83 77 84 53 85 54 86 63 87 55 88
REMARK SMILES IDX 56 89 62 90 64 91 57 92 58 93 59 94 60 95 61 96
REMARK H PARENT 18 5 8 12 23 27 85 46 51 57
REMARK Flexibility Score: inf
ROOT
ATOM      1  C   UNL A   1      33.551  30.504  27.192  1.00  0.00     0.116 C 
ENDROOT
BRANCH   1   2
ATOM      2  N   UNL A   1      32.929  29.219  27.445  1.00  0.00    -0.356 N 
ATOM      3  O   UNL A   1      31.785  29.211  25.479  1.00  0.00    -0.275 OA
ATOM      4  C   UNL A   1      32.122  28.624  26.506  1.00  0.00     0.220 C 
ATOM      5  H   UNL A   1      33.089  28.765  28.303  1.00  0.00     0.163 HD
BRANCH   4   6
ATOM      6  C   UNL A   1      31.543  27.254  26.837  1.00  0.00     0.100 C 
BRANCH   6   7
ATOM      7  C   UNL A   1      32.195  25.950  26.357  1.00  0.00     0.020 C 
BRANCH   7   8
ATOM      8  C   UNL A   1      31.572  24.584  26.623  1.00  0.00     0.101 C 
BRANCH   8   9
ATOM      9  C   UNL A   1      31.242  23.619  25.476  1.00  0.00     0.224 C 
ATOM     10  O   UNL A   1      31.565  22.433  25.552  1.00  0.00    -0.275 OA
ATOM     11  N   UNL A   1      30.359  23.999  24.496  1.00  0.00    -0.326 N 
ATOM     12  H   UNL A   1      29.648  23.349  24.294  1.00  0.00     0.169 HD
BRANCH  11  13
ATOM     13  C   UNL A   1      30.324  25.175  23.745  1.00  0.00     0.041 A 
ATOM     14  C   UNL A   1      29.314  26.108  23.990  1.00  0.00     0.033 A 
ATOM     15  C   UNL A   1      31.261  25.428  22.748  1.00  0.00     0.033 A 
ATOM     16  C   UNL A   1      29.384  27.381  23.408  1.00  0.00     0.088 A 
ATOM     17  C   UNL A   1      31.328  26.687  22.143  1.00  0.00     0.088 A 
ATOM     18  C   UNL A   1      30.434  27.686  22.536  1.00  0.00     0.269 A 
BRANCH  18  19
ATOM     19  N   UNL A   1      30.648  29.069  22.092  1.00  0.00     0.062 N 
ATOM     20  O   UNL A   1      29.687  29.668  21.589  1.00  0.00    -0.258 OA
ATOM     21  O   UNL A   1      31.769  29.565  22.273  1.00  0.00    -0.258 OA
ENDBRANCH  18  19
ENDBRANCH  11  13
ENDBRANCH   8   9
ENDBRANCH   7   8
ENDBRANCH   6   7
ENDBRANCH   4   6
ENDBRANCH   1   2
BRANCH   1  22
ATOM     22  C   UNL A   1      34.838  30.745  27.982  1.00  0.00     0.023 C 
BRANCH  22  23
ATOM     23  C   UNL A   1      35.045  32.168  28.508  1.00  0.00     0.023 C 
BRANCH  23  24
ATOM     24  C   UNL A   1      36.103  32.314  29.594  1.00  0.00     0.116 C 
BRANCH  24  25
ATOM     25  N   UNL A   1      35.921  31.367  30.679  1.00  0.00    -0.352 N 
ATOM     26  C   UNL A   1      36.717  30.323  31.090  1.00  0.00     0.251 C 
ATOM     27  H   UNL A   1      35.097  31.491  31.205  1.00  0.00     0.163 HD
ATOM     28  O   UNL A   1      36.289  29.542  31.933  1.00  0.00    -0.269 OA
BRANCH  26  29
ATOM     29  C   UNL A   1      38.065  30.123  30.509  1.00  0.00     0.039 A 
ATOM     30  C   UNL A   1      39.143  29.915  31.374  1.00  0.00     0.014 A 
ATOM     31  C   UNL A   1      38.281  30.162  29.129  1.00  0.00     0.014 A 
ATOM     32  C   UNL A   1      40.420  29.684  30.855  1.00  0.00     0.010 A 
ATOM     33  C   UNL A   1      39.538  29.850  28.611  1.00  0.00     0.010 A 
ATOM     34  C   UNL A   1      40.623  29.611  29.467  1.00  0.00    -0.014 A 
BRANCH  34  35
ATOM     35  C   UNL A   1      41.956  29.285  28.897  1.00  0.00     0.031 A 
ATOM     36  C   UNL A   1      42.253  27.891  28.408  1.00  0.00     0.074 A 
ATOM     37  C   UNL A   1      42.922  30.225  28.878  1.00  0.00     0.049 A 
ATOM     38  N   UNL A   1      43.375  27.401  27.944  1.00  0.00    -0.248 NA
ATOM     39  C   UNL A   1      41.154  26.916  28.470  1.00  0.00     0.031 C 
ATOM     40  C   UNL A   1      42.773  31.600  29.365  1.00  0.00     0.029 A 
ATOM     41  N   UNL A   1      44.224  30.169  28.445  1.00  0.00    -0.354 N 
ATOM     42  C   UNL A   1      43.121  26.060  27.676  1.00  0.00     0.074 A 
ATOM     43  C   UNL A   1      41.754  25.803  28.078  1.00  0.00     0.031 C 
ATOM     44  C   UNL A   1      43.928  32.259  29.182  1.00  0.00     0.029 A 
ATOM     45  C   UNL A   1      44.912  31.347  28.608  1.00  0.00     0.049 A 
ATOM     46  H   UNL A   1      44.626  29.360  28.054  1.00  0.00     0.167 HD
ATOM     47  C   UNL A   1      43.942  25.135  27.124  1.00  0.00     0.037 A 
ATOM     48  C   UNL A   1      46.195  31.659  28.335  1.00  0.00     0.037 A 
ATOM     49  C   UNL A   1      45.295  25.404  26.707  1.00  0.00     0.049 A 
ATOM     50  C   UNL A   1      47.092  30.612  27.733  1.00  0.00     0.074 A 
ATOM     51  C   UNL A   1      46.188  24.550  26.084  1.00  0.00     0.029 A 
ATOM     52  N   UNL A   1      45.951  26.614  26.876  1.00  0.00    -0.354 N 
ATOM     53  N   UNL A   1      46.815  29.367  27.424  1.00  0.00    -0.248 NA
ATOM     54  C   UNL A   1      48.474  31.011  27.435  1.00  0.00     0.031 C 
ATOM     55  C   UNL A   1      47.401  25.228  25.924  1.00  0.00     0.029 A 
ATOM     56  C   UNL A   1      47.246  26.522  26.392  1.00  0.00     0.049 A 
ATOM     57  H   UNL A   1      45.555  27.420  27.280  1.00  0.00     0.167 HD
ATOM     58  C   UNL A   1      47.977  28.844  26.870  1.00  0.00     0.074 A 
ATOM     59  C   UNL A   1      48.958  29.911  26.874  1.00  0.00     0.031 C 
ATOM     60  C   UNL A   1      48.211  27.595  26.397  1.00  0.00     0.037 A 
BRANCH  47  61
ATOM     61  C   UNL A   1      43.401  23.741  26.940  1.00  0.00     0.058 A 
ATOM     62  C   UNL A   1      42.930  23.289  25.697  1.00  0.00     0.135 A 
ATOM     63  C   UNL A   1      43.388  22.833  28.011  1.00  0.00     0.135 A 
ATOM     64  F   UNL A   1      42.909  24.116  24.639  1.00  0.00    -0.206 F 
ATOM     65  C   UNL A   1      42.434  22.000  25.530  1.00  0.00     0.059 A 
ATOM     66  C   UNL A   1      42.925  21.529  27.860  1.00  0.00     0.059 A 
ATOM     67  F   UNL A   1      43.827  23.209  29.222  1.00  0.00    -0.206 F 
ATOM     68  C   UNL A   1      42.434  21.127  26.619  1.00  0.00     0.060 A 
BRANCH  68  69
ATOM     69  S   UNL A   1      41.785  19.459  26.386  1.00  0.00     0.124 S 
ATOM     70  O   UNL A   1      42.491  19.038  25.180  1.00  0.00    -0.237 OA
ATOM     71  O   UNL A   1      42.189  18.793  27.620  1.00  0.00    -0.237 OA
ATOM     72  O   UNL A   1      40.349  19.669  26.230  1.00  0.00    -0.744 OA
ENDBRANCH  68  69
ENDBRANCH  47  61
BRANCH  48  73
ATOM     73  C   UNL A   1      46.701  33.031  28.613  1.00  0.00     0.058 A 
ATOM     74  C   UNL A   1      46.646  34.033  27.633  1.00  0.00     0.135 A 
ATOM     75  C   UNL A   1      47.232  33.373  29.867  1.00  0.00     0.135 A 
ATOM     76  F   UNL A   1      46.154  33.755  26.416  1.00  0.00    -0.206 F 
ATOM     77  C   UNL A   1      47.113  35.320  27.878  1.00  0.00     0.059 A 
ATOM     78  C   UNL A   1      47.679  34.661  30.146  1.00  0.00     0.059 A 
ATOM     79  F   UNL A   1      47.290  32.456  30.845  1.00  0.00    -0.206 F 
ATOM     80  C   UNL A   1      47.623  35.626  29.141  1.00  0.00     0.060 A 
BRANCH  80  81
ATOM     81  S   UNL A   1      48.174  37.314  29.468  1.00  0.00     0.124 S 
ATOM     82  O   UNL A   1      47.140  37.790  30.379  1.00  0.00    -0.237 OA
ATOM     83  O   UNL A   1      49.493  37.097  30.055  1.00  0.00    -0.237 OA
ATOM     84  O   UNL A   1      48.181  37.927  28.143  1.00  0.00    -0.744 OA
ENDBRANCH  80  81
ENDBRANCH  48  73
BRANCH  60  85
ATOM     85  C   UNL A   1      49.569  27.316  25.809  1.00  0.00     0.058 A 
ATOM     86  C   UNL A   1      50.642  26.876  26.599  1.00  0.00     0.135 A 
ATOM     87  C   UNL A   1      49.781  27.443  24.426  1.00  0.00     0.135 A 
ATOM     88  F   UNL A   1      50.496  26.744  27.927  1.00  0.00    -0.206 F 
ATOM     89  C   UNL A   1      51.886  26.593  26.042  1.00  0.00     0.059 A 
ATOM     90  C   UNL A   1      51.007  27.137  23.844  1.00  0.00     0.059 A 
ATOM     91  F   UNL A   1      48.786  27.852  23.624  1.00  0.00    -0.206 F 
ATOM     92  C   UNL A   1      52.058  26.724  24.662  1.00  0.00     0.060 A 
BRANCH  92  93
ATOM     93  S   UNL A   1      53.666  26.321  23.949  1.00  0.00     0.124 S 
ATOM     94  O   UNL A   1      53.290  25.857  22.617  1.00  0.00    -0.237 OA
ATOM     95  O   UNL A   1      54.360  27.604  24.001  1.00  0.00    -0.237 OA
ATOM     96  O   UNL A   1      54.190  25.295  24.846  1.00  0.00    -0.744 OA
ENDBRANCH  92  93
ENDBRANCH  60  85
ENDBRANCH  34  35
ENDBRANCH  26  29
ENDBRANCH  24  25
ENDBRANCH  23  24
ENDBRANCH  22  23
ENDBRANCH   1  22
TORSDOF 19
ENDMDL
