MODEL 1
REMARK VINA RESULT:     -11.9      0.000      0.000
REMARK SMILES Cc1nc(NC(=O)[C@@H]2CCC[C@@H](C(=O)NCCCCNC(=O)c3ccc(-c4c5nc(c(-c6c(F)cc(S(=O)(=O)[O-])cc6F)c6ccc([nH]6)c(-c6c(F)cc(S(=O)(=O)[O-])cc6F)c6nc(c(-c7c(F)cc(S(=O)(=O)[O-])cc7F)c7ccc4[nH]7)C=C6)C=C5)cc3)C2)ccc1Br
REMARK SMILES IDX 18 1 17 2 16 3 15 4 13 5 14 6 12 8 8 9 9 10 89 11 10 12
REMARK SMILES IDX 11 13 6 14 5 15 7 17 4 18 1 19 2 20 3 21 92 22 91 23 93 24
REMARK SMILES IDX 90 25 19 26 20 27 21 28 22 30 23 31 24 32 88 33 25 34 87 35
REMARK SMILES IDX 26 36 27 37 28 38 81 39 29 40 86 41 80 42 82 43 30 44 85 45
REMARK SMILES IDX 79 46 78 47 31 49 65 50 44 51 64 52 45 53 48 54 63 55 83 56
REMARK SMILES IDX 46 57 47 58 62 60 84 61 49 62 32 63 33 64 42 65 34 66 35 67
REMARK SMILES IDX 41 68 43 69 36 70 37 71 38 72 39 73 40 74 66 75 67 76 76 77
REMARK SMILES IDX 68 78 69 79 75 80 77 81 70 82 71 83 72 84 73 85 74 86 50 87
REMARK SMILES IDX 51 88 60 89 52 90 53 91 59 92 61 93 54 94 55 95 56 96 57 97
REMARK SMILES IDX 58 98
REMARK H PARENT 15 7 5 16 20 29 82 48 48 59
REMARK Flexibility Score: inf
ROOT
ATOM      1  C   UNL A   1      34.105  28.128  25.412  1.00  0.00     0.023 C 
ENDROOT
BRANCH   1   2
ATOM      2  C   UNL A   1      33.036  28.758  24.510  1.00  0.00     0.023 C 
BRANCH   2   3
ATOM      3  C   UNL A   1      32.750  27.978  23.224  1.00  0.00     0.116 C 
BRANCH   3   4
ATOM      4  N   UNL A   1      33.306  26.647  23.307  1.00  0.00    -0.356 N 
ATOM      5  C   UNL A   1      32.717  25.434  23.450  1.00  0.00     0.223 C 
ATOM      6  O   UNL A   1      33.485  24.477  23.576  1.00  0.00    -0.275 OA
ATOM      7  H   UNL A   1      34.288  26.615  23.248  1.00  0.00     0.163 HD
BRANCH   5   8
ATOM      8  C   UNL A   1      31.189  25.244  23.373  1.00  0.00     0.079 C 
ATOM      9  C   UNL A   1      30.841  24.440  25.758  1.00  0.00     0.079 C 
ATOM     10  C   UNL A   1      29.834  25.568  26.003  1.00  0.00     0.013 C 
ATOM     11  C   UNL A   1      30.767  24.042  24.270  1.00  0.00     0.027 C 
ATOM     12  C   UNL A   1      30.260  26.794  25.210  1.00  0.00     0.002 C 
ATOM     13  C   UNL A   1      30.324  26.472  23.720  1.00  0.00     0.013 C 
BRANCH   9  14
ATOM     14  C   UNL A   1      30.670  23.312  26.758  1.00  0.00     0.228 C 
ATOM     15  N   UNL A   1      31.670  22.397  26.953  1.00  0.00    -0.310 N 
ATOM     16  H   UNL A   1      31.441  21.728  27.637  1.00  0.00     0.171 HD
ATOM     17  O   UNL A   1      29.653  23.229  27.452  1.00  0.00    -0.274 OA
BRANCH  15  18
ATOM     18  C   UNL A   1      32.943  22.189  26.405  1.00  0.00     0.132 A 
ATOM     19  C   UNL A   1      34.306  19.323  24.540  1.00  0.00     0.068 C 
ATOM     20  C   UNL A   1      34.276  20.613  25.305  1.00  0.00     0.054 A 
ATOM     21  N   UNL A   1      33.048  21.015  25.746  1.00  0.00    -0.235 NA
ATOM     22  C   UNL A   1      35.431  21.358  25.528  1.00  0.00     0.039 A 
ATOM     23  C   UNL A   1      35.298  22.598  26.130  1.00  0.00     0.021 A 
ATOM     24  Br  UNL A   1      37.163  20.769  25.049  1.00  0.00    -0.049 Br
ATOM     25  C   UNL A   1      34.036  23.032  26.535  1.00  0.00     0.048 A 
ENDBRANCH  15  18
ENDBRANCH   9  14
ENDBRANCH   5   8
ENDBRANCH   3   4
ENDBRANCH   2   3
ENDBRANCH   1   2
BRANCH   1  26
ATOM     26  C   UNL A   1      33.844  28.256  26.908  1.00  0.00     0.116 C 
BRANCH  26  27
ATOM     27  N   UNL A   1      33.599  29.629  27.316  1.00  0.00    -0.352 N 
ATOM     28  C   UNL A   1      34.447  30.481  27.985  1.00  0.00     0.251 C 
ATOM     29  H   UNL A   1      32.716  29.995  27.084  1.00  0.00     0.163 HD
ATOM     30  O   UNL A   1      34.055  31.566  28.378  1.00  0.00    -0.269 OA
BRANCH  28  31
ATOM     31  C   UNL A   1      35.833  30.039  28.240  1.00  0.00     0.039 A 
ATOM     32  C   UNL A   1      36.772  30.123  27.208  1.00  0.00     0.014 A 
ATOM     33  C   UNL A   1      36.203  29.574  29.506  1.00  0.00     0.014 A 
ATOM     34  C   UNL A   1      38.102  29.789  27.462  1.00  0.00     0.010 A 
ATOM     35  C   UNL A   1      37.536  29.284  29.768  1.00  0.00     0.010 A 
ATOM     36  C   UNL A   1      38.495  29.388  28.748  1.00  0.00    -0.014 A 
BRANCH  36  37
ATOM     37  C   UNL A   1      39.898  29.028  29.052  1.00  0.00     0.031 A 
ATOM     38  C   UNL A   1      40.796  30.042  29.696  1.00  0.00     0.074 A 
ATOM     39  C   UNL A   1      40.375  27.819  28.698  1.00  0.00     0.049 A 
ATOM     40  N   UNL A   1      42.077  29.975  29.947  1.00  0.00    -0.248 NA
ATOM     41  C   UNL A   1      40.168  31.312  30.097  1.00  0.00     0.031 C 
ATOM     42  C   UNL A   1      39.595  26.752  28.071  1.00  0.00     0.029 A 
ATOM     43  N   UNL A   1      41.636  27.291  28.810  1.00  0.00    -0.354 N 
ATOM     44  C   UNL A   1      42.409  31.184  30.541  1.00  0.00     0.074 A 
ATOM     45  C   UNL A   1      41.207  31.992  30.559  1.00  0.00     0.031 C 
ATOM     46  C   UNL A   1      40.391  25.688  27.870  1.00  0.00     0.029 A 
ATOM     47  C   UNL A   1      41.743  26.012  28.319  1.00  0.00     0.049 A 
ATOM     48  H   UNL A   1      42.392  27.781  29.205  1.00  0.00     0.167 HD
ATOM     49  C   UNL A   1      43.600  31.579  31.049  1.00  0.00     0.037 A 
ATOM     50  C   UNL A   1      42.812  25.198  28.236  1.00  0.00     0.037 A 
ATOM     51  C   UNL A   1      44.795  30.777  31.016  1.00  0.00     0.049 A 
ATOM     52  C   UNL A   1      44.144  25.683  28.742  1.00  0.00     0.074 A 
ATOM     53  C   UNL A   1      46.059  31.091  31.482  1.00  0.00     0.029 A 
ATOM     54  N   UNL A   1      44.870  29.495  30.487  1.00  0.00    -0.354 N 
ATOM     55  N   UNL A   1      44.448  26.837  29.289  1.00  0.00    -0.248 NA
ATOM     56  C   UNL A   1      45.276  24.757  28.620  1.00  0.00     0.031 C 
ATOM     57  C   UNL A   1      46.906  30.010  31.207  1.00  0.00     0.029 A 
ATOM     58  C   UNL A   1      46.160  29.006  30.611  1.00  0.00     0.049 A 
ATOM     59  H   UNL A   1      44.118  29.007  30.082  1.00  0.00     0.167 HD
ATOM     60  C   UNL A   1      45.800  26.764  29.604  1.00  0.00     0.074 A 
ATOM     61  C   UNL A   1      46.252  25.451  29.189  1.00  0.00     0.031 C 
ATOM     62  C   UNL A   1      46.593  27.696  30.191  1.00  0.00     0.037 A 
BRANCH  49  63
ATOM     63  C   UNL A   1      43.654  32.941  31.683  1.00  0.00     0.058 A 
ATOM     64  C   UNL A   1      43.396  33.118  33.052  1.00  0.00     0.135 A 
ATOM     65  C   UNL A   1      43.958  34.080  30.921  1.00  0.00     0.135 A 
ATOM     66  F   UNL A   1      43.080  32.065  33.822  1.00  0.00    -0.206 F 
ATOM     67  C   UNL A   1      43.400  34.381  33.636  1.00  0.00     0.059 A 
ATOM     68  C   UNL A   1      43.993  35.350  31.490  1.00  0.00     0.059 A 
ATOM     69  F   UNL A   1      44.208  33.968  29.607  1.00  0.00    -0.206 F 
ATOM     70  C   UNL A   1      43.695  35.491  32.846  1.00  0.00     0.060 A 
BRANCH  70  71
ATOM     71  S   UNL A   1      43.674  37.124  33.615  1.00  0.00     0.124 S 
ATOM     72  O   UNL A   1      42.435  37.067  34.384  1.00  0.00    -0.237 OA
ATOM     73  O   UNL A   1      44.906  37.115  34.397  1.00  0.00    -0.237 OA
ATOM     74  O   UNL A   1      43.665  38.036  32.476  1.00  0.00    -0.744 OA
ENDBRANCH  70  71
ENDBRANCH  49  63
BRANCH  50  75
ATOM     75  C   UNL A   1      42.653  23.823  27.697  1.00  0.00     0.058 A 
ATOM     76  C   UNL A   1      42.498  22.733  28.566  1.00  0.00     0.135 A 
ATOM     77  C   UNL A   1      42.613  23.573  26.317  1.00  0.00     0.135 A 
ATOM     78  F   UNL A   1      42.540  22.923  29.893  1.00  0.00    -0.206 F 
ATOM     79  C   UNL A   1      42.304  21.442  28.087  1.00  0.00     0.059 A 
ATOM     80  C   UNL A   1      42.400  22.294  25.814  1.00  0.00     0.059 A 
ATOM     81  F   UNL A   1      42.745  24.585  25.445  1.00  0.00    -0.206 F 
ATOM     82  C   UNL A   1      42.247  21.234  26.708  1.00  0.00     0.060 A 
BRANCH  82  83
ATOM     83  S   UNL A   1      41.913  19.564  26.104  1.00  0.00     0.124 S 
ATOM     84  O   UNL A   1      42.306  18.752  27.249  1.00  0.00    -0.237 OA
ATOM     85  O   UNL A   1      40.482  19.624  25.823  1.00  0.00    -0.237 OA
ATOM     86  O   UNL A   1      42.770  19.456  24.927  1.00  0.00    -0.744 OA
ENDBRANCH  82  83
ENDBRANCH  50  75
BRANCH  62  87
ATOM     87  C   UNL A   1      48.023  27.314  30.453  1.00  0.00     0.058 A 
ATOM     88  C   UNL A   1      49.041  27.580  29.524  1.00  0.00     0.135 A 
ATOM     89  C   UNL A   1      48.384  26.707  31.668  1.00  0.00     0.135 A 
ATOM     90  F   UNL A   1      48.748  28.154  28.347  1.00  0.00    -0.206 F 
ATOM     91  C   UNL A   1      50.364  27.231  29.779  1.00  0.00     0.059 A 
ATOM     92  C   UNL A   1      49.704  26.374  31.953  1.00  0.00     0.059 A 
ATOM     93  F   UNL A   1      47.449  26.442  32.594  1.00  0.00    -0.206 F 
ATOM     94  C   UNL A   1      50.685  26.627  30.996  1.00  0.00     0.060 A 
BRANCH  94  95
ATOM     95  S   UNL A   1      52.407  26.194  31.319  1.00  0.00     0.124 S 
ATOM     96  O   UNL A   1      52.830  27.294  32.180  1.00  0.00    -0.237 OA
ATOM     97  O   UNL A   1      52.287  24.891  31.967  1.00  0.00    -0.237 OA
ATOM     98  O   UNL A   1      53.008  26.171  29.988  1.00  0.00    -0.744 OA
ENDBRANCH  94  95
ENDBRANCH  62  87
ENDBRANCH  36  37
ENDBRANCH  28  31
ENDBRANCH  26  27
ENDBRANCH   1  26
TORSDOF 16
ENDMDL
MODEL 2
REMARK VINA RESULT:     -11.8      1.567      2.986
REMARK SMILES Cc1nc(NC(=O)[C@@H]2CCC[C@@H](C(=O)NCCCCNC(=O)c3ccc(-c4c5nc(c(-c6c(F)cc(S(=O)(=O)[O-])cc6F)c6ccc([nH]6)c(-c6c(F)cc(S(=O)(=O)[O-])cc6F)c6nc(c(-c7c(F)cc(S(=O)(=O)[O-])cc7F)c7ccc4[nH]7)C=C6)C=C5)cc3)C2)ccc1Br
REMARK SMILES IDX 18 1 17 2 16 3 15 4 13 5 14 6 12 8 8 9 9 10 89 11 10 12
REMARK SMILES IDX 11 13 6 14 5 15 7 17 4 18 1 19 2 20 3 21 92 22 91 23 93 24
REMARK SMILES IDX 90 25 19 26 20 27 21 28 22 30 23 31 24 32 88 33 25 34 87 35
REMARK SMILES IDX 26 36 27 37 28 38 81 39 29 40 86 41 80 42 82 43 30 44 85 45
REMARK SMILES IDX 79 46 78 47 31 49 65 50 44 51 64 52 45 53 48 54 63 55 83 56
REMARK SMILES IDX 46 57 47 58 62 60 84 61 49 62 32 63 33 64 42 65 34 66 35 67
REMARK SMILES IDX 41 68 43 69 36 70 37 71 38 72 39 73 40 74 66 75 67 76 76 77
REMARK SMILES IDX 68 78 69 79 75 80 77 81 70 82 71 83 72 84 73 85 74 86 50 87
REMARK SMILES IDX 51 88 60 89 52 90 53 91 59 92 61 93 54 94 55 95 56 96 57 97
REMARK SMILES IDX 58 98
REMARK H PARENT 15 7 5 16 20 29 82 48 48 59
REMARK Flexibility Score: inf
ROOT
ATOM      1  C   UNL A   1      32.824  27.835  25.953  1.00  0.00     0.023 C 
ENDROOT
BRANCH   1   2
ATOM      2  C   UNL A   1      31.796  26.914  26.622  1.00  0.00     0.023 C 
BRANCH   2   3
ATOM      3  C   UNL A   1      32.032  25.419  26.381  1.00  0.00     0.116 C 
BRANCH   3   4
ATOM      4  N   UNL A   1      33.421  25.172  26.065  1.00  0.00    -0.356 N 
ATOM      5  C   UNL A   1      34.194  24.069  26.213  1.00  0.00     0.223 C 
ATOM      6  O   UNL A   1      35.385  24.206  25.921  1.00  0.00    -0.275 OA
ATOM      7  H   UNL A   1      33.888  25.944  25.670  1.00  0.00     0.163 HD
BRANCH   5   8
ATOM      8  C   UNL A   1      33.613  22.704  26.635  1.00  0.00     0.079 C 
ATOM      9  C   UNL A   1      33.172  21.803  24.301  1.00  0.00     0.079 C 
ATOM     10  C   UNL A   1      34.033  20.573  24.601  1.00  0.00     0.013 C 
ATOM     11  C   UNL A   1      32.517  22.267  25.617  1.00  0.00     0.027 C 
ATOM     12  C   UNL A   1      35.171  20.978  25.525  1.00  0.00     0.002 C 
ATOM     13  C   UNL A   1      34.624  21.556  26.826  1.00  0.00     0.013 C 
BRANCH   9  14
ATOM     14  C   UNL A   1      32.227  21.553  23.141  1.00  0.00     0.228 C 
ATOM     15  N   UNL A   1      31.613  22.600  22.505  1.00  0.00    -0.310 N 
ATOM     16  H   UNL A   1      31.040  22.305  21.761  1.00  0.00     0.171 HD
ATOM     17  O   UNL A   1      32.037  20.412  22.712  1.00  0.00    -0.274 OA
BRANCH  15  18
ATOM     18  C   UNL A   1      31.608  23.991  22.666  1.00  0.00     0.132 A 
ATOM     19  C   UNL A   1      29.020  26.235  24.014  1.00  0.00     0.068 C 
ATOM     20  C   UNL A   1      30.273  25.799  23.314  1.00  0.00     0.054 A 
ATOM     21  N   UNL A   1      30.479  24.451  23.246  1.00  0.00    -0.235 NA
ATOM     22  C   UNL A   1      31.175  26.720  22.789  1.00  0.00     0.039 A 
ATOM     23  C   UNL A   1      32.367  26.240  22.273  1.00  0.00     0.021 A 
ATOM     24  Br  UNL A   1      30.860  28.584  22.747  1.00  0.00    -0.049 Br
ATOM     25  C   UNL A   1      32.600  24.866  22.250  1.00  0.00     0.048 A 
ENDBRANCH  15  18
ENDBRANCH   9  14
ENDBRANCH   5   8
ENDBRANCH   3   4
ENDBRANCH   2   3
ENDBRANCH   1   2
BRANCH   1  26
ATOM     26  C   UNL A   1      33.925  28.349  26.875  1.00  0.00     0.116 C 
BRANCH  26  27
ATOM     27  N   UNL A   1      33.665  29.695  27.356  1.00  0.00    -0.352 N 
ATOM     28  C   UNL A   1      34.497  30.511  28.088  1.00  0.00     0.251 C 
ATOM     29  H   UNL A   1      32.784  30.070  27.131  1.00  0.00     0.163 HD
ATOM     30  O   UNL A   1      34.093  31.570  28.536  1.00  0.00    -0.269 OA
BRANCH  28  31
ATOM     31  C   UNL A   1      35.882  30.062  28.341  1.00  0.00     0.039 A 
ATOM     32  C   UNL A   1      36.814  30.124  27.302  1.00  0.00     0.014 A 
ATOM     33  C   UNL A   1      36.255  29.611  29.611  1.00  0.00     0.014 A 
ATOM     34  C   UNL A   1      38.144  29.783  27.554  1.00  0.00     0.010 A 
ATOM     35  C   UNL A   1      37.587  29.314  29.870  1.00  0.00     0.010 A 
ATOM     36  C   UNL A   1      38.541  29.396  28.842  1.00  0.00    -0.014 A 
BRANCH  36  37
ATOM     37  C   UNL A   1      39.943  29.029  29.143  1.00  0.00     0.031 A 
ATOM     38  C   UNL A   1      40.844  30.034  29.798  1.00  0.00     0.074 A 
ATOM     39  C   UNL A   1      40.416  27.822  28.778  1.00  0.00     0.049 A 
ATOM     40  N   UNL A   1      42.124  29.960  30.048  1.00  0.00    -0.248 NA
ATOM     41  C   UNL A   1      40.219  31.302  30.211  1.00  0.00     0.031 C 
ATOM     42  C   UNL A   1      39.632  26.763  28.141  1.00  0.00     0.029 A 
ATOM     43  N   UNL A   1      41.675  27.289  28.885  1.00  0.00    -0.354 N 
ATOM     44  C   UNL A   1      42.459  31.164  30.653  1.00  0.00     0.074 A 
ATOM     45  C   UNL A   1      41.260  31.974  30.678  1.00  0.00     0.031 C 
ATOM     46  C   UNL A   1      40.425  25.699  27.930  1.00  0.00     0.029 A 
ATOM     47  C   UNL A   1      41.778  26.014  28.382  1.00  0.00     0.049 A 
ATOM     48  H   UNL A   1      42.432  27.773  29.285  1.00  0.00     0.167 HD
ATOM     49  C   UNL A   1      43.652  31.550  31.166  1.00  0.00     0.037 A 
ATOM     50  C   UNL A   1      42.845  25.198  28.292  1.00  0.00     0.037 A 
ATOM     51  C   UNL A   1      44.844  30.744  31.125  1.00  0.00     0.049 A 
ATOM     52  C   UNL A   1      44.178  25.675  28.803  1.00  0.00     0.074 A 
ATOM     53  C   UNL A   1      46.109  31.049  31.594  1.00  0.00     0.029 A 
ATOM     54  N   UNL A   1      44.916  29.467  30.583  1.00  0.00    -0.354 N 
ATOM     55  N   UNL A   1      44.485  26.822  29.360  1.00  0.00    -0.248 NA
ATOM     56  C   UNL A   1      45.307  24.746  28.672  1.00  0.00     0.031 C 
ATOM     57  C   UNL A   1      46.953  29.969  31.310  1.00  0.00     0.029 A 
ATOM     58  C   UNL A   1      46.204  28.973  30.704  1.00  0.00     0.049 A 
ATOM     59  H   UNL A   1      44.162  28.985  30.174  1.00  0.00     0.167 HD
ATOM     60  C   UNL A   1      45.837  26.742  29.676  1.00  0.00     0.074 A 
ATOM     61  C   UNL A   1      46.286  25.431  29.248  1.00  0.00     0.031 C 
ATOM     62  C   UNL A   1      46.633  27.665  30.272  1.00  0.00     0.037 A 
BRANCH  49  63
ATOM     63  C   UNL A   1      43.710  32.906  31.812  1.00  0.00     0.058 A 
ATOM     64  C   UNL A   1      44.001  34.058  31.063  1.00  0.00     0.135 A 
ATOM     65  C   UNL A   1      43.480  33.060  33.188  1.00  0.00     0.135 A 
ATOM     66  F   UNL A   1      44.250  33.964  29.748  1.00  0.00    -0.206 F 
ATOM     67  C   UNL A   1      44.100  35.309  31.662  1.00  0.00     0.059 A 
ATOM     68  C   UNL A   1      43.547  34.306  33.804  1.00  0.00     0.059 A 
ATOM     69  F   UNL A   1      43.202  31.991  33.951  1.00  0.00    -0.206 F 
ATOM     70  C   UNL A   1      43.876  35.422  33.034  1.00  0.00     0.060 A 
BRANCH  70  71
ATOM     71  S   UNL A   1      44.030  37.050  33.798  1.00  0.00     0.124 S 
ATOM     72  O   UNL A   1      42.652  37.313  34.203  1.00  0.00    -0.237 OA
ATOM     73  O   UNL A   1      44.972  36.797  34.884  1.00  0.00    -0.237 OA
ATOM     74  O   UNL A   1      44.536  37.888  32.716  1.00  0.00    -0.744 OA
ENDBRANCH  70  71
ENDBRANCH  49  63
BRANCH  50  75
ATOM     75  C   UNL A   1      42.682  23.829  27.740  1.00  0.00     0.058 A 
ATOM     76  C   UNL A   1      42.523  22.731  28.598  1.00  0.00     0.135 A 
ATOM     77  C   UNL A   1      42.642  23.592  26.357  1.00  0.00     0.135 A 
ATOM     78  F   UNL A   1      42.564  22.908  29.927  1.00  0.00    -0.206 F 
ATOM     79  C   UNL A   1      42.325  21.446  28.107  1.00  0.00     0.059 A 
ATOM     80  C   UNL A   1      42.425  22.318  25.842  1.00  0.00     0.059 A 
ATOM     81  F   UNL A   1      42.778  24.612  25.495  1.00  0.00    -0.206 F 
ATOM     82  C   UNL A   1      42.268  21.250  26.726  1.00  0.00     0.060 A 
BRANCH  82  83
ATOM     83  S   UNL A   1      41.929  19.588  26.106  1.00  0.00     0.124 S 
ATOM     84  O   UNL A   1      42.824  19.513  24.957  1.00  0.00    -0.237 OA
ATOM     85  O   UNL A   1      42.288  18.758  27.251  1.00  0.00    -0.237 OA
ATOM     86  O   UNL A   1      40.503  19.631  25.794  1.00  0.00    -0.744 OA
ENDBRANCH  82  83
ENDBRANCH  50  75
BRANCH  62  87
ATOM     87  C   UNL A   1      48.062  27.277  30.530  1.00  0.00     0.058 A 
ATOM     88  C   UNL A   1      49.077  27.527  29.594  1.00  0.00     0.135 A 
ATOM     89  C   UNL A   1      48.425  26.679  31.749  1.00  0.00     0.135 A 
ATOM     90  F   UNL A   1      48.782  28.091  28.412  1.00  0.00    -0.206 F 
ATOM     91  C   UNL A   1      50.399  27.172  29.845  1.00  0.00     0.059 A 
ATOM     92  C   UNL A   1      49.744  26.340  32.031  1.00  0.00     0.059 A 
ATOM     93  F   UNL A   1      47.493  26.430  32.682  1.00  0.00    -0.206 F 
ATOM     94  C   UNL A   1      50.722  26.577  31.066  1.00  0.00     0.060 A 
BRANCH  94  95
ATOM     95  S   UNL A   1      52.443  26.136  31.385  1.00  0.00     0.124 S 
ATOM     96  O   UNL A   1      52.300  24.814  31.986  1.00  0.00    -0.237 OA
ATOM     97  O   UNL A   1      53.027  26.166  30.048  1.00  0.00    -0.237 OA
ATOM     98  O   UNL A   1      52.903  27.189  32.287  1.00  0.00    -0.744 OA
ENDBRANCH  94  95
ENDBRANCH  62  87
ENDBRANCH  36  37
ENDBRANCH  28  31
ENDBRANCH  26  27
ENDBRANCH   1  26
TORSDOF 16
ENDMDL
MODEL 3
REMARK VINA RESULT:     -11.7      4.590     10.186
REMARK SMILES Cc1nc(NC(=O)[C@@H]2CCC[C@@H](C(=O)NCCCCNC(=O)c3ccc(-c4c5nc(c(-c6c(F)cc(S(=O)(=O)[O-])cc6F)c6ccc([nH]6)c(-c6c(F)cc(S(=O)(=O)[O-])cc6F)c6nc(c(-c7c(F)cc(S(=O)(=O)[O-])cc7F)c7ccc4[nH]7)C=C6)C=C5)cc3)C2)ccc1Br
REMARK SMILES IDX 18 1 17 2 16 3 15 4 13 5 14 6 12 8 8 9 9 10 89 11 10 12
REMARK SMILES IDX 11 13 6 14 5 15 7 17 4 18 1 19 2 20 3 21 92 22 91 23 93 24
REMARK SMILES IDX 90 25 19 26 20 27 21 28 22 30 23 31 24 32 88 33 25 34 87 35
REMARK SMILES IDX 26 36 27 37 28 38 81 39 29 40 86 41 80 42 82 43 30 44 85 45
REMARK SMILES IDX 79 46 78 47 31 49 65 50 44 51 64 52 45 53 48 54 63 55 83 56
REMARK SMILES IDX 46 57 47 58 62 60 84 61 49 62 32 63 33 64 42 65 34 66 35 67
REMARK SMILES IDX 41 68 43 69 36 70 37 71 38 72 39 73 40 74 66 75 67 76 76 77
REMARK SMILES IDX 68 78 69 79 75 80 77 81 70 82 71 83 72 84 73 85 74 86 50 87
REMARK SMILES IDX 51 88 60 89 52 90 53 91 59 92 61 93 54 94 55 95 56 96 57 97
REMARK SMILES IDX 58 98
REMARK H PARENT 15 7 5 16 20 29 82 48 48 59
REMARK Flexibility Score: inf
ROOT
ATOM      1  C   UNL A   1      37.438  23.722  25.669  1.00  0.00     0.023 C 
ENDROOT
BRANCH   1   2
ATOM      2  C   UNL A   1      37.666  22.383  24.957  1.00  0.00     0.023 C 
BRANCH   2   3
ATOM      3  C   UNL A   1      36.704  21.268  25.378  1.00  0.00     0.116 C 
BRANCH   3   4
ATOM      4  N   UNL A   1      35.831  21.727  26.435  1.00  0.00    -0.356 N 
ATOM      5  C   UNL A   1      34.480  21.751  26.538  1.00  0.00     0.223 C 
ATOM      6  O   UNL A   1      34.030  22.294  27.550  1.00  0.00    -0.275 OA
ATOM      7  H   UNL A   1      36.303  22.086  27.221  1.00  0.00     0.163 HD
BRANCH   5   8
ATOM      8  C   UNL A   1      33.561  21.068  25.505  1.00  0.00     0.079 C 
ATOM      9  C   UNL A   1      31.593  22.659  25.720  1.00  0.00     0.079 C 
ATOM     10  C   UNL A   1      31.647  22.948  24.216  1.00  0.00     0.013 C 
ATOM     11  C   UNL A   1      32.076  21.214  25.952  1.00  0.00     0.027 C 
ATOM     12  C   UNL A   1      33.096  22.901  23.755  1.00  0.00     0.002 C 
ATOM     13  C   UNL A   1      33.706  21.533  24.042  1.00  0.00     0.013 C 
BRANCH   9  14
ATOM     14  C   UNL A   1      30.238  23.010  26.306  1.00  0.00     0.228 C 
ATOM     15  N   UNL A   1      29.794  24.306  26.306  1.00  0.00    -0.310 N 
ATOM     16  H   UNL A   1      28.897  24.397  26.699  1.00  0.00     0.171 HD
ATOM     17  O   UNL A   1      29.489  22.132  26.742  1.00  0.00    -0.274 OA
BRANCH  15  18
ATOM     18  C   UNL A   1      30.319  25.533  25.879  1.00  0.00     0.132 A 
ATOM     19  C   UNL A   1      32.221  28.092  27.718  1.00  0.00     0.068 C 
ATOM     20  C   UNL A   1      31.427  27.457  26.615  1.00  0.00     0.054 A 
ATOM     21  N   UNL A   1      31.003  26.180  26.847  1.00  0.00    -0.235 NA
ATOM     22  C   UNL A   1      31.163  28.127  25.424  1.00  0.00     0.039 A 
ATOM     23  C   UNL A   1      30.535  27.425  24.409  1.00  0.00     0.021 A 
ATOM     24  Br  UNL A   1      31.618  29.937  25.121  1.00  0.00    -0.049 Br
ATOM     25  C   UNL A   1      30.147  26.104  24.627  1.00  0.00     0.048 A 
ENDBRANCH  15  18
ENDBRANCH   9  14
ENDBRANCH   5   8
ENDBRANCH   3   4
ENDBRANCH   2   3
ENDBRANCH   1   2
BRANCH   1  26
ATOM     26  C   UNL A   1      38.527  24.120  26.659  1.00  0.00     0.116 C 
BRANCH  26  27
ATOM     27  N   UNL A   1      39.864  23.930  26.123  1.00  0.00    -0.352 N 
ATOM     28  C   UNL A   1      41.014  24.615  26.443  1.00  0.00     0.251 C 
ATOM     29  H   UNL A   1      39.960  23.222  25.446  1.00  0.00     0.163 HD
ATOM     30  O   UNL A   1      42.041  24.434  25.813  1.00  0.00    -0.269 OA
BRANCH  28  31
ATOM     31  C   UNL A   1      40.966  25.594  27.549  1.00  0.00     0.039 A 
ATOM     32  C   UNL A   1      41.944  26.590  27.613  1.00  0.00     0.014 A 
ATOM     33  C   UNL A   1      39.938  25.539  28.495  1.00  0.00     0.014 A 
ATOM     34  C   UNL A   1      41.860  27.570  28.603  1.00  0.00     0.010 A 
ATOM     35  C   UNL A   1      39.832  26.540  29.452  1.00  0.00     0.010 A 
ATOM     36  C   UNL A   1      40.793  27.562  29.514  1.00  0.00    -0.014 A 
BRANCH  36  37
ATOM     37  C   UNL A   1      40.673  28.587  30.575  1.00  0.00     0.031 A 
ATOM     38  C   UNL A   1      41.581  28.522  31.768  1.00  0.00     0.074 A 
ATOM     39  C   UNL A   1      39.718  29.533  30.494  1.00  0.00     0.049 A 
ATOM     40  N   UNL A   1      41.574  29.247  32.855  1.00  0.00    -0.248 NA
ATOM     41  C   UNL A   1      42.630  27.489  31.737  1.00  0.00     0.031 C 
ATOM     42  C   UNL A   1      38.782  29.696  29.380  1.00  0.00     0.029 A 
ATOM     43  N   UNL A   1      39.374  30.529  31.370  1.00  0.00    -0.354 N 
ATOM     44  C   UNL A   1      42.617  28.766  33.635  1.00  0.00     0.074 A 
ATOM     45  C   UNL A   1      43.198  27.648  32.923  1.00  0.00     0.031 C 
ATOM     46  C   UNL A   1      37.981  30.744  29.634  1.00  0.00     0.029 A 
ATOM     47  C   UNL A   1      38.321  31.301  30.941  1.00  0.00     0.049 A 
ATOM     48  H   UNL A   1      39.836  30.677  32.226  1.00  0.00     0.167 HD
ATOM     49  C   UNL A   1      43.066  29.230  34.826  1.00  0.00     0.037 A 
ATOM     50  C   UNL A   1      37.700  32.336  31.538  1.00  0.00     0.037 A 
ATOM     51  C   UNL A   1      42.475  30.334  35.535  1.00  0.00     0.049 A 
ATOM     52  C   UNL A   1      38.170  32.790  32.894  1.00  0.00     0.074 A 
ATOM     53  C   UNL A   1      42.838  30.869  36.758  1.00  0.00     0.029 A 
ATOM     54  N   UNL A   1      41.393  31.076  35.079  1.00  0.00    -0.354 N 
ATOM     55  N   UNL A   1      39.149  32.316  33.628  1.00  0.00    -0.248 NA
ATOM     56  C   UNL A   1      37.452  33.917  33.500  1.00  0.00     0.031 C 
ATOM     57  C   UNL A   1      41.958  31.916  37.055  1.00  0.00     0.029 A 
ATOM     58  C   UNL A   1      41.074  32.061  35.998  1.00  0.00     0.049 A 
ATOM     59  H   UNL A   1      40.922  30.923  34.228  1.00  0.00     0.167 HD
ATOM     60  C   UNL A   1      39.185  33.108  34.771  1.00  0.00     0.074 A 
ATOM     61  C   UNL A   1      38.130  34.092  34.626  1.00  0.00     0.031 C 
ATOM     62  C   UNL A   1      40.019  33.032  35.838  1.00  0.00     0.037 A 
BRANCH  49  63
ATOM     63  C   UNL A   1      44.258  28.534  35.422  1.00  0.00     0.058 A 
ATOM     64  C   UNL A   1      45.567  28.927  35.101  1.00  0.00     0.135 A 
ATOM     65  C   UNL A   1      44.096  27.464  36.315  1.00  0.00     0.135 A 
ATOM     66  F   UNL A   1      45.779  29.931  34.235  1.00  0.00    -0.206 F 
ATOM     67  C   UNL A   1      46.674  28.259  35.614  1.00  0.00     0.059 A 
ATOM     68  C   UNL A   1      45.190  26.798  36.862  1.00  0.00     0.059 A 
ATOM     69  F   UNL A   1      42.866  27.044  36.654  1.00  0.00    -0.206 F 
ATOM     70  C   UNL A   1      46.475  27.193  36.490  1.00  0.00     0.060 A 
BRANCH  70  71
ATOM     71  S   UNL A   1      47.922  26.323  37.130  1.00  0.00     0.124 S 
ATOM     72  O   UNL A   1      47.387  24.981  37.337  1.00  0.00    -0.237 OA
ATOM     73  O   UNL A   1      48.877  26.463  36.036  1.00  0.00    -0.237 OA
ATOM     74  O   UNL A   1      48.253  27.061  38.345  1.00  0.00    -0.744 OA
ENDBRANCH  70  71
ENDBRANCH  49  63
BRANCH  50  75
ATOM     75  C   UNL A   1      36.600  33.042  30.833  1.00  0.00     0.058 A 
ATOM     76  C   UNL A   1      35.269  32.874  31.244  1.00  0.00     0.135 A 
ATOM     77  C   UNL A   1      36.852  33.923  29.770  1.00  0.00     0.135 A 
ATOM     78  F   UNL A   1      34.981  32.035  32.250  1.00  0.00    -0.206 F 
ATOM     79  C   UNL A   1      34.226  33.556  30.630  1.00  0.00     0.059 A 
ATOM     80  C   UNL A   1      35.826  34.632  29.152  1.00  0.00     0.059 A 
ATOM     81  F   UNL A   1      38.110  34.126  29.347  1.00  0.00    -0.206 F 
ATOM     82  C   UNL A   1      34.516  34.441  29.590  1.00  0.00     0.060 A 
BRANCH  82  83
ATOM     83  S   UNL A   1      33.158  35.382  28.857  1.00  0.00     0.124 S 
ATOM     84  O   UNL A   1      32.435  35.829  30.042  1.00  0.00    -0.237 OA
ATOM     85  O   UNL A   1      33.871  36.416  28.116  1.00  0.00    -0.237 OA
ATOM     86  O   UNL A   1      32.470  34.391  28.034  1.00  0.00    -0.744 OA
ENDBRANCH  82  83
ENDBRANCH  50  75
BRANCH  62  87
ATOM     87  C   UNL A   1      39.849  34.065  36.917  1.00  0.00     0.058 A 
ATOM     88  C   UNL A   1      40.437  35.336  36.823  1.00  0.00     0.135 A 
ATOM     89  C   UNL A   1      39.055  33.790  38.043  1.00  0.00     0.135 A 
ATOM     90  F   UNL A   1      41.209  35.648  35.770  1.00  0.00    -0.206 F 
ATOM     91  C   UNL A   1      40.266  36.289  37.823  1.00  0.00     0.059 A 
ATOM     92  C   UNL A   1      38.851  34.737  39.041  1.00  0.00     0.059 A 
ATOM     93  F   UNL A   1      38.462  32.593  38.175  1.00  0.00    -0.206 F 
ATOM     94  C   UNL A   1      39.473  35.979  38.929  1.00  0.00     0.060 A 
BRANCH  94  95
ATOM     95  S   UNL A   1      39.248  37.230  40.210  1.00  0.00     0.124 S 
ATOM     96  O   UNL A   1      38.479  38.245  39.498  1.00  0.00    -0.237 OA
ATOM     97  O   UNL A   1      38.524  36.495  41.243  1.00  0.00    -0.237 OA
ATOM     98  O   UNL A   1      40.614  37.609  40.560  1.00  0.00    -0.744 OA
ENDBRANCH  94  95
ENDBRANCH  62  87
ENDBRANCH  36  37
ENDBRANCH  28  31
ENDBRANCH  26  27
ENDBRANCH   1  26
TORSDOF 16
ENDMDL
