MODEL 1
REMARK VINA RESULT:     -12.9      0.000      0.000
REMARK SMILES C[C@@H](C(=O)NCCCCNC(=O)c1ccc(-c2c3nc(c(-c4c(F)cc(S(=O)(=O)[O-])cc4F)c4ccc([nH]4)c(-c4c(F)cc(S(=O)(=O)[O-])cc4F)c4nc(c(-c5c(F)cc(S(=O)(=O)[O-])cc5F)c5ccc2[nH]5)C=C4)C=C3)cc1)n1ccc(C(=O)N2CC[NH+](Cc3cccc(F)c3)CC2)n1
REMARK SMILES IDX 7 1 6 2 5 3 3 4 4 5 2 7 1 8 79 9 80 10 99 11 81 12 82 13
REMARK SMILES IDX 83 14 84 15 85 16 86 17 98 18 87 19 97 20 88 21 89 23 90 24
REMARK SMILES IDX 91 25 96 26 92 27 94 28 93 29 95 30 8 31 9 32 10 33 11 34
REMARK SMILES IDX 12 36 13 37 14 38 78 39 15 40 77 41 16 42 17 43 18 44 71 45
REMARK SMILES IDX 19 46 76 47 70 48 72 49 20 50 75 51 69 52 68 53 21 55 55 56
REMARK SMILES IDX 34 57 54 58 35 59 38 60 53 61 73 62 36 63 37 64 52 66 74 67
REMARK SMILES IDX 39 68 22 69 23 70 32 71 24 72 25 73 31 74 33 75 26 76 27 77
REMARK SMILES IDX 28 78 29 79 30 80 56 81 57 82 66 83 58 84 59 85 65 86 67 87
REMARK SMILES IDX 60 88 61 89 62 90 63 91 64 92 40 93 41 94 50 95 42 96 43 97
REMARK SMILES IDX 49 98 51 99 44 100 45 101 46 102 47 103 48 104
REMARK H PARENT 5 6 88 22 10 35 72 54 38 65
REMARK Flexibility Score: inf
ROOT
ATOM      1  C   UNL A   1      40.158  21.454  26.245  1.00  0.00     0.023 C 
ENDROOT
BRANCH   1   2
ATOM      2  C   UNL A   1      38.702  21.445  25.782  1.00  0.00     0.116 C 
BRANCH   2   3
ATOM      3  N   UNL A   1      38.002  22.646  26.175  1.00  0.00    -0.354 N 
ATOM      4  C   UNL A   1      36.798  23.147  25.766  1.00  0.00     0.244 C 
ATOM      5  O   UNL A   1      36.398  24.124  26.402  1.00  0.00    -0.273 OA
ATOM      6  H   UNL A   1      38.469  23.193  26.848  1.00  0.00     0.163 HD
BRANCH   4   7
ATOM      7  C   UNL A   1      36.002  22.457  24.643  1.00  0.00     0.193 C 
ATOM      8  C   UNL A   1      36.407  22.887  23.235  1.00  0.00     0.044 C 
BRANCH   7   9
ATOM      9  N   UNL A   1      34.564  22.687  24.806  1.00  0.00    -0.260 N 
ATOM     10  C   UNL A   1      33.574  21.753  24.908  1.00  0.00     0.110 A 
ATOM     11  N   UNL A   1      34.089  23.940  24.760  1.00  0.00    -0.167 NA
ATOM     12  C   UNL A   1      32.427  22.467  25.172  1.00  0.00     0.056 A 
ATOM     13  C   UNL A   1      32.816  23.838  25.172  1.00  0.00     0.150 A 
BRANCH  13  14
ATOM     14  C   UNL A   1      32.004  24.974  25.651  1.00  0.00     0.274 C 
ATOM     15  O   UNL A   1      31.592  24.976  26.816  1.00  0.00    -0.267 OA
ATOM     16  N   UNL A   1      31.785  26.082  24.812  1.00  0.00    -0.326 N 
ATOM     17  C   UNL A   1      31.305  27.291  25.470  1.00  0.00     0.181 C 
ATOM     18  C   UNL A   1      31.514  25.949  23.377  1.00  0.00     0.181 C 
ATOM     19  C   UNL A   1      31.337  28.562  24.605  1.00  0.00     0.284 C 
ATOM     20  C   UNL A   1      31.541  27.271  22.586  1.00  0.00     0.284 C 
ATOM     21  N   UNL A   1      30.885  28.418  23.218  1.00  0.00    -0.328 N 
ATOM     22  H   UNL A   1      31.207  29.251  22.724  1.00  0.00     0.348 HD
BRANCH  21  23
ATOM     23  C   UNL A   1      29.451  28.573  22.968  1.00  0.00     0.299 C 
BRANCH  23  24
ATOM     24  C   UNL A   1      28.940  29.956  22.638  1.00  0.00     0.009 A 
ATOM     25  C   UNL A   1      29.039  31.002  23.570  1.00  0.00     0.010 A 
ATOM     26  C   UNL A   1      28.381  30.229  21.383  1.00  0.00     0.048 A 
ATOM     27  C   UNL A   1      28.669  32.305  23.224  1.00  0.00     0.004 A 
ATOM     28  C   UNL A   1      28.027  31.531  21.044  1.00  0.00     0.123 A 
ATOM     29  C   UNL A   1      28.178  32.572  21.949  1.00  0.00     0.039 A 
ATOM     30  F   UNL A   1      27.553  31.785  19.816  1.00  0.00    -0.207 F 
ENDBRANCH  23  24
ENDBRANCH  21  23
ENDBRANCH  13  14
ENDBRANCH   7   9
ENDBRANCH   4   7
ENDBRANCH   2   3
ENDBRANCH   1   2
BRANCH   1  31
ATOM     31  C   UNL A   1      40.429  22.226  27.540  1.00  0.00     0.023 C 
BRANCH  31  32
ATOM     32  C   UNL A   1      41.629  23.166  27.512  1.00  0.00     0.116 C 
BRANCH  32  33
ATOM     33  N   UNL A   1      41.708  23.949  26.293  1.00  0.00    -0.352 N 
ATOM     34  C   UNL A   1      41.506  25.292  26.104  1.00  0.00     0.251 C 
ATOM     35  H   UNL A   1      41.941  23.441  25.481  1.00  0.00     0.163 HD
ATOM     36  O   UNL A   1      41.510  25.741  24.958  1.00  0.00    -0.269 OA
BRANCH  34  37
ATOM     37  C   UNL A   1      41.255  26.191  27.253  1.00  0.00     0.039 A 
ATOM     38  C   UNL A   1      42.121  27.271  27.454  1.00  0.00     0.014 A 
ATOM     39  C   UNL A   1      40.210  25.961  28.152  1.00  0.00     0.014 A 
ATOM     40  C   UNL A   1      41.919  28.135  28.532  1.00  0.00     0.010 A 
ATOM     41  C   UNL A   1      39.969  26.861  29.188  1.00  0.00     0.010 A 
ATOM     42  C   UNL A   1      40.833  27.945  29.401  1.00  0.00    -0.014 A 
BRANCH  42  43
ATOM     43  C   UNL A   1      40.619  28.845  30.562  1.00  0.00     0.031 A 
ATOM     44  C   UNL A   1      41.474  28.699  31.793  1.00  0.00     0.074 A 
ATOM     45  C   UNL A   1      39.636  29.765  30.527  1.00  0.00     0.049 A 
ATOM     46  N   UNL A   1      41.428  29.370  32.915  1.00  0.00    -0.248 NA
ATOM     47  C   UNL A   1      42.496  27.640  31.769  1.00  0.00     0.031 C 
ATOM     48  C   UNL A   1      38.707  29.970  29.412  1.00  0.00     0.029 A 
ATOM     49  N   UNL A   1      39.252  30.700  31.454  1.00  0.00    -0.354 N 
ATOM     50  C   UNL A   1      42.394  28.799  33.737  1.00  0.00     0.074 A 
ATOM     51  C   UNL A   1      42.980  27.701  33.001  1.00  0.00     0.031 C 
ATOM     52  C   UNL A   1      37.879  30.985  29.711  1.00  0.00     0.029 A 
ATOM     53  C   UNL A   1      38.204  31.489  31.043  1.00  0.00     0.049 A 
ATOM     54  H   UNL A   1      39.686  30.796  32.333  1.00  0.00     0.167 HD
ATOM     55  C   UNL A   1      42.775  29.171  34.983  1.00  0.00     0.037 A 
ATOM     56  C   UNL A   1      37.584  32.510  31.665  1.00  0.00     0.037 A 
ATOM     57  C   UNL A   1      42.222  30.293  35.694  1.00  0.00     0.049 A 
ATOM     58  C   UNL A   1      38.064  32.941  33.024  1.00  0.00     0.074 A 
ATOM     59  C   UNL A   1      42.582  30.791  36.935  1.00  0.00     0.029 A 
ATOM     60  N   UNL A   1      41.198  31.100  35.221  1.00  0.00    -0.354 N 
ATOM     61  N   UNL A   1      39.019  32.429  33.763  1.00  0.00    -0.248 NA
ATOM     62  C   UNL A   1      37.392  34.101  33.627  1.00  0.00     0.031 C 
ATOM     63  C   UNL A   1      41.759  31.886  37.221  1.00  0.00     0.029 A 
ATOM     64  C   UNL A   1      40.911  32.091  36.144  1.00  0.00     0.049 A 
ATOM     65  H   UNL A   1      40.743  30.985  34.356  1.00  0.00     0.167 HD
ATOM     66  C   UNL A   1      39.090  33.226  34.899  1.00  0.00     0.074 A 
ATOM     67  C   UNL A   1      38.080  34.255  34.750  1.00  0.00     0.031 C 
ATOM     68  C   UNL A   1      39.917  33.120  35.968  1.00  0.00     0.037 A 
BRANCH  55  69
ATOM     69  C   UNL A   1      43.848  28.355  35.649  1.00  0.00     0.058 A 
ATOM     70  C   UNL A   1      45.211  28.623  35.446  1.00  0.00     0.135 A 
ATOM     71  C   UNL A   1      43.509  27.298  36.509  1.00  0.00     0.135 A 
ATOM     72  F   UNL A   1      45.588  29.612  34.620  1.00  0.00    -0.206 F 
ATOM     73  C   UNL A   1      46.201  27.848  36.040  1.00  0.00     0.059 A 
ATOM     74  C   UNL A   1      44.484  26.525  37.134  1.00  0.00     0.059 A 
ATOM     75  F   UNL A   1      42.221  26.998  36.740  1.00  0.00    -0.206 F 
ATOM     76  C   UNL A   1      45.828  26.796  36.878  1.00  0.00     0.060 A 
BRANCH  76  77
ATOM     77  S   UNL A   1      47.121  25.787  37.632  1.00  0.00     0.124 S 
ATOM     78  O   UNL A   1      47.471  26.590  38.799  1.00  0.00    -0.237 OA
ATOM     79  O   UNL A   1      46.423  24.536  37.910  1.00  0.00    -0.237 OA
ATOM     80  O   UNL A   1      48.141  25.713  36.591  1.00  0.00    -0.744 OA
ENDBRANCH  76  77
ENDBRANCH  55  69
BRANCH  56  81
ATOM     81  C   UNL A   1      36.483  33.235  30.982  1.00  0.00     0.058 A 
ATOM     82  C   UNL A   1      36.749  34.086  29.899  1.00  0.00     0.135 A 
ATOM     83  C   UNL A   1      35.147  33.085  31.385  1.00  0.00     0.135 A 
ATOM     84  F   UNL A   1      38.012  34.263  29.482  1.00  0.00    -0.206 F 
ATOM     85  C   UNL A   1      35.734  34.779  29.249  1.00  0.00     0.059 A 
ATOM     86  C   UNL A   1      34.111  33.751  30.737  1.00  0.00     0.059 A 
ATOM     87  F   UNL A   1      34.840  32.267  32.403  1.00  0.00    -0.206 F 
ATOM     88  C   UNL A   1      34.416  34.603  29.675  1.00  0.00     0.060 A 
BRANCH  88  89
ATOM     89  S   UNL A   1      33.098  35.467  28.793  1.00  0.00     0.124 S 
ATOM     90  O   UNL A   1      32.490  34.379  28.035  1.00  0.00    -0.237 OA
ATOM     91  O   UNL A   1      32.297  36.007  29.888  1.00  0.00    -0.237 OA
ATOM     92  O   UNL A   1      33.819  36.462  28.006  1.00  0.00    -0.744 OA
ENDBRANCH  88  89
ENDBRANCH  56  81
BRANCH  68  93
ATOM     93  C   UNL A   1      39.805  34.173  37.032  1.00  0.00     0.058 A 
ATOM     94  C   UNL A   1      39.091  33.952  38.219  1.00  0.00     0.135 A 
ATOM     95  C   UNL A   1      40.447  35.412  36.870  1.00  0.00     0.135 A 
ATOM     96  F   UNL A   1      38.456  32.787  38.419  1.00  0.00    -0.206 F 
ATOM     97  C   UNL A   1      38.993  34.935  39.200  1.00  0.00     0.059 A 
ATOM     98  C   UNL A   1      40.382  36.399  37.846  1.00  0.00     0.059 A 
ATOM     99  F   UNL A   1      41.152  35.667  35.757  1.00  0.00    -0.206 F 
ATOM    100  C   UNL A   1      39.638  36.157  39.002  1.00  0.00     0.060 A 
BRANCH 100 101
ATOM    101  S   UNL A   1      39.521  37.423  40.284  1.00  0.00     0.124 S 
ATOM    102  O   UNL A   1      40.928  37.719  40.532  1.00  0.00    -0.237 OA
ATOM    103  O   UNL A   1      38.758  38.476  39.620  1.00  0.00    -0.237 OA
ATOM    104  O   UNL A   1      38.819  36.741  41.368  1.00  0.00    -0.744 OA
ENDBRANCH 100 101
ENDBRANCH  68  93
ENDBRANCH  42  43
ENDBRANCH  34  37
ENDBRANCH  32  33
ENDBRANCH  31  32
ENDBRANCH   1  31
TORSDOF 18
ENDMDL
MODEL 2
REMARK VINA RESULT:     -12.8      3.501      5.374
REMARK SMILES C[C@@H](C(=O)NCCCCNC(=O)c1ccc(-c2c3nc(c(-c4c(F)cc(S(=O)(=O)[O-])cc4F)c4ccc([nH]4)c(-c4c(F)cc(S(=O)(=O)[O-])cc4F)c4nc(c(-c5c(F)cc(S(=O)(=O)[O-])cc5F)c5ccc2[nH]5)C=C4)C=C3)cc1)n1ccc(C(=O)N2CC[NH+](Cc3cccc(F)c3)CC2)n1
REMARK SMILES IDX 7 1 6 2 5 3 3 4 4 5 2 7 1 8 79 9 80 10 99 11 81 12 82 13
REMARK SMILES IDX 83 14 84 15 85 16 86 17 98 18 87 19 97 20 88 21 89 23 90 24
REMARK SMILES IDX 91 25 96 26 92 27 94 28 93 29 95 30 8 31 9 32 10 33 11 34
REMARK SMILES IDX 12 36 13 37 14 38 78 39 15 40 77 41 16 42 17 43 18 44 71 45
REMARK SMILES IDX 19 46 76 47 70 48 72 49 20 50 75 51 69 52 68 53 21 55 55 56
REMARK SMILES IDX 34 57 54 58 35 59 38 60 53 61 73 62 36 63 37 64 52 66 74 67
REMARK SMILES IDX 39 68 22 69 23 70 32 71 24 72 25 73 31 74 33 75 26 76 27 77
REMARK SMILES IDX 28 78 29 79 30 80 56 81 57 82 66 83 58 84 59 85 65 86 67 87
REMARK SMILES IDX 60 88 61 89 62 90 63 91 64 92 40 93 41 94 50 95 42 96 43 97
REMARK SMILES IDX 49 98 51 99 44 100 45 101 46 102 47 103 48 104
REMARK H PARENT 5 6 88 22 10 35 72 54 38 65
REMARK Flexibility Score: inf
ROOT
ATOM      1  C   UNL A   1      45.936  24.334  26.927  1.00  0.00     0.023 C 
ENDROOT
BRANCH   1   2
ATOM      2  C   UNL A   1      45.654  22.901  26.479  1.00  0.00     0.116 C 
BRANCH   2   3
ATOM      3  N   UNL A   1      45.301  22.831  25.080  1.00  0.00    -0.354 N 
ATOM      4  C   UNL A   1      44.818  21.791  24.336  1.00  0.00     0.244 C 
ATOM      5  O   UNL A   1      44.471  22.088  23.191  1.00  0.00    -0.273 OA
ATOM      6  H   UNL A   1      45.431  23.669  24.580  1.00  0.00     0.163 HD
BRANCH   4   7
ATOM      7  C   UNL A   1      44.663  20.390  24.955  1.00  0.00     0.193 C 
ATOM      8  C   UNL A   1      44.893  19.244  23.972  1.00  0.00     0.044 C 
BRANCH   7   9
ATOM      9  N   UNL A   1      43.336  20.230  25.555  1.00  0.00    -0.260 N 
ATOM     10  C   UNL A   1      42.810  19.112  26.135  1.00  0.00     0.110 A 
ATOM     11  N   UNL A   1      42.449  21.232  25.470  1.00  0.00    -0.167 NA
ATOM     12  C   UNL A   1      41.598  19.507  26.652  1.00  0.00     0.056 A 
ATOM     13  C   UNL A   1      41.454  20.880  26.299  1.00  0.00     0.150 A 
BRANCH  13  14
ATOM     14  C   UNL A   1      40.448  21.817  26.834  1.00  0.00     0.274 C 
ATOM     15  O   UNL A   1      40.680  22.422  27.887  1.00  0.00    -0.267 OA
ATOM     16  N   UNL A   1      39.278  22.084  26.098  1.00  0.00    -0.326 N 
ATOM     17  C   UNL A   1      38.532  23.270  26.501  1.00  0.00     0.181 C 
ATOM     18  C   UNL A   1      38.540  21.043  25.376  1.00  0.00     0.181 C 
ATOM     19  C   UNL A   1      37.426  23.708  25.526  1.00  0.00     0.284 C 
ATOM     20  C   UNL A   1      37.433  21.564  24.440  1.00  0.00     0.284 C 
ATOM     21  N   UNL A   1      36.593  22.642  24.965  1.00  0.00    -0.328 N 
ATOM     22  H   UNL A   1      36.105  23.051  24.166  1.00  0.00     0.348 HD
BRANCH  21  23
ATOM     23  C   UNL A   1      35.419  22.240  25.739  1.00  0.00     0.299 C 
BRANCH  23  24
ATOM     24  C   UNL A   1      34.246  21.655  24.988  1.00  0.00     0.009 A 
ATOM     25  C   UNL A   1      33.484  22.447  24.113  1.00  0.00     0.010 A 
ATOM     26  C   UNL A   1      33.912  20.301  25.127  1.00  0.00     0.048 A 
ATOM     27  C   UNL A   1      32.471  21.880  23.335  1.00  0.00     0.004 A 
ATOM     28  C   UNL A   1      32.911  19.743  24.340  1.00  0.00     0.123 A 
ATOM     29  C   UNL A   1      32.196  20.518  23.436  1.00  0.00     0.039 A 
ATOM     30  F   UNL A   1      32.648  18.434  24.440  1.00  0.00    -0.207 F 
ENDBRANCH  23  24
ENDBRANCH  21  23
ENDBRANCH  13  14
ENDBRANCH   7   9
ENDBRANCH   4   7
ENDBRANCH   2   3
ENDBRANCH   1   2
BRANCH   1  31
ATOM     31  C   UNL A   1      46.112  25.351  25.795  1.00  0.00     0.023 C 
BRANCH  31  32
ATOM     32  C   UNL A   1      44.972  26.349  25.618  1.00  0.00     0.116 C 
BRANCH  32  33
ATOM     33  N   UNL A   1      43.769  25.744  25.077  1.00  0.00    -0.352 N 
ATOM     34  C   UNL A   1      42.488  25.759  25.568  1.00  0.00     0.251 C 
ATOM     35  H   UNL A   1      43.889  25.252  24.232  1.00  0.00     0.163 HD
ATOM     36  O   UNL A   1      41.627  25.082  25.009  1.00  0.00    -0.269 OA
BRANCH  34  37
ATOM     37  C   UNL A   1      42.146  26.551  26.771  1.00  0.00     0.039 A 
ATOM     38  C   UNL A   1      42.519  27.899  26.808  1.00  0.00     0.014 A 
ATOM     39  C   UNL A   1      41.504  25.977  27.872  1.00  0.00     0.014 A 
ATOM     40  C   UNL A   1      42.219  28.675  27.930  1.00  0.00     0.010 A 
ATOM     41  C   UNL A   1      41.145  26.768  28.962  1.00  0.00     0.010 A 
ATOM     42  C   UNL A   1      41.517  28.119  29.011  1.00  0.00    -0.014 A 
BRANCH  42  43
ATOM     43  C   UNL A   1      41.210  28.928  30.217  1.00  0.00     0.031 A 
ATOM     44  C   UNL A   1      42.037  28.761  31.464  1.00  0.00     0.074 A 
ATOM     45  C   UNL A   1      40.168  29.782  30.205  1.00  0.00     0.049 A 
ATOM     46  N   UNL A   1      41.914  29.355  32.623  1.00  0.00    -0.248 NA
ATOM     47  C   UNL A   1      43.129  27.776  31.410  1.00  0.00     0.031 C 
ATOM     48  C   UNL A   1      39.260  29.995  29.075  1.00  0.00     0.029 A 
ATOM     49  N   UNL A   1      39.695  30.629  31.175  1.00  0.00    -0.354 N 
ATOM     50  C   UNL A   1      42.892  28.799  33.440  1.00  0.00     0.074 A 
ATOM     51  C   UNL A   1      43.572  27.790  32.658  1.00  0.00     0.031 C 
ATOM     52  C   UNL A   1      38.357  30.932  29.409  1.00  0.00     0.029 A 
ATOM     53  C   UNL A   1      38.608  31.372  30.778  1.00  0.00     0.049 A 
ATOM     54  H   UNL A   1      40.096  30.698  32.071  1.00  0.00     0.167 HD
ATOM     55  C   UNL A   1      43.211  29.116  34.718  1.00  0.00     0.037 A 
ATOM     56  C   UNL A   1      37.903  32.308  31.441  1.00  0.00     0.037 A 
ATOM     57  C   UNL A   1      42.564  30.153  35.478  1.00  0.00     0.049 A 
ATOM     58  C   UNL A   1      38.313  32.684  32.838  1.00  0.00     0.074 A 
ATOM     59  C   UNL A   1      42.853  30.594  36.757  1.00  0.00     0.029 A 
ATOM     60  N   UNL A   1      41.501  30.919  35.021  1.00  0.00    -0.354 N 
ATOM     61  N   UNL A   1      39.280  32.190  33.575  1.00  0.00    -0.248 NA
ATOM     62  C   UNL A   1      37.548  33.756  33.488  1.00  0.00     0.031 C 
ATOM     63  C   UNL A   1      41.949  31.613  37.083  1.00  0.00     0.029 A 
ATOM     64  C   UNL A   1      41.121  31.828  35.993  1.00  0.00     0.049 A 
ATOM     65  H   UNL A   1      41.079  30.828  34.136  1.00  0.00     0.167 HD
ATOM     66  C   UNL A   1      39.263  32.918  34.760  1.00  0.00     0.074 A 
ATOM     67  C   UNL A   1      38.192  33.885  34.641  1.00  0.00     0.031 C 
ATOM     68  C   UNL A   1      40.066  32.799  35.847  1.00  0.00     0.037 A 
BRANCH  55  69
ATOM     69  C   UNL A   1      44.317  28.332  35.368  1.00  0.00     0.058 A 
ATOM     70  C   UNL A   1      45.658  28.741  35.284  1.00  0.00     0.135 A 
ATOM     71  C   UNL A   1      44.033  27.163  36.092  1.00  0.00     0.135 A 
ATOM     72  F   UNL A   1      45.986  29.842  34.589  1.00  0.00    -0.206 F 
ATOM     73  C   UNL A   1      46.682  27.998  35.861  1.00  0.00     0.059 A 
ATOM     74  C   UNL A   1      45.039  26.418  36.699  1.00  0.00     0.059 A 
ATOM     75  F   UNL A   1      42.768  26.727  36.205  1.00  0.00    -0.206 F 
ATOM     76  C   UNL A   1      46.364  26.833  36.562  1.00  0.00     0.060 A 
BRANCH  76  77
ATOM     77  S   UNL A   1      47.702  25.869  37.294  1.00  0.00     0.124 S 
ATOM     78  O   UNL A   1      48.229  26.806  38.280  1.00  0.00    -0.237 OA
ATOM     79  O   UNL A   1      46.998  24.711  37.836  1.00  0.00    -0.237 OA
ATOM     80  O   UNL A   1      48.578  25.590  36.160  1.00  0.00    -0.744 OA
ENDBRANCH  76  77
ENDBRANCH  55  69
BRANCH  56  81
ATOM     81  C   UNL A   1      36.775  33.002  30.767  1.00  0.00     0.058 A 
ATOM     82  C   UNL A   1      35.448  32.644  31.046  1.00  0.00     0.135 A 
ATOM     83  C   UNL A   1      36.996  34.037  29.848  1.00  0.00     0.135 A 
ATOM     84  F   UNL A   1      35.189  31.656  31.916  1.00  0.00    -0.206 F 
ATOM     85  C   UNL A   1      34.377  33.276  30.424  1.00  0.00     0.059 A 
ATOM     86  C   UNL A   1      35.942  34.700  29.228  1.00  0.00     0.059 A 
ATOM     87  F   UNL A   1      38.249  34.428  29.564  1.00  0.00    -0.206 F 
ATOM     88  C   UNL A   1      34.634  34.305  29.515  1.00  0.00     0.060 A 
BRANCH  88  89
ATOM     89  S   UNL A   1      33.238  35.155  28.749  1.00  0.00     0.124 S 
ATOM     90  O   UNL A   1      33.910  36.210  27.999  1.00  0.00    -0.237 OA
ATOM     91  O   UNL A   1      32.629  34.094  27.952  1.00  0.00    -0.237 OA
ATOM     92  O   UNL A   1      32.447  35.597  29.894  1.00  0.00    -0.744 OA
ENDBRANCH  88  89
ENDBRANCH  56  81
BRANCH  68  93
ATOM     93  C   UNL A   1      39.852  33.773  36.969  1.00  0.00     0.058 A 
ATOM     94  C   UNL A   1      40.380  35.072  36.931  1.00  0.00     0.135 A 
ATOM     95  C   UNL A   1      39.081  33.408  38.085  1.00  0.00     0.135 A 
ATOM     96  F   UNL A   1      41.126  35.468  35.888  1.00  0.00    -0.206 F 
ATOM     97  C   UNL A   1      40.175  35.969  37.975  1.00  0.00     0.059 A 
ATOM     98  C   UNL A   1      38.846  34.294  39.129  1.00  0.00     0.059 A 
ATOM     99  F   UNL A   1      38.546  32.180  38.164  1.00  0.00    -0.206 F 
ATOM    100  C   UNL A   1      39.411  35.569  39.072  1.00  0.00     0.060 A 
BRANCH 100 101
ATOM    101  S   UNL A   1      39.136  36.741  40.418  1.00  0.00     0.124 S 
ATOM    102  O   UNL A   1      40.498  36.976  40.884  1.00  0.00    -0.237 OA
ATOM    103  O   UNL A   1      38.497  37.862  39.735  1.00  0.00    -0.237 OA
ATOM    104  O   UNL A   1      38.273  36.004  41.337  1.00  0.00    -0.744 OA
ENDBRANCH 100 101
ENDBRANCH  68  93
ENDBRANCH  42  43
ENDBRANCH  34  37
ENDBRANCH  32  33
ENDBRANCH  31  32
ENDBRANCH   1  31
TORSDOF 18
ENDMDL
MODEL 3
REMARK VINA RESULT:     -12.6      5.491     12.815
REMARK SMILES C[C@@H](C(=O)NCCCCNC(=O)c1ccc(-c2c3nc(c(-c4c(F)cc(S(=O)(=O)[O-])cc4F)c4ccc([nH]4)c(-c4c(F)cc(S(=O)(=O)[O-])cc4F)c4nc(c(-c5c(F)cc(S(=O)(=O)[O-])cc5F)c5ccc2[nH]5)C=C4)C=C3)cc1)n1ccc(C(=O)N2CC[NH+](Cc3cccc(F)c3)CC2)n1
REMARK SMILES IDX 7 1 6 2 5 3 3 4 4 5 2 7 1 8 79 9 80 10 99 11 81 12 82 13
REMARK SMILES IDX 83 14 84 15 85 16 86 17 98 18 87 19 97 20 88 21 89 23 90 24
REMARK SMILES IDX 91 25 96 26 92 27 94 28 93 29 95 30 8 31 9 32 10 33 11 34
REMARK SMILES IDX 12 36 13 37 14 38 78 39 15 40 77 41 16 42 17 43 18 44 71 45
REMARK SMILES IDX 19 46 76 47 70 48 72 49 20 50 75 51 69 52 68 53 21 55 55 56
REMARK SMILES IDX 34 57 54 58 35 59 38 60 53 61 73 62 36 63 37 64 52 66 74 67
REMARK SMILES IDX 39 68 22 69 23 70 32 71 24 72 25 73 31 74 33 75 26 76 27 77
REMARK SMILES IDX 28 78 29 79 30 80 56 81 57 82 66 83 58 84 59 85 65 86 67 87
REMARK SMILES IDX 60 88 61 89 62 90 63 91 64 92 40 93 41 94 50 95 42 96 43 97
REMARK SMILES IDX 49 98 51 99 44 100 45 101 46 102 47 103 48 104
REMARK H PARENT 5 6 88 22 10 35 72 54 38 65
REMARK Flexibility Score: inf
ROOT
ATOM      1  C   UNL A   1      33.273  34.815  28.795  1.00  0.00     0.023 C 
ENDROOT
BRANCH   1   2
ATOM      2  C   UNL A   1      33.934  35.105  30.141  1.00  0.00     0.116 C 
BRANCH   2   3
ATOM      3  N   UNL A   1      33.685  34.057  31.103  1.00  0.00    -0.354 N 
ATOM      4  C   UNL A   1      34.526  33.449  31.993  1.00  0.00     0.244 C 
ATOM      5  O   UNL A   1      33.976  32.687  32.791  1.00  0.00    -0.273 OA
ATOM      6  H   UNL A   1      32.758  33.726  31.120  1.00  0.00     0.163 HD
BRANCH   4   7
ATOM      7  C   UNL A   1      36.028  33.788  32.009  1.00  0.00     0.193 C 
ATOM      8  C   UNL A   1      36.691  33.754  30.634  1.00  0.00     0.044 C 
BRANCH   7   9
ATOM      9  N   UNL A   1      36.757  32.882  32.900  1.00  0.00    -0.260 N 
ATOM     10  C   UNL A   1      36.929  32.995  34.249  1.00  0.00     0.110 A 
ATOM     11  N   UNL A   1      37.439  31.853  32.378  1.00  0.00    -0.167 NA
ATOM     12  C   UNL A   1      37.570  31.840  34.633  1.00  0.00     0.056 A 
ATOM     13  C   UNL A   1      37.782  31.099  33.434  1.00  0.00     0.150 A 
BRANCH  13  14
ATOM     14  C   UNL A   1      38.203  29.687  33.345  1.00  0.00     0.274 C 
ATOM     15  O   UNL A   1      37.349  28.808  33.178  1.00  0.00    -0.267 OA
ATOM     16  N   UNL A   1      39.572  29.361  33.357  1.00  0.00    -0.326 N 
ATOM     17  C   UNL A   1      39.909  28.019  32.899  1.00  0.00     0.181 C 
ATOM     18  C   UNL A   1      40.539  30.033  34.230  1.00  0.00     0.181 C 
ATOM     19  C   UNL A   1      41.406  27.770  32.651  1.00  0.00     0.284 C 
ATOM     20  C   UNL A   1      42.015  29.712  33.931  1.00  0.00     0.284 C 
ATOM     21  N   UNL A   1      42.330  28.309  33.651  1.00  0.00    -0.328 N 
ATOM     22  H   UNL A   1      43.257  28.295  33.222  1.00  0.00     0.348 HD
BRANCH  21  23
ATOM     23  C   UNL A   1      42.627  27.461  34.806  1.00  0.00     0.299 C 
BRANCH  23  24
ATOM     24  C   UNL A   1      43.017  26.025  34.543  1.00  0.00     0.009 A 
ATOM     25  C   UNL A   1      42.405  24.973  35.245  1.00  0.00     0.010 A 
ATOM     26  C   UNL A   1      43.977  25.712  33.572  1.00  0.00     0.048 A 
ATOM     27  C   UNL A   1      42.684  23.642  34.924  1.00  0.00     0.004 A 
ATOM     28  C   UNL A   1      44.239  24.384  33.251  1.00  0.00     0.123 A 
ATOM     29  C   UNL A   1      43.592  23.348  33.909  1.00  0.00     0.039 A 
ATOM     30  F   UNL A   1      45.114  24.104  32.275  1.00  0.00    -0.207 F 
ENDBRANCH  23  24
ENDBRANCH  21  23
ENDBRANCH  13  14
ENDBRANCH   7   9
ENDBRANCH   4   7
ENDBRANCH   2   3
ENDBRANCH   1   2
BRANCH   1  31
ATOM     31  C   UNL A   1      34.183  34.173  27.742  1.00  0.00     0.023 C 
BRANCH  31  32
ATOM     32  C   UNL A   1      34.912  32.908  28.181  1.00  0.00     0.116 C 
BRANCH  32  33
ATOM     33  N   UNL A   1      34.121  31.705  27.997  1.00  0.00    -0.352 N 
ATOM     34  C   UNL A   1      34.526  30.396  27.933  1.00  0.00     0.251 C 
ATOM     35  H   UNL A   1      33.151  31.849  27.905  1.00  0.00     0.163 HD
ATOM     36  O   UNL A   1      33.699  29.529  27.655  1.00  0.00    -0.269 OA
BRANCH  34  37
ATOM     37  C   UNL A   1      35.941  30.028  28.163  1.00  0.00     0.039 A 
ATOM     38  C   UNL A   1      36.331  29.663  29.455  1.00  0.00     0.014 A 
ATOM     39  C   UNL A   1      36.890  30.076  27.137  1.00  0.00     0.014 A 
ATOM     40  C   UNL A   1      37.660  29.316  29.711  1.00  0.00     0.010 A 
ATOM     41  C   UNL A   1      38.200  29.666  27.378  1.00  0.00     0.010 A 
ATOM     42  C   UNL A   1      38.603  29.301  28.671  1.00  0.00    -0.014 A 
BRANCH  42  43
ATOM     43  C   UNL A   1      40.022  28.954  28.934  1.00  0.00     0.031 A 
ATOM     44  C   UNL A   1      40.939  29.967  29.566  1.00  0.00     0.074 A 
ATOM     45  C   UNL A   1      40.496  27.746  28.571  1.00  0.00     0.049 A 
ATOM     46  N   UNL A   1      42.211  29.864  29.854  1.00  0.00    -0.248 NA
ATOM     47  C   UNL A   1      40.355  31.278  29.892  1.00  0.00     0.031 C 
ATOM     48  C   UNL A   1      39.720  26.697  27.903  1.00  0.00     0.029 A 
ATOM     49  N   UNL A   1      41.745  27.197  28.710  1.00  0.00    -0.354 N 
ATOM     50  C   UNL A   1      42.584  31.101  30.369  1.00  0.00     0.074 A 
ATOM     51  C   UNL A   1      41.415  31.951  30.314  1.00  0.00     0.031 C 
ATOM     52  C   UNL A   1      40.505  25.623  27.716  1.00  0.00     0.029 A 
ATOM     53  C   UNL A   1      41.840  25.912  28.231  1.00  0.00     0.049 A 
ATOM     54  H   UNL A   1      42.502  27.678  29.115  1.00  0.00     0.167 HD
ATOM     55  C   UNL A   1      43.784  31.487  30.865  1.00  0.00     0.037 A 
ATOM     56  C   UNL A   1      42.884  25.061  28.219  1.00  0.00     0.037 A 
ATOM     57  C   UNL A   1      44.932  30.624  30.961  1.00  0.00     0.049 A 
ATOM     58  C   UNL A   1      44.190  25.492  28.827  1.00  0.00     0.074 A 
ATOM     59  C   UNL A   1      46.175  30.898  31.504  1.00  0.00     0.029 A 
ATOM     60  N   UNL A   1      44.972  29.312  30.513  1.00  0.00    -0.354 N 
ATOM     61  N   UNL A   1      44.509  26.646  29.365  1.00  0.00    -0.248 NA
ATOM     62  C   UNL A   1      45.274  24.500  28.844  1.00  0.00     0.031 C 
ATOM     63  C   UNL A   1      46.975  29.759  31.363  1.00  0.00     0.029 A 
ATOM     64  C   UNL A   1      46.219  28.764  30.763  1.00  0.00     0.049 A 
ATOM     65  H   UNL A   1      44.225  28.840  30.079  1.00  0.00     0.167 HD
ATOM     66  C   UNL A   1      45.815  26.505  29.818  1.00  0.00     0.074 A 
ATOM     67  C   UNL A   1      46.228  25.155  29.492  1.00  0.00     0.031 C 
ATOM     68  C   UNL A   1      46.603  27.411  30.451  1.00  0.00     0.037 A 
BRANCH  55  69
ATOM     69  C   UNL A   1      43.909  32.905  31.346  1.00  0.00     0.058 A 
ATOM     70  C   UNL A   1      44.168  33.964  30.461  1.00  0.00     0.135 A 
ATOM     71  C   UNL A   1      43.760  33.213  32.708  1.00  0.00     0.135 A 
ATOM     72  F   UNL A   1      44.337  33.722  29.151  1.00  0.00    -0.206 F 
ATOM     73  C   UNL A   1      44.313  35.271  30.912  1.00  0.00     0.059 A 
ATOM     74  C   UNL A   1      43.876  34.517  33.179  1.00  0.00     0.059 A 
ATOM     75  F   UNL A   1      43.510  32.239  33.599  1.00  0.00    -0.206 F 
ATOM     76  C   UNL A   1      44.172  35.538  32.276  1.00  0.00     0.060 A 
BRANCH  76  77
ATOM     77  S   UNL A   1      44.377  37.236  32.853  1.00  0.00     0.124 S 
ATOM     78  O   UNL A   1      45.771  37.228  33.284  1.00  0.00    -0.237 OA
ATOM     79  O   UNL A   1      44.092  38.014  31.651  1.00  0.00    -0.237 OA
ATOM     80  O   UNL A   1      43.388  37.352  33.919  1.00  0.00    -0.744 OA
ENDBRANCH  76  77
ENDBRANCH  55  69
BRANCH  56  81
ATOM     81  C   UNL A   1      42.718  23.692  27.666  1.00  0.00     0.058 A 
ATOM     82  C   UNL A   1      42.448  22.606  28.512  1.00  0.00     0.135 A 
ATOM     83  C   UNL A   1      42.812  23.443  26.289  1.00  0.00     0.135 A 
ATOM     84  F   UNL A   1      42.354  22.797  29.837  1.00  0.00    -0.206 F 
ATOM     85  C   UNL A   1      42.295  21.317  28.016  1.00  0.00     0.059 A 
ATOM     86  C   UNL A   1      42.641  22.165  25.766  1.00  0.00     0.059 A 
ATOM     87  F   UNL A   1      43.050  24.453  25.438  1.00  0.00    -0.206 F 
ATOM     88  C   UNL A   1      42.392  21.106  26.639  1.00  0.00     0.060 A 
BRANCH  88  89
ATOM     89  S   UNL A   1      42.141  19.437  25.998  1.00  0.00     0.124 S 
ATOM     90  O   UNL A   1      40.700  19.422  25.771  1.00  0.00    -0.237 OA
ATOM     91  O   UNL A   1      42.976  19.437  24.800  1.00  0.00    -0.237 OA
ATOM     92  O   UNL A   1      42.620  18.586  27.084  1.00  0.00    -0.744 OA
ENDBRANCH  88  89
ENDBRANCH  56  81
BRANCH  68  93
ATOM     93  C   UNL A   1      47.966  26.954  30.882  1.00  0.00     0.058 A 
ATOM     94  C   UNL A   1      49.101  27.158  30.083  1.00  0.00     0.135 A 
ATOM     95  C   UNL A   1      48.141  26.328  32.127  1.00  0.00     0.135 A 
ATOM     96  F   UNL A   1      48.986  27.747  28.883  1.00  0.00    -0.206 F 
ATOM     97  C   UNL A   1      50.362  26.731  30.491  1.00  0.00     0.059 A 
ATOM     98  C   UNL A   1      49.393  25.913  32.564  1.00  0.00     0.059 A 
ATOM     99  F   UNL A   1      47.088  26.119  32.932  1.00  0.00    -0.206 F 
ATOM    100  C   UNL A   1      50.496  26.105  31.732  1.00  0.00     0.060 A 
BRANCH 100 101
ATOM    101  S   UNL A   1      52.136  25.567  32.263  1.00  0.00     0.124 S 
ATOM    102  O   UNL A   1      52.972  26.061  31.175  1.00  0.00    -0.237 OA
ATOM    103  O   UNL A   1      52.293  26.250  33.544  1.00  0.00    -0.237 OA
ATOM    104  O   UNL A   1      52.004  24.115  32.348  1.00  0.00    -0.744 OA
ENDBRANCH 100 101
ENDBRANCH  68  93
ENDBRANCH  42  43
ENDBRANCH  34  37
ENDBRANCH  32  33
ENDBRANCH  31  32
ENDBRANCH   1  31
TORSDOF 18
ENDMDL
