MODEL 1
REMARK VINA RESULT:     -11.3      0.000      0.000
REMARK SMILES CC[N@@H+](C)Cc1cc2c(cc1Cl)C=C(C(=O)NCCCCNC(=O)c1ccc(-c3c4nc(c(-c5c(F)cc(S(=O)(=O)[O-])cc5F)c5ccc([nH]5)c(-c5c(F)cc(S(=O)(=O)[O-])cc5F)c5nc(c(-c6c(F)cc(S(=O)(=O)[O-])cc6F)c6ccc3[nH]6)C=C5)C=C4)cc1)[C@@H](C(F)(F)F)O2
REMARK SMILES IDX 19 1 18 2 17 3 15 4 16 5 14 7 6 8 7 9 11 10 8 11 10 12 12 13
REMARK SMILES IDX 9 14 96 15 13 16 91 17 5 18 3 19 4 20 2 22 1 23 92 24 93 25
REMARK SMILES IDX 94 26 95 27 20 28 21 29 22 30 23 31 24 33 25 34 26 35 90 36
REMARK SMILES IDX 27 37 89 38 28 39 29 40 30 41 83 42 31 43 88 44 82 45 84 46
REMARK SMILES IDX 32 47 87 48 81 49 80 50 33 52 67 53 46 54 66 55 47 56 50 57
REMARK SMILES IDX 65 58 85 59 48 60 49 61 64 63 86 64 51 65 34 66 35 67 44 68
REMARK SMILES IDX 36 69 37 70 43 71 45 72 38 73 39 74 40 75 41 76 42 77 68 78
REMARK SMILES IDX 69 79 78 80 70 81 71 82 77 83 79 84 72 85 73 86 74 87 75 88
REMARK SMILES IDX 76 89 52 90 53 91 62 92 54 93 55 94 61 95 63 96 56 97 57 98
REMARK SMILES IDX 58 99 59 100 60 101
REMARK H PARENT 17 6 3 21 22 32 84 51 50 62
REMARK Flexibility Score: inf
ROOT
ATOM      1  C   UNL A   1      37.017  22.014  24.445  1.00  0.00     0.023 C 
ENDROOT
BRANCH   1   2
ATOM      2  C   UNL A   1      36.356  20.999  25.373  1.00  0.00     0.116 C 
BRANCH   2   3
ATOM      3  N   UNL A   1      35.129  20.457  24.818  1.00  0.00    -0.352 N 
ATOM      4  C   UNL A   1      33.858  20.888  24.649  1.00  0.00     0.251 C 
ATOM      5  O   UNL A   1      33.085  20.083  24.120  1.00  0.00    -0.270 OA
ATOM      6  H   UNL A   1      35.254  19.542  24.478  1.00  0.00     0.163 HD
BRANCH   4   7
ATOM      7  C   UNL A   1      33.350  22.234  25.049  1.00  0.00     0.067 C 
ATOM      8  C   UNL A   1      32.318  27.227  25.108  1.00  0.00     0.029 A 
ATOM      9  C   UNL A   1      32.024  26.109  25.933  1.00  0.00     0.058 A 
ATOM     10  C   UNL A   1      33.045  26.958  23.937  1.00  0.00     0.050 A 
ATOM     11  C   UNL A   1      32.441  24.814  25.629  1.00  0.00     0.128 A 
ATOM     12  C   UNL A   1      33.478  25.646  23.645  1.00  0.00     0.033 A 
ATOM     13  Cl  UNL A   1      33.469  28.107  22.721  1.00  0.00    -0.084 Cl
ATOM     14  C   UNL A   1      33.178  24.575  24.484  1.00  0.00     0.019 A 
ATOM     15  O   UNL A   1      32.040  23.831  26.481  1.00  0.00    -0.475 OA
ATOM     16  C   UNL A   1      33.587  23.217  24.162  1.00  0.00     0.025 C 
ATOM     17  C   UNL A   1      32.685  22.530  26.367  1.00  0.00     0.314 C 
BRANCH   8  18
ATOM     18  C   UNL A   1      31.723  28.519  25.653  1.00  0.00     0.300 C 
BRANCH  18  19
ATOM     19  N   UNL A   1      32.463  29.524  26.401  1.00  0.00    -0.334 N 
ATOM     20  C   UNL A   1      31.779  30.794  26.554  1.00  0.00     0.333 C 
ATOM     21  H   UNL A   1      32.432  29.137  27.344  1.00  0.00     0.348 HD
BRANCH  19  22
ATOM     22  C   UNL A   1      33.911  29.554  26.271  1.00  0.00     0.258 C 
ATOM     23  C   UNL A   1      34.613  29.343  27.610  1.00  0.00     0.071 C 
ENDBRANCH  19  22
ENDBRANCH  18  19
ENDBRANCH   8  18
BRANCH  17  24
ATOM     24  C   UNL A   1      33.627  22.364  27.572  1.00  0.00     0.429 C 
ATOM     25  F   UNL A   1      34.757  23.092  27.388  1.00  0.00    -0.167 F 
ATOM     26  F   UNL A   1      33.081  22.793  28.732  1.00  0.00    -0.167 F 
ATOM     27  F   UNL A   1      34.001  21.077  27.758  1.00  0.00    -0.167 F 
ENDBRANCH  17  24
ENDBRANCH   4   7
ENDBRANCH   2   3
ENDBRANCH   1   2
BRANCH   1  28
ATOM     28  C   UNL A   1      36.973  23.459  24.949  1.00  0.00     0.023 C 
BRANCH  28  29
ATOM     29  C   UNL A   1      37.891  23.776  26.126  1.00  0.00     0.116 C 
BRANCH  29  30
ATOM     30  N   UNL A   1      39.264  23.317  25.959  1.00  0.00    -0.352 N 
ATOM     31  C   UNL A   1      40.416  23.914  26.438  1.00  0.00     0.251 C 
ATOM     32  H   UNL A   1      39.386  22.486  25.445  1.00  0.00     0.163 HD
ATOM     33  O   UNL A   1      41.512  23.462  26.186  1.00  0.00    -0.269 OA
BRANCH  31  34
ATOM     34  C   UNL A   1      40.262  25.163  27.218  1.00  0.00     0.039 A 
ATOM     35  C   UNL A   1      40.982  26.302  26.857  1.00  0.00     0.014 A 
ATOM     36  C   UNL A   1      39.499  25.135  28.387  1.00  0.00     0.014 A 
ATOM     37  C   UNL A   1      41.081  27.352  27.759  1.00  0.00     0.010 A 
ATOM     38  C   UNL A   1      39.543  26.226  29.258  1.00  0.00     0.010 A 
ATOM     39  C   UNL A   1      40.384  27.315  28.979  1.00  0.00    -0.014 A 
BRANCH  39  40
ATOM     40  C   UNL A   1      40.590  28.411  29.959  1.00  0.00     0.031 A 
ATOM     41  C   UNL A   1      39.589  29.529  30.084  1.00  0.00     0.074 A 
ATOM     42  C   UNL A   1      41.639  28.344  30.801  1.00  0.00     0.049 A 
ATOM     43  N   UNL A   1      39.578  30.534  30.921  1.00  0.00    -0.248 NA
ATOM     44  C   UNL A   1      38.453  29.523  29.147  1.00  0.00     0.031 C 
ATOM     45  C   UNL A   1      42.663  27.297  30.783  1.00  0.00     0.029 A 
ATOM     46  N   UNL A   1      41.995  29.142  31.857  1.00  0.00    -0.354 N 
ATOM     47  C   UNL A   1      38.455  31.288  30.602  1.00  0.00     0.074 A 
ATOM     48  C   UNL A   1      37.814  30.637  29.481  1.00  0.00     0.031 C 
ATOM     49  C   UNL A   1      43.490  27.477  31.823  1.00  0.00     0.029 A 
ATOM     50  C   UNL A   1      43.089  28.679  32.548  1.00  0.00     0.049 A 
ATOM     51  H   UNL A   1      41.513  29.966  32.098  1.00  0.00     0.167 HD
ATOM     52  C   UNL A   1      37.995  32.415  31.198  1.00  0.00     0.037 A 
ATOM     53  C   UNL A   1      43.701  29.165  33.644  1.00  0.00     0.037 A 
ATOM     54  C   UNL A   1      38.617  33.040  32.335  1.00  0.00     0.049 A 
ATOM     55  C   UNL A   1      43.178  30.419  34.278  1.00  0.00     0.074 A 
ATOM     56  C   UNL A   1      38.220  34.180  33.014  1.00  0.00     0.029 A 
ATOM     57  N   UNL A   1      39.759  32.575  32.968  1.00  0.00    -0.354 N 
ATOM     58  N   UNL A   1      42.127  31.130  33.947  1.00  0.00    -0.248 NA
ATOM     59  C   UNL A   1      43.930  30.948  35.424  1.00  0.00     0.031 C 
ATOM     60  C   UNL A   1      39.139  34.417  34.043  1.00  0.00     0.029 A 
ATOM     61  C   UNL A   1      40.089  33.410  34.023  1.00  0.00     0.049 A 
ATOM     62  H   UNL A   1      40.262  31.770  32.706  1.00  0.00     0.167 HD
ATOM     63  C   UNL A   1      42.094  32.194  34.839  1.00  0.00     0.074 A 
ATOM     64  C   UNL A   1      43.217  32.021  35.738  1.00  0.00     0.031 C 
ATOM     65  C   UNL A   1      41.218  33.225  34.900  1.00  0.00     0.037 A 
BRANCH  52  66
ATOM     66  C   UNL A   1      36.759  33.054  30.629  1.00  0.00     0.058 A 
ATOM     67  C   UNL A   1      35.516  32.945  31.268  1.00  0.00     0.135 A 
ATOM     68  C   UNL A   1      36.833  33.830  29.460  1.00  0.00     0.135 A 
ATOM     69  F   UNL A   1      35.388  32.201  32.378  1.00  0.00    -0.206 F 
ATOM     70  C   UNL A   1      34.382  33.575  30.762  1.00  0.00     0.059 A 
ATOM     71  C   UNL A   1      35.715  34.481  28.946  1.00  0.00     0.059 A 
ATOM     72  F   UNL A   1      37.999  33.962  28.810  1.00  0.00    -0.206 F 
ATOM     73  C   UNL A   1      34.492  34.340  29.599  1.00  0.00     0.060 A 
BRANCH  73  74
ATOM     74  S   UNL A   1      33.014  35.157  28.959  1.00  0.00     0.124 S 
ATOM     75  O   UNL A   1      32.528  34.167  28.001  1.00  0.00    -0.237 OA
ATOM     76  O   UNL A   1      32.204  35.325  30.161  1.00  0.00    -0.237 OA
ATOM     77  O   UNL A   1      33.533  36.390  28.377  1.00  0.00    -0.744 OA
ENDBRANCH  73  74
ENDBRANCH  52  66
BRANCH  53  78
ATOM     78  C   UNL A   1      44.871  28.446  34.203  1.00  0.00     0.058 A 
ATOM     79  C   UNL A   1      44.704  27.448  35.173  1.00  0.00     0.135 A 
ATOM     80  C   UNL A   1      46.170  28.697  33.735  1.00  0.00     0.135 A 
ATOM     81  F   UNL A   1      43.480  27.177  35.652  1.00  0.00    -0.206 F 
ATOM     82  C   UNL A   1      45.783  26.715  35.654  1.00  0.00     0.059 A 
ATOM     83  C   UNL A   1      47.262  27.965  34.185  1.00  0.00     0.059 A 
ATOM     84  F   UNL A   1      46.376  29.633  32.795  1.00  0.00    -0.206 F 
ATOM     85  C   UNL A   1      47.058  26.976  35.149  1.00  0.00     0.060 A 
BRANCH  85  86
ATOM     86  S   UNL A   1      48.442  25.962  35.710  1.00  0.00     0.124 S 
ATOM     87  O   UNL A   1      49.539  26.923  35.684  1.00  0.00    -0.237 OA
ATOM     88  O   UNL A   1      47.997  25.536  37.034  1.00  0.00    -0.237 OA
ATOM     89  O   UNL A   1      48.506  24.901  34.710  1.00  0.00    -0.744 OA
ENDBRANCH  85  86
ENDBRANCH  53  78
BRANCH  65  90
ATOM     90  C   UNL A   1      41.442  34.255  35.967  1.00  0.00     0.058 A 
ATOM     91  C   UNL A   1      40.891  34.101  37.248  1.00  0.00     0.135 A 
ATOM     92  C   UNL A   1      42.266  35.365  35.730  1.00  0.00     0.135 A 
ATOM     93  F   UNL A   1      40.091  33.057  37.518  1.00  0.00    -0.206 F 
ATOM     94  C   UNL A   1      41.145  35.020  38.259  1.00  0.00     0.059 A 
ATOM     95  C   UNL A   1      42.546  36.289  36.732  1.00  0.00     0.059 A 
ATOM     96  F   UNL A   1      42.820  35.550  34.522  1.00  0.00    -0.206 F 
ATOM     97  C   UNL A   1      41.976  36.110  37.992  1.00  0.00     0.060 A 
BRANCH  97  98
ATOM     98  S   UNL A   1      42.337  37.270  39.329  1.00  0.00     0.124 S 
ATOM     99  O   UNL A   1      42.841  36.374  40.366  1.00  0.00    -0.237 OA
ATOM    100  O   UNL A   1      43.325  38.154  38.719  1.00  0.00    -0.237 OA
ATOM    101  O   UNL A   1      41.040  37.883  39.604  1.00  0.00    -0.744 OA
ENDBRANCH  97  98
ENDBRANCH  65  90
ENDBRANCH  39  40
ENDBRANCH  31  34
ENDBRANCH  29  30
ENDBRANCH  28  29
ENDBRANCH   1  28
TORSDOF 18
ENDMDL
MODEL 2
REMARK VINA RESULT:     -10.8      5.713     10.053
REMARK SMILES CC[N@@H+](C)Cc1cc2c(cc1Cl)C=C(C(=O)NCCCCNC(=O)c1ccc(-c3c4nc(c(-c5c(F)cc(S(=O)(=O)[O-])cc5F)c5ccc([nH]5)c(-c5c(F)cc(S(=O)(=O)[O-])cc5F)c5nc(c(-c6c(F)cc(S(=O)(=O)[O-])cc6F)c6ccc3[nH]6)C=C5)C=C4)cc1)[C@@H](C(F)(F)F)O2
REMARK SMILES IDX 19 1 18 2 17 3 15 4 16 5 14 7 6 8 7 9 11 10 8 11 10 12 12 13
REMARK SMILES IDX 9 14 96 15 13 16 91 17 5 18 3 19 4 20 2 22 1 23 92 24 93 25
REMARK SMILES IDX 94 26 95 27 20 28 21 29 22 30 23 31 24 33 25 34 26 35 90 36
REMARK SMILES IDX 27 37 89 38 28 39 29 40 30 41 83 42 31 43 88 44 82 45 84 46
REMARK SMILES IDX 32 47 87 48 81 49 80 50 33 52 67 53 46 54 66 55 47 56 50 57
REMARK SMILES IDX 65 58 85 59 48 60 49 61 64 63 86 64 51 65 34 66 35 67 44 68
REMARK SMILES IDX 36 69 37 70 43 71 45 72 38 73 39 74 40 75 41 76 42 77 68 78
REMARK SMILES IDX 69 79 78 80 70 81 71 82 77 83 79 84 72 85 73 86 74 87 75 88
REMARK SMILES IDX 76 89 52 90 53 91 62 92 54 93 55 94 61 95 63 96 56 97 57 98
REMARK SMILES IDX 58 99 59 100 60 101
REMARK H PARENT 17 6 3 21 22 32 84 51 50 62
REMARK Flexibility Score: inf
ROOT
ATOM      1  C   UNL A   1      36.869  21.954  25.682  1.00  0.00     0.023 C 
ENDROOT
BRANCH   1   2
ATOM      2  C   UNL A   1      35.781  22.221  24.645  1.00  0.00     0.116 C 
BRANCH   2   3
ATOM      3  N   UNL A   1      34.629  21.356  24.814  1.00  0.00    -0.352 N 
ATOM      4  C   UNL A   1      33.286  21.486  24.725  1.00  0.00     0.251 C 
ATOM      5  O   UNL A   1      32.631  20.467  24.964  1.00  0.00    -0.270 OA
ATOM      6  H   UNL A   1      34.893  20.438  25.055  1.00  0.00     0.163 HD
BRANCH   4   7
ATOM      7  C   UNL A   1      32.570  22.747  24.368  1.00  0.00     0.067 C 
ATOM      8  C   UNL A   1      31.563  27.500  22.821  1.00  0.00     0.029 A 
ATOM      9  C   UNL A   1      30.807  26.388  23.278  1.00  0.00     0.058 A 
ATOM     10  C   UNL A   1      32.949  27.302  22.704  1.00  0.00     0.050 A 
ATOM     11  C   UNL A   1      31.387  25.167  23.617  1.00  0.00     0.128 A 
ATOM     12  C   UNL A   1      33.530  26.066  23.065  1.00  0.00     0.033 A 
ATOM     13  Cl  UNL A   1      34.090  28.447  22.103  1.00  0.00    -0.084 Cl
ATOM     14  C   UNL A   1      32.756  24.999  23.519  1.00  0.00     0.019 A 
ATOM     15  O   UNL A   1      30.535  24.172  23.987  1.00  0.00    -0.475 OA
ATOM     16  C   UNL A   1      33.350  23.714  23.850  1.00  0.00     0.025 C 
ATOM     17  C   UNL A   1      31.106  22.991  24.619  1.00  0.00     0.314 C 
BRANCH   8  18
ATOM     18  C   UNL A   1      30.684  28.701  22.494  1.00  0.00     0.300 C 
BRANCH  18  19
ATOM     19  N   UNL A   1      30.468  29.838  23.377  1.00  0.00    -0.334 N 
ATOM     20  C   UNL A   1      31.081  29.717  24.685  1.00  0.00     0.333 C 
ATOM     21  H   UNL A   1      31.038  30.554  22.926  1.00  0.00     0.348 HD
BRANCH  19  22
ATOM     22  C   UNL A   1      29.200  30.544  23.293  1.00  0.00     0.258 C 
ATOM     23  C   UNL A   1      28.050  29.617  22.907  1.00  0.00     0.071 C 
ENDBRANCH  19  22
ENDBRANCH  18  19
ENDBRANCH   8  18
BRANCH  17  24
ATOM     24  C   UNL A   1      30.747  23.036  26.114  1.00  0.00     0.429 C 
ATOM     25  F   UNL A   1      30.085  24.185  26.402  1.00  0.00    -0.167 F 
ATOM     26  F   UNL A   1      29.936  22.024  26.494  1.00  0.00    -0.167 F 
ATOM     27  F   UNL A   1      31.841  22.992  26.907  1.00  0.00    -0.167 F 
ENDBRANCH  17  24
ENDBRANCH   4   7
ENDBRANCH   2   3
ENDBRANCH   1   2
BRANCH   1  28
ATOM     28  C   UNL A   1      38.162  21.367  25.111  1.00  0.00     0.023 C 
BRANCH  28  29
ATOM     29  C   UNL A   1      39.288  21.149  26.118  1.00  0.00     0.116 C 
BRANCH  29  30
ATOM     30  N   UNL A   1      39.974  19.870  25.987  1.00  0.00    -0.352 N 
ATOM     31  C   UNL A   1      41.331  19.626  26.106  1.00  0.00     0.251 C 
ATOM     32  H   UNL A   1      39.407  19.091  25.789  1.00  0.00     0.163 HD
ATOM     33  O   UNL A   1      41.791  18.520  25.920  1.00  0.00    -0.269 OA
BRANCH  31  34
ATOM     34  C   UNL A   1      42.207  20.781  26.406  1.00  0.00     0.039 A 
ATOM     35  C   UNL A   1      42.445  21.147  27.730  1.00  0.00     0.014 A 
ATOM     36  C   UNL A   1      42.668  21.568  25.348  1.00  0.00     0.014 A 
ATOM     37  C   UNL A   1      42.991  22.395  27.999  1.00  0.00     0.010 A 
ATOM     38  C   UNL A   1      43.285  22.790  25.625  1.00  0.00     0.010 A 
ATOM     39  C   UNL A   1      43.393  23.240  26.950  1.00  0.00    -0.014 A 
BRANCH  39  40
ATOM     40  C   UNL A   1      43.883  24.604  27.272  1.00  0.00     0.031 A 
ATOM     41  C   UNL A   1      45.306  24.999  26.976  1.00  0.00     0.074 A 
ATOM     42  C   UNL A   1      43.012  25.513  27.748  1.00  0.00     0.049 A 
ATOM     43  N   UNL A   1      45.887  26.160  27.137  1.00  0.00    -0.248 NA
ATOM     44  C   UNL A   1      46.195  23.959  26.431  1.00  0.00     0.031 C 
ATOM     45  C   UNL A   1      41.605  25.247  28.056  1.00  0.00     0.029 A 
ATOM     46  N   UNL A   1      43.165  26.849  28.015  1.00  0.00    -0.354 N 
ATOM     47  C   UNL A   1      47.207  25.988  26.736  1.00  0.00     0.074 A 
ATOM     48  C   UNL A   1      47.350  24.604  26.340  1.00  0.00     0.031 C 
ATOM     49  C   UNL A   1      41.007  26.396  28.402  1.00  0.00     0.029 A 
ATOM     50  C   UNL A   1      41.998  27.468  28.393  1.00  0.00     0.049 A 
ATOM     51  H   UNL A   1      44.027  27.319  27.943  1.00  0.00     0.167 HD
ATOM     52  C   UNL A   1      48.204  26.903  26.693  1.00  0.00     0.037 A 
ATOM     53  C   UNL A   1      41.751  28.757  28.696  1.00  0.00     0.037 A 
ATOM     54  C   UNL A   1      48.049  28.288  27.056  1.00  0.00     0.049 A 
ATOM     55  C   UNL A   1      42.875  29.748  28.650  1.00  0.00     0.074 A 
ATOM     56  C   UNL A   1      48.999  29.294  27.038  1.00  0.00     0.029 A 
ATOM     57  N   UNL A   1      46.865  28.862  27.493  1.00  0.00    -0.354 N 
ATOM     58  N   UNL A   1      44.121  29.560  28.291  1.00  0.00    -0.248 NA
ATOM     59  C   UNL A   1      42.565  31.123  29.066  1.00  0.00     0.031 C 
ATOM     60  C   UNL A   1      48.394  30.473  27.488  1.00  0.00     0.029 A 
ATOM     61  C   UNL A   1      47.063  30.207  27.758  1.00  0.00     0.049 A 
ATOM     62  H   UNL A   1      46.011  28.385  27.599  1.00  0.00     0.167 HD
ATOM     63  C   UNL A   1      44.749  30.790  28.442  1.00  0.00     0.074 A 
ATOM     64  C   UNL A   1      43.738  31.720  28.904  1.00  0.00     0.031 C 
ATOM     65  C   UNL A   1      46.046  31.115  28.227  1.00  0.00     0.037 A 
BRANCH  52  66
ATOM     66  C   UNL A   1      49.562  26.440  26.243  1.00  0.00     0.058 A 
ATOM     67  C   UNL A   1      50.038  26.709  24.951  1.00  0.00     0.135 A 
ATOM     68  C   UNL A   1      50.416  25.768  27.133  1.00  0.00     0.135 A 
ATOM     69  F   UNL A   1      49.255  27.332  24.058  1.00  0.00    -0.206 F 
ATOM     70  C   UNL A   1      51.313  26.316  24.552  1.00  0.00     0.059 A 
ATOM     71  C   UNL A   1      51.700  25.382  26.760  1.00  0.00     0.059 A 
ATOM     72  F   UNL A   1      50.006  25.485  28.379  1.00  0.00    -0.206 F 
ATOM     73  C   UNL A   1      52.136  25.652  25.463  1.00  0.00     0.060 A 
BRANCH  73  74
ATOM     74  S   UNL A   1      53.789  25.157  24.933  1.00  0.00     0.124 S 
ATOM     75  O   UNL A   1      53.664  23.702  24.914  1.00  0.00    -0.237 OA
ATOM     76  O   UNL A   1      53.905  25.799  23.627  1.00  0.00    -0.237 OA
ATOM     77  O   UNL A   1      54.657  25.698  25.974  1.00  0.00    -0.744 OA
ENDBRANCH  73  74
ENDBRANCH  52  66
BRANCH  53  78
ATOM     78  C   UNL A   1      40.372  29.166  29.060  1.00  0.00     0.058 A 
ATOM     79  C   UNL A   1      40.003  29.332  30.402  1.00  0.00     0.135 A 
ATOM     80  C   UNL A   1      39.419  29.461  28.074  1.00  0.00     0.135 A 
ATOM     81  F   UNL A   1      40.883  29.058  31.377  1.00  0.00    -0.206 F 
ATOM     82  C   UNL A   1      38.737  29.785  30.756  1.00  0.00     0.059 A 
ATOM     83  C   UNL A   1      38.153  29.935  28.401  1.00  0.00     0.059 A 
ATOM     84  F   UNL A   1      39.732  29.332  26.775  1.00  0.00    -0.206 F 
ATOM     85  C   UNL A   1      37.821  30.091  29.748  1.00  0.00     0.060 A 
BRANCH  85  86
ATOM     86  S   UNL A   1      36.210  30.764  30.209  1.00  0.00     0.124 S 
ATOM     87  O   UNL A   1      35.385  30.349  29.080  1.00  0.00    -0.237 OA
ATOM     88  O   UNL A   1      35.944  30.089  31.477  1.00  0.00    -0.237 OA
ATOM     89  O   UNL A   1      36.466  32.197  30.315  1.00  0.00    -0.744 OA
ENDBRANCH  85  86
ENDBRANCH  53  78
BRANCH  65  90
ATOM     90  C   UNL A   1      46.453  32.532  28.498  1.00  0.00     0.058 A 
ATOM     91  C   UNL A   1      46.969  32.910  29.746  1.00  0.00     0.135 A 
ATOM     92  C   UNL A   1      46.390  33.502  27.486  1.00  0.00     0.135 A 
ATOM     93  F   UNL A   1      47.041  32.018  30.746  1.00  0.00    -0.206 F 
ATOM     94  C   UNL A   1      47.405  34.209  29.985  1.00  0.00     0.059 A 
ATOM     95  C   UNL A   1      46.835  34.803  27.698  1.00  0.00     0.059 A 
ATOM     96  F   UNL A   1      45.910  33.184  26.274  1.00  0.00    -0.206 F 
ATOM     97  C   UNL A   1      47.336  35.147  28.954  1.00  0.00     0.060 A 
BRANCH  97  98
ATOM     98  S   UNL A   1      47.951  36.817  29.262  1.00  0.00     0.124 S 
ATOM     99  O   UNL A   1      49.383  36.579  29.411  1.00  0.00    -0.237 OA
ATOM    100  O   UNL A   1      47.549  37.529  28.053  1.00  0.00    -0.237 OA
ATOM    101  O   UNL A   1      47.250  37.216  30.479  1.00  0.00    -0.744 OA
ENDBRANCH  97  98
ENDBRANCH  65  90
ENDBRANCH  39  40
ENDBRANCH  31  34
ENDBRANCH  29  30
ENDBRANCH  28  29
ENDBRANCH   1  28
TORSDOF 18
ENDMDL
MODEL 3
REMARK VINA RESULT:     -10.3      4.991     11.566
REMARK SMILES CC[N@@H+](C)Cc1cc2c(cc1Cl)C=C(C(=O)NCCCCNC(=O)c1ccc(-c3c4nc(c(-c5c(F)cc(S(=O)(=O)[O-])cc5F)c5ccc([nH]5)c(-c5c(F)cc(S(=O)(=O)[O-])cc5F)c5nc(c(-c6c(F)cc(S(=O)(=O)[O-])cc6F)c6ccc3[nH]6)C=C5)C=C4)cc1)[C@@H](C(F)(F)F)O2
REMARK SMILES IDX 19 1 18 2 17 3 15 4 16 5 14 7 6 8 7 9 11 10 8 11 10 12 12 13
REMARK SMILES IDX 9 14 96 15 13 16 91 17 5 18 3 19 4 20 2 22 1 23 92 24 93 25
REMARK SMILES IDX 94 26 95 27 20 28 21 29 22 30 23 31 24 33 25 34 26 35 90 36
REMARK SMILES IDX 27 37 89 38 28 39 29 40 30 41 83 42 31 43 88 44 82 45 84 46
REMARK SMILES IDX 32 47 87 48 81 49 80 50 33 52 67 53 46 54 66 55 47 56 50 57
REMARK SMILES IDX 65 58 85 59 48 60 49 61 64 63 86 64 51 65 34 66 35 67 44 68
REMARK SMILES IDX 36 69 37 70 43 71 45 72 38 73 39 74 40 75 41 76 42 77 68 78
REMARK SMILES IDX 69 79 78 80 70 81 71 82 77 83 79 84 72 85 73 86 74 87 75 88
REMARK SMILES IDX 76 89 52 90 53 91 62 92 54 93 55 94 61 95 63 96 56 97 57 98
REMARK SMILES IDX 58 99 59 100 60 101
REMARK H PARENT 17 6 3 21 22 32 84 51 50 62
REMARK Flexibility Score: inf
ROOT
ATOM      1  C   UNL A   1      34.505  34.458  31.246  1.00  0.00     0.023 C 
ENDROOT
BRANCH   1   2
ATOM      2  C   UNL A   1      35.381  34.995  32.375  1.00  0.00     0.116 C 
BRANCH   2   3
ATOM      3  N   UNL A   1      36.797  34.876  32.083  1.00  0.00    -0.352 N 
ATOM      4  C   UNL A   1      37.896  34.428  32.733  1.00  0.00     0.251 C 
ATOM      5  O   UNL A   1      38.959  34.512  32.110  1.00  0.00    -0.270 OA
ATOM      6  H   UNL A   1      37.014  35.204  31.181  1.00  0.00     0.163 HD
BRANCH   4   7
ATOM      7  C   UNL A   1      37.901  33.857  34.112  1.00  0.00     0.067 C 
ATOM      8  C   UNL A   1      38.738  33.179  39.096  1.00  0.00     0.029 A 
ATOM      9  C   UNL A   1      38.047  32.484  38.068  1.00  0.00     0.058 A 
ATOM     10  C   UNL A   1      39.339  34.394  38.727  1.00  0.00     0.050 A 
ATOM     11  C   UNL A   1      37.974  32.951  36.756  1.00  0.00     0.128 A 
ATOM     12  C   UNL A   1      39.274  34.851  37.392  1.00  0.00     0.033 A 
ATOM     13  Cl  UNL A   1      40.168  35.476  39.784  1.00  0.00    -0.084 Cl
ATOM     14  C   UNL A   1      38.594  34.136  36.408  1.00  0.00     0.019 A 
ATOM     15  O   UNL A   1      37.232  32.210  35.889  1.00  0.00    -0.475 OA
ATOM     16  C   UNL A   1      38.491  34.628  35.043  1.00  0.00     0.025 C 
ATOM     17  C   UNL A   1      37.366  32.495  34.467  1.00  0.00     0.314 C 
BRANCH   8  18
ATOM     18  C   UNL A   1      38.640  32.469  40.440  1.00  0.00     0.300 C 
BRANCH  18  19
ATOM     19  N   UNL A   1      37.653  32.764  41.468  1.00  0.00    -0.334 N 
ATOM     20  C   UNL A   1      37.901  32.132  42.749  1.00  0.00     0.333 C 
ATOM     21  H   UNL A   1      37.850  33.746  41.660  1.00  0.00     0.348 HD
BRANCH  19  22
ATOM     22  C   UNL A   1      36.267  32.938  41.063  1.00  0.00     0.258 C 
ATOM     23  C   UNL A   1      35.569  31.604  40.815  1.00  0.00     0.071 C 
ENDBRANCH  19  22
ENDBRANCH  18  19
ENDBRANCH   8  18
BRANCH  17  24
ATOM     24  C   UNL A   1      38.164  31.345  33.829  1.00  0.00     0.429 C 
ATOM     25  F   UNL A   1      39.483  31.663  33.776  1.00  0.00    -0.167 F 
ATOM     26  F   UNL A   1      38.077  30.191  34.526  1.00  0.00    -0.167 F 
ATOM     27  F   UNL A   1      37.762  31.080  32.565  1.00  0.00    -0.167 F 
ENDBRANCH  17  24
ENDBRANCH   4   7
ENDBRANCH   2   3
ENDBRANCH   1   2
BRANCH   1  28
ATOM     28  C   UNL A   1      35.280  33.858  30.070  1.00  0.00     0.023 C 
BRANCH  28  29
ATOM     29  C   UNL A   1      35.315  32.334  30.012  1.00  0.00     0.116 C 
BRANCH  29  30
ATOM     30  N   UNL A   1      34.373  31.745  29.069  1.00  0.00    -0.352 N 
ATOM     31  C   UNL A   1      34.575  30.646  28.253  1.00  0.00     0.251 C 
ATOM     32  H   UNL A   1      33.493  32.181  29.003  1.00  0.00     0.163 HD
ATOM     33  O   UNL A   1      33.728  30.282  27.466  1.00  0.00    -0.269 OA
BRANCH  31  34
ATOM     34  C   UNL A   1      35.889  29.970  28.334  1.00  0.00     0.039 A 
ATOM     35  C   UNL A   1      36.266  29.321  29.510  1.00  0.00     0.014 A 
ATOM     36  C   UNL A   1      36.785  30.113  27.273  1.00  0.00     0.014 A 
ATOM     37  C   UNL A   1      37.597  28.973  29.692  1.00  0.00     0.010 A 
ATOM     38  C   UNL A   1      38.107  29.693  27.433  1.00  0.00     0.010 A 
ATOM     39  C   UNL A   1      38.537  29.179  28.666  1.00  0.00    -0.014 A 
BRANCH  39  40
ATOM     40  C   UNL A   1      39.967  28.883  28.932  1.00  0.00     0.031 A 
ATOM     41  C   UNL A   1      40.809  29.829  29.749  1.00  0.00     0.074 A 
ATOM     42  C   UNL A   1      40.480  27.712  28.509  1.00  0.00     0.049 A 
ATOM     43  N   UNL A   1      42.054  29.704  30.126  1.00  0.00    -0.248 NA
ATOM     44  C   UNL A   1      40.173  31.079  30.199  1.00  0.00     0.031 C 
ATOM     45  C   UNL A   1      39.753  26.712  27.724  1.00  0.00     0.029 A 
ATOM     46  N   UNL A   1      41.711  27.146  28.714  1.00  0.00    -0.354 N 
ATOM     47  C   UNL A   1      42.359  30.859  30.837  1.00  0.00     0.074 A 
ATOM     48  C   UNL A   1      41.172  31.686  30.824  1.00  0.00     0.031 C 
ATOM     49  C   UNL A   1      40.526  25.627  27.575  1.00  0.00     0.029 A 
ATOM     50  C   UNL A   1      41.819  25.874  28.204  1.00  0.00     0.049 A 
ATOM     51  H   UNL A   1      42.446  27.605  29.181  1.00  0.00     0.167 HD
ATOM     52  C   UNL A   1      43.519  31.193  31.452  1.00  0.00     0.037 A 
ATOM     53  C   UNL A   1      42.844  25.002  28.240  1.00  0.00     0.037 A 
ATOM     54  C   UNL A   1      44.686  30.352  31.490  1.00  0.00     0.049 A 
ATOM     55  C   UNL A   1      44.121  25.401  28.919  1.00  0.00     0.074 A 
ATOM     56  C   UNL A   1      45.906  30.600  32.096  1.00  0.00     0.029 A 
ATOM     57  N   UNL A   1      44.776  29.096  30.909  1.00  0.00    -0.354 N 
ATOM     58  N   UNL A   1      44.396  26.508  29.565  1.00  0.00    -0.248 NA
ATOM     59  C   UNL A   1      45.232  24.442  28.860  1.00  0.00     0.031 C 
ATOM     60  C   UNL A   1      46.742  29.503  31.859  1.00  0.00     0.029 A 
ATOM     61  C   UNL A   1      46.034  28.561  31.132  1.00  0.00     0.049 A 
ATOM     62  H   UNL A   1      44.052  28.651  30.412  1.00  0.00     0.167 HD
ATOM     63  C   UNL A   1      45.713  26.382  29.987  1.00  0.00     0.074 A 
ATOM     64  C   UNL A   1      46.173  25.082  29.542  1.00  0.00     0.031 C 
ATOM     65  C   UNL A   1      46.475  27.269  30.671  1.00  0.00     0.037 A 
BRANCH  52  66
ATOM     66  C   UNL A   1      43.591  32.532  32.132  1.00  0.00     0.058 A 
ATOM     67  C   UNL A   1      44.051  33.673  31.458  1.00  0.00     0.135 A 
ATOM     68  C   UNL A   1      43.142  32.684  33.454  1.00  0.00     0.135 A 
ATOM     69  F   UNL A   1      44.507  33.578  30.200  1.00  0.00    -0.206 F 
ATOM     70  C   UNL A   1      44.076  34.920  32.077  1.00  0.00     0.059 A 
ATOM     71  C   UNL A   1      43.143  33.925  34.086  1.00  0.00     0.059 A 
ATOM     72  F   UNL A   1      42.695  31.622  34.142  1.00  0.00    -0.206 F 
ATOM     73  C   UNL A   1      43.621  35.035  33.392  1.00  0.00     0.060 A 
BRANCH  73  74
ATOM     74  S   UNL A   1      43.652  36.661  34.178  1.00  0.00     0.124 S 
ATOM     75  O   UNL A   1      42.524  36.558  35.100  1.00  0.00    -0.237 OA
ATOM     76  O   UNL A   1      44.974  36.685  34.795  1.00  0.00    -0.237 OA
ATOM     77  O   UNL A   1      43.467  37.581  33.061  1.00  0.00    -0.744 OA
ENDBRANCH  73  74
ENDBRANCH  52  66
BRANCH  53  78
ATOM     78  C   UNL A   1      42.685  23.666  27.617  1.00  0.00     0.058 A 
ATOM     79  C   UNL A   1      42.941  23.476  26.252  1.00  0.00     0.135 A 
ATOM     80  C   UNL A   1      42.337  22.544  28.384  1.00  0.00     0.135 A 
ATOM     81  F   UNL A   1      43.273  24.522  25.480  1.00  0.00    -0.206 F 
ATOM     82  C   UNL A   1      42.866  22.216  25.668  1.00  0.00     0.059 A 
ATOM     83  C   UNL A   1      42.274  21.271  27.828  1.00  0.00     0.059 A 
ATOM     84  F   UNL A   1      42.098  22.675  29.698  1.00  0.00    -0.206 F 
ATOM     85  C   UNL A   1      42.538  21.118  26.466  1.00  0.00     0.060 A 
BRANCH  85  86
ATOM     86  S   UNL A   1      42.530  19.472  25.723  1.00  0.00     0.124 S 
ATOM     87  O   UNL A   1      43.464  19.647  24.616  1.00  0.00    -0.237 OA
ATOM     88  O   UNL A   1      42.994  18.632  26.824  1.00  0.00    -0.237 OA
ATOM     89  O   UNL A   1      41.132  19.283  25.348  1.00  0.00    -0.744 OA
ENDBRANCH  85  86
ENDBRANCH  53  78
BRANCH  65  90
ATOM     90  C   UNL A   1      47.889  26.870  30.973  1.00  0.00     0.058 A 
ATOM     91  C   UNL A   1      48.940  27.229  30.117  1.00  0.00     0.135 A 
ATOM     92  C   UNL A   1      48.203  26.186  32.157  1.00  0.00     0.135 A 
ATOM     93  F   UNL A   1      48.686  27.878  28.970  1.00  0.00    -0.206 F 
ATOM     94  C   UNL A   1      50.260  26.916  30.422  1.00  0.00     0.059 A 
ATOM     95  C   UNL A   1      49.518  25.876  32.490  1.00  0.00     0.059 A 
ATOM     96  F   UNL A   1      47.230  25.829  33.010  1.00  0.00    -0.206 F 
ATOM     97  C   UNL A   1      50.539  26.241  31.612  1.00  0.00     0.060 A 
BRANCH  97  98
ATOM     98  S   UNL A   1      52.261  25.883  32.020  1.00  0.00     0.124 S 
ATOM     99  O   UNL A   1      52.218  24.440  32.234  1.00  0.00    -0.237 OA
ATOM    100  O   UNL A   1      52.966  26.326  30.821  1.00  0.00    -0.237 OA
ATOM    101  O   UNL A   1      52.500  26.689  33.214  1.00  0.00    -0.744 OA
ENDBRANCH  97  98
ENDBRANCH  65  90
ENDBRANCH  39  40
ENDBRANCH  31  34
ENDBRANCH  29  30
ENDBRANCH  28  29
ENDBRANCH   1  28
TORSDOF 18
ENDMDL
