MODEL 1
REMARK VINA RESULT:      -9.1      0.000      0.000
REMARK SMILES O=C(CCCN1C(=O)/C(=C/c2ccccc2Cl)SC1=S)Nc1cccc(C(=O)NCCCCNC(=O)c2ccc(-c3c4nc(c(-c5c(F)cc(S(=O)(=O)[O-])cc5F)c5ccc([nH]5)c(-c5c(F)cc(S(=O)(=O)[O-])cc5F)c5nc(c(-c6c(F)cc(S(=O)(=O)[O-])cc6F)c6ccc3[nH]6)C=C5)C=C4)cc2)c1
REMARK SMILES IDX 30 1 29 2 27 3 28 4 26 6 22 7 23 8 103 9 24 10 25 11 21 12
REMARK SMILES IDX 1 13 2 14 3 16 4 17 5 18 6 19 7 20 19 21 8 22 9 23 18 24
REMARK SMILES IDX 20 25 10 26 11 27 12 28 16 29 13 30 15 31 17 32 14 33 31 34
REMARK SMILES IDX 32 35 33 36 34 37 35 38 36 40 37 41 38 42 102 43 39 44
REMARK SMILES IDX 101 45 40 46 41 47 42 48 95 49 43 50 100 51 94 52 96 53
REMARK SMILES IDX 44 54 99 55 93 56 92 57 45 59 79 60 58 61 78 62 59 63 62 64
REMARK SMILES IDX 77 65 97 66 60 67 61 68 76 70 98 71 63 72 46 73 47 74 56 75
REMARK SMILES IDX 48 76 49 77 55 78 57 79 50 80 51 81 52 82 53 83 54 84 80 85
REMARK SMILES IDX 81 86 90 87 82 88 83 89 89 90 91 91 84 92 85 93 86 94 87 95
REMARK SMILES IDX 88 96 64 97 65 98 74 99 66 100 67 101 73 102 75 103 68 104
REMARK SMILES IDX 69 105 70 106 71 107 72 108
REMARK H PARENT 29 5 21 15 34 39 96 58 62 69
REMARK Flexibility Score: inf
ROOT
ATOM      1  C   UNL A   1      35.970  34.380  30.566  1.00  0.00     0.116 C 
ENDROOT
BRANCH   1   2
ATOM      2  N   UNL A   1      34.824  34.314  31.466  1.00  0.00    -0.352 N 
ATOM      3  C   UNL A   1      34.665  33.617  32.648  1.00  0.00     0.251 C 
ATOM      4  O   UNL A   1      33.602  33.683  33.260  1.00  0.00    -0.269 OA
ATOM      5  H   UNL A   1      34.045  34.849  31.188  1.00  0.00     0.163 HD
BRANCH   3   6
ATOM      6  C   UNL A   1      35.736  32.720  33.148  1.00  0.00     0.041 A 
ATOM      7  C   UNL A   1      37.772  32.448  34.415  1.00  0.00     0.041 A 
ATOM      8  C   UNL A   1      38.024  31.255  33.727  1.00  0.00     0.026 A 
ATOM      9  C   UNL A   1      36.562  33.103  34.206  1.00  0.00     0.040 A 
ATOM     10  C   UNL A   1      37.108  30.770  32.789  1.00  0.00     0.003 A 
ATOM     11  C   UNL A   1      35.977  31.521  32.473  1.00  0.00     0.014 A 
BRANCH   7  12
ATOM     12  N   UNL A   1      38.832  33.026  35.149  1.00  0.00    -0.326 N 
ATOM     13  O   UNL A   1      39.925  34.265  33.513  1.00  0.00    -0.275 OA
ATOM     14  C   UNL A   1      39.894  33.739  34.623  1.00  0.00     0.224 C 
ATOM     15  H   UNL A   1      38.814  32.910  36.127  1.00  0.00     0.169 HD
BRANCH  14  16
ATOM     16  C   UNL A   1      41.141  33.738  35.486  1.00  0.00     0.102 C 
BRANCH  16  17
ATOM     17  C   UNL A   1      40.909  33.848  36.988  1.00  0.00     0.032 C 
BRANCH  17  18
ATOM     18  C   UNL A   1      41.269  32.608  37.822  1.00  0.00     0.128 C 
BRANCH  18  19
ATOM     19  N   UNL A   1      42.043  31.575  37.125  1.00  0.00    -0.293 N 
ATOM     20  C   UNL A   1      41.375  30.595  36.409  1.00  0.00     0.266 C 
ATOM     21  C   UNL A   1      43.422  31.558  37.025  1.00  0.00     0.148 C 
ATOM     22  O   UNL A   1      40.161  30.516  36.257  1.00  0.00    -0.268 OA
ATOM     23  C   UNL A   1      42.339  29.641  35.806  1.00  0.00     0.081 C 
ATOM     24  S   UNL A   1      43.940  30.217  36.014  1.00  0.00    -0.054 SA
ATOM     25  S   UNL A   1      44.517  32.610  37.715  1.00  0.00    -0.052 S 
ATOM     26  C   UNL A   1      41.935  28.512  35.207  1.00  0.00     0.031 C 
BRANCH  26  27
ATOM     27  C   UNL A   1      42.811  27.527  34.555  1.00  0.00    -0.006 A 
ATOM     28  C   UNL A   1      42.973  27.641  33.165  1.00  0.00     0.010 A 
ATOM     29  C   UNL A   1      43.475  26.489  35.231  1.00  0.00     0.048 A 
ATOM     30  C   UNL A   1      43.799  26.758  32.469  1.00  0.00     0.001 A 
ATOM     31  C   UNL A   1      44.309  25.612  34.531  1.00  0.00     0.021 A 
ATOM     32  Cl  UNL A   1      43.279  26.229  36.930  1.00  0.00    -0.084 Cl
ATOM     33  C   UNL A   1      44.472  25.748  33.152  1.00  0.00     0.002 A 
ENDBRANCH  26  27
ENDBRANCH  18  19
ENDBRANCH  17  18
ENDBRANCH  16  17
ENDBRANCH  14  16
ENDBRANCH   7  12
ENDBRANCH   3   6
ENDBRANCH   1   2
BRANCH   1  34
ATOM     34  C   UNL A   1      35.883  33.466  29.350  1.00  0.00     0.023 C 
BRANCH  34  35
ATOM     35  C   UNL A   1      34.592  32.675  29.193  1.00  0.00     0.023 C 
BRANCH  35  36
ATOM     36  C   UNL A   1      34.209  32.298  27.767  1.00  0.00     0.116 C 
BRANCH  36  37
ATOM     37  N   UNL A   1      33.675  30.949  27.636  1.00  0.00    -0.352 N 
ATOM     38  C   UNL A   1      34.320  29.737  27.741  1.00  0.00     0.251 C 
ATOM     39  H   UNL A   1      32.712  30.896  27.445  1.00  0.00     0.163 HD
ATOM     40  O   UNL A   1      33.711  28.696  27.507  1.00  0.00    -0.269 OA
BRANCH  38  41
ATOM     41  C   UNL A   1      35.757  29.690  28.092  1.00  0.00     0.039 A 
ATOM     42  C   UNL A   1      36.126  29.307  29.385  1.00  0.00     0.014 A 
ATOM     43  C   UNL A   1      36.741  29.986  27.144  1.00  0.00     0.014 A 
ATOM     44  C   UNL A   1      37.476  29.124  29.695  1.00  0.00     0.010 A 
ATOM     45  C   UNL A   1      38.077  29.722  27.429  1.00  0.00     0.010 A 
ATOM     46  C   UNL A   1      38.460  29.279  28.704  1.00  0.00    -0.014 A 
BRANCH  46  47
ATOM     47  C   UNL A   1      39.888  28.965  28.972  1.00  0.00     0.031 A 
ATOM     48  C   UNL A   1      40.792  30.008  29.572  1.00  0.00     0.074 A 
ATOM     49  C   UNL A   1      40.391  27.771  28.600  1.00  0.00     0.049 A 
ATOM     50  N   UNL A   1      42.080  29.956  29.796  1.00  0.00    -0.248 NA
ATOM     51  C   UNL A   1      40.171  31.290  29.939  1.00  0.00     0.031 C 
ATOM     52  C   UNL A   1      39.632  26.694  27.960  1.00  0.00     0.029 A 
ATOM     53  N   UNL A   1      41.664  27.266  28.695  1.00  0.00    -0.354 N 
ATOM     54  C   UNL A   1      42.426  31.199  30.311  1.00  0.00     0.074 A 
ATOM     55  C   UNL A   1      41.222  32.002  30.316  1.00  0.00     0.031 C 
ATOM     56  C   UNL A   1      40.447  25.648  27.745  1.00  0.00     0.029 A 
ATOM     57  C   UNL A   1      41.792  25.990  28.195  1.00  0.00     0.049 A 
ATOM     58  H   UNL A   1      42.415  27.769  29.084  1.00  0.00     0.167 HD
ATOM     59  C   UNL A   1      43.630  31.626  30.762  1.00  0.00     0.037 A 
ATOM     60  C   UNL A   1      42.871  25.189  28.105  1.00  0.00     0.037 A 
ATOM     61  C   UNL A   1      44.819  30.815  30.780  1.00  0.00     0.049 A 
ATOM     62  C   UNL A   1      44.197  25.681  28.618  1.00  0.00     0.074 A 
ATOM     63  C   UNL A   1      46.074  31.136  31.268  1.00  0.00     0.029 A 
ATOM     64  N   UNL A   1      44.902  29.521  30.286  1.00  0.00    -0.354 N 
ATOM     65  N   UNL A   1      44.493  26.840  29.156  1.00  0.00    -0.248 NA
ATOM     66  C   UNL A   1      45.333  24.755  28.517  1.00  0.00     0.031 C 
ATOM     67  C   UNL A   1      46.924  30.048  31.040  1.00  0.00     0.029 A 
ATOM     68  C   UNL A   1      46.189  29.033  30.446  1.00  0.00     0.049 A 
ATOM     69  H   UNL A   1      44.155  29.021  29.883  1.00  0.00     0.167 HD
ATOM     70  C   UNL A   1      45.843  26.774  29.479  1.00  0.00     0.074 A 
ATOM     71  C   UNL A   1      46.304  25.458  29.085  1.00  0.00     0.031 C 
ATOM     72  C   UNL A   1      46.630  27.718  30.054  1.00  0.00     0.037 A 
BRANCH  59  73
ATOM     73  C   UNL A   1      43.711  33.037  31.277  1.00  0.00     0.058 A 
ATOM     74  C   UNL A   1      43.578  33.329  32.645  1.00  0.00     0.135 A 
ATOM     75  C   UNL A   1      43.925  34.110  30.397  1.00  0.00     0.135 A 
ATOM     76  F   UNL A   1      43.358  32.341  33.527  1.00  0.00    -0.206 F 
ATOM     77  C   UNL A   1      43.609  34.636  33.117  1.00  0.00     0.059 A 
ATOM     78  C   UNL A   1      43.988  35.424  30.851  1.00  0.00     0.059 A 
ATOM     79  F   UNL A   1      44.062  33.890  29.081  1.00  0.00    -0.206 F 
ATOM     80  C   UNL A   1      43.807  35.679  32.211  1.00  0.00     0.060 A 
BRANCH  80  81
ATOM     81  S   UNL A   1      43.823  37.373  32.835  1.00  0.00     0.124 S 
ATOM     82  O   UNL A   1      45.114  37.420  33.514  1.00  0.00    -0.237 OA
ATOM     83  O   UNL A   1      43.722  38.161  31.611  1.00  0.00    -0.237 OA
ATOM     84  O   UNL A   1      42.653  37.422  33.706  1.00  0.00    -0.744 OA
ENDBRANCH  80  81
ENDBRANCH  59  73
BRANCH  60  85
ATOM     85  C   UNL A   1      42.730  23.821  27.541  1.00  0.00     0.058 A 
ATOM     86  C   UNL A   1      42.951  23.584  26.175  1.00  0.00     0.135 A 
ATOM     87  C   UNL A   1      42.404  22.723  28.351  1.00  0.00     0.135 A 
ATOM     88  F   UNL A   1      43.258  24.604  25.360  1.00  0.00    -0.206 F 
ATOM     89  C   UNL A   1      42.847  22.309  25.631  1.00  0.00     0.059 A 
ATOM     90  C   UNL A   1      42.314  21.434  27.833  1.00  0.00     0.059 A 
ATOM     91  F   UNL A   1      42.198  22.895  29.666  1.00  0.00    -0.206 F 
ATOM     92  C   UNL A   1      42.532  21.238  26.470  1.00  0.00     0.060 A 
BRANCH  92  93
ATOM     93  S   UNL A   1      42.464  19.576  25.763  1.00  0.00     0.124 S 
ATOM     94  O   UNL A   1      41.055  19.465  25.408  1.00  0.00    -0.237 OA
ATOM     95  O   UNL A   1      43.398  19.679  24.646  1.00  0.00    -0.237 OA
ATOM     96  O   UNL A   1      42.909  18.727  26.864  1.00  0.00    -0.744 OA
ENDBRANCH  92  93
ENDBRANCH  60  85
BRANCH  72  97
ATOM     97  C   UNL A   1      48.063  27.353  30.321  1.00  0.00     0.058 A 
ATOM     98  C   UNL A   1      48.449  26.690  31.496  1.00  0.00     0.135 A 
ATOM     99  C   UNL A   1      49.055  27.626  29.365  1.00  0.00     0.135 A 
ATOM    100  F   UNL A   1      47.540  26.413  32.444  1.00  0.00    -0.206 F 
ATOM    101  C   UNL A   1      49.772  26.325  31.722  1.00  0.00     0.059 A 
ATOM    102  C   UNL A   1      50.380  27.248  29.560  1.00  0.00     0.059 A 
ATOM    103  F   UNL A   1      48.737  28.250  28.220  1.00  0.00    -0.206 F 
ATOM    104  C   UNL A   1      50.731  26.607  30.747  1.00  0.00     0.060 A 
BRANCH 104 105
ATOM    105  S   UNL A   1      52.439  26.096  31.035  1.00  0.00     0.124 S 
ATOM    106  O   UNL A   1      52.957  27.222  31.804  1.00  0.00    -0.237 OA
ATOM    107  O   UNL A   1      52.273  24.847  31.773  1.00  0.00    -0.237 OA
ATOM    108  O   UNL A   1      52.981  25.952  29.687  1.00  0.00    -0.744 OA
ENDBRANCH 104 105
ENDBRANCH  72  97
ENDBRANCH  46  47
ENDBRANCH  38  41
ENDBRANCH  36  37
ENDBRANCH  35  36
ENDBRANCH  34  35
ENDBRANCH   1  34
TORSDOF 20
ENDMDL
MODEL 2
REMARK VINA RESULT:      -9.0      4.348      7.860
REMARK SMILES O=C(CCCN1C(=O)/C(=C/c2ccccc2Cl)SC1=S)Nc1cccc(C(=O)NCCCCNC(=O)c2ccc(-c3c4nc(c(-c5c(F)cc(S(=O)(=O)[O-])cc5F)c5ccc([nH]5)c(-c5c(F)cc(S(=O)(=O)[O-])cc5F)c5nc(c(-c6c(F)cc(S(=O)(=O)[O-])cc6F)c6ccc3[nH]6)C=C5)C=C4)cc2)c1
REMARK SMILES IDX 30 1 29 2 27 3 28 4 26 6 22 7 23 8 103 9 24 10 25 11 21 12
REMARK SMILES IDX 1 13 2 14 3 16 4 17 5 18 6 19 7 20 19 21 8 22 9 23 18 24
REMARK SMILES IDX 20 25 10 26 11 27 12 28 16 29 13 30 15 31 17 32 14 33 31 34
REMARK SMILES IDX 32 35 33 36 34 37 35 38 36 40 37 41 38 42 102 43 39 44
REMARK SMILES IDX 101 45 40 46 41 47 42 48 95 49 43 50 100 51 94 52 96 53
REMARK SMILES IDX 44 54 99 55 93 56 92 57 45 59 79 60 58 61 78 62 59 63 62 64
REMARK SMILES IDX 77 65 97 66 60 67 61 68 76 70 98 71 63 72 46 73 47 74 56 75
REMARK SMILES IDX 48 76 49 77 55 78 57 79 50 80 51 81 52 82 53 83 54 84 80 85
REMARK SMILES IDX 81 86 90 87 82 88 83 89 89 90 91 91 84 92 85 93 86 94 87 95
REMARK SMILES IDX 88 96 64 97 65 98 74 99 66 100 67 101 73 102 75 103 68 104
REMARK SMILES IDX 69 105 70 106 71 107 72 108
REMARK H PARENT 29 5 21 15 34 39 96 58 62 69
REMARK Flexibility Score: inf
ROOT
ATOM      1  C   UNL A   1      35.527  34.177  31.759  1.00  0.00     0.116 C 
ENDROOT
BRANCH   1   2
ATOM      2  N   UNL A   1      34.627  35.044  31.006  1.00  0.00    -0.352 N 
ATOM      3  C   UNL A   1      34.123  34.901  29.728  1.00  0.00     0.251 C 
ATOM      4  O   UNL A   1      33.379  35.760  29.262  1.00  0.00    -0.269 OA
ATOM      5  H   UNL A   1      34.335  35.854  31.481  1.00  0.00     0.163 HD
BRANCH   3   6
ATOM      6  C   UNL A   1      34.535  33.758  28.875  1.00  0.00     0.041 A 
ATOM      7  C   UNL A   1      33.972  31.654  27.835  1.00  0.00     0.041 A 
ATOM      8  C   UNL A   1      35.337  31.366  27.713  1.00  0.00     0.026 A 
ATOM      9  C   UNL A   1      33.588  32.908  28.301  1.00  0.00     0.040 A 
ATOM     10  C   UNL A   1      36.298  32.294  28.123  1.00  0.00     0.003 A 
ATOM     11  C   UNL A   1      35.897  33.480  28.737  1.00  0.00     0.014 A 
BRANCH   7  12
ATOM     12  N   UNL A   1      33.052  30.596  27.653  1.00  0.00    -0.326 N 
ATOM     13  O   UNL A   1      34.467  28.759  27.482  1.00  0.00    -0.275 OA
ATOM     14  C   UNL A   1      33.368  29.289  27.334  1.00  0.00     0.224 C 
ATOM     15  H   UNL A   1      32.097  30.811  27.763  1.00  0.00     0.169 HD
BRANCH  14  16
ATOM     16  C   UNL A   1      32.257  28.525  26.639  1.00  0.00     0.102 C 
BRANCH  16  17
ATOM     17  C   UNL A   1      32.579  28.009  25.242  1.00  0.00     0.032 C 
BRANCH  17  18
ATOM     18  C   UNL A   1      31.592  26.990  24.651  1.00  0.00     0.128 C 
BRANCH  18  19
ATOM     19  N   UNL A   1      32.145  25.661  24.364  1.00  0.00    -0.293 N 
ATOM     20  C   UNL A   1      31.901  24.621  25.246  1.00  0.00     0.266 C 
ATOM     21  C   UNL A   1      32.811  25.321  23.202  1.00  0.00     0.148 C 
ATOM     22  O   UNL A   1      31.216  24.682  26.260  1.00  0.00    -0.268 OA
ATOM     23  C   UNL A   1      32.568  23.378  24.783  1.00  0.00     0.081 C 
ATOM     24  S   UNL A   1      33.207  23.609  23.209  1.00  0.00    -0.054 SA
ATOM     25  S   UNL A   1      33.219  26.311  21.922  1.00  0.00    -0.052 S 
ATOM     26  C   UNL A   1      32.623  22.278  25.547  1.00  0.00     0.031 C 
BRANCH  26  27
ATOM     27  C   UNL A   1      33.229  20.996  25.161  1.00  0.00    -0.006 A 
ATOM     28  C   UNL A   1      32.364  20.001  24.680  1.00  0.00     0.010 A 
ATOM     29  C   UNL A   1      34.603  20.711  25.255  1.00  0.00     0.048 A 
ATOM     30  C   UNL A   1      32.858  18.760  24.276  1.00  0.00     0.001 A 
ATOM     31  C   UNL A   1      35.095  19.469  24.841  1.00  0.00     0.021 A 
ATOM     32  Cl  UNL A   1      35.734  21.849  25.901  1.00  0.00    -0.084 Cl
ATOM     33  C   UNL A   1      34.223  18.496  24.350  1.00  0.00     0.002 A 
ENDBRANCH  26  27
ENDBRANCH  18  19
ENDBRANCH  17  18
ENDBRANCH  16  17
ENDBRANCH  14  16
ENDBRANCH   7  12
ENDBRANCH   3   6
ENDBRANCH   1   2
BRANCH   1  34
ATOM     34  C   UNL A   1      36.802  34.851  32.250  1.00  0.00     0.023 C 
BRANCH  34  35
ATOM     35  C   UNL A   1      38.107  34.134  31.935  1.00  0.00     0.023 C 
BRANCH  35  36
ATOM     36  C   UNL A   1      38.342  32.819  32.669  1.00  0.00     0.116 C 
BRANCH  36  37
ATOM     37  N   UNL A   1      37.220  31.894  32.595  1.00  0.00    -0.352 N 
ATOM     38  C   UNL A   1      37.135  30.665  31.981  1.00  0.00     0.251 C 
ATOM     39  H   UNL A   1      36.400  32.192  33.051  1.00  0.00     0.163 HD
ATOM     40  O   UNL A   1      36.063  30.066  31.951  1.00  0.00    -0.269 OA
BRANCH  38  41
ATOM     41  C   UNL A   1      38.325  30.084  31.319  1.00  0.00     0.039 A 
ATOM     42  C   UNL A   1      38.544  30.351  29.965  1.00  0.00     0.014 A 
ATOM     43  C   UNL A   1      39.242  29.310  32.036  1.00  0.00     0.014 A 
ATOM     44  C   UNL A   1      39.729  29.928  29.357  1.00  0.00     0.010 A 
ATOM     45  C   UNL A   1      40.457  28.963  31.453  1.00  0.00     0.010 A 
ATOM     46  C   UNL A   1      40.720  29.276  30.111  1.00  0.00    -0.014 A 
BRANCH  46  47
ATOM     47  C   UNL A   1      42.041  28.931  29.523  1.00  0.00     0.031 A 
ATOM     48  C   UNL A   1      43.126  29.969  29.439  1.00  0.00     0.074 A 
ATOM     49  C   UNL A   1      42.236  27.708  28.989  1.00  0.00     0.049 A 
ATOM     50  N   UNL A   1      44.307  29.888  28.883  1.00  0.00    -0.248 NA
ATOM     51  C   UNL A   1      42.831  31.283  30.033  1.00  0.00     0.031 C 
ATOM     52  C   UNL A   1      41.246  26.629  28.958  1.00  0.00     0.029 A 
ATOM     53  N   UNL A   1      43.330  27.169  28.359  1.00  0.00    -0.354 N 
ATOM     54  C   UNL A   1      44.889  31.140  29.042  1.00  0.00     0.074 A 
ATOM     55  C   UNL A   1      43.909  31.978  29.699  1.00  0.00     0.031 C 
ATOM     56  C   UNL A   1      41.787  25.552  28.366  1.00  0.00     0.029 A 
ATOM     57  C   UNL A   1      43.145  25.872  27.941  1.00  0.00     0.049 A 
ATOM     58  H   UNL A   1      44.168  27.665  28.219  1.00  0.00     0.167 HD
ATOM     59  C   UNL A   1      46.133  31.549  28.695  1.00  0.00     0.037 A 
ATOM     60  C   UNL A   1      43.974  25.036  27.287  1.00  0.00     0.037 A 
ATOM     61  C   UNL A   1      47.114  30.704  28.066  1.00  0.00     0.049 A 
ATOM     62  C   UNL A   1      45.353  25.508  26.917  1.00  0.00     0.074 A 
ATOM     63  C   UNL A   1      48.421  31.007  27.725  1.00  0.00     0.029 A 
ATOM     64  N   UNL A   1      46.896  29.390  27.680  1.00  0.00    -0.354 N 
ATOM     65  N   UNL A   1      45.907  26.678  27.127  1.00  0.00    -0.248 NA
ATOM     66  C   UNL A   1      46.223  24.546  26.227  1.00  0.00     0.031 C 
ATOM     67  C   UNL A   1      48.983  29.886  27.105  1.00  0.00     0.029 A 
ATOM     68  C   UNL A   1      48.039  28.871  27.095  1.00  0.00     0.049 A 
ATOM     69  H   UNL A   1      46.053  28.896  27.806  1.00  0.00     0.167 HD
ATOM     70  C   UNL A   1      47.197  26.586  26.617  1.00  0.00     0.074 A 
ATOM     71  C   UNL A   1      47.344  25.242  26.096  1.00  0.00     0.031 C 
ATOM     72  C   UNL A   1      48.172  27.528  26.586  1.00  0.00     0.037 A 
BRANCH  59  73
ATOM     73  C   UNL A   1      46.497  32.976  28.999  1.00  0.00     0.058 A 
ATOM     74  C   UNL A   1      47.067  33.344  30.229  1.00  0.00     0.135 A 
ATOM     75  C   UNL A   1      46.277  33.989  28.052  1.00  0.00     0.135 A 
ATOM     76  F   UNL A   1      47.286  32.418  31.175  1.00  0.00    -0.206 F 
ATOM     77  C   UNL A   1      47.364  34.670  30.527  1.00  0.00     0.059 A 
ATOM     78  C   UNL A   1      46.593  35.319  28.318  1.00  0.00     0.059 A 
ATOM     79  F   UNL A   1      45.738  33.696  26.858  1.00  0.00    -0.206 F 
ATOM     80  C   UNL A   1      47.117  35.652  29.567  1.00  0.00     0.060 A 
BRANCH  80  81
ATOM     81  S   UNL A   1      47.486  37.370  29.976  1.00  0.00     0.124 S 
ATOM     82  O   UNL A   1      47.750  37.278  31.409  1.00  0.00    -0.237 OA
ATOM     83  O   UNL A   1      48.645  37.652  29.136  1.00  0.00    -0.237 OA
ATOM     84  O   UNL A   1      46.262  38.076  29.607  1.00  0.00    -0.744 OA
ENDBRANCH  80  81
ENDBRANCH  59  73
BRANCH  60  85
ATOM     85  C   UNL A   1      43.533  23.650  26.975  1.00  0.00     0.058 A 
ATOM     86  C   UNL A   1      43.562  22.652  27.960  1.00  0.00     0.135 A 
ATOM     87  C   UNL A   1      43.047  23.304  25.706  1.00  0.00     0.135 A 
ATOM     88  F   UNL A   1      44.026  22.934  29.188  1.00  0.00    -0.206 F 
ATOM     89  C   UNL A   1      43.133  21.356  27.697  1.00  0.00     0.059 A 
ATOM     90  C   UNL A   1      42.592  22.019  25.424  1.00  0.00     0.059 A 
ATOM     91  F   UNL A   1      42.985  24.227  24.734  1.00  0.00    -0.206 F 
ATOM     92  C   UNL A   1      42.645  21.050  26.425  1.00  0.00     0.060 A 
BRANCH  92  93
ATOM     93  S   UNL A   1      42.028  19.379  26.114  1.00  0.00     0.124 S 
ATOM     94  O   UNL A   1      42.822  18.984  24.957  1.00  0.00    -0.237 OA
ATOM     95  O   UNL A   1      42.341  18.698  27.367  1.00  0.00    -0.237 OA
ATOM     96  O   UNL A   1      40.605  19.590  25.863  1.00  0.00    -0.744 OA
ENDBRANCH  92  93
ENDBRANCH  60  85
BRANCH  72  97
ATOM     97  C   UNL A   1      49.496  27.132  25.997  1.00  0.00     0.058 A 
ATOM     98  C   UNL A   1      50.529  26.609  26.789  1.00  0.00     0.135 A 
ATOM     99  C   UNL A   1      49.716  27.230  24.613  1.00  0.00     0.135 A 
ATOM    100  F   UNL A   1      50.372  26.502  28.118  1.00  0.00    -0.206 F 
ATOM    101  C   UNL A   1      51.741  26.213  26.234  1.00  0.00     0.059 A 
ATOM    102  C   UNL A   1      50.911  26.818  24.033  1.00  0.00     0.059 A 
ATOM    103  F   UNL A   1      48.757  27.716  23.809  1.00  0.00    -0.206 F 
ATOM    104  C   UNL A   1      51.923  26.320  24.853  1.00  0.00     0.060 A 
BRANCH 104 105
ATOM    105  S   UNL A   1      53.486  25.768  24.137  1.00  0.00     0.124 S 
ATOM    106  O   UNL A   1      53.218  25.903  22.709  1.00  0.00    -0.237 OA
ATOM    107  O   UNL A   1      54.441  26.721  24.696  1.00  0.00    -0.237 OA
ATOM    108  O   UNL A   1      53.619  24.399  24.627  1.00  0.00    -0.744 OA
ENDBRANCH 104 105
ENDBRANCH  72  97
ENDBRANCH  46  47
ENDBRANCH  38  41
ENDBRANCH  36  37
ENDBRANCH  35  36
ENDBRANCH  34  35
ENDBRANCH   1  34
TORSDOF 20
ENDMDL
MODEL 3
REMARK VINA RESULT:      -8.7      4.549     12.671
REMARK SMILES O=C(CCCN1C(=O)/C(=C/c2ccccc2Cl)SC1=S)Nc1cccc(C(=O)NCCCCNC(=O)c2ccc(-c3c4nc(c(-c5c(F)cc(S(=O)(=O)[O-])cc5F)c5ccc([nH]5)c(-c5c(F)cc(S(=O)(=O)[O-])cc5F)c5nc(c(-c6c(F)cc(S(=O)(=O)[O-])cc6F)c6ccc3[nH]6)C=C5)C=C4)cc2)c1
REMARK SMILES IDX 30 1 29 2 27 3 28 4 26 6 22 7 23 8 103 9 24 10 25 11 21 12
REMARK SMILES IDX 1 13 2 14 3 16 4 17 5 18 6 19 7 20 19 21 8 22 9 23 18 24
REMARK SMILES IDX 20 25 10 26 11 27 12 28 16 29 13 30 15 31 17 32 14 33 31 34
REMARK SMILES IDX 32 35 33 36 34 37 35 38 36 40 37 41 38 42 102 43 39 44
REMARK SMILES IDX 101 45 40 46 41 47 42 48 95 49 43 50 100 51 94 52 96 53
REMARK SMILES IDX 44 54 99 55 93 56 92 57 45 59 79 60 58 61 78 62 59 63 62 64
REMARK SMILES IDX 77 65 97 66 60 67 61 68 76 70 98 71 63 72 46 73 47 74 56 75
REMARK SMILES IDX 48 76 49 77 55 78 57 79 50 80 51 81 52 82 53 83 54 84 80 85
REMARK SMILES IDX 81 86 90 87 82 88 83 89 89 90 91 91 84 92 85 93 86 94 87 95
REMARK SMILES IDX 88 96 64 97 65 98 74 99 66 100 67 101 73 102 75 103 68 104
REMARK SMILES IDX 69 105 70 106 71 107 72 108
REMARK H PARENT 29 5 21 15 34 39 96 58 62 69
REMARK Flexibility Score: inf
ROOT
ATOM      1  C   UNL A   1      49.517  25.782  26.670  1.00  0.00     0.116 C 
ENDROOT
BRANCH   1   2
ATOM      2  N   UNL A   1      49.179  25.767  25.252  1.00  0.00    -0.352 N 
ATOM      3  C   UNL A   1      47.968  25.530  24.631  1.00  0.00     0.251 C 
ATOM      4  O   UNL A   1      47.892  25.551  23.405  1.00  0.00    -0.269 OA
ATOM      5  H   UNL A   1      49.930  25.956  24.643  1.00  0.00     0.163 HD
BRANCH   3   6
ATOM      6  C   UNL A   1      46.768  25.168  25.426  1.00  0.00     0.041 A 
ATOM      7  C   UNL A   1      45.260  23.459  26.220  1.00  0.00     0.041 A 
ATOM      8  C   UNL A   1      44.296  24.444  26.466  1.00  0.00     0.026 A 
ATOM      9  C   UNL A   1      46.535  23.850  25.821  1.00  0.00     0.040 A 
ATOM     10  C   UNL A   1      44.586  25.793  26.241  1.00  0.00     0.003 A 
ATOM     11  C   UNL A   1      45.813  26.154  25.688  1.00  0.00     0.014 A 
BRANCH   7  12
ATOM     12  N   UNL A   1      44.842  22.109  26.213  1.00  0.00    -0.326 N 
ATOM     13  O   UNL A   1      43.041  22.177  24.744  1.00  0.00    -0.275 OA
ATOM     14  C   UNL A   1      43.695  21.616  25.620  1.00  0.00     0.224 C 
ATOM     15  H   UNL A   1      45.422  21.459  26.673  1.00  0.00     0.169 HD
BRANCH  14  16
ATOM     16  C   UNL A   1      43.181  20.322  26.223  1.00  0.00     0.102 C 
BRANCH  16  17
ATOM     17  C   UNL A   1      41.670  20.132  26.198  1.00  0.00     0.032 C 
BRANCH  17  18
ATOM     18  C   UNL A   1      40.895  20.695  27.401  1.00  0.00     0.128 C 
BRANCH  18  19
ATOM     19  N   UNL A   1      40.422  22.077  27.263  1.00  0.00    -0.293 N 
ATOM     20  C   UNL A   1      41.144  23.102  27.851  1.00  0.00     0.266 C 
ATOM     21  C   UNL A   1      39.351  22.467  26.481  1.00  0.00     0.148 C 
ATOM     22  O   UNL A   1      42.197  22.980  28.467  1.00  0.00    -0.268 OA
ATOM     23  C   UNL A   1      40.482  24.409  27.614  1.00  0.00     0.081 C 
ATOM     24  S   UNL A   1      39.190  24.217  26.503  1.00  0.00    -0.054 SA
ATOM     25  S   UNL A   1      38.311  21.502  25.604  1.00  0.00    -0.052 S 
ATOM     26  C   UNL A   1      40.894  25.531  28.221  1.00  0.00     0.031 C 
BRANCH  26  27
ATOM     27  C   UNL A   1      40.323  26.872  28.022  1.00  0.00    -0.006 A 
ATOM     28  C   UNL A   1      40.807  27.613  26.933  1.00  0.00     0.010 A 
ATOM     29  C   UNL A   1      39.346  27.447  28.853  1.00  0.00     0.048 A 
ATOM     30  C   UNL A   1      40.309  28.889  26.662  1.00  0.00     0.001 A 
ATOM     31  C   UNL A   1      38.844  28.721  28.573  1.00  0.00     0.021 A 
ATOM     32  Cl  UNL A   1      38.744  26.636  30.258  1.00  0.00    -0.084 Cl
ATOM     33  C   UNL A   1      39.323  29.440  27.477  1.00  0.00     0.002 A 
ENDBRANCH  26  27
ENDBRANCH  18  19
ENDBRANCH  17  18
ENDBRANCH  16  17
ENDBRANCH  14  16
ENDBRANCH   7  12
ENDBRANCH   3   6
ENDBRANCH   1   2
BRANCH   1  34
ATOM     34  C   UNL A   1      49.646  27.170  27.283  1.00  0.00     0.023 C 
BRANCH  34  35
ATOM     35  C   UNL A   1      48.730  27.475  28.461  1.00  0.00     0.023 C 
BRANCH  35  36
ATOM     36  C   UNL A   1      47.989  28.806  28.403  1.00  0.00     0.116 C 
BRANCH  36  37
ATOM     37  N   UNL A   1      47.427  29.111  27.095  1.00  0.00    -0.352 N 
ATOM     38  C   UNL A   1      46.191  29.621  26.769  1.00  0.00     0.251 C 
ATOM     39  H   UNL A   1      48.019  28.927  26.331  1.00  0.00     0.163 HD
ATOM     40  O   UNL A   1      45.862  29.727  25.590  1.00  0.00    -0.269 OA
BRANCH  38  41
ATOM     41  C   UNL A   1      45.240  30.000  27.839  1.00  0.00     0.039 A 
ATOM     42  C   UNL A   1      44.461  29.004  28.436  1.00  0.00     0.014 A 
ATOM     43  C   UNL A   1      45.141  31.322  28.280  1.00  0.00     0.014 A 
ATOM     44  C   UNL A   1      43.660  29.317  29.537  1.00  0.00     0.010 A 
ATOM     45  C   UNL A   1      44.410  31.615  29.428  1.00  0.00     0.010 A 
ATOM     46  C   UNL A   1      43.669  30.615  30.076  1.00  0.00    -0.014 A 
BRANCH  46  47
ATOM     47  C   UNL A   1      42.929  30.943  31.322  1.00  0.00     0.031 A 
ATOM     48  C   UNL A   1      41.499  31.403  31.254  1.00  0.00     0.074 A 
ATOM     49  C   UNL A   1      43.570  30.908  32.509  1.00  0.00     0.049 A 
ATOM     50  N   UNL A   1      40.717  31.819  32.218  1.00  0.00    -0.248 NA
ATOM     51  C   UNL A   1      40.874  31.427  29.923  1.00  0.00     0.031 C 
ATOM     52  C   UNL A   1      44.972  30.531  32.704  1.00  0.00     0.029 A 
ATOM     53  N   UNL A   1      43.129  31.204  33.775  1.00  0.00    -0.354 N 
ATOM     54  C   UNL A   1      39.519  32.172  31.609  1.00  0.00     0.074 A 
ATOM     55  C   UNL A   1      39.695  31.971  30.186  1.00  0.00     0.031 C 
ATOM     56  C   UNL A   1      45.267  30.593  34.012  1.00  0.00     0.029 A 
ATOM     57  C   UNL A   1      44.091  31.050  34.746  1.00  0.00     0.049 A 
ATOM     58  H   UNL A   1      42.211  31.500  33.969  1.00  0.00     0.167 HD
ATOM     59  C   UNL A   1      38.368  32.600  32.182  1.00  0.00     0.037 A 
ATOM     60  C   UNL A   1      44.034  31.256  36.076  1.00  0.00     0.037 A 
ATOM     61  C   UNL A   1      38.189  32.773  33.600  1.00  0.00     0.049 A 
ATOM     62  C   UNL A   1      42.745  31.725  36.692  1.00  0.00     0.074 A 
ATOM     63  C   UNL A   1      37.046  33.148  34.284  1.00  0.00     0.029 A 
ATOM     64  N   UNL A   1      39.180  32.583  34.552  1.00  0.00    -0.354 N 
ATOM     65  N   UNL A   1      41.603  31.998  36.107  1.00  0.00    -0.248 NA
ATOM     66  C   UNL A   1      42.734  31.910  38.150  1.00  0.00     0.031 C 
ATOM     67  C   UNL A   1      37.354  33.217  35.647  1.00  0.00     0.029 A 
ATOM     68  C   UNL A   1      38.679  32.845  35.817  1.00  0.00     0.049 A 
ATOM     69  H   UNL A   1      40.103  32.302  34.358  1.00  0.00     0.167 HD
ATOM     70  C   UNL A   1      40.731  32.363  37.126  1.00  0.00     0.074 A 
ATOM     71  C   UNL A   1      41.475  32.268  38.366  1.00  0.00     0.031 C 
ATOM     72  C   UNL A   1      39.431  32.740  37.043  1.00  0.00     0.037 A 
BRANCH  59  73
ATOM     73  C   UNL A   1      37.215  32.904  31.266  1.00  0.00     0.058 A 
ATOM     74  C   UNL A   1      36.124  32.028  31.141  1.00  0.00     0.135 A 
ATOM     75  C   UNL A   1      37.196  34.083  30.504  1.00  0.00     0.135 A 
ATOM     76  F   UNL A   1      36.098  30.879  31.835  1.00  0.00    -0.206 F 
ATOM     77  C   UNL A   1      35.078  32.287  30.262  1.00  0.00     0.059 A 
ATOM     78  C   UNL A   1      36.146  34.377  29.639  1.00  0.00     0.059 A 
ATOM     79  F   UNL A   1      38.210  34.959  30.586  1.00  0.00    -0.206 F 
ATOM     80  C   UNL A   1      35.101  33.462  29.509  1.00  0.00     0.060 A 
BRANCH  80  81
ATOM     81  S   UNL A   1      33.749  33.774  28.356  1.00  0.00     0.124 S 
ATOM     82  O   UNL A   1      33.445  32.424  27.892  1.00  0.00    -0.237 OA
ATOM     83  O   UNL A   1      32.741  34.390  29.211  1.00  0.00    -0.237 OA
ATOM     84  O   UNL A   1      34.349  34.660  27.362  1.00  0.00    -0.744 OA
ENDBRANCH  80  81
ENDBRANCH  59  73
BRANCH  60  85
ATOM     85  C   UNL A   1      45.228  30.980  36.918  1.00  0.00     0.058 A 
ATOM     86  C   UNL A   1      46.185  31.979  37.152  1.00  0.00     0.135 A 
ATOM     87  C   UNL A   1      45.422  29.732  37.528  1.00  0.00     0.135 A 
ATOM     88  F   UNL A   1      46.046  33.186  36.583  1.00  0.00    -0.206 F 
ATOM     89  C   UNL A   1      47.297  31.749  37.954  1.00  0.00     0.059 A 
ATOM     90  C   UNL A   1      46.516  29.485  38.353  1.00  0.00     0.059 A 
ATOM     91  F   UNL A   1      44.527  28.748  37.349  1.00  0.00    -0.206 F 
ATOM     92  C   UNL A   1      47.451  30.498  38.555  1.00  0.00     0.060 A 
BRANCH  92  93
ATOM     93  S   UNL A   1      48.865  30.233  39.649  1.00  0.00     0.124 S 
ATOM     94  O   UNL A   1      49.702  31.384  39.332  1.00  0.00    -0.237 OA
ATOM     95  O   UNL A   1      48.240  30.242  40.968  1.00  0.00    -0.237 OA
ATOM     96  O   UNL A   1      49.382  28.938  39.218  1.00  0.00    -0.744 OA
ENDBRANCH  92  93
ENDBRANCH  60  85
BRANCH  72  97
ATOM     97  C   UNL A   1      38.717  33.047  38.328  1.00  0.00     0.058 A 
ATOM     98  C   UNL A   1      37.796  32.153  38.894  1.00  0.00     0.135 A 
ATOM     99  C   UNL A   1      38.998  34.232  39.031  1.00  0.00     0.135 A 
ATOM    100  F   UNL A   1      37.488  31.011  38.259  1.00  0.00    -0.206 F 
ATOM    101  C   UNL A   1      37.164  32.428  40.101  1.00  0.00     0.059 A 
ATOM    102  C   UNL A   1      38.395  34.516  40.252  1.00  0.00     0.059 A 
ATOM    103  F   UNL A   1      39.878  35.117  38.538  1.00  0.00    -0.206 F 
ATOM    104  C   UNL A   1      37.471  33.613  40.774  1.00  0.00     0.060 A 
BRANCH 104 105
ATOM    105  S   UNL A   1      36.672  33.943  42.360  1.00  0.00     0.124 S 
ATOM    106  O   UNL A   1      35.274  34.070  41.963  1.00  0.00    -0.237 OA
ATOM    107  O   UNL A   1      37.005  32.751  43.134  1.00  0.00    -0.237 OA
ATOM    108  O   UNL A   1      37.313  35.175  42.812  1.00  0.00    -0.744 OA
ENDBRANCH 104 105
ENDBRANCH  72  97
ENDBRANCH  46  47
ENDBRANCH  38  41
ENDBRANCH  36  37
ENDBRANCH  35  36
ENDBRANCH  34  35
ENDBRANCH   1  34
TORSDOF 20
ENDMDL
