MODEL 1
REMARK VINA RESULT:     -11.9      0.000      0.000
REMARK SMILES COc1nc2c(cc1C(=O)NCc1ccc(C(=O)NCCCCNC(=O)c3ccc(-c4c5nc(c(-c6c(F)cc(S(=O)(=O)[O-])cc6F)c6ccc([nH]6)c(-c6c(F)cc(S(=O)(=O)[O-])cc6F)c6nc(c(-c7c(F)cc(S(=O)(=O)[O-])cc7F)c7ccc4[nH]7)C=C6)C=C5)cc3)s1)CCC2
REMARK SMILES IDX 21 1 20 2 19 3 17 4 18 5 16 7 13 8 14 9 93 10 15 11 12 12
REMARK SMILES IDX 11 13 9 14 10 15 8 17 3 18 4 19 5 20 7 21 6 22 96 23 94 24
REMARK SMILES IDX 95 25 2 26 1 27 22 28 23 29 24 30 25 31 26 33 27 34 28 35
REMARK SMILES IDX 92 36 29 37 91 38 30 39 31 40 32 41 85 42 33 43 90 44 84 45
REMARK SMILES IDX 86 46 34 47 89 48 83 49 82 50 35 52 69 53 48 54 68 55 49 56
REMARK SMILES IDX 52 57 67 58 87 59 50 60 51 61 66 63 88 64 53 65 36 66 37 67
REMARK SMILES IDX 46 68 38 69 39 70 45 71 47 72 40 73 41 74 42 75 43 76 44 77
REMARK SMILES IDX 70 78 71 79 80 80 72 81 73 82 79 83 81 84 74 85 75 86 76 87
REMARK SMILES IDX 77 88 78 89 54 90 55 91 64 92 56 93 57 94 63 95 65 96 58 97
REMARK SMILES IDX 59 98 60 99 61 100 62 101
REMARK H PARENT 19 6 11 16 24 32 86 51 52 62
REMARK Flexibility Score: inf
ROOT
ATOM      1  C   UNL A   1      32.787  29.467  24.969  1.00  0.00     0.023 C 
ENDROOT
BRANCH   1   2
ATOM      2  C   UNL A   1      31.282  29.729  24.943  1.00  0.00     0.116 C 
BRANCH   2   3
ATOM      3  N   UNL A   1      30.830  29.910  23.582  1.00  0.00    -0.351 N 
ATOM      4  C   UNL A   1      30.362  28.979  22.692  1.00  0.00     0.261 C 
ATOM      5  O   UNL A   1      29.993  29.401  21.592  1.00  0.00    -0.268 OA
ATOM      6  H   UNL A   1      30.862  30.835  23.247  1.00  0.00     0.163 HD
BRANCH   4   7
ATOM      7  C   UNL A   1      30.310  27.579  23.073  1.00  0.00     0.092 A 
ATOM      8  C   UNL A   1      31.027  25.283  23.563  1.00  0.00     0.025 A 
ATOM      9  C   UNL A   1      29.729  25.496  23.967  1.00  0.00     0.018 A 
ATOM     10  S   UNL A   1      31.640  26.582  22.646  1.00  0.00    -0.133 S 
ATOM     11  C   UNL A   1      29.372  26.857  23.791  1.00  0.00     0.026 A 
BRANCH   8  12
ATOM     12  C   UNL A   1      31.937  24.248  24.086  1.00  0.00     0.163 C 
BRANCH  12  13
ATOM     13  N   UNL A   1      31.664  23.786  25.413  1.00  0.00    -0.347 N 
ATOM     14  C   UNL A   1      32.560  23.213  26.286  1.00  0.00     0.257 C 
ATOM     15  O   UNL A   1      32.201  23.032  27.451  1.00  0.00    -0.269 OA
ATOM     16  H   UNL A   1      30.739  23.890  25.735  1.00  0.00     0.164 HD
BRANCH  14  17
ATOM     17  C   UNL A   1      33.908  22.715  25.874  1.00  0.00     0.102 A 
ATOM     18  C   UNL A   1      34.224  21.512  25.217  1.00  0.00     0.226 A 
ATOM     19  N   UNL A   1      35.489  21.062  25.008  1.00  0.00    -0.218 NA
ATOM     20  C   UNL A   1      36.470  21.879  25.406  1.00  0.00     0.048 A 
ATOM     21  C   UNL A   1      34.981  23.570  26.186  1.00  0.00     0.025 A 
ATOM     22  C   UNL A   1      36.270  23.140  25.937  1.00  0.00    -0.025 A 
ATOM     23  C   UNL A   1      37.932  21.559  25.288  1.00  0.00     0.057 C 
ATOM     24  C   UNL A   1      37.562  23.862  26.111  1.00  0.00     0.038 C 
ATOM     25  C   UNL A   1      38.561  22.696  26.110  1.00  0.00     0.011 C 
BRANCH  18  26
ATOM     26  O   UNL A   1      33.290  20.615  24.783  1.00  0.00    -0.480 OA
ATOM     27  C   UNL A   1      33.788  19.286  24.785  1.00  0.00     0.280 C 
ENDBRANCH  18  26
ENDBRANCH  14  17
ENDBRANCH  12  13
ENDBRANCH   8  12
ENDBRANCH   4   7
ENDBRANCH   2   3
ENDBRANCH   1   2
BRANCH   1  28
ATOM     28  C   UNL A   1      33.157  28.182  25.706  1.00  0.00     0.023 C 
BRANCH  28  29
ATOM     29  C   UNL A   1      33.785  28.418  27.071  1.00  0.00     0.116 C 
BRANCH  29  30
ATOM     30  N   UNL A   1      33.575  29.774  27.561  1.00  0.00    -0.352 N 
ATOM     31  C   UNL A   1      34.489  30.556  28.220  1.00  0.00     0.251 C 
ATOM     32  H   UNL A   1      32.687  30.169  27.403  1.00  0.00     0.163 HD
ATOM     33  O   UNL A   1      34.183  31.644  28.693  1.00  0.00    -0.269 OA
BRANCH  31  34
ATOM     34  C   UNL A   1      35.848  30.012  28.361  1.00  0.00     0.039 A 
ATOM     35  C   UNL A   1      36.733  30.117  27.289  1.00  0.00     0.014 A 
ATOM     36  C   UNL A   1      36.269  29.561  29.617  1.00  0.00     0.014 A 
ATOM     37  C   UNL A   1      38.072  29.798  27.489  1.00  0.00     0.010 A 
ATOM     38  C   UNL A   1      37.615  29.307  29.827  1.00  0.00     0.010 A 
ATOM     39  C   UNL A   1      38.523  29.411  28.761  1.00  0.00    -0.014 A 
BRANCH  39  40
ATOM     40  C   UNL A   1      39.936  29.035  28.983  1.00  0.00     0.031 A 
ATOM     41  C   UNL A   1      40.873  30.056  29.562  1.00  0.00     0.074 A 
ATOM     42  C   UNL A   1      40.375  27.810  28.639  1.00  0.00     0.049 A 
ATOM     43  N   UNL A   1      42.150  29.953  29.814  1.00  0.00    -0.248 NA
ATOM     44  C   UNL A   1      40.299  31.375  29.883  1.00  0.00     0.031 C 
ATOM     45  C   UNL A   1      39.557  26.753  28.043  1.00  0.00     0.029 A 
ATOM     46  N   UNL A   1      41.623  27.250  28.741  1.00  0.00    -0.354 N 
ATOM     47  C   UNL A   1      42.529  31.186  30.327  1.00  0.00     0.074 A 
ATOM     48  C   UNL A   1      41.368  32.045  30.284  1.00  0.00     0.031 C 
ATOM     49  C   UNL A   1      40.319  25.662  27.854  1.00  0.00     0.029 A 
ATOM     50  C   UNL A   1      41.685  25.953  28.286  1.00  0.00     0.049 A 
ATOM     51  H   UNL A   1      42.401  27.730  29.105  1.00  0.00     0.167 HD
ATOM     52  C   UNL A   1      43.730  31.557  30.825  1.00  0.00     0.037 A 
ATOM     53  C   UNL A   1      42.727  25.100  28.230  1.00  0.00     0.037 A 
ATOM     54  C   UNL A   1      44.876  30.692  30.873  1.00  0.00     0.049 A 
ATOM     55  C   UNL A   1      44.068  25.552  28.746  1.00  0.00     0.074 A 
ATOM     56  C   UNL A   1      46.132  30.958  31.387  1.00  0.00     0.029 A 
ATOM     57  N   UNL A   1      44.906  29.391  30.389  1.00  0.00    -0.354 N 
ATOM     58  N   UNL A   1      44.399  26.705  29.281  1.00  0.00    -0.248 NA
ATOM     59  C   UNL A   1      45.174  24.590  28.659  1.00  0.00     0.031 C 
ATOM     60  C   UNL A   1      46.938  29.837  31.167  1.00  0.00     0.029 A 
ATOM     61  C   UNL A   1      46.168  28.851  30.568  1.00  0.00     0.049 A 
ATOM     62  H   UNL A   1      44.145  28.924  29.978  1.00  0.00     0.167 HD
ATOM     63  C   UNL A   1      45.745  26.597  29.615  1.00  0.00     0.074 A 
ATOM     64  C   UNL A   1      46.161  25.263  29.234  1.00  0.00     0.031 C 
ATOM     65  C   UNL A   1      46.562  27.518  30.185  1.00  0.00     0.037 A 
BRANCH  52  66
ATOM     66  C   UNL A   1      43.856  32.952  31.367  1.00  0.00     0.058 A 
ATOM     67  C   UNL A   1      44.238  34.025  30.545  1.00  0.00     0.135 A 
ATOM     68  C   UNL A   1      43.560  33.229  32.710  1.00  0.00     0.135 A 
ATOM     69  F   UNL A   1      44.557  33.812  29.258  1.00  0.00    -0.206 F 
ATOM     70  C   UNL A   1      44.340  35.320  31.040  1.00  0.00     0.059 A 
ATOM     71  C   UNL A   1      43.626  34.522  33.220  1.00  0.00     0.059 A 
ATOM     72  F   UNL A   1      43.199  32.239  33.542  1.00  0.00    -0.206 F 
ATOM     73  C   UNL A   1      44.026  35.560  32.378  1.00  0.00     0.060 A 
BRANCH  73  74
ATOM     74  S   UNL A   1      44.144  37.251  32.995  1.00  0.00     0.124 S 
ATOM     75  O   UNL A   1      42.993  37.316  33.891  1.00  0.00    -0.237 OA
ATOM     76  O   UNL A   1      45.452  37.253  33.643  1.00  0.00    -0.237 OA
ATOM     77  O   UNL A   1      44.044  38.063  31.787  1.00  0.00    -0.744 OA
ENDBRANCH  73  74
ENDBRANCH  52  66
BRANCH  53  78
ATOM     78  C   UNL A   1      42.533  23.725  27.698  1.00  0.00     0.058 A 
ATOM     79  C   UNL A   1      42.529  23.483  26.316  1.00  0.00     0.135 A 
ATOM     80  C   UNL A   1      42.369  22.624  28.553  1.00  0.00     0.135 A 
ATOM     81  F   UNL A   1      42.672  24.503  25.456  1.00  0.00    -0.206 F 
ATOM     82  C   UNL A   1      42.362  22.202  25.800  1.00  0.00     0.059 A 
ATOM     83  C   UNL A   1      42.225  21.330  28.062  1.00  0.00     0.059 A 
ATOM     84  F   UNL A   1      42.378  22.799  29.884  1.00  0.00    -0.206 F 
ATOM     85  C   UNL A   1      42.218  21.130  26.682  1.00  0.00     0.060 A 
BRANCH  85  86
ATOM     86  S   UNL A   1      42.064  19.465  25.997  1.00  0.00     0.124 S 
ATOM     87  O   UNL A   1      42.610  18.650  27.076  1.00  0.00    -0.237 OA
ATOM     88  O   UNL A   1      40.625  19.359  25.781  1.00  0.00    -0.237 OA
ATOM     89  O   UNL A   1      42.870  19.526  24.781  1.00  0.00    -0.744 OA
ENDBRANCH  85  86
ENDBRANCH  53  78
BRANCH  65  90
ATOM     90  C   UNL A   1      47.988  27.118  30.452  1.00  0.00     0.058 A 
ATOM     91  C   UNL A   1      49.024  27.462  29.572  1.00  0.00     0.135 A 
ATOM     92  C   UNL A   1      48.330  26.461  31.645  1.00  0.00     0.135 A 
ATOM     93  F   UNL A   1      48.751  28.088  28.416  1.00  0.00    -0.206 F 
ATOM     94  C   UNL A   1      50.350  27.155  29.857  1.00  0.00     0.059 A 
ATOM     95  C   UNL A   1      49.652  26.170  31.965  1.00  0.00     0.059 A 
ATOM     96  F   UNL A   1      47.377  26.121  32.527  1.00  0.00    -0.206 F 
ATOM     97  C   UNL A   1      50.655  26.515  31.061  1.00  0.00     0.060 A 
BRANCH  97  98
ATOM     98  S   UNL A   1      52.386  26.168  31.437  1.00  0.00     0.124 S 
ATOM     99  O   UNL A   1      52.956  26.034  30.099  1.00  0.00    -0.237 OA
ATOM    100  O   UNL A   1      52.786  27.358  32.181  1.00  0.00    -0.237 OA
ATOM    101  O   UNL A   1      52.325  24.936  32.217  1.00  0.00    -0.744 OA
ENDBRANCH  97  98
ENDBRANCH  65  90
ENDBRANCH  39  40
ENDBRANCH  31  34
ENDBRANCH  29  30
ENDBRANCH  28  29
ENDBRANCH   1  28
TORSDOF 18
ENDMDL
MODEL 2
REMARK VINA RESULT:     -11.1      2.541      3.429
REMARK SMILES COc1nc2c(cc1C(=O)NCc1ccc(C(=O)NCCCCNC(=O)c3ccc(-c4c5nc(c(-c6c(F)cc(S(=O)(=O)[O-])cc6F)c6ccc([nH]6)c(-c6c(F)cc(S(=O)(=O)[O-])cc6F)c6nc(c(-c7c(F)cc(S(=O)(=O)[O-])cc7F)c7ccc4[nH]7)C=C6)C=C5)cc3)s1)CCC2
REMARK SMILES IDX 21 1 20 2 19 3 17 4 18 5 16 7 13 8 14 9 93 10 15 11 12 12
REMARK SMILES IDX 11 13 9 14 10 15 8 17 3 18 4 19 5 20 7 21 6 22 96 23 94 24
REMARK SMILES IDX 95 25 2 26 1 27 22 28 23 29 24 30 25 31 26 33 27 34 28 35
REMARK SMILES IDX 92 36 29 37 91 38 30 39 31 40 32 41 85 42 33 43 90 44 84 45
REMARK SMILES IDX 86 46 34 47 89 48 83 49 82 50 35 52 69 53 48 54 68 55 49 56
REMARK SMILES IDX 52 57 67 58 87 59 50 60 51 61 66 63 88 64 53 65 36 66 37 67
REMARK SMILES IDX 46 68 38 69 39 70 45 71 47 72 40 73 41 74 42 75 43 76 44 77
REMARK SMILES IDX 70 78 71 79 80 80 72 81 73 82 79 83 81 84 74 85 75 86 76 87
REMARK SMILES IDX 77 88 78 89 54 90 55 91 64 92 56 93 57 94 63 95 65 96 58 97
REMARK SMILES IDX 59 98 60 99 61 100 62 101
REMARK H PARENT 19 6 11 16 24 32 86 51 52 62
REMARK Flexibility Score: inf
ROOT
ATOM      1  C   UNL A   1      33.130  30.109  26.952  1.00  0.00     0.023 C 
ENDROOT
BRANCH   1   2
ATOM      2  C   UNL A   1      32.329  29.712  25.713  1.00  0.00     0.116 C 
BRANCH   2   3
ATOM      3  N   UNL A   1      33.205  29.586  24.571  1.00  0.00    -0.351 N 
ATOM      4  C   UNL A   1      33.131  28.720  23.511  1.00  0.00     0.261 C 
ATOM      5  O   UNL A   1      33.990  28.846  22.632  1.00  0.00    -0.268 OA
ATOM      6  H   UNL A   1      33.966  30.212  24.551  1.00  0.00     0.163 HD
BRANCH   4   7
ATOM      7  C   UNL A   1      32.071  27.730  23.463  1.00  0.00     0.092 A 
ATOM      8  C   UNL A   1      30.926  25.558  23.470  1.00  0.00     0.025 A 
ATOM      9  C   UNL A   1      30.026  26.595  23.557  1.00  0.00     0.018 A 
ATOM     10  S   UNL A   1      32.509  26.101  23.147  1.00  0.00    -0.133 S 
ATOM     11  C   UNL A   1      30.707  27.834  23.676  1.00  0.00     0.026 A 
BRANCH   8  12
ATOM     12  C   UNL A   1      30.692  24.170  23.910  1.00  0.00     0.163 C 
BRANCH  12  13
ATOM     13  N   UNL A   1      30.635  23.963  25.325  1.00  0.00    -0.347 N 
ATOM     14  C   UNL A   1      31.678  23.596  26.145  1.00  0.00     0.257 C 
ATOM     15  O   UNL A   1      31.497  23.630  27.363  1.00  0.00    -0.269 OA
ATOM     16  H   UNL A   1      29.760  24.096  25.756  1.00  0.00     0.164 HD
BRANCH  14  17
ATOM     17  C   UNL A   1      32.981  23.072  25.636  1.00  0.00     0.102 A 
ATOM     18  C   UNL A   1      33.216  21.897  24.900  1.00  0.00     0.226 A 
ATOM     19  N   UNL A   1      34.449  21.413  24.600  1.00  0.00    -0.218 NA
ATOM     20  C   UNL A   1      35.481  22.169  24.988  1.00  0.00     0.048 A 
ATOM     21  C   UNL A   1      34.102  23.869  25.935  1.00  0.00     0.025 A 
ATOM     22  C   UNL A   1      35.359  23.406  25.596  1.00  0.00    -0.025 A 
ATOM     23  C   UNL A   1      36.921  21.803  24.776  1.00  0.00     0.057 C 
ATOM     24  C   UNL A   1      36.685  24.069  25.739  1.00  0.00     0.038 C 
ATOM     25  C   UNL A   1      37.636  22.869  25.622  1.00  0.00     0.011 C 
BRANCH  18  26
ATOM     26  O   UNL A   1      32.226  21.061  24.468  1.00  0.00    -0.480 OA
ATOM     27  C   UNL A   1      32.424  19.728  24.914  1.00  0.00     0.280 C 
ENDBRANCH  18  26
ENDBRANCH  14  17
ENDBRANCH  12  13
ENDBRANCH   8  12
ENDBRANCH   4   7
ENDBRANCH   2   3
ENDBRANCH   1   2
BRANCH   1  28
ATOM     28  C   UNL A   1      34.364  29.238  27.171  1.00  0.00     0.023 C 
BRANCH  28  29
ATOM     29  C   UNL A   1      35.549  29.990  27.755  1.00  0.00     0.116 C 
BRANCH  29  30
ATOM     30  N   UNL A   1      35.415  30.229  29.186  1.00  0.00    -0.352 N 
ATOM     31  C   UNL A   1      36.337  29.926  30.155  1.00  0.00     0.251 C 
ATOM     32  H   UNL A   1      34.578  30.650  29.488  1.00  0.00     0.163 HD
ATOM     33  O   UNL A   1      36.087  30.063  31.347  1.00  0.00    -0.269 OA
BRANCH  31  34
ATOM     34  C   UNL A   1      37.631  29.399  29.698  1.00  0.00     0.039 A 
ATOM     35  C   UNL A   1      38.034  29.642  28.385  1.00  0.00     0.014 A 
ATOM     36  C   UNL A   1      38.495  28.820  30.634  1.00  0.00     0.014 A 
ATOM     37  C   UNL A   1      39.339  29.331  28.014  1.00  0.00     0.010 A 
ATOM     38  C   UNL A   1      39.811  28.573  30.277  1.00  0.00     0.010 A 
ATOM     39  C   UNL A   1      40.238  28.814  28.961  1.00  0.00    -0.014 A 
BRANCH  39  40
ATOM     40  C   UNL A   1      41.617  28.447  28.575  1.00  0.00     0.031 A 
ATOM     41  C   UNL A   1      42.678  29.510  28.583  1.00  0.00     0.074 A 
ATOM     42  C   UNL A   1      41.903  27.188  28.193  1.00  0.00     0.049 A 
ATOM     43  N   UNL A   1      43.939  29.418  28.257  1.00  0.00    -0.248 NA
ATOM     44  C   UNL A   1      42.257  30.862  28.993  1.00  0.00     0.031 C 
ATOM     45  C   UNL A   1      40.943  26.085  28.123  1.00  0.00     0.029 A 
ATOM     46  N   UNL A   1      43.088  26.626  27.791  1.00  0.00    -0.354 N 
ATOM     47  C   UNL A   1      44.461  30.693  28.429  1.00  0.00     0.074 A 
ATOM     48  C   UNL A   1      43.370  31.556  28.818  1.00  0.00     0.031 C 
ATOM     49  C   UNL A   1      41.583  24.972  27.725  1.00  0.00     0.029 A 
ATOM     50  C   UNL A   1      42.989  25.289  27.484  1.00  0.00     0.049 A 
ATOM     51  H   UNL A   1      43.930  27.132  27.729  1.00  0.00     0.167 HD
ATOM     52  C   UNL A   1      45.746  31.099  28.311  1.00  0.00     0.037 A 
ATOM     53  C   UNL A   1      43.930  24.423  27.059  1.00  0.00     0.037 A 
ATOM     54  C   UNL A   1      46.827  30.230  27.935  1.00  0.00     0.049 A 
ATOM     55  C   UNL A   1      45.345  24.910  26.887  1.00  0.00     0.074 A 
ATOM     56  C   UNL A   1      48.171  30.532  27.817  1.00  0.00     0.029 A 
ATOM     57  N   UNL A   1      46.686  28.886  27.615  1.00  0.00    -0.354 N 
ATOM     58  N   UNL A   1      45.838  26.107  27.108  1.00  0.00    -0.248 NA
ATOM     59  C   UNL A   1      46.334  23.931  26.416  1.00  0.00     0.031 C 
ATOM     60  C   UNL A   1      48.836  29.386  27.375  1.00  0.00     0.029 A 
ATOM     61  C   UNL A   1      47.917  28.353  27.273  1.00  0.00     0.049 A 
ATOM     62  H   UNL A   1      45.838  28.388  27.628  1.00  0.00     0.167 HD
ATOM     63  C   UNL A   1      47.197  26.018  26.825  1.00  0.00     0.074 A 
ATOM     64  C   UNL A   1      47.450  24.647  26.432  1.00  0.00     0.031 C 
ATOM     65  C   UNL A   1      48.148  26.982  26.887  1.00  0.00     0.037 A 
BRANCH  52  66
ATOM     66  C   UNL A   1      46.048  32.541  28.604  1.00  0.00     0.058 A 
ATOM     67  C   UNL A   1      46.381  32.970  29.900  1.00  0.00     0.135 A 
ATOM     68  C   UNL A   1      46.040  33.498  27.579  1.00  0.00     0.135 A 
ATOM     69  F   UNL A   1      46.380  32.101  30.923  1.00  0.00    -0.206 F 
ATOM     70  C   UNL A   1      46.677  34.301  30.170  1.00  0.00     0.059 A 
ATOM     71  C   UNL A   1      46.362  34.830  27.821  1.00  0.00     0.059 A 
ATOM     72  F   UNL A   1      45.720  33.143  26.323  1.00  0.00    -0.206 F 
ATOM     73  C   UNL A   1      46.670  35.223  29.122  1.00  0.00     0.060 A 
BRANCH  73  74
ATOM     74  S   UNL A   1      47.078  36.941  29.492  1.00  0.00     0.124 S 
ATOM     75  O   UNL A   1      47.477  37.436  28.178  1.00  0.00    -0.237 OA
ATOM     76  O   UNL A   1      45.812  37.456  30.004  1.00  0.00    -0.237 OA
ATOM     77  O   UNL A   1      48.152  36.834  30.474  1.00  0.00    -0.744 OA
ENDBRANCH  73  74
ENDBRANCH  52  66
BRANCH  53  78
ATOM     78  C   UNL A   1      43.570  23.003  26.801  1.00  0.00     0.058 A 
ATOM     79  C   UNL A   1      43.237  22.143  27.858  1.00  0.00     0.135 A 
ATOM     80  C   UNL A   1      43.530  22.481  25.498  1.00  0.00     0.135 A 
ATOM     81  F   UNL A   1      43.269  22.591  29.122  1.00  0.00    -0.206 F 
ATOM     82  C   UNL A   1      42.884  20.816  27.636  1.00  0.00     0.059 A 
ATOM     83  C   UNL A   1      43.157  21.164  25.249  1.00  0.00     0.059 A 
ATOM     84  F   UNL A   1      43.828  23.265  24.450  1.00  0.00    -0.206 F 
ATOM     85  C   UNL A   1      42.840  20.337  26.326  1.00  0.00     0.060 A 
BRANCH  85  86
ATOM     86  S   UNL A   1      42.322  18.629  26.050  1.00  0.00     0.124 S 
ATOM     87  O   UNL A   1      43.211  18.221  24.969  1.00  0.00    -0.237 OA
ATOM     88  O   UNL A   1      42.577  18.021  27.352  1.00  0.00    -0.237 OA
ATOM     89  O   UNL A   1      40.912  18.759  25.693  1.00  0.00    -0.744 OA
ENDBRANCH  85  86
ENDBRANCH  53  78
BRANCH  65  90
ATOM     90  C   UNL A   1      49.560  26.596  26.539  1.00  0.00     0.058 A 
ATOM     91  C   UNL A   1      50.412  25.999  27.480  1.00  0.00     0.135 A 
ATOM     92  C   UNL A   1      50.035  26.746  25.225  1.00  0.00     0.135 A 
ATOM     93  F   UNL A   1      50.008  25.836  28.750  1.00  0.00    -0.206 F 
ATOM     94  C   UNL A   1      51.691  25.577  27.136  1.00  0.00     0.059 A 
ATOM     95  C   UNL A   1      51.300  26.304  24.852  1.00  0.00     0.059 A 
ATOM     96  F   UNL A   1      49.255  27.299  24.284  1.00  0.00    -0.206 F 
ATOM     97  C   UNL A   1      52.123  25.727  25.816  1.00  0.00     0.060 A 
BRANCH  97  98
ATOM     98  S   UNL A   1      53.769  25.130  25.377  1.00  0.00     0.124 S 
ATOM     99  O   UNL A   1      53.561  23.685  25.351  1.00  0.00    -0.237 OA
ATOM    100  O   UNL A   1      53.992  25.762  24.080  1.00  0.00    -0.237 OA
ATOM    101  O   UNL A   1      54.612  25.621  26.462  1.00  0.00    -0.744 OA
ENDBRANCH  97  98
ENDBRANCH  65  90
ENDBRANCH  39  40
ENDBRANCH  31  34
ENDBRANCH  29  30
ENDBRANCH  28  29
ENDBRANCH   1  28
TORSDOF 18
ENDMDL
MODEL 3
REMARK VINA RESULT:     -11.0      4.636     10.366
REMARK SMILES COc1nc2c(cc1C(=O)NCc1ccc(C(=O)NCCCCNC(=O)c3ccc(-c4c5nc(c(-c6c(F)cc(S(=O)(=O)[O-])cc6F)c6ccc([nH]6)c(-c6c(F)cc(S(=O)(=O)[O-])cc6F)c6nc(c(-c7c(F)cc(S(=O)(=O)[O-])cc7F)c7ccc4[nH]7)C=C6)C=C5)cc3)s1)CCC2
REMARK SMILES IDX 21 1 20 2 19 3 17 4 18 5 16 7 13 8 14 9 93 10 15 11 12 12
REMARK SMILES IDX 11 13 9 14 10 15 8 17 3 18 4 19 5 20 7 21 6 22 96 23 94 24
REMARK SMILES IDX 95 25 2 26 1 27 22 28 23 29 24 30 25 31 26 33 27 34 28 35
REMARK SMILES IDX 92 36 29 37 91 38 30 39 31 40 32 41 85 42 33 43 90 44 84 45
REMARK SMILES IDX 86 46 34 47 89 48 83 49 82 50 35 52 69 53 48 54 68 55 49 56
REMARK SMILES IDX 52 57 67 58 87 59 50 60 51 61 66 63 88 64 53 65 36 66 37 67
REMARK SMILES IDX 46 68 38 69 39 70 45 71 47 72 40 73 41 74 42 75 43 76 44 77
REMARK SMILES IDX 70 78 71 79 80 80 72 81 73 82 79 83 81 84 74 85 75 86 76 87
REMARK SMILES IDX 77 88 78 89 54 90 55 91 64 92 56 93 57 94 63 95 65 96 58 97
REMARK SMILES IDX 59 98 60 99 61 100 62 101
REMARK H PARENT 19 6 11 16 24 32 86 51 52 62
REMARK Flexibility Score: inf
ROOT
ATOM      1  C   UNL A   1      37.017  23.232  24.790  1.00  0.00     0.023 C 
ENDROOT
BRANCH   1   2
ATOM      2  C   UNL A   1      35.497  23.105  24.880  1.00  0.00     0.116 C 
BRANCH   2   3
ATOM      3  N   UNL A   1      35.109  21.714  24.842  1.00  0.00    -0.351 N 
ATOM      4  C   UNL A   1      33.872  21.163  24.632  1.00  0.00     0.261 C 
ATOM      5  O   UNL A   1      33.812  19.930  24.604  1.00  0.00    -0.268 OA
ATOM      6  H   UNL A   1      35.838  21.068  24.990  1.00  0.00     0.163 HD
BRANCH   4   7
ATOM      7  C   UNL A   1      32.721  22.028  24.443  1.00  0.00     0.092 A 
ATOM      8  C   UNL A   1      30.935  23.644  24.914  1.00  0.00     0.025 A 
ATOM      9  C   UNL A   1      31.031  23.388  23.566  1.00  0.00     0.018 A 
ATOM     10  S   UNL A   1      31.907  22.596  25.842  1.00  0.00    -0.133 S 
ATOM     11  C   UNL A   1      32.144  22.550  23.297  1.00  0.00     0.026 A 
BRANCH   8  12
ATOM     12  C   UNL A   1      30.349  24.851  25.526  1.00  0.00     0.163 C 
BRANCH  12  13
ATOM     13  N   UNL A   1      29.754  25.786  24.621  1.00  0.00    -0.347 N 
ATOM     14  C   UNL A   1      30.332  26.932  24.123  1.00  0.00     0.257 C 
ATOM     15  O   UNL A   1      29.747  27.531  23.220  1.00  0.00    -0.269 OA
ATOM     16  H   UNL A   1      28.836  25.590  24.323  1.00  0.00     0.164 HD
BRANCH  14  17
ATOM     17  C   UNL A   1      31.580  27.534  24.681  1.00  0.00     0.102 A 
ATOM     18  C   UNL A   1      32.901  27.071  24.548  1.00  0.00     0.226 A 
ATOM     19  N   UNL A   1      33.968  27.592  25.209  1.00  0.00    -0.218 NA
ATOM     20  C   UNL A   1      33.713  28.660  25.973  1.00  0.00     0.048 A 
ATOM     21  C   UNL A   1      31.392  28.714  25.425  1.00  0.00     0.025 A 
ATOM     22  C   UNL A   1      32.478  29.277  26.067  1.00  0.00    -0.025 A 
ATOM     23  C   UNL A   1      34.745  29.369  26.802  1.00  0.00     0.057 C 
ATOM     24  C   UNL A   1      32.567  30.540  26.854  1.00  0.00     0.038 C 
ATOM     25  C   UNL A   1      33.869  30.316  27.637  1.00  0.00     0.011 C 
BRANCH  18  26
ATOM     26  O   UNL A   1      33.254  25.986  23.797  1.00  0.00    -0.480 OA
ATOM     27  C   UNL A   1      33.517  26.336  22.447  1.00  0.00     0.280 C 
ENDBRANCH  18  26
ENDBRANCH  14  17
ENDBRANCH  12  13
ENDBRANCH   8  12
ENDBRANCH   4   7
ENDBRANCH   2   3
ENDBRANCH   1   2
BRANCH   1  28
ATOM     28  C   UNL A   1      37.707  23.133  26.148  1.00  0.00     0.023 C 
BRANCH  28  29
ATOM     29  C   UNL A   1      38.570  24.338  26.486  1.00  0.00     0.116 C 
BRANCH  29  30
ATOM     30  N   UNL A   1      39.969  24.149  26.124  1.00  0.00    -0.352 N 
ATOM     31  C   UNL A   1      41.031  24.910  26.541  1.00  0.00     0.251 C 
ATOM     32  H   UNL A   1      40.172  23.399  25.519  1.00  0.00     0.163 HD
ATOM     33  O   UNL A   1      42.159  24.741  26.093  1.00  0.00    -0.269 OA
BRANCH  31  34
ATOM     34  C   UNL A   1      40.747  25.961  27.529  1.00  0.00     0.039 A 
ATOM     35  C   UNL A   1      39.771  25.732  28.497  1.00  0.00     0.014 A 
ATOM     36  C   UNL A   1      41.578  27.086  27.578  1.00  0.00     0.014 A 
ATOM     37  C   UNL A   1      39.648  26.629  29.554  1.00  0.00     0.010 A 
ATOM     38  C   UNL A   1      41.494  27.940  28.666  1.00  0.00     0.010 A 
ATOM     39  C   UNL A   1      40.520  27.725  29.654  1.00  0.00    -0.014 A 
BRANCH  39  40
ATOM     40  C   UNL A   1      40.382  28.706  30.752  1.00  0.00     0.031 A 
ATOM     41  C   UNL A   1      41.264  28.570  31.959  1.00  0.00     0.074 A 
ATOM     42  C   UNL A   1      39.457  29.682  30.677  1.00  0.00     0.049 A 
ATOM     43  N   UNL A   1      41.294  29.297  33.043  1.00  0.00    -0.248 NA
ATOM     44  C   UNL A   1      42.226  27.454  31.953  1.00  0.00     0.031 C 
ATOM     45  C   UNL A   1      38.531  29.888  29.563  1.00  0.00     0.029 A 
ATOM     46  N   UNL A   1      39.145  30.683  31.561  1.00  0.00    -0.354 N 
ATOM     47  C   UNL A   1      42.280  28.732  33.842  1.00  0.00     0.074 A 
ATOM     48  C   UNL A   1      42.773  27.561  33.154  1.00  0.00     0.031 C 
ATOM     49  C   UNL A   1      37.769  30.966  29.820  1.00  0.00     0.029 A 
ATOM     50  C   UNL A   1      38.133  31.507  31.128  1.00  0.00     0.049 A 
ATOM     51  H   UNL A   1      39.604  30.801  32.424  1.00  0.00     0.167 HD
ATOM     52  C   UNL A   1      42.757  29.174  35.028  1.00  0.00     0.037 A 
ATOM     53  C   UNL A   1      37.568  32.577  31.722  1.00  0.00     0.037 A 
ATOM     54  C   UNL A   1      42.266  30.345  35.700  1.00  0.00     0.049 A 
ATOM     55  C   UNL A   1      38.083  33.021  33.066  1.00  0.00     0.074 A 
ATOM     56  C   UNL A   1      42.702  30.898  36.890  1.00  0.00     0.029 A 
ATOM     57  N   UNL A   1      41.229  31.145  35.240  1.00  0.00    -0.354 N 
ATOM     58  N   UNL A   1      39.055  32.510  33.786  1.00  0.00    -0.248 NA
ATOM     59  C   UNL A   1      37.433  34.188  33.676  1.00  0.00     0.031 C 
ATOM     60  C   UNL A   1      41.894  32.002  37.177  1.00  0.00     0.029 A 
ATOM     61  C   UNL A   1      40.993  32.172  36.137  1.00  0.00     0.049 A 
ATOM     62  H   UNL A   1      40.735  31.002  34.402  1.00  0.00     0.167 HD
ATOM     63  C   UNL A   1      39.148  33.308  34.922  1.00  0.00     0.074 A 
ATOM     64  C   UNL A   1      38.143  34.342  34.785  1.00  0.00     0.031 C 
ATOM     65  C   UNL A   1      39.988  33.195  35.981  1.00  0.00     0.037 A 
BRANCH  52  66
ATOM     66  C   UNL A   1      43.871  28.391  35.663  1.00  0.00     0.058 A 
ATOM     67  C   UNL A   1      45.216  28.651  35.354  1.00  0.00     0.135 A 
ATOM     68  C   UNL A   1      43.597  27.396  36.614  1.00  0.00     0.135 A 
ATOM     69  F   UNL A   1      45.533  29.575  34.433  1.00  0.00    -0.206 F 
ATOM     70  C   UNL A   1      46.250  27.939  35.952  1.00  0.00     0.059 A 
ATOM     71  C   UNL A   1      44.617  26.692  37.247  1.00  0.00     0.059 A 
ATOM     72  F   UNL A   1      42.328  27.101  36.939  1.00  0.00    -0.206 F 
ATOM     73  C   UNL A   1      45.940  26.965  36.902  1.00  0.00     0.060 A 
BRANCH  73  74
ATOM     74  S   UNL A   1      47.297  26.068  37.681  1.00  0.00     0.124 S 
ATOM     75  O   UNL A   1      47.552  26.890  38.861  1.00  0.00    -0.237 OA
ATOM     76  O   UNL A   1      46.698  24.762  37.937  1.00  0.00    -0.237 OA
ATOM     77  O   UNL A   1      48.346  26.086  36.666  1.00  0.00    -0.744 OA
ENDBRANCH  73  74
ENDBRANCH  52  66
BRANCH  53  78
ATOM     78  C   UNL A   1      36.479  33.319  31.033  1.00  0.00     0.058 A 
ATOM     79  C   UNL A   1      36.757  34.156  29.942  1.00  0.00     0.135 A 
ATOM     80  C   UNL A   1      35.139  33.195  31.435  1.00  0.00     0.135 A 
ATOM     81  F   UNL A   1      38.022  34.316  29.526  1.00  0.00    -0.206 F 
ATOM     82  C   UNL A   1      35.750  34.848  29.277  1.00  0.00     0.059 A 
ATOM     83  C   UNL A   1      34.111  33.857  30.770  1.00  0.00     0.059 A 
ATOM     84  F   UNL A   1      34.817  32.397  32.465  1.00  0.00    -0.206 F 
ATOM     85  C   UNL A   1      34.428  34.686  29.694  1.00  0.00     0.060 A 
BRANCH  85  86
ATOM     86  S   UNL A   1      33.126  35.543  28.782  1.00  0.00     0.124 S 
ATOM     87  O   UNL A   1      32.537  34.454  28.013  1.00  0.00    -0.237 OA
ATOM     88  O   UNL A   1      32.305  36.081  29.862  1.00  0.00    -0.237 OA
ATOM     89  O   UNL A   1      33.859  36.540  28.007  1.00  0.00    -0.744 OA
ENDBRANCH  85  86
ENDBRANCH  53  78
BRANCH  65  90
ATOM     90  C   UNL A   1      39.877  34.222  37.075  1.00  0.00     0.058 A 
ATOM     91  C   UNL A   1      40.539  35.456  36.994  1.00  0.00     0.135 A 
ATOM     92  C   UNL A   1      39.030  34.001  38.173  1.00  0.00     0.135 A 
ATOM     93  F   UNL A   1      41.363  35.716  35.966  1.00  0.00    -0.206 F 
ATOM     94  C   UNL A   1      40.377  36.432  37.971  1.00  0.00     0.059 A 
ATOM     95  C   UNL A   1      38.830  34.975  39.147  1.00  0.00     0.059 A 
ATOM     96  F   UNL A   1      38.364  32.843  38.292  1.00  0.00    -0.206 F 
ATOM     97  C   UNL A   1      39.514  36.184  39.041  1.00  0.00     0.060 A 
BRANCH  97  98
ATOM     98  S   UNL A   1      39.279  37.480  40.275  1.00  0.00     0.124 S 
ATOM     99  O   UNL A   1      38.295  38.336  39.619  1.00  0.00    -0.237 OA
ATOM    100  O   UNL A   1      38.796  36.726  41.428  1.00  0.00    -0.237 OA
ATOM    101  O   UNL A   1      40.611  38.057  40.423  1.00  0.00    -0.744 OA
ENDBRANCH  97  98
ENDBRANCH  65  90
ENDBRANCH  39  40
ENDBRANCH  31  34
ENDBRANCH  29  30
ENDBRANCH  28  29
ENDBRANCH   1  28
TORSDOF 18
ENDMDL
