MODEL 1
REMARK VINA RESULT:     -12.7      0.000      0.000
REMARK SMILES CC[C@@H](C(=O)Nc1ccc(OC(C)=O)cc1C(=O)NCCCCNC(=O)c1ccc(-c2c3nc(c(-c4c(F)cc(S(=O)(=O)[O-])cc4F)c4ccc([nH]4)c(-c4c(F)cc(S(=O)(=O)[O-])cc4F)c4nc(c(-c5c(F)cc(S(=O)(=O)[O-])cc5F)c5ccc2[nH]5)C=C4)C=C3)cc1)c1ccccc1
REMARK SMILES IDX 21 1 20 2 19 3 17 4 18 5 16 7 7 8 8 9 9 10 15 11 10 12 6 13
REMARK SMILES IDX 4 14 5 15 3 17 2 18 1 19 93 20 94 21 98 22 95 23 97 24 96 25
REMARK SMILES IDX 11 26 12 27 13 28 14 29 22 30 23 31 24 32 25 33 26 35 27 36
REMARK SMILES IDX 28 37 92 38 29 39 91 40 30 41 31 42 32 43 85 44 33 45 90 46
REMARK SMILES IDX 84 47 86 48 34 49 89 50 83 51 82 52 35 54 69 55 48 56 68 57
REMARK SMILES IDX 49 58 52 59 67 60 87 61 50 62 51 63 66 65 88 66 53 67 36 68
REMARK SMILES IDX 37 69 46 70 38 71 39 72 45 73 47 74 40 75 41 76 42 77 43 78
REMARK SMILES IDX 44 79 70 80 71 81 80 82 72 83 73 84 79 85 81 86 74 87 75 88
REMARK SMILES IDX 76 89 77 90 78 91 54 92 55 93 64 94 56 95 57 96 63 97 65 98
REMARK SMILES IDX 58 99 59 100 60 101 61 102 62 103
REMARK H PARENT 19 6 6 16 24 34 86 53 52 64
REMARK Flexibility Score: inf
ROOT
ATOM      1  C   UNL A   1      38.150  23.365  26.118  1.00  0.00     0.023 C 
ENDROOT
BRANCH   1   2
ATOM      2  C   UNL A   1      36.883  22.660  25.646  1.00  0.00     0.116 C 
BRANCH   2   3
ATOM      3  N   UNL A   1      35.908  22.421  26.687  1.00  0.00    -0.352 N 
ATOM      4  C   UNL A   1      34.598  22.023  26.635  1.00  0.00     0.253 C 
ATOM      5  O   UNL A   1      33.999  21.932  27.710  1.00  0.00    -0.269 OA
ATOM      6  H   UNL A   1      36.247  22.572  27.599  1.00  0.00     0.163 HD
BRANCH   4   7
ATOM      7  C   UNL A   1      33.823  21.728  25.387  1.00  0.00     0.067 A 
ATOM      8  C   UNL A   1      33.436  22.600  24.356  1.00  0.00     0.054 A 
ATOM      9  C   UNL A   1      32.531  22.147  23.368  1.00  0.00     0.031 A 
ATOM     10  C   UNL A   1      32.186  20.804  23.260  1.00  0.00     0.049 A 
ATOM     11  C   UNL A   1      33.452  20.363  25.267  1.00  0.00     0.063 A 
ATOM     12  C   UNL A   1      32.710  19.911  24.179  1.00  0.00     0.131 A 
BRANCH   8  13
ATOM     13  N   UNL A   1      33.800  23.934  24.172  1.00  0.00    -0.325 N 
ATOM     14  C   UNL A   1      33.254  25.150  24.426  1.00  0.00     0.231 C 
ATOM     15  O   UNL A   1      33.968  26.071  23.987  1.00  0.00    -0.274 OA
ATOM     16  H   UNL A   1      34.684  24.014  23.747  1.00  0.00     0.169 HD
BRANCH  14  17
ATOM     17  C   UNL A   1      32.028  25.490  25.317  1.00  0.00     0.108 C 
BRANCH  17  18
ATOM     18  C   UNL A   1      30.628  24.952  24.997  1.00  0.00     0.015 C 
ATOM     19  C   UNL A   1      30.294  24.898  23.516  1.00  0.00     0.005 C 
ENDBRANCH  17  18
BRANCH  17  20
ATOM     20  C   UNL A   1      31.975  27.009  25.590  1.00  0.00    -0.036 A 
ATOM     21  C   UNL A   1      32.379  27.492  26.849  1.00  0.00     0.004 A 
ATOM     22  C   UNL A   1      31.526  27.944  24.641  1.00  0.00     0.004 A 
ATOM     23  C   UNL A   1      32.297  28.850  27.163  1.00  0.00     0.000 A 
ATOM     24  C   UNL A   1      31.423  29.300  24.965  1.00  0.00     0.000 A 
ATOM     25  C   UNL A   1      31.796  29.750  26.229  1.00  0.00     0.000 A 
ENDBRANCH  17  20
ENDBRANCH  14  17
ENDBRANCH   8  13
BRANCH  12  26
ATOM     26  O   UNL A   1      32.395  18.552  24.019  1.00  0.00    -0.427 OA
BRANCH  26  27
ATOM     27  C   UNL A   1      32.928  17.817  22.958  1.00  0.00     0.308 C 
ATOM     28  C   UNL A   1      34.147  16.995  23.260  1.00  0.00     0.139 C 
ATOM     29  O   UNL A   1      32.371  17.786  21.863  1.00  0.00    -0.252 OA
ENDBRANCH  26  27
ENDBRANCH  12  26
ENDBRANCH   4   7
ENDBRANCH   2   3
ENDBRANCH   1   2
BRANCH   1  30
ATOM     30  C   UNL A   1      39.295  22.440  26.556  1.00  0.00     0.023 C 
BRANCH  30  31
ATOM     31  C   UNL A   1      40.622  23.109  26.928  1.00  0.00     0.116 C 
BRANCH  31  32
ATOM     32  N   UNL A   1      41.117  24.043  25.927  1.00  0.00    -0.352 N 
ATOM     33  C   UNL A   1      41.393  25.388  26.019  1.00  0.00     0.251 C 
ATOM     34  H   UNL A   1      41.281  23.648  25.041  1.00  0.00     0.163 HD
ATOM     35  O   UNL A   1      41.716  26.016  25.014  1.00  0.00    -0.269 OA
BRANCH  33  36
ATOM     36  C   UNL A   1      41.268  26.095  27.313  1.00  0.00     0.039 A 
ATOM     37  C   UNL A   1      42.354  26.834  27.788  1.00  0.00     0.014 A 
ATOM     38  C   UNL A   1      40.091  26.033  28.062  1.00  0.00     0.014 A 
ATOM     39  C   UNL A   1      42.220  27.591  28.957  1.00  0.00     0.010 A 
ATOM     40  C   UNL A   1      39.933  26.841  29.188  1.00  0.00     0.010 A 
ATOM     41  C   UNL A   1      40.990  27.644  29.637  1.00  0.00    -0.014 A 
BRANCH  41  42
ATOM     42  C   UNL A   1      40.793  28.590  30.770  1.00  0.00     0.031 A 
ATOM     43  C   UNL A   1      41.617  28.486  32.025  1.00  0.00     0.074 A 
ATOM     44  C   UNL A   1      39.821  29.521  30.682  1.00  0.00     0.049 A 
ATOM     45  N   UNL A   1      41.584  29.239  33.095  1.00  0.00    -0.248 NA
ATOM     46  C   UNL A   1      42.583  27.381  32.100  1.00  0.00     0.031 C 
ATOM     47  C   UNL A   1      38.900  29.676  29.554  1.00  0.00     0.029 A 
ATOM     48  N   UNL A   1      39.443  30.513  31.553  1.00  0.00    -0.354 N 
ATOM     49  C   UNL A   1      42.521  28.702  33.970  1.00  0.00     0.074 A 
ATOM     50  C   UNL A   1      43.066  27.525  33.327  1.00  0.00     0.031 C 
ATOM     51  C   UNL A   1      38.090  30.721  29.784  1.00  0.00     0.029 A 
ATOM     52  C   UNL A   1      38.411  31.295  31.087  1.00  0.00     0.049 A 
ATOM     53  H   UNL A   1      39.870  30.653  32.429  1.00  0.00     0.167 HD
ATOM     54  C   UNL A   1      42.909  29.161  35.185  1.00  0.00     0.037 A 
ATOM     55  C   UNL A   1      37.795  32.357  31.640  1.00  0.00     0.037 A 
ATOM     56  C   UNL A   1      42.376  30.343  35.814  1.00  0.00     0.049 A 
ATOM     57  C   UNL A   1      38.261  32.861  32.978  1.00  0.00     0.074 A 
ATOM     58  C   UNL A   1      42.756  30.927  37.011  1.00  0.00     0.029 A 
ATOM     59  N   UNL A   1      41.347  31.119  35.303  1.00  0.00    -0.354 N 
ATOM     60  N   UNL A   1      39.211  32.392  33.750  1.00  0.00    -0.248 NA
ATOM     61  C   UNL A   1      37.577  34.046  33.516  1.00  0.00     0.031 C 
ATOM     62  C   UNL A   1      41.928  32.031  37.242  1.00  0.00     0.029 A 
ATOM     63  C   UNL A   1      41.063  32.163  36.170  1.00  0.00     0.049 A 
ATOM     64  H   UNL A   1      40.885  30.953  34.449  1.00  0.00     0.167 HD
ATOM     65  C   UNL A   1      39.253  33.234  34.856  1.00  0.00     0.074 A 
ATOM     66  C   UNL A   1      38.245  34.253  34.642  1.00  0.00     0.031 C 
ATOM     67  C   UNL A   1      40.052  33.167  35.950  1.00  0.00     0.037 A 
BRANCH  54  68
ATOM     68  C   UNL A   1      43.976  28.387  35.912  1.00  0.00     0.058 A 
ATOM     69  C   UNL A   1      45.339  28.691  35.757  1.00  0.00     0.135 A 
ATOM     70  C   UNL A   1      43.635  27.358  36.805  1.00  0.00     0.135 A 
ATOM     71  F   UNL A   1      45.722  29.657  34.908  1.00  0.00    -0.206 F 
ATOM     72  C   UNL A   1      46.325  27.983  36.435  1.00  0.00     0.059 A 
ATOM     73  C   UNL A   1      44.603  26.653  37.514  1.00  0.00     0.059 A 
ATOM     74  F   UNL A   1      42.348  27.027  36.994  1.00  0.00    -0.206 F 
ATOM     75  C   UNL A   1      45.947  26.964  37.311  1.00  0.00     0.060 A 
BRANCH  75  76
ATOM     76  S   UNL A   1      47.240  26.055  38.185  1.00  0.00     0.124 S 
ATOM     77  O   UNL A   1      46.467  25.368  39.214  1.00  0.00    -0.237 OA
ATOM     78  O   UNL A   1      47.790  25.206  37.134  1.00  0.00    -0.237 OA
ATOM     79  O   UNL A   1      48.130  27.108  38.666  1.00  0.00    -0.744 OA
ENDBRANCH  75  76
ENDBRANCH  54  68
BRANCH  55  80
ATOM     80  C   UNL A   1      36.694  33.039  30.910  1.00  0.00     0.058 A 
ATOM     81  C   UNL A   1      35.354  32.830  31.264  1.00  0.00     0.135 A 
ATOM     82  C   UNL A   1      36.961  33.927  29.855  1.00  0.00     0.135 A 
ATOM     83  F   UNL A   1      35.048  31.986  32.261  1.00  0.00    -0.206 F 
ATOM     84  C   UNL A   1      34.314  33.462  30.590  1.00  0.00     0.059 A 
ATOM     85  C   UNL A   1      35.940  34.590  29.183  1.00  0.00     0.059 A 
ATOM     86  F   UNL A   1      38.228  34.175  29.490  1.00  0.00    -0.206 F 
ATOM     87  C   UNL A   1      34.617  34.344  29.552  1.00  0.00     0.060 A 
BRANCH  87  88
ATOM     88  S   UNL A   1      33.264  35.203  28.719  1.00  0.00     0.124 S 
ATOM     89  O   UNL A   1      32.647  34.117  27.966  1.00  0.00    -0.237 OA
ATOM     90  O   UNL A   1      32.492  35.722  29.842  1.00  0.00    -0.237 OA
ATOM     91  O   UNL A   1      33.952  36.214  27.922  1.00  0.00    -0.744 OA
ENDBRANCH  87  88
ENDBRANCH  55  80
BRANCH  67  92
ATOM     92  C   UNL A   1      39.875  34.235  36.994  1.00  0.00     0.058 A 
ATOM     93  C   UNL A   1      40.492  35.490  36.876  1.00  0.00     0.135 A 
ATOM     94  C   UNL A   1      39.057  34.009  38.114  1.00  0.00     0.135 A 
ATOM     95  F   UNL A   1      41.288  35.754  35.828  1.00  0.00    -0.206 F 
ATOM     96  C   UNL A   1      40.332  36.473  37.847  1.00  0.00     0.059 A 
ATOM     97  C   UNL A   1      38.861  34.988  39.084  1.00  0.00     0.059 A 
ATOM     98  F   UNL A   1      38.435  32.830  38.270  1.00  0.00    -0.206 F 
ATOM     99  C   UNL A   1      39.516  36.211  38.949  1.00  0.00     0.060 A 
BRANCH  99 100
ATOM    100  S   UNL A   1      39.306  37.499  40.198  1.00  0.00     0.124 S 
ATOM    101  O   UNL A   1      38.899  36.717  41.360  1.00  0.00    -0.237 OA
ATOM    102  O   UNL A   1      40.638  38.091  40.266  1.00  0.00    -0.237 OA
ATOM    103  O   UNL A   1      38.274  38.358  39.627  1.00  0.00    -0.744 OA
ENDBRANCH  99 100
ENDBRANCH  67  92
ENDBRANCH  41  42
ENDBRANCH  33  36
ENDBRANCH  31  32
ENDBRANCH  30  31
ENDBRANCH   1  30
TORSDOF 20
ENDMDL
MODEL 2
REMARK VINA RESULT:     -12.2      6.028      8.196
REMARK SMILES CC[C@@H](C(=O)Nc1ccc(OC(C)=O)cc1C(=O)NCCCCNC(=O)c1ccc(-c2c3nc(c(-c4c(F)cc(S(=O)(=O)[O-])cc4F)c4ccc([nH]4)c(-c4c(F)cc(S(=O)(=O)[O-])cc4F)c4nc(c(-c5c(F)cc(S(=O)(=O)[O-])cc5F)c5ccc2[nH]5)C=C4)C=C3)cc1)c1ccccc1
REMARK SMILES IDX 21 1 20 2 19 3 17 4 18 5 16 7 7 8 8 9 9 10 15 11 10 12 6 13
REMARK SMILES IDX 4 14 5 15 3 17 2 18 1 19 93 20 94 21 98 22 95 23 97 24 96 25
REMARK SMILES IDX 11 26 12 27 13 28 14 29 22 30 23 31 24 32 25 33 26 35 27 36
REMARK SMILES IDX 28 37 92 38 29 39 91 40 30 41 31 42 32 43 85 44 33 45 90 46
REMARK SMILES IDX 84 47 86 48 34 49 89 50 83 51 82 52 35 54 69 55 48 56 68 57
REMARK SMILES IDX 49 58 52 59 67 60 87 61 50 62 51 63 66 65 88 66 53 67 36 68
REMARK SMILES IDX 37 69 46 70 38 71 39 72 45 73 47 74 40 75 41 76 42 77 43 78
REMARK SMILES IDX 44 79 70 80 71 81 80 82 72 83 73 84 79 85 81 86 74 87 75 88
REMARK SMILES IDX 76 89 77 90 78 91 54 92 55 93 64 94 56 95 57 96 63 97 65 98
REMARK SMILES IDX 58 99 59 100 60 101 61 102 62 103
REMARK H PARENT 19 6 6 16 24 34 86 53 52 64
REMARK Flexibility Score: inf
ROOT
ATOM      1  C   UNL A   1      37.396  21.808  24.393  1.00  0.00     0.023 C 
ENDROOT
BRANCH   1   2
ATOM      2  C   UNL A   1      36.716  22.931  25.169  1.00  0.00     0.116 C 
BRANCH   2   3
ATOM      3  N   UNL A   1      35.944  22.487  26.309  1.00  0.00    -0.352 N 
ATOM      4  C   UNL A   1      34.743  21.832  26.397  1.00  0.00     0.253 C 
ATOM      5  O   UNL A   1      34.311  21.610  27.532  1.00  0.00    -0.269 OA
ATOM      6  H   UNL A   1      36.355  22.694  27.179  1.00  0.00     0.163 HD
BRANCH   4   7
ATOM      7  C   UNL A   1      33.896  21.400  25.240  1.00  0.00     0.067 A 
ATOM      8  C   UNL A   1      33.401  22.163  24.168  1.00  0.00     0.054 A 
ATOM      9  C   UNL A   1      32.450  21.592  23.292  1.00  0.00     0.031 A 
ATOM     10  C   UNL A   1      32.154  20.233  23.326  1.00  0.00     0.049 A 
ATOM     11  C   UNL A   1      33.574  20.018  25.266  1.00  0.00     0.063 A 
ATOM     12  C   UNL A   1      32.777  19.445  24.278  1.00  0.00     0.131 A 
BRANCH   8  13
ATOM     13  N   UNL A   1      33.697  23.487  23.844  1.00  0.00    -0.325 N 
ATOM     14  C   UNL A   1      33.446  24.712  24.372  1.00  0.00     0.231 C 
ATOM     15  O   UNL A   1      33.875  25.621  23.638  1.00  0.00    -0.274 OA
ATOM     16  H   UNL A   1      34.225  23.549  23.015  1.00  0.00     0.169 HD
BRANCH  14  17
ATOM     17  C   UNL A   1      32.901  25.060  25.783  1.00  0.00     0.108 C 
BRANCH  17  18
ATOM     18  C   UNL A   1      31.590  24.465  26.309  1.00  0.00     0.015 C 
ATOM     19  C   UNL A   1      30.580  24.108  25.231  1.00  0.00     0.005 C 
ENDBRANCH  17  18
BRANCH  17  20
ATOM     20  C   UNL A   1      32.927  26.590  26.000  1.00  0.00    -0.036 A 
ATOM     21  C   UNL A   1      31.740  27.326  25.822  1.00  0.00     0.004 A 
ATOM     22  C   UNL A   1      34.090  27.294  26.356  1.00  0.00     0.004 A 
ATOM     23  C   UNL A   1      31.725  28.715  25.953  1.00  0.00     0.000 A 
ATOM     24  C   UNL A   1      34.077  28.688  26.463  1.00  0.00     0.000 A 
ATOM     25  C   UNL A   1      32.899  29.398  26.251  1.00  0.00     0.000 A 
ENDBRANCH  17  20
ENDBRANCH  14  17
ENDBRANCH   8  13
BRANCH  12  26
ATOM     26  O   UNL A   1      32.508  18.066  24.260  1.00  0.00    -0.427 OA
BRANCH  26  27
ATOM     27  C   UNL A   1      33.389  17.177  23.642  1.00  0.00     0.308 C 
ATOM     28  C   UNL A   1      33.942  16.077  24.502  1.00  0.00     0.139 C 
ATOM     29  O   UNL A   1      33.625  17.249  22.438  1.00  0.00    -0.252 OA
ENDBRANCH  26  27
ENDBRANCH  12  26
ENDBRANCH   4   7
ENDBRANCH   2   3
ENDBRANCH   1   2
BRANCH   1  30
ATOM     30  C   UNL A   1      37.957  20.662  25.247  1.00  0.00     0.023 C 
BRANCH  30  31
ATOM     31  C   UNL A   1      39.281  20.922  25.972  1.00  0.00     0.116 C 
BRANCH  31  32
ATOM     32  N   UNL A   1      40.206  19.798  25.941  1.00  0.00    -0.352 N 
ATOM     33  C   UNL A   1      41.575  19.765  26.071  1.00  0.00     0.251 C 
ATOM     34  H   UNL A   1      39.783  18.920  25.805  1.00  0.00     0.163 HD
ATOM     35  O   UNL A   1      42.178  18.705  25.917  1.00  0.00    -0.269 OA
BRANCH  33  36
ATOM     36  C   UNL A   1      42.335  21.001  26.360  1.00  0.00     0.039 A 
ATOM     37  C   UNL A   1      42.740  21.812  25.298  1.00  0.00     0.014 A 
ATOM     38  C   UNL A   1      42.653  21.365  27.670  1.00  0.00     0.014 A 
ATOM     39  C   UNL A   1      43.369  23.034  25.558  1.00  0.00     0.010 A 
ATOM     40  C   UNL A   1      43.216  22.614  27.934  1.00  0.00     0.010 A 
ATOM     41  C   UNL A   1      43.563  23.471  26.880  1.00  0.00    -0.014 A 
BRANCH  41  42
ATOM     42  C   UNL A   1      44.061  24.846  27.156  1.00  0.00     0.031 A 
ATOM     43  C   UNL A   1      45.511  25.203  26.970  1.00  0.00     0.074 A 
ATOM     44  C   UNL A   1      43.200  25.770  27.631  1.00  0.00     0.049 A 
ATOM     45  N   UNL A   1      46.104  26.357  27.148  1.00  0.00    -0.248 NA
ATOM     46  C   UNL A   1      46.417  24.122  26.555  1.00  0.00     0.031 C 
ATOM     47  C   UNL A   1      41.786  25.531  27.931  1.00  0.00     0.029 A 
ATOM     48  N   UNL A   1      43.382  27.095  27.945  1.00  0.00    -0.354 N 
ATOM     49  C   UNL A   1      47.449  26.142  26.870  1.00  0.00     0.074 A 
ATOM     50  C   UNL A   1      47.593  24.735  26.564  1.00  0.00     0.031 C 
ATOM     51  C   UNL A   1      41.223  26.674  28.351  1.00  0.00     0.029 A 
ATOM     52  C   UNL A   1      42.238  27.723  28.378  1.00  0.00     0.049 A 
ATOM     53  H   UNL A   1      44.251  27.551  27.867  1.00  0.00     0.167 HD
ATOM     54  C   UNL A   1      48.464  27.040  26.845  1.00  0.00     0.037 A 
ATOM     55  C   UNL A   1      42.024  29.000  28.749  1.00  0.00     0.037 A 
ATOM     56  C   UNL A   1      48.313  28.444  27.132  1.00  0.00     0.049 A 
ATOM     57  C   UNL A   1      43.162  29.982  28.690  1.00  0.00     0.074 A 
ATOM     58  C   UNL A   1      49.268  29.445  27.064  1.00  0.00     0.029 A 
ATOM     59  N   UNL A   1      47.135  29.048  27.548  1.00  0.00    -0.354 N 
ATOM     60  N   UNL A   1      44.408  29.779  28.336  1.00  0.00    -0.248 NA
ATOM     61  C   UNL A   1      42.862  31.369  29.071  1.00  0.00     0.031 C 
ATOM     62  C   UNL A   1      48.677  30.644  27.479  1.00  0.00     0.029 A 
ATOM     63  C   UNL A   1      47.344  30.401  27.761  1.00  0.00     0.049 A 
ATOM     64  H   UNL A   1      46.276  28.582  27.672  1.00  0.00     0.167 HD
ATOM     65  C   UNL A   1      45.037  31.015  28.434  1.00  0.00     0.074 A 
ATOM     66  C   UNL A   1      44.028  31.963  28.860  1.00  0.00     0.031 C 
ATOM     67  C   UNL A   1      46.333  31.334  28.193  1.00  0.00     0.037 A 
BRANCH  54  68
ATOM     68  C   UNL A   1      49.833  26.532  26.480  1.00  0.00     0.058 A 
ATOM     69  C   UNL A   1      50.702  26.000  27.446  1.00  0.00     0.135 A 
ATOM     70  C   UNL A   1      50.268  26.539  25.144  1.00  0.00     0.135 A 
ATOM     71  F   UNL A   1      50.342  25.980  28.739  1.00  0.00    -0.206 F 
ATOM     72  C   UNL A   1      51.963  25.522  27.108  1.00  0.00     0.059 A 
ATOM     73  C   UNL A   1      51.516  26.041  24.779  1.00  0.00     0.059 A 
ATOM     74  F   UNL A   1      49.478  27.033  24.178  1.00  0.00    -0.206 F 
ATOM     75  C   UNL A   1      52.363  25.548  25.771  1.00  0.00     0.060 A 
BRANCH  75  76
ATOM     76  S   UNL A   1      54.003  24.922  25.349  1.00  0.00     0.124 S 
ATOM     77  O   UNL A   1      54.696  25.038  26.628  1.00  0.00    -0.237 OA
ATOM     78  O   UNL A   1      53.714  23.562  24.906  1.00  0.00    -0.237 OA
ATOM     79  O   UNL A   1      54.456  25.835  24.304  1.00  0.00    -0.744 OA
ENDBRANCH  75  76
ENDBRANCH  54  68
BRANCH  55  80
ATOM     80  C   UNL A   1      40.666  29.432  29.173  1.00  0.00     0.058 A 
ATOM     81  C   UNL A   1      39.643  29.624  28.234  1.00  0.00     0.135 A 
ATOM     82  C   UNL A   1      40.359  29.643  30.527  1.00  0.00     0.135 A 
ATOM     83  F   UNL A   1      39.889  29.439  26.928  1.00  0.00    -0.206 F 
ATOM     84  C   UNL A   1      38.368  30.026  28.617  1.00  0.00     0.059 A 
ATOM     85  C   UNL A   1      39.085  30.021  30.937  1.00  0.00     0.059 A 
ATOM     86  F   UNL A   1      41.299  29.455  31.466  1.00  0.00    -0.206 F 
ATOM     87  C   UNL A   1      38.097  30.219  29.972  1.00  0.00     0.060 A 
BRANCH  87  88
ATOM     88  S   UNL A   1      36.424  30.688  30.465  1.00  0.00     0.124 S 
ATOM     89  O   UNL A   1      35.737  30.719  29.180  1.00  0.00    -0.237 OA
ATOM     90  O   UNL A   1      36.052  29.600  31.364  1.00  0.00    -0.237 OA
ATOM     91  O   UNL A   1      36.617  31.983  31.111  1.00  0.00    -0.744 OA
ENDBRANCH  87  88
ENDBRANCH  55  80
BRANCH  67  92
ATOM     92  C   UNL A   1      46.730  32.774  28.376  1.00  0.00     0.058 A 
ATOM     93  C   UNL A   1      47.228  33.251  29.598  1.00  0.00     0.135 A 
ATOM     94  C   UNL A   1      46.633  33.681  27.307  1.00  0.00     0.135 A 
ATOM     95  F   UNL A   1      47.334  32.426  30.651  1.00  0.00    -0.206 F 
ATOM     96  C   UNL A   1      47.587  34.584  29.765  1.00  0.00     0.059 A 
ATOM     97  C   UNL A   1      47.012  35.013  27.445  1.00  0.00     0.059 A 
ATOM     98  F   UNL A   1      46.173  33.274  26.114  1.00  0.00    -0.206 F 
ATOM     99  C   UNL A   1      47.473  35.459  28.683  1.00  0.00     0.060 A 
BRANCH  99 100
ATOM    100  S   UNL A   1      47.954  37.185  28.908  1.00  0.00     0.124 S 
ATOM    101  O   UNL A   1      47.827  37.339  30.354  1.00  0.00    -0.237 OA
ATOM    102  O   UNL A   1      49.317  37.202  28.386  1.00  0.00    -0.237 OA
ATOM    103  O   UNL A   1      46.975  37.916  28.110  1.00  0.00    -0.744 OA
ENDBRANCH  99 100
ENDBRANCH  67  92
ENDBRANCH  41  42
ENDBRANCH  33  36
ENDBRANCH  31  32
ENDBRANCH  30  31
ENDBRANCH   1  30
TORSDOF 20
ENDMDL
MODEL 3
REMARK VINA RESULT:     -12.0      2.607      9.102
REMARK SMILES CC[C@@H](C(=O)Nc1ccc(OC(C)=O)cc1C(=O)NCCCCNC(=O)c1ccc(-c2c3nc(c(-c4c(F)cc(S(=O)(=O)[O-])cc4F)c4ccc([nH]4)c(-c4c(F)cc(S(=O)(=O)[O-])cc4F)c4nc(c(-c5c(F)cc(S(=O)(=O)[O-])cc5F)c5ccc2[nH]5)C=C4)C=C3)cc1)c1ccccc1
REMARK SMILES IDX 21 1 20 2 19 3 17 4 18 5 16 7 7 8 8 9 9 10 15 11 10 12 6 13
REMARK SMILES IDX 4 14 5 15 3 17 2 18 1 19 93 20 94 21 98 22 95 23 97 24 96 25
REMARK SMILES IDX 11 26 12 27 13 28 14 29 22 30 23 31 24 32 25 33 26 35 27 36
REMARK SMILES IDX 28 37 92 38 29 39 91 40 30 41 31 42 32 43 85 44 33 45 90 46
REMARK SMILES IDX 84 47 86 48 34 49 89 50 83 51 82 52 35 54 69 55 48 56 68 57
REMARK SMILES IDX 49 58 52 59 67 60 87 61 50 62 51 63 66 65 88 66 53 67 36 68
REMARK SMILES IDX 37 69 46 70 38 71 39 72 45 73 47 74 40 75 41 76 42 77 43 78
REMARK SMILES IDX 44 79 70 80 71 81 80 82 72 83 73 84 79 85 81 86 74 87 75 88
REMARK SMILES IDX 76 89 77 90 78 91 54 92 55 93 64 94 56 95 57 96 63 97 65 98
REMARK SMILES IDX 58 99 59 100 60 101 61 102 62 103
REMARK H PARENT 19 6 6 16 24 34 86 53 52 64
REMARK Flexibility Score: inf
ROOT
ATOM      1  C   UNL A   1      33.860  30.591  27.308  1.00  0.00     0.023 C 
ENDROOT
BRANCH   1   2
ATOM      2  C   UNL A   1      33.004  29.682  26.432  1.00  0.00     0.116 C 
BRANCH   2   3
ATOM      3  N   UNL A   1      33.504  29.506  25.086  1.00  0.00    -0.352 N 
ATOM      4  C   UNL A   1      32.927  28.975  23.962  1.00  0.00     0.253 C 
ATOM      5  O   UNL A   1      33.625  28.931  22.944  1.00  0.00    -0.269 OA
ATOM      6  H   UNL A   1      34.425  29.826  24.953  1.00  0.00     0.163 HD
BRANCH   4   7
ATOM      7  C   UNL A   1      31.542  28.411  23.873  1.00  0.00     0.067 A 
ATOM      8  C   UNL A   1      31.036  27.214  24.409  1.00  0.00     0.054 A 
ATOM      9  C   UNL A   1      29.746  26.776  24.030  1.00  0.00     0.031 A 
ATOM     10  C   UNL A   1      28.879  27.600  23.320  1.00  0.00     0.049 A 
ATOM     11  C   UNL A   1      30.647  29.233  23.141  1.00  0.00     0.063 A 
ATOM     12  C   UNL A   1      29.322  28.855  22.940  1.00  0.00     0.131 A 
BRANCH   8  13
ATOM     13  N   UNL A   1      31.667  26.323  25.277  1.00  0.00    -0.325 N 
ATOM     14  C   UNL A   1      32.545  25.294  25.168  1.00  0.00     0.231 C 
ATOM     15  O   UNL A   1      32.746  24.749  26.269  1.00  0.00    -0.274 OA
ATOM     16  H   UNL A   1      31.406  26.481  26.213  1.00  0.00     0.169 HD
BRANCH  14  17
ATOM     17  C   UNL A   1      33.410  24.890  23.944  1.00  0.00     0.108 C 
BRANCH  17  18
ATOM     18  C   UNL A   1      32.780  24.579  22.581  1.00  0.00     0.015 C 
ATOM     19  C   UNL A   1      32.860  25.715  21.574  1.00  0.00     0.005 C 
ENDBRANCH  17  18
BRANCH  17  20
ATOM     20  C   UNL A   1      34.411  23.783  24.343  1.00  0.00    -0.036 A 
ATOM     21  C   UNL A   1      34.031  22.435  24.202  1.00  0.00     0.004 A 
ATOM     22  C   UNL A   1      35.691  24.055  24.858  1.00  0.00     0.004 A 
ATOM     23  C   UNL A   1      34.879  21.400  24.599  1.00  0.00     0.000 A 
ATOM     24  C   UNL A   1      36.529  23.017  25.277  1.00  0.00     0.000 A 
ATOM     25  C   UNL A   1      36.118  21.692  25.159  1.00  0.00     0.000 A 
ENDBRANCH  17  20
ENDBRANCH  14  17
ENDBRANCH   8  13
BRANCH  12  26
ATOM     26  O   UNL A   1      28.413  29.693  22.273  1.00  0.00    -0.427 OA
BRANCH  26  27
ATOM     27  C   UNL A   1      27.914  30.840  22.894  1.00  0.00     0.308 C 
ATOM     28  C   UNL A   1      28.418  32.155  22.373  1.00  0.00     0.139 C 
ATOM     29  O   UNL A   1      27.046  30.767  23.760  1.00  0.00    -0.252 OA
ENDBRANCH  26  27
ENDBRANCH  12  26
ENDBRANCH   4   7
ENDBRANCH   2   3
ENDBRANCH   1   2
BRANCH   1  30
ATOM     30  C   UNL A   1      33.146  31.830  27.867  1.00  0.00     0.023 C 
BRANCH  30  31
ATOM     31  C   UNL A   1      33.494  33.177  27.226  1.00  0.00     0.116 C 
BRANCH  31  32
ATOM     32  N   UNL A   1      32.881  34.323  27.881  1.00  0.00    -0.352 N 
ATOM     33  C   UNL A   1      33.201  34.955  29.060  1.00  0.00     0.251 C 
ATOM     34  H   UNL A   1      32.112  34.708  27.403  1.00  0.00     0.163 HD
ATOM     35  O   UNL A   1      32.484  35.859  29.485  1.00  0.00    -0.269 OA
BRANCH  33  36
ATOM     36  C   UNL A   1      34.384  34.533  29.844  1.00  0.00     0.039 A 
ATOM     37  C   UNL A   1      34.193  33.958  31.102  1.00  0.00     0.014 A 
ATOM     38  C   UNL A   1      35.678  34.702  29.348  1.00  0.00     0.014 A 
ATOM     39  C   UNL A   1      35.291  33.461  31.811  1.00  0.00     0.010 A 
ATOM     40  C   UNL A   1      36.765  34.144  30.021  1.00  0.00     0.010 A 
ATOM     41  C   UNL A   1      36.581  33.500  31.252  1.00  0.00    -0.014 A 
BRANCH  41  42
ATOM     42  C   UNL A   1      37.716  32.808  31.921  1.00  0.00     0.031 A 
ATOM     43  C   UNL A   1      38.268  33.301  33.232  1.00  0.00     0.074 A 
ATOM     44  C   UNL A   1      38.290  31.751  31.310  1.00  0.00     0.049 A 
ATOM     45  N   UNL A   1      39.239  32.804  33.955  1.00  0.00    -0.248 NA
ATOM     46  C   UNL A   1      37.669  34.522  33.791  1.00  0.00     0.031 C 
ATOM     47  C   UNL A   1      37.903  31.222  29.999  1.00  0.00     0.029 A 
ATOM     48  N   UNL A   1      39.318  30.931  31.703  1.00  0.00    -0.354 N 
ATOM     49  C   UNL A   1      39.371  33.649  35.051  1.00  0.00     0.074 A 
ATOM     50  C   UNL A   1      38.415  34.721  34.869  1.00  0.00     0.031 C 
ATOM     51  C   UNL A   1      38.657  30.149  29.715  1.00  0.00     0.029 A 
ATOM     52  C   UNL A   1      39.600  29.927  30.806  1.00  0.00     0.049 A 
ATOM     53  H   UNL A   1      39.807  31.049  32.550  1.00  0.00     0.167 HD
ATOM     54  C   UNL A   1      40.192  33.528  36.123  1.00  0.00     0.037 A 
ATOM     55  C   UNL A   1      40.510  28.936  30.855  1.00  0.00     0.037 A 
ATOM     56  C   UNL A   1      41.129  32.449  36.308  1.00  0.00     0.049 A 
ATOM     57  C   UNL A   1      41.393  28.809  32.065  1.00  0.00     0.074 A 
ATOM     58  C   UNL A   1      41.954  32.202  37.393  1.00  0.00     0.029 A 
ATOM     59  N   UNL A   1      41.373  31.441  35.387  1.00  0.00    -0.354 N 
ATOM     60  N   UNL A   1      41.440  29.567  33.135  1.00  0.00    -0.248 NA
ATOM     61  C   UNL A   1      42.342  27.686  32.081  1.00  0.00     0.031 C 
ATOM     62  C   UNL A   1      42.725  31.069  37.110  1.00  0.00     0.029 A 
ATOM     63  C   UNL A   1      42.350  30.583  35.869  1.00  0.00     0.049 A 
ATOM     64  H   UNL A   1      40.918  31.348  34.519  1.00  0.00     0.167 HD
ATOM     65  C   UNL A   1      42.408  29.003  33.958  1.00  0.00     0.074 A 
ATOM     66  C   UNL A   1      42.907  27.829  33.271  1.00  0.00     0.031 C 
ATOM     67  C   UNL A   1      42.844  29.421  35.172  1.00  0.00     0.037 A 
BRANCH  54  68
ATOM     68  C   UNL A   1      40.105  34.586  37.189  1.00  0.00     0.058 A 
ATOM     69  C   UNL A   1      40.950  35.708  37.183  1.00  0.00     0.135 A 
ATOM     70  C   UNL A   1      39.140  34.501  38.207  1.00  0.00     0.135 A 
ATOM     71  F   UNL A   1      41.897  35.833  36.241  1.00  0.00    -0.206 F 
ATOM     72  C   UNL A   1      40.863  36.691  38.164  1.00  0.00     0.059 A 
ATOM     73  C   UNL A   1      39.018  35.486  39.183  1.00  0.00     0.059 A 
ATOM     74  F   UNL A   1      38.304  33.453  38.260  1.00  0.00    -0.206 F 
ATOM     75  C   UNL A   1      39.895  36.570  39.161  1.00  0.00     0.060 A 
BRANCH  75  76
ATOM     76  S   UNL A   1      39.795  37.855  40.425  1.00  0.00     0.124 S 
ATOM     77  O   UNL A   1      40.807  38.799  39.961  1.00  0.00    -0.237 OA
ATOM     78  O   UNL A   1      38.411  38.303  40.307  1.00  0.00    -0.237 OA
ATOM     79  O   UNL A   1      40.117  37.144  41.659  1.00  0.00    -0.744 OA
ENDBRANCH  75  76
ENDBRANCH  54  68
BRANCH  55  80
ATOM     80  C   UNL A   1      40.605  27.960  29.737  1.00  0.00     0.058 A 
ATOM     81  C   UNL A   1      41.624  28.055  28.779  1.00  0.00     0.135 A 
ATOM     82  C   UNL A   1      39.689  26.903  29.614  1.00  0.00     0.135 A 
ATOM     83  F   UNL A   1      42.520  29.052  28.851  1.00  0.00    -0.206 F 
ATOM     84  C   UNL A   1      41.725  27.149  27.729  1.00  0.00     0.059 A 
ATOM     85  C   UNL A   1      39.784  25.969  28.587  1.00  0.00     0.059 A 
ATOM     86  F   UNL A   1      38.706  26.757  30.516  1.00  0.00    -0.206 F 
ATOM     87  C   UNL A   1      40.802  26.106  27.643  1.00  0.00     0.060 A 
BRANCH  87  88
ATOM     88  S   UNL A   1      40.973  24.902  26.308  1.00  0.00     0.124 S 
ATOM     89  O   UNL A   1      41.296  25.762  25.176  1.00  0.00    -0.237 OA
ATOM     90  O   UNL A   1      42.055  24.054  26.796  1.00  0.00    -0.237 OA
ATOM     91  O   UNL A   1      39.661  24.265  26.263  1.00  0.00    -0.744 OA
ENDBRANCH  87  88
ENDBRANCH  55  80
BRANCH  67  92
ATOM     92  C   UNL A   1      43.909  28.595  35.840  1.00  0.00     0.058 A 
ATOM     93  C   UNL A   1      45.273  28.873  35.668  1.00  0.00     0.135 A 
ATOM     94  C   UNL A   1      43.558  27.527  36.684  1.00  0.00     0.135 A 
ATOM     95  F   UNL A   1      45.661  29.878  34.867  1.00  0.00    -0.206 F 
ATOM     96  C   UNL A   1      46.255  28.102  36.282  1.00  0.00     0.059 A 
ATOM     97  C   UNL A   1      44.523  26.760  37.329  1.00  0.00     0.059 A 
ATOM     98  F   UNL A   1      42.267  27.225  36.892  1.00  0.00    -0.206 F 
ATOM     99  C   UNL A   1      45.870  27.045  37.109  1.00  0.00     0.060 A 
BRANCH  99 100
ATOM    100  S   UNL A   1      47.153  26.059  37.910  1.00  0.00     0.124 S 
ATOM    101  O   UNL A   1      48.105  25.875  36.819  1.00  0.00    -0.237 OA
ATOM    102  O   UNL A   1      47.591  26.934  38.993  1.00  0.00    -0.237 OA
ATOM    103  O   UNL A   1      46.442  24.857  38.332  1.00  0.00    -0.744 OA
ENDBRANCH  99 100
ENDBRANCH  67  92
ENDBRANCH  41  42
ENDBRANCH  33  36
ENDBRANCH  31  32
ENDBRANCH  30  31
ENDBRANCH   1  30
TORSDOF 20
ENDMDL
