MODEL 1
REMARK VINA RESULT:     -12.4      0.000      0.000
REMARK SMILES CC(C)(C)OC(=O)N1CCC(c2c(C(=O)NCCCCNC(=O)c3ccc(-c4c5nc(c(-c6c(F)cc(S(=O)(=O)[O-])cc6F)c6ccc([nH]6)c(-c6c(F)cc(S(=O)(=O)[O-])cc6F)c6nc(c(-c7c(F)cc(S(=O)(=O)[O-])cc7F)c7ccc4[nH]7)C=C6)C=C5)cc3)cnn2-c2ccccc2)CC1
REMARK SMILES IDX 18 1 17 2 16 3 14 4 15 5 13 7 12 8 92 9 90 10 91 11 11 12
REMARK SMILES IDX 6 13 7 14 8 15 9 16 100 17 10 18 99 19 5 20 2 21 1 22 3 23
REMARK SMILES IDX 4 24 93 25 94 26 98 27 95 28 97 29 96 30 19 31 20 32 21 33
REMARK SMILES IDX 22 34 23 36 24 37 25 38 89 39 26 40 88 41 27 42 28 43 29 44
REMARK SMILES IDX 82 45 30 46 87 47 81 48 83 49 31 50 86 51 80 52 79 53 32 55
REMARK SMILES IDX 66 56 45 57 65 58 46 59 49 60 64 61 84 62 47 63 48 64 63 66
REMARK SMILES IDX 85 67 50 68 33 69 34 70 43 71 35 72 36 73 42 74 44 75 37 76
REMARK SMILES IDX 38 77 39 78 40 79 41 80 67 81 68 82 77 83 69 84 70 85 76 86
REMARK SMILES IDX 78 87 71 88 72 89 73 90 74 91 75 92 51 93 52 94 61 95 53 96
REMARK SMILES IDX 54 97 60 98 62 99 55 100 56 101 57 102 58 103 59 104
REMARK H PARENT 16 6 21 35 83 54 49 65
REMARK Flexibility Score: inf
ROOT
ATOM      1  C   UNL A   1      35.201  31.396  28.222  1.00  0.00     0.023 C 
ENDROOT
BRANCH   1   2
ATOM      2  C   UNL A   1      34.997  30.343  27.130  1.00  0.00     0.116 C 
BRANCH   2   3
ATOM      3  N   UNL A   1      34.103  29.269  27.523  1.00  0.00    -0.352 N 
ATOM      4  C   UNL A   1      32.801  28.926  27.245  1.00  0.00     0.254 C 
ATOM      5  O   UNL A   1      32.426  27.875  27.770  1.00  0.00    -0.269 OA
ATOM      6  H   UNL A   1      34.533  28.632  28.138  1.00  0.00     0.163 HD
BRANCH   4   7
ATOM      7  C   UNL A   1      31.899  29.724  26.404  1.00  0.00     0.081 A 
ATOM      8  C   UNL A   1      31.270  29.294  25.204  1.00  0.00     0.060 A 
ATOM      9  N   UNL A   1      30.584  30.413  24.727  1.00  0.00    -0.237 N 
ATOM     10  C   UNL A   1      31.500  31.065  26.524  1.00  0.00     0.149 A 
ATOM     11  N   UNL A   1      30.758  31.495  25.514  1.00  0.00    -0.175 NA
BRANCH   8  12
ATOM     12  C   UNL A   1      31.412  27.918  24.524  1.00  0.00     0.043 C 
ATOM     13  C   UNL A   1      33.358  24.482  25.022  1.00  0.00     0.410 C 
ATOM     14  O   UNL A   1      34.521  24.830  25.244  1.00  0.00    -0.224 OA
ATOM     15  N   UNL A   1      32.495  25.247  24.265  1.00  0.00    -0.308 N 
ATOM     16  C   UNL A   1      33.052  26.329  23.482  1.00  0.00     0.124 C 
ATOM     17  C   UNL A   1      31.055  25.340  24.480  1.00  0.00     0.124 C 
ATOM     18  C   UNL A   1      32.905  27.625  24.261  1.00  0.00     0.032 C 
ATOM     19  C   UNL A   1      30.735  26.681  25.175  1.00  0.00     0.032 C 
BRANCH  13  20
ATOM     20  O   UNL A   1      32.838  23.292  25.422  1.00  0.00    -0.444 OA
BRANCH  20  21
ATOM     21  C   UNL A   1      33.145  22.098  24.645  1.00  0.00     0.106 C 
ATOM     22  C   UNL A   1      32.153  21.024  25.118  1.00  0.00     0.056 C 
ATOM     23  C   UNL A   1      34.570  21.612  24.936  1.00  0.00     0.056 C 
ATOM     24  C   UNL A   1      32.913  22.297  23.134  1.00  0.00     0.056 C 
ENDBRANCH  20  21
ENDBRANCH  13  20
ENDBRANCH   8  12
BRANCH   9  25
ATOM     25  C   UNL A   1      29.785  30.615  23.583  1.00  0.00     0.065 A 
ATOM     26  C   UNL A   1      28.778  31.589  23.646  1.00  0.00     0.028 A 
ATOM     27  C   UNL A   1      29.915  29.804  22.454  1.00  0.00     0.028 A 
ATOM     28  C   UNL A   1      27.970  31.823  22.537  1.00  0.00     0.002 A 
ATOM     29  C   UNL A   1      29.105  30.047  21.344  1.00  0.00     0.002 A 
ATOM     30  C   UNL A   1      28.145  31.062  21.382  1.00  0.00     0.000 A 
ENDBRANCH   9  25
ENDBRANCH   4   7
ENDBRANCH   2   3
ENDBRANCH   1   2
BRANCH   1  31
ATOM     31  C   UNL A   1      34.157  32.526  28.268  1.00  0.00     0.023 C 
BRANCH  31  32
ATOM     32  C   UNL A   1      34.713  33.918  28.553  1.00  0.00     0.116 C 
BRANCH  32  33
ATOM     33  N   UNL A   1      34.270  34.475  29.835  1.00  0.00    -0.352 N 
ATOM     34  C   UNL A   1      34.553  34.005  31.108  1.00  0.00     0.251 C 
ATOM     35  H   UNL A   1      33.703  35.279  29.785  1.00  0.00     0.163 HD
ATOM     36  O   UNL A   1      33.836  34.285  32.059  1.00  0.00    -0.269 OA
BRANCH  34  37
ATOM     37  C   UNL A   1      35.763  33.183  31.294  1.00  0.00     0.039 A 
ATOM     38  C   UNL A   1      35.714  31.827  31.630  1.00  0.00     0.014 A 
ATOM     39  C   UNL A   1      36.979  33.822  31.082  1.00  0.00     0.014 A 
ATOM     40  C   UNL A   1      36.905  31.101  31.670  1.00  0.00     0.010 A 
ATOM     41  C   UNL A   1      38.115  33.079  30.941  1.00  0.00     0.010 A 
ATOM     42  C   UNL A   1      38.101  31.738  31.312  1.00  0.00    -0.014 A 
BRANCH  42  43
ATOM     43  C   UNL A   1      39.369  31.026  31.202  1.00  0.00     0.031 A 
ATOM     44  C   UNL A   1      40.040  30.776  32.510  1.00  0.00     0.074 A 
ATOM     45  C   UNL A   1      39.689  30.378  30.056  1.00  0.00     0.049 A 
ATOM     46  N   UNL A   1      41.163  31.245  32.942  1.00  0.00    -0.248 NA
ATOM     47  C   UNL A   1      39.276  30.049  33.544  1.00  0.00     0.031 C 
ATOM     48  C   UNL A   1      38.882  30.273  28.830  1.00  0.00     0.029 A 
ATOM     49  N   UNL A   1      40.729  29.547  29.784  1.00  0.00    -0.354 N 
ATOM     50  C   UNL A   1      41.366  30.649  34.189  1.00  0.00     0.074 A 
ATOM     51  C   UNL A   1      40.082  30.156  34.601  1.00  0.00     0.031 C 
ATOM     52  C   UNL A   1      39.327  29.247  28.073  1.00  0.00     0.029 A 
ATOM     53  C   UNL A   1      40.550  28.739  28.660  1.00  0.00     0.049 A 
ATOM     54  H   UNL A   1      41.544  29.517  30.335  1.00  0.00     0.167 HD
ATOM     55  C   UNL A   1      42.620  30.342  34.630  1.00  0.00     0.037 A 
ATOM     56  C   UNL A   1      41.337  27.702  28.272  1.00  0.00     0.037 A 
ATOM     57  C   UNL A   1      43.612  31.019  33.828  1.00  0.00     0.049 A 
ATOM     58  C   UNL A   1      42.632  27.869  28.981  1.00  0.00     0.074 A 
ATOM     59  C   UNL A   1      43.919  32.336  33.552  1.00  0.00     0.029 A 
ATOM     60  N   UNL A   1      44.226  30.271  32.854  1.00  0.00    -0.354 N 
ATOM     61  N   UNL A   1      43.438  28.883  28.796  1.00  0.00    -0.248 NA
ATOM     62  C   UNL A   1      42.805  27.158  30.237  1.00  0.00     0.031 C 
ATOM     63  C   UNL A   1      44.315  32.342  32.182  1.00  0.00     0.029 A 
ATOM     64  C   UNL A   1      44.309  31.025  31.716  1.00  0.00     0.049 A 
ATOM     65  H   UNL A   1      44.551  29.347  32.958  1.00  0.00     0.167 HD
ATOM     66  C   UNL A   1      43.915  29.195  30.063  1.00  0.00     0.074 A 
ATOM     67  C   UNL A   1      43.559  28.044  30.892  1.00  0.00     0.031 C 
ATOM     68  C   UNL A   1      44.285  30.472  30.377  1.00  0.00     0.037 A 
BRANCH  55  69
ATOM     69  C   UNL A   1      42.985  29.124  35.467  1.00  0.00     0.058 A 
ATOM     70  C   UNL A   1      43.835  29.301  36.583  1.00  0.00     0.135 A 
ATOM     71  C   UNL A   1      42.797  27.780  35.071  1.00  0.00     0.135 A 
ATOM     72  F   UNL A   1      44.076  30.528  37.073  1.00  0.00    -0.206 F 
ATOM     73  C   UNL A   1      44.531  28.246  37.176  1.00  0.00     0.059 A 
ATOM     74  C   UNL A   1      43.440  26.709  35.682  1.00  0.00     0.059 A 
ATOM     75  F   UNL A   1      42.052  27.431  34.017  1.00  0.00    -0.206 F 
ATOM     76  C   UNL A   1      44.343  26.955  36.701  1.00  0.00     0.060 A 
BRANCH  76  77
ATOM     77  S   UNL A   1      45.320  25.606  37.384  1.00  0.00     0.124 S 
ATOM     78  O   UNL A   1      46.285  26.333  38.201  1.00  0.00    -0.237 OA
ATOM     79  O   UNL A   1      44.312  24.841  38.109  1.00  0.00    -0.237 OA
ATOM     80  O   UNL A   1      45.862  24.951  36.196  1.00  0.00    -0.744 OA
ENDBRANCH  76  77
ENDBRANCH  55  69
BRANCH  56  81
ATOM     81  C   UNL A   1      40.918  26.411  27.655  1.00  0.00     0.058 A 
ATOM     82  C   UNL A   1      41.661  25.815  26.618  1.00  0.00     0.135 A 
ATOM     83  C   UNL A   1      39.941  25.594  28.259  1.00  0.00     0.135 A 
ATOM     84  F   UNL A   1      42.631  26.508  26.002  1.00  0.00    -0.206 F 
ATOM     85  C   UNL A   1      41.475  24.480  26.233  1.00  0.00     0.059 A 
ATOM     86  C   UNL A   1      39.731  24.265  27.888  1.00  0.00     0.059 A 
ATOM     87  F   UNL A   1      39.215  26.040  29.296  1.00  0.00    -0.206 F 
ATOM     88  C   UNL A   1      40.517  23.705  26.888  1.00  0.00     0.060 A 
BRANCH  88  89
ATOM     89  S   UNL A   1      40.377  21.941  26.504  1.00  0.00     0.124 S 
ATOM     90  O   UNL A   1      40.481  21.335  27.827  1.00  0.00    -0.237 OA
ATOM     91  O   UNL A   1      39.066  21.864  25.869  1.00  0.00    -0.237 OA
ATOM     92  O   UNL A   1      41.512  21.696  25.617  1.00  0.00    -0.744 OA
ENDBRANCH  88  89
ENDBRANCH  56  81
BRANCH  68  93
ATOM     93  C   UNL A   1      44.503  31.456  29.257  1.00  0.00     0.058 A 
ATOM     94  C   UNL A   1      45.605  31.453  28.382  1.00  0.00     0.135 A 
ATOM     95  C   UNL A   1      43.438  32.311  28.940  1.00  0.00     0.135 A 
ATOM     96  F   UNL A   1      46.627  30.607  28.564  1.00  0.00    -0.206 F 
ATOM     97  C   UNL A   1      45.646  32.272  27.250  1.00  0.00     0.059 A 
ATOM     98  C   UNL A   1      43.443  33.113  27.804  1.00  0.00     0.059 A 
ATOM     99  F   UNL A   1      42.334  32.319  29.707  1.00  0.00    -0.206 F 
ATOM    100  C   UNL A   1      44.553  33.092  26.964  1.00  0.00     0.060 A 
BRANCH 100 101
ATOM    101  S   UNL A   1      44.551  34.069  25.444  1.00  0.00     0.124 S 
ATOM    102  O   UNL A   1      43.404  34.948  25.646  1.00  0.00    -0.237 OA
ATOM    103  O   UNL A   1      45.860  34.716  25.480  1.00  0.00    -0.237 OA
ATOM    104  O   UNL A   1      44.391  33.066  24.394  1.00  0.00    -0.744 OA
ENDBRANCH 100 101
ENDBRANCH  68  93
ENDBRANCH  42  43
ENDBRANCH  34  37
ENDBRANCH  32  33
ENDBRANCH  31  32
ENDBRANCH   1  31
TORSDOF 18
ENDMDL
MODEL 2
REMARK VINA RESULT:     -12.2      2.941      9.632
REMARK SMILES CC(C)(C)OC(=O)N1CCC(c2c(C(=O)NCCCCNC(=O)c3ccc(-c4c5nc(c(-c6c(F)cc(S(=O)(=O)[O-])cc6F)c6ccc([nH]6)c(-c6c(F)cc(S(=O)(=O)[O-])cc6F)c6nc(c(-c7c(F)cc(S(=O)(=O)[O-])cc7F)c7ccc4[nH]7)C=C6)C=C5)cc3)cnn2-c2ccccc2)CC1
REMARK SMILES IDX 18 1 17 2 16 3 14 4 15 5 13 7 12 8 92 9 90 10 91 11 11 12
REMARK SMILES IDX 6 13 7 14 8 15 9 16 100 17 10 18 99 19 5 20 2 21 1 22 3 23
REMARK SMILES IDX 4 24 93 25 94 26 98 27 95 28 97 29 96 30 19 31 20 32 21 33
REMARK SMILES IDX 22 34 23 36 24 37 25 38 89 39 26 40 88 41 27 42 28 43 29 44
REMARK SMILES IDX 82 45 30 46 87 47 81 48 83 49 31 50 86 51 80 52 79 53 32 55
REMARK SMILES IDX 66 56 45 57 65 58 46 59 49 60 64 61 84 62 47 63 48 64 63 66
REMARK SMILES IDX 85 67 50 68 33 69 34 70 43 71 35 72 36 73 42 74 44 75 37 76
REMARK SMILES IDX 38 77 39 78 40 79 41 80 67 81 68 82 77 83 69 84 70 85 76 86
REMARK SMILES IDX 78 87 71 88 72 89 73 90 74 91 75 92 51 93 52 94 61 95 53 96
REMARK SMILES IDX 54 97 60 98 62 99 55 100 56 101 57 102 58 103 59 104
REMARK H PARENT 16 6 21 35 83 54 49 65
REMARK Flexibility Score: inf
ROOT
ATOM      1  C   UNL A   1      39.557  23.462  27.103  1.00  0.00     0.023 C 
ENDROOT
BRANCH   1   2
ATOM      2  C   UNL A   1      38.050  23.459  26.832  1.00  0.00     0.116 C 
BRANCH   2   3
ATOM      3  N   UNL A   1      37.712  23.727  25.446  1.00  0.00    -0.352 N 
ATOM      4  C   UNL A   1      37.134  23.013  24.422  1.00  0.00     0.254 C 
ATOM      5  O   UNL A   1      36.984  23.649  23.376  1.00  0.00    -0.269 OA
ATOM      6  H   UNL A   1      37.955  24.641  25.172  1.00  0.00     0.163 HD
BRANCH   4   7
ATOM      7  C   UNL A   1      36.726  21.606  24.525  1.00  0.00     0.081 A 
ATOM      8  C   UNL A   1      35.391  21.119  24.550  1.00  0.00     0.060 A 
ATOM      9  N   UNL A   1      35.505  19.740  24.739  1.00  0.00    -0.237 N 
ATOM     10  C   UNL A   1      37.502  20.447  24.687  1.00  0.00     0.149 A 
ATOM     11  N   UNL A   1      36.789  19.344  24.858  1.00  0.00    -0.175 NA
BRANCH   8  12
ATOM     12  C   UNL A   1      34.097  21.956  24.493  1.00  0.00     0.043 C 
ATOM     13  C   UNL A   1      32.917  25.736  24.895  1.00  0.00     0.410 C 
ATOM     14  O   UNL A   1      33.473  26.111  25.931  1.00  0.00    -0.224 OA
ATOM     15  N   UNL A   1      32.583  24.415  24.678  1.00  0.00    -0.308 N 
ATOM     16  C   UNL A   1      32.624  23.508  25.804  1.00  0.00     0.124 C 
ATOM     17  C   UNL A   1      32.585  23.757  23.376  1.00  0.00     0.124 C 
ATOM     18  C   UNL A   1      33.954  22.773  25.795  1.00  0.00     0.032 C 
ATOM     19  C   UNL A   1      33.844  22.869  23.262  1.00  0.00     0.032 C 
BRANCH  13  20
ATOM     20  O   UNL A   1      32.509  26.580  23.911  1.00  0.00    -0.444 OA
BRANCH  20  21
ATOM     21  C   UNL A   1      31.250  27.294  24.081  1.00  0.00     0.106 C 
ATOM     22  C   UNL A   1      30.612  27.358  22.684  1.00  0.00     0.056 C 
ATOM     23  C   UNL A   1      31.499  28.725  24.572  1.00  0.00     0.056 C 
ATOM     24  C   UNL A   1      30.262  26.546  24.997  1.00  0.00     0.056 C 
ENDBRANCH  20  21
ENDBRANCH  13  20
ENDBRANCH   8  12
BRANCH   9  25
ATOM     25  C   UNL A   1      34.540  18.718  24.853  1.00  0.00     0.065 A 
ATOM     26  C   UNL A   1      34.866  17.447  24.361  1.00  0.00     0.028 A 
ATOM     27  C   UNL A   1      33.259  18.982  25.344  1.00  0.00     0.028 A 
ATOM     28  C   UNL A   1      33.943  16.409  24.459  1.00  0.00     0.002 A 
ATOM     29  C   UNL A   1      32.340  17.936  25.443  1.00  0.00     0.002 A 
ATOM     30  C   UNL A   1      32.686  16.651  25.014  1.00  0.00     0.000 A 
ENDBRANCH   9  25
ENDBRANCH   4   7
ENDBRANCH   2   3
ENDBRANCH   1   2
BRANCH   1  31
ATOM     31  C   UNL A   1      40.231  22.080  27.155  1.00  0.00     0.023 C 
BRANCH  31  32
ATOM     32  C   UNL A   1      40.664  21.512  25.806  1.00  0.00     0.116 C 
BRANCH  32  33
ATOM     33  N   UNL A   1      41.998  20.905  25.826  1.00  0.00    -0.352 N 
ATOM     34  C   UNL A   1      43.224  21.552  25.825  1.00  0.00     0.251 C 
ATOM     35  H   UNL A   1      42.026  19.921  25.842  1.00  0.00     0.163 HD
ATOM     36  O   UNL A   1      44.239  20.981  25.448  1.00  0.00    -0.269 OA
BRANCH  34  37
ATOM     37  C   UNL A   1      43.282  22.938  26.321  1.00  0.00     0.039 A 
ATOM     38  C   UNL A   1      42.859  24.034  25.563  1.00  0.00     0.014 A 
ATOM     39  C   UNL A   1      43.753  23.108  27.618  1.00  0.00     0.014 A 
ATOM     40  C   UNL A   1      42.840  25.297  26.158  1.00  0.00     0.010 A 
ATOM     41  C   UNL A   1      43.562  24.300  28.254  1.00  0.00     0.010 A 
ATOM     42  C   UNL A   1      43.185  25.414  27.511  1.00  0.00    -0.014 A 
BRANCH  42  43
ATOM     43  C   UNL A   1      43.070  26.670  28.245  1.00  0.00     0.031 A 
ATOM     44  C   UNL A   1      44.114  27.675  27.894  1.00  0.00     0.074 A 
ATOM     45  C   UNL A   1      41.925  26.971  28.903  1.00  0.00     0.049 A 
ATOM     46  N   UNL A   1      45.053  28.156  28.640  1.00  0.00    -0.248 NA
ATOM     47  C   UNL A   1      44.238  28.066  26.476  1.00  0.00     0.031 C 
ATOM     48  C   UNL A   1      40.695  26.166  28.978  1.00  0.00     0.029 A 
ATOM     49  N   UNL A   1      41.550  28.123  29.520  1.00  0.00    -0.354 N 
ATOM     50  C   UNL A   1      45.707  29.109  27.856  1.00  0.00     0.074 A 
ATOM     51  C   UNL A   1      45.342  28.816  26.498  1.00  0.00     0.031 C 
ATOM     52  C   UNL A   1      39.661  26.943  29.367  1.00  0.00     0.029 A 
ATOM     53  C   UNL A   1      40.177  28.244  29.741  1.00  0.00     0.049 A 
ATOM     54  H   UNL A   1      42.194  28.816  29.790  1.00  0.00     0.167 HD
ATOM     55  C   UNL A   1      46.240  30.236  28.410  1.00  0.00     0.037 A 
ATOM     56  C   UNL A   1      39.518  29.354  30.164  1.00  0.00     0.037 A 
ATOM     57  C   UNL A   1      46.329  30.094  29.843  1.00  0.00     0.049 A 
ATOM     58  C   UNL A   1      40.541  30.246  30.767  1.00  0.00     0.074 A 
ATOM     59  C   UNL A   1      46.982  29.236  30.706  1.00  0.00     0.029 A 
ATOM     60  N   UNL A   1      45.344  30.702  30.581  1.00  0.00    -0.354 N 
ATOM     61  N   UNL A   1      41.236  29.942  31.832  1.00  0.00    -0.248 NA
ATOM     62  C   UNL A   1      41.126  31.267  29.913  1.00  0.00     0.031 C 
ATOM     63  C   UNL A   1      46.072  29.038  31.785  1.00  0.00     0.029 A 
ATOM     64  C   UNL A   1      44.951  29.843  31.571  1.00  0.00     0.049 A 
ATOM     65  H   UNL A   1      44.982  31.604  30.425  1.00  0.00     0.167 HD
ATOM     66  C   UNL A   1      42.518  30.408  31.568  1.00  0.00     0.074 A 
ATOM     67  C   UNL A   1      42.365  31.291  30.412  1.00  0.00     0.031 C 
ATOM     68  C   UNL A   1      43.612  29.805  32.122  1.00  0.00     0.037 A 
BRANCH  55  69
ATOM     69  C   UNL A   1      46.271  31.609  27.753  1.00  0.00     0.058 A 
ATOM     70  C   UNL A   1      47.485  32.334  27.760  1.00  0.00     0.135 A 
ATOM     71  C   UNL A   1      45.131  32.363  27.392  1.00  0.00     0.135 A 
ATOM     72  F   UNL A   1      48.644  31.726  28.062  1.00  0.00    -0.206 F 
ATOM     73  C   UNL A   1      47.542  33.712  27.545  1.00  0.00     0.059 A 
ATOM     74  C   UNL A   1      45.174  33.727  27.123  1.00  0.00     0.059 A 
ATOM     75  F   UNL A   1      43.897  31.848  27.366  1.00  0.00    -0.206 F 
ATOM     76  C   UNL A   1      46.374  34.403  27.250  1.00  0.00     0.060 A 
BRANCH  76  77
ATOM     77  S   UNL A   1      46.421  36.195  27.084  1.00  0.00     0.124 S 
ATOM     78  O   UNL A   1      47.182  36.351  25.849  1.00  0.00    -0.237 OA
ATOM     79  O   UNL A   1      45.003  36.528  27.010  1.00  0.00    -0.237 OA
ATOM     80  O   UNL A   1      47.099  36.626  28.303  1.00  0.00    -0.744 OA
ENDBRANCH  76  77
ENDBRANCH  55  69
BRANCH  56  81
ATOM     81  C   UNL A   1      38.172  29.840  29.743  1.00  0.00     0.058 A 
ATOM     82  C   UNL A   1      37.250  30.352  30.674  1.00  0.00     0.135 A 
ATOM     83  C   UNL A   1      37.872  30.077  28.386  1.00  0.00     0.135 A 
ATOM     84  F   UNL A   1      37.467  30.198  31.990  1.00  0.00    -0.206 F 
ATOM     85  C   UNL A   1      36.121  31.088  30.286  1.00  0.00     0.059 A 
ATOM     86  C   UNL A   1      36.751  30.800  27.974  1.00  0.00     0.059 A 
ATOM     87  F   UNL A   1      38.713  29.685  27.415  1.00  0.00    -0.206 F 
ATOM     88  C   UNL A   1      35.889  31.322  28.930  1.00  0.00     0.060 A 
BRANCH  88  89
ATOM     89  S   UNL A   1      34.523  32.400  28.429  1.00  0.00     0.124 S 
ATOM     90  O   UNL A   1      34.027  32.878  29.716  1.00  0.00    -0.237 OA
ATOM     91  O   UNL A   1      35.198  33.392  27.599  1.00  0.00    -0.237 OA
ATOM     92  O   UNL A   1      33.625  31.498  27.712  1.00  0.00    -0.744 OA
ENDBRANCH  88  89
ENDBRANCH  56  81
BRANCH  68  93
ATOM     93  C   UNL A   1      43.406  28.867  33.284  1.00  0.00     0.058 A 
ATOM     94  C   UNL A   1      43.142  29.266  34.607  1.00  0.00     0.135 A 
ATOM     95  C   UNL A   1      43.273  27.503  32.988  1.00  0.00     0.135 A 
ATOM     96  F   UNL A   1      43.164  30.559  34.955  1.00  0.00    -0.206 F 
ATOM     97  C   UNL A   1      42.773  28.344  35.591  1.00  0.00     0.059 A 
ATOM     98  C   UNL A   1      42.878  26.573  33.943  1.00  0.00     0.059 A 
ATOM     99  F   UNL A   1      43.459  27.069  31.730  1.00  0.00    -0.206 F 
ATOM    100  C   UNL A   1      42.633  26.999  35.246  1.00  0.00     0.060 A 
BRANCH 100 101
ATOM    101  S   UNL A   1      42.047  25.822  36.484  1.00  0.00     0.124 S 
ATOM    102  O   UNL A   1      42.946  24.690  36.281  1.00  0.00    -0.237 OA
ATOM    103  O   UNL A   1      42.226  26.558  37.733  1.00  0.00    -0.237 OA
ATOM    104  O   UNL A   1      40.656  25.590  36.103  1.00  0.00    -0.744 OA
ENDBRANCH 100 101
ENDBRANCH  68  93
ENDBRANCH  42  43
ENDBRANCH  34  37
ENDBRANCH  32  33
ENDBRANCH  31  32
ENDBRANCH   1  31
TORSDOF 18
ENDMDL
MODEL 3
REMARK VINA RESULT:     -11.6      2.953      9.132
REMARK SMILES CC(C)(C)OC(=O)N1CCC(c2c(C(=O)NCCCCNC(=O)c3ccc(-c4c5nc(c(-c6c(F)cc(S(=O)(=O)[O-])cc6F)c6ccc([nH]6)c(-c6c(F)cc(S(=O)(=O)[O-])cc6F)c6nc(c(-c7c(F)cc(S(=O)(=O)[O-])cc7F)c7ccc4[nH]7)C=C6)C=C5)cc3)cnn2-c2ccccc2)CC1
REMARK SMILES IDX 18 1 17 2 16 3 14 4 15 5 13 7 12 8 92 9 90 10 91 11 11 12
REMARK SMILES IDX 6 13 7 14 8 15 9 16 100 17 10 18 99 19 5 20 2 21 1 22 3 23
REMARK SMILES IDX 4 24 93 25 94 26 98 27 95 28 97 29 96 30 19 31 20 32 21 33
REMARK SMILES IDX 22 34 23 36 24 37 25 38 89 39 26 40 88 41 27 42 28 43 29 44
REMARK SMILES IDX 82 45 30 46 87 47 81 48 83 49 31 50 86 51 80 52 79 53 32 55
REMARK SMILES IDX 66 56 45 57 65 58 46 59 49 60 64 61 84 62 47 63 48 64 63 66
REMARK SMILES IDX 85 67 50 68 33 69 34 70 43 71 35 72 36 73 42 74 44 75 37 76
REMARK SMILES IDX 38 77 39 78 40 79 41 80 67 81 68 82 77 83 69 84 70 85 76 86
REMARK SMILES IDX 78 87 71 88 72 89 73 90 74 91 75 92 51 93 52 94 61 95 53 96
REMARK SMILES IDX 54 97 60 98 62 99 55 100 56 101 57 102 58 103 59 104
REMARK H PARENT 16 6 21 35 83 54 49 65
REMARK Flexibility Score: inf
ROOT
ATOM      1  C   UNL A   1      38.886  23.281  26.205  1.00  0.00     0.023 C 
ENDROOT
BRANCH   1   2
ATOM      2  C   UNL A   1      37.417  23.168  25.791  1.00  0.00     0.116 C 
BRANCH   2   3
ATOM      3  N   UNL A   1      37.024  21.822  25.415  1.00  0.00    -0.352 N 
ATOM      4  C   UNL A   1      35.874  21.074  25.508  1.00  0.00     0.254 C 
ATOM      5  O   UNL A   1      35.955  19.949  25.010  1.00  0.00    -0.269 OA
ATOM      6  H   UNL A   1      37.760  21.324  24.991  1.00  0.00     0.163 HD
BRANCH   4   7
ATOM      7  C   UNL A   1      34.637  21.539  26.147  1.00  0.00     0.081 A 
ATOM      8  C   UNL A   1      33.691  22.442  25.590  1.00  0.00     0.060 A 
ATOM      9  N   UNL A   1      32.738  22.642  26.590  1.00  0.00    -0.237 N 
ATOM     10  C   UNL A   1      34.129  21.282  27.431  1.00  0.00     0.149 A 
ATOM     11  N   UNL A   1      33.030  21.963  27.719  1.00  0.00    -0.175 NA
BRANCH   8  12
ATOM     12  C   UNL A   1      33.769  23.134  24.214  1.00  0.00     0.043 C 
ATOM     13  C   UNL A   1      31.864  25.933  22.121  1.00  0.00     0.410 C 
ATOM     14  O   UNL A   1      30.673  25.632  22.240  1.00  0.00    -0.224 OA
ATOM     15  N   UNL A   1      32.869  24.990  22.184  1.00  0.00    -0.308 N 
ATOM     16  C   UNL A   1      32.499  23.593  22.099  1.00  0.00     0.124 C 
ATOM     17  C   UNL A   1      34.202  25.226  22.726  1.00  0.00     0.124 C 
ATOM     18  C   UNL A   1      32.403  23.024  23.504  1.00  0.00     0.032 C 
ATOM     19  C   UNL A   1      34.293  24.594  24.133  1.00  0.00     0.032 C 
BRANCH  13  20
ATOM     20  O   UNL A   1      32.299  27.189  21.839  1.00  0.00    -0.444 OA
BRANCH  20  21
ATOM     21  C   UNL A   1      32.206  28.210  22.875  1.00  0.00     0.106 C 
ATOM     22  C   UNL A   1      31.042  29.123  22.459  1.00  0.00     0.056 C 
ATOM     23  C   UNL A   1      33.490  29.046  22.931  1.00  0.00     0.056 C 
ATOM     24  C   UNL A   1      31.852  27.624  24.256  1.00  0.00     0.056 C 
ENDBRANCH  20  21
ENDBRANCH  13  20
ENDBRANCH   8  12
BRANCH   9  25
ATOM     25  C   UNL A   1      31.570  23.430  26.639  1.00  0.00     0.065 A 
ATOM     26  C   UNL A   1      31.711  24.823  26.567  1.00  0.00     0.028 A 
ATOM     27  C   UNL A   1      30.316  22.855  26.859  1.00  0.00     0.028 A 
ATOM     28  C   UNL A   1      30.582  25.636  26.607  1.00  0.00     0.002 A 
ATOM     29  C   UNL A   1      29.188  23.677  26.894  1.00  0.00     0.002 A 
ATOM     30  C   UNL A   1      29.320  25.061  26.755  1.00  0.00     0.000 A 
ENDBRANCH   9  25
ENDBRANCH   4   7
ENDBRANCH   2   3
ENDBRANCH   1   2
BRANCH   1  31
ATOM     31  C   UNL A   1      39.605  21.952  26.495  1.00  0.00     0.023 C 
BRANCH  31  32
ATOM     32  C   UNL A   1      40.987  22.080  27.129  1.00  0.00     0.116 C 
BRANCH  32  33
ATOM     33  N   UNL A   1      42.083  22.068  26.155  1.00  0.00    -0.352 N 
ATOM     34  C   UNL A   1      42.679  23.154  25.534  1.00  0.00     0.251 C 
ATOM     35  H   UNL A   1      42.437  21.181  25.914  1.00  0.00     0.163 HD
ATOM     36  O   UNL A   1      43.284  23.025  24.479  1.00  0.00    -0.269 OA
BRANCH  34  37
ATOM     37  C   UNL A   1      42.595  24.469  26.196  1.00  0.00     0.039 A 
ATOM     38  C   UNL A   1      41.726  25.478  25.770  1.00  0.00     0.014 A 
ATOM     39  C   UNL A   1      43.409  24.650  27.308  1.00  0.00     0.014 A 
ATOM     40  C   UNL A   1      41.629  26.646  26.528  1.00  0.00     0.010 A 
ATOM     41  C   UNL A   1      43.181  25.704  28.145  1.00  0.00     0.010 A 
ATOM     42  C   UNL A   1      42.356  26.742  27.722  1.00  0.00    -0.014 A 
BRANCH  42  43
ATOM     43  C   UNL A   1      42.217  27.868  28.639  1.00  0.00     0.031 A 
ATOM     44  C   UNL A   1      43.336  28.851  28.566  1.00  0.00     0.074 A 
ATOM     45  C   UNL A   1      41.021  28.130  29.219  1.00  0.00     0.049 A 
ATOM     46  N   UNL A   1      44.207  29.148  29.472  1.00  0.00    -0.248 NA
ATOM     47  C   UNL A   1      43.631  29.456  27.252  1.00  0.00     0.031 C 
ATOM     48  C   UNL A   1      39.755  27.400  29.035  1.00  0.00     0.029 A 
ATOM     49  N   UNL A   1      40.631  29.189  29.977  1.00  0.00    -0.354 N 
ATOM     50  C   UNL A   1      44.984  30.173  28.927  1.00  0.00     0.074 A 
ATOM     51  C   UNL A   1      44.758  30.123  27.509  1.00  0.00     0.031 C 
ATOM     52  C   UNL A   1      38.720  28.166  29.441  1.00  0.00     0.029 A 
ATOM     53  C   UNL A   1      39.249  29.357  30.076  1.00  0.00     0.049 A 
ATOM     54  H   UNL A   1      41.272  29.789  30.422  1.00  0.00     0.167 HD
ATOM     55  C   UNL A   1      45.502  31.161  29.711  1.00  0.00     0.037 A 
ATOM     56  C   UNL A   1      38.596  30.423  30.609  1.00  0.00     0.037 A 
ATOM     57  C   UNL A   1      45.428  30.786  31.103  1.00  0.00     0.049 A 
ATOM     58  C   UNL A   1      39.586  31.143  31.451  1.00  0.00     0.074 A 
ATOM     59  C   UNL A   1      45.944  29.763  31.873  1.00  0.00     0.029 A 
ATOM     60  N   UNL A   1      44.396  31.328  31.828  1.00  0.00    -0.354 N 
ATOM     61  N   UNL A   1      40.146  30.629  32.515  1.00  0.00    -0.248 NA
ATOM     62  C   UNL A   1      40.305  32.249  30.841  1.00  0.00     0.031 C 
ATOM     63  C   UNL A   1      44.914  29.451  32.807  1.00  0.00     0.029 A 
ATOM     64  C   UNL A   1      43.859  30.347  32.617  1.00  0.00     0.049 A 
ATOM     65  H   UNL A   1      44.093  32.264  31.788  1.00  0.00     0.167 HD
ATOM     66  C   UNL A   1      41.468  31.053  32.462  1.00  0.00     0.074 A 
ATOM     67  C   UNL A   1      41.482  32.117  31.459  1.00  0.00     0.031 C 
ATOM     68  C   UNL A   1      42.468  30.303  33.016  1.00  0.00     0.037 A 
BRANCH  55  69
ATOM     69  C   UNL A   1      45.665  32.618  29.297  1.00  0.00     0.058 A 
ATOM     70  C   UNL A   1      44.558  33.284  28.721  1.00  0.00     0.135 A 
ATOM     71  C   UNL A   1      46.901  33.289  29.158  1.00  0.00     0.135 A 
ATOM     72  F   UNL A   1      43.325  32.761  28.805  1.00  0.00    -0.206 F 
ATOM     73  C   UNL A   1      44.689  34.454  27.971  1.00  0.00     0.059 A 
ATOM     74  C   UNL A   1      47.044  34.483  28.459  1.00  0.00     0.059 A 
ATOM     75  F   UNL A   1      48.055  32.790  29.612  1.00  0.00    -0.206 F 
ATOM     76  C   UNL A   1      45.944  35.033  27.827  1.00  0.00     0.060 A 
BRANCH  76  77
ATOM     77  S   UNL A   1      46.139  36.476  26.769  1.00  0.00     0.124 S 
ATOM     78  O   UNL A   1      45.458  36.039  25.556  1.00  0.00    -0.237 OA
ATOM     79  O   UNL A   1      45.468  37.512  27.545  1.00  0.00    -0.237 OA
ATOM     80  O   UNL A   1      47.589  36.619  26.663  1.00  0.00    -0.744 OA
ENDBRANCH  76  77
ENDBRANCH  55  69
BRANCH  56  81
ATOM     81  C   UNL A   1      37.328  31.051  30.140  1.00  0.00     0.058 A 
ATOM     82  C   UNL A   1      36.376  31.552  31.048  1.00  0.00     0.135 A 
ATOM     83  C   UNL A   1      37.154  31.431  28.794  1.00  0.00     0.135 A 
ATOM     84  F   UNL A   1      36.477  31.264  32.354  1.00  0.00    -0.206 F 
ATOM     85  C   UNL A   1      35.338  32.407  30.651  1.00  0.00     0.059 A 
ATOM     86  C   UNL A   1      36.125  32.276  28.373  1.00  0.00     0.059 A 
ATOM     87  F   UNL A   1      38.036  31.060  27.853  1.00  0.00    -0.206 F 
ATOM     88  C   UNL A   1      35.231  32.779  29.311  1.00  0.00     0.060 A 
BRANCH  88  89
ATOM     89  S   UNL A   1      33.992  34.004  28.817  1.00  0.00     0.124 S 
ATOM     90  O   UNL A   1      34.818  35.038  28.203  1.00  0.00    -0.237 OA
ATOM     91  O   UNL A   1      33.146  33.241  27.907  1.00  0.00    -0.237 OA
ATOM     92  O   UNL A   1      33.364  34.380  30.082  1.00  0.00    -0.744 OA
ENDBRANCH  88  89
ENDBRANCH  56  81
BRANCH  68  93
ATOM     93  C   UNL A   1      42.095  29.206  33.980  1.00  0.00     0.058 A 
ATOM     94  C   UNL A   1      41.927  27.851  33.636  1.00  0.00     0.135 A 
ATOM     95  C   UNL A   1      42.112  29.521  35.346  1.00  0.00     0.135 A 
ATOM     96  F   UNL A   1      41.983  27.452  32.359  1.00  0.00    -0.206 F 
ATOM     97  C   UNL A   1      41.772  26.861  34.610  1.00  0.00     0.059 A 
ATOM     98  C   UNL A   1      41.990  28.549  36.332  1.00  0.00     0.059 A 
ATOM     99  F   UNL A   1      42.324  30.789  35.738  1.00  0.00    -0.206 F 
ATOM    100  C   UNL A   1      41.816  27.219  35.958  1.00  0.00     0.060 A 
BRANCH 100 101
ATOM    101  S   UNL A   1      41.729  25.931  37.222  1.00  0.00     0.124 S 
ATOM    102  O   UNL A   1      42.752  26.361  38.169  1.00  0.00    -0.237 OA
ATOM    103  O   UNL A   1      40.349  26.035  37.688  1.00  0.00    -0.237 OA
ATOM    104  O   UNL A   1      42.037  24.709  36.484  1.00  0.00    -0.744 OA
ENDBRANCH 100 101
ENDBRANCH  68  93
ENDBRANCH  42  43
ENDBRANCH  34  37
ENDBRANCH  32  33
ENDBRANCH  31  32
ENDBRANCH   1  31
TORSDOF 18
ENDMDL
