MODEL 1
REMARK VINA RESULT:     -12.5      0.000      0.000
REMARK SMILES Cc1ccc(-c2cc3cccnc3n2CCC(=O)NCCCCNC(=O)c2ccc(-c3c4nc(c(-c5c(F)cc(S(=O)(=O)[O-])cc5F)c5ccc([nH]5)c(-c5c(F)cc(S(=O)(=O)[O-])cc5F)c5nc(c(-c6c(F)cc(S(=O)(=O)[O-])cc6F)c6ccc3[nH]6)C=C5)C=C4)cc2)cn1
REMARK SMILES IDX 21 1 20 2 19 3 17 4 18 5 16 7 15 8 14 9 6 10 7 11 8 12 13 13
REMARK SMILES IDX 9 14 12 15 10 16 11 17 5 18 1 19 2 20 3 21 94 22 4 23 93 24
REMARK SMILES IDX 22 25 23 26 24 27 25 28 26 30 27 31 28 32 92 33 29 34 91 35
REMARK SMILES IDX 30 36 31 37 32 38 85 39 33 40 90 41 84 42 86 43 34 44 89 45
REMARK SMILES IDX 83 46 82 47 35 49 69 50 48 51 68 52 49 53 52 54 67 55 87 56
REMARK SMILES IDX 50 57 51 58 66 60 88 61 53 62 36 63 37 64 46 65 38 66 39 67
REMARK SMILES IDX 45 68 47 69 40 70 41 71 42 72 43 73 44 74 70 75 71 76 80 77
REMARK SMILES IDX 72 78 73 79 79 80 81 81 74 82 75 83 76 84 77 85 78 86 54 87
REMARK SMILES IDX 55 88 64 89 56 90 57 91 63 92 65 93 58 94 59 95 60 96 61 97
REMARK SMILES IDX 62 98
REMARK H PARENT 19 6 24 29 86 48 52 59
REMARK Flexibility Score: inf
ROOT
ATOM      1  C   UNL A   1      40.718  21.326  27.308  1.00  0.00     0.023 C 
ENDROOT
BRANCH   1   2
ATOM      2  C   UNL A   1      39.699  21.161  26.193  1.00  0.00     0.116 C 
BRANCH   2   3
ATOM      3  N   UNL A   1      38.953  22.385  25.919  1.00  0.00    -0.356 N 
ATOM      4  C   UNL A   1      37.776  22.604  25.266  1.00  0.00     0.221 C 
ATOM      5  O   UNL A   1      37.363  23.767  25.202  1.00  0.00    -0.275 OA
ATOM      6  H   UNL A   1      39.378  23.202  26.269  1.00  0.00     0.163 HD
BRANCH   4   7
ATOM      7  C   UNL A   1      36.971  21.494  24.613  1.00  0.00     0.122 C 
BRANCH   7   8
ATOM      8  C   UNL A   1      35.994  20.721  25.528  1.00  0.00     0.134 C 
BRANCH   8   9
ATOM      9  N   UNL A   1      34.618  20.651  25.050  1.00  0.00    -0.325 N 
ATOM     10  C   UNL A   1      33.685  21.675  24.816  1.00  0.00     0.052 A 
ATOM     11  C   UNL A   1      32.588  21.022  24.222  1.00  0.00     0.039 A 
ATOM     12  C   UNL A   1      32.934  19.671  23.937  1.00  0.00     0.020 A 
ATOM     13  C   UNL A   1      34.140  19.439  24.571  1.00  0.00     0.140 A 
ATOM     14  C   UNL A   1      32.422  18.643  23.122  1.00  0.00     0.013 A 
ATOM     15  N   UNL A   1      34.834  18.279  24.584  1.00  0.00    -0.238 NA
ATOM     16  C   UNL A   1      33.143  17.449  23.049  1.00  0.00     0.021 A 
ATOM     17  C   UNL A   1      34.295  17.316  23.808  1.00  0.00     0.113 A 
BRANCH  10  18
ATOM     18  C   UNL A   1      33.928  23.159  24.769  1.00  0.00     0.017 A 
ATOM     19  C   UNL A   1      33.632  27.464  24.762  1.00  0.00     0.066 C 
ATOM     20  C   UNL A   1      33.766  25.970  24.764  1.00  0.00     0.037 A 
ATOM     21  C   UNL A   1      33.892  25.291  23.569  1.00  0.00     0.024 A 
ATOM     22  N   UNL A   1      33.785  25.320  25.948  1.00  0.00    -0.261 NA
ATOM     23  C   UNL A   1      33.995  23.899  23.591  1.00  0.00     0.014 A 
ATOM     24  C   UNL A   1      33.857  23.953  25.919  1.00  0.00     0.121 A 
ENDBRANCH  10  18
ENDBRANCH   8   9
ENDBRANCH   7   8
ENDBRANCH   4   7
ENDBRANCH   2   3
ENDBRANCH   1   2
BRANCH   1  25
ATOM     25  C   UNL A   1      42.209  21.033  27.123  1.00  0.00     0.023 C 
BRANCH  25  26
ATOM     26  C   UNL A   1      42.550  20.386  25.801  1.00  0.00     0.116 C 
BRANCH  26  27
ATOM     27  N   UNL A   1      43.926  19.861  25.741  1.00  0.00    -0.352 N 
ATOM     28  C   UNL A   1      45.083  20.545  25.401  1.00  0.00     0.251 C 
ATOM     29  H   UNL A   1      44.038  18.911  25.970  1.00  0.00     0.163 HD
ATOM     30  O   UNL A   1      46.114  19.957  25.080  1.00  0.00    -0.269 OA
BRANCH  28  31
ATOM     31  C   UNL A   1      45.031  22.011  25.472  1.00  0.00     0.039 A 
ATOM     32  C   UNL A   1      44.284  22.795  24.592  1.00  0.00     0.014 A 
ATOM     33  C   UNL A   1      45.596  22.545  26.623  1.00  0.00     0.014 A 
ATOM     34  C   UNL A   1      44.024  24.113  24.959  1.00  0.00     0.010 A 
ATOM     35  C   UNL A   1      45.069  23.702  27.109  1.00  0.00     0.010 A 
ATOM     36  C   UNL A   1      44.386  24.541  26.248  1.00  0.00    -0.014 A 
BRANCH  36  37
ATOM     37  C   UNL A   1      44.000  25.829  26.797  1.00  0.00     0.031 A 
ATOM     38  C   UNL A   1      44.941  26.918  26.464  1.00  0.00     0.074 A 
ATOM     39  C   UNL A   1      42.807  26.040  27.398  1.00  0.00     0.049 A 
ATOM     40  N   UNL A   1      45.977  27.263  27.151  1.00  0.00    -0.248 NA
ATOM     41  C   UNL A   1      44.887  27.540  25.132  1.00  0.00     0.031 C 
ATOM     42  C   UNL A   1      41.648  25.136  27.494  1.00  0.00     0.029 A 
ATOM     43  N   UNL A   1      42.363  27.155  28.038  1.00  0.00    -0.354 N 
ATOM     44  C   UNL A   1      46.486  28.382  26.505  1.00  0.00     0.074 A 
ATOM     45  C   UNL A   1      45.976  28.319  25.162  1.00  0.00     0.031 C 
ATOM     46  C   UNL A   1      40.577  25.802  27.979  1.00  0.00     0.029 A 
ATOM     47  C   UNL A   1      41.023  27.110  28.416  1.00  0.00     0.049 A 
ATOM     48  H   UNL A   1      42.941  27.930  28.221  1.00  0.00     0.167 HD
ATOM     49  C   UNL A   1      46.962  29.426  27.242  1.00  0.00     0.037 A 
ATOM     50  C   UNL A   1      40.348  28.031  29.145  1.00  0.00     0.037 A 
ATOM     51  C   UNL A   1      47.029  29.050  28.638  1.00  0.00     0.049 A 
ATOM     52  C   UNL A   1      41.373  28.754  29.937  1.00  0.00     0.074 A 
ATOM     53  C   UNL A   1      47.834  28.256  29.423  1.00  0.00     0.029 A 
ATOM     54  N   UNL A   1      45.834  29.202  29.300  1.00  0.00    -0.354 N 
ATOM     55  N   UNL A   1      42.091  28.181  30.867  1.00  0.00    -0.248 NA
ATOM     56  C   UNL A   1      41.895  30.021  29.436  1.00  0.00     0.031 C 
ATOM     57  C   UNL A   1      47.017  27.800  30.501  1.00  0.00     0.029 A 
ATOM     58  C   UNL A   1      45.753  28.373  30.388  1.00  0.00     0.049 A 
ATOM     59  H   UNL A   1      45.126  29.829  29.026  1.00  0.00     0.167 HD
ATOM     60  C   UNL A   1      43.332  28.779  30.759  1.00  0.00     0.074 A 
ATOM     61  C   UNL A   1      43.109  29.999  29.993  1.00  0.00     0.031 C 
ATOM     62  C   UNL A   1      44.477  28.081  31.013  1.00  0.00     0.037 A 
BRANCH  49  63
ATOM     63  C   UNL A   1      46.906  30.886  26.848  1.00  0.00     0.058 A 
ATOM     64  C   UNL A   1      48.076  31.668  26.959  1.00  0.00     0.135 A 
ATOM     65  C   UNL A   1      45.715  31.612  26.628  1.00  0.00     0.135 A 
ATOM     66  F   UNL A   1      49.266  31.088  27.181  1.00  0.00    -0.206 F 
ATOM     67  C   UNL A   1      48.055  33.064  26.906  1.00  0.00     0.059 A 
ATOM     68  C   UNL A   1      45.678  32.999  26.522  1.00  0.00     0.059 A 
ATOM     69  F   UNL A   1      44.512  31.027  26.599  1.00  0.00    -0.206 F 
ATOM     70  C   UNL A   1      46.848  33.720  26.692  1.00  0.00     0.060 A 
BRANCH  70  71
ATOM     71  S   UNL A   1      46.807  35.520  26.672  1.00  0.00     0.124 S 
ATOM     72  O   UNL A   1      47.404  35.841  27.963  1.00  0.00    -0.237 OA
ATOM     73  O   UNL A   1      47.618  35.823  25.497  1.00  0.00    -0.237 OA
ATOM     74  O   UNL A   1      45.386  35.823  26.540  1.00  0.00    -0.744 OA
ENDBRANCH  70  71
ENDBRANCH  49  63
BRANCH  50  75
ATOM     75  C   UNL A   1      39.001  28.600  28.870  1.00  0.00     0.058 A 
ATOM     76  C   UNL A   1      38.062  28.733  29.910  1.00  0.00     0.135 A 
ATOM     77  C   UNL A   1      38.731  29.315  27.688  1.00  0.00     0.135 A 
ATOM     78  F   UNL A   1      38.238  28.073  31.065  1.00  0.00    -0.206 F 
ATOM     79  C   UNL A   1      36.976  29.610  29.826  1.00  0.00     0.059 A 
ATOM     80  C   UNL A   1      37.651  30.193  27.579  1.00  0.00     0.059 A 
ATOM     81  F   UNL A   1      39.565  29.256  26.639  1.00  0.00    -0.206 F 
ATOM     82  C   UNL A   1      36.801  30.365  28.667  1.00  0.00     0.060 A 
BRANCH  82  83
ATOM     83  S   UNL A   1      35.540  31.662  28.644  1.00  0.00     0.124 S 
ATOM     84  O   UNL A   1      35.123  31.703  30.041  1.00  0.00    -0.237 OA
ATOM     85  O   UNL A   1      36.297  32.817  28.170  1.00  0.00    -0.237 OA
ATOM     86  O   UNL A   1      34.542  31.147  27.709  1.00  0.00    -0.744 OA
ENDBRANCH  82  83
ENDBRANCH  50  75
BRANCH  62  87
ATOM     87  C   UNL A   1      44.385  26.883  31.915  1.00  0.00     0.058 A 
ATOM     88  C   UNL A   1      44.372  25.543  31.495  1.00  0.00     0.135 A 
ATOM     89  C   UNL A   1      44.403  27.124  33.297  1.00  0.00     0.135 A 
ATOM     90  F   UNL A   1      44.415  25.226  30.195  1.00  0.00    -0.206 F 
ATOM     91  C   UNL A   1      44.358  24.489  32.415  1.00  0.00     0.059 A 
ATOM     92  C   UNL A   1      44.418  26.094  34.229  1.00  0.00     0.059 A 
ATOM     93  F   UNL A   1      44.453  28.385  33.758  1.00  0.00    -0.206 F 
ATOM     94  C   UNL A   1      44.386  24.776  33.782  1.00  0.00     0.060 A 
BRANCH  94  95
ATOM     95  S   UNL A   1      44.429  23.419  34.973  1.00  0.00     0.124 S 
ATOM     96  O   UNL A   1      44.057  22.274  34.150  1.00  0.00    -0.237 OA
ATOM     97  O   UNL A   1      45.815  23.447  35.432  1.00  0.00    -0.237 OA
ATOM     98  O   UNL A   1      43.440  23.812  35.975  1.00  0.00    -0.744 OA
ENDBRANCH  94  95
ENDBRANCH  62  87
ENDBRANCH  36  37
ENDBRANCH  28  31
ENDBRANCH  26  27
ENDBRANCH  25  26
ENDBRANCH   1  25
TORSDOF 17
ENDMDL
MODEL 2
REMARK VINA RESULT:     -12.4      0.721      2.787
REMARK SMILES Cc1ccc(-c2cc3cccnc3n2CCC(=O)NCCCCNC(=O)c2ccc(-c3c4nc(c(-c5c(F)cc(S(=O)(=O)[O-])cc5F)c5ccc([nH]5)c(-c5c(F)cc(S(=O)(=O)[O-])cc5F)c5nc(c(-c6c(F)cc(S(=O)(=O)[O-])cc6F)c6ccc3[nH]6)C=C5)C=C4)cc2)cn1
REMARK SMILES IDX 21 1 20 2 19 3 17 4 18 5 16 7 15 8 14 9 6 10 7 11 8 12 13 13
REMARK SMILES IDX 9 14 12 15 10 16 11 17 5 18 1 19 2 20 3 21 94 22 4 23 93 24
REMARK SMILES IDX 22 25 23 26 24 27 25 28 26 30 27 31 28 32 92 33 29 34 91 35
REMARK SMILES IDX 30 36 31 37 32 38 85 39 33 40 90 41 84 42 86 43 34 44 89 45
REMARK SMILES IDX 83 46 82 47 35 49 69 50 48 51 68 52 49 53 52 54 67 55 87 56
REMARK SMILES IDX 50 57 51 58 66 60 88 61 53 62 36 63 37 64 46 65 38 66 39 67
REMARK SMILES IDX 45 68 47 69 40 70 41 71 42 72 43 73 44 74 70 75 71 76 80 77
REMARK SMILES IDX 72 78 73 79 79 80 81 81 74 82 75 83 76 84 77 85 78 86 54 87
REMARK SMILES IDX 55 88 64 89 56 90 57 91 63 92 65 93 58 94 59 95 60 96 61 97
REMARK SMILES IDX 62 98
REMARK H PARENT 19 6 24 29 86 48 52 59
REMARK Flexibility Score: inf
ROOT
ATOM      1  C   UNL A   1      40.765  21.494  27.214  1.00  0.00     0.023 C 
ENDROOT
BRANCH   1   2
ATOM      2  C   UNL A   1      39.714  21.190  26.158  1.00  0.00     0.116 C 
BRANCH   2   3
ATOM      3  N   UNL A   1      38.909  22.354  25.805  1.00  0.00    -0.356 N 
ATOM      4  C   UNL A   1      37.585  22.485  25.503  1.00  0.00     0.221 C 
ATOM      5  O   UNL A   1      37.162  23.620  25.259  1.00  0.00    -0.275 OA
ATOM      6  H   UNL A   1      39.414  23.199  25.779  1.00  0.00     0.163 HD
BRANCH   4   7
ATOM      7  C   UNL A   1      36.628  21.307  25.445  1.00  0.00     0.122 C 
BRANCH   7   8
ATOM      8  C   UNL A   1      35.251  21.504  26.115  1.00  0.00     0.134 C 
BRANCH   8   9
ATOM      9  N   UNL A   1      34.152  21.803  25.203  1.00  0.00    -0.325 N 
ATOM     10  C   UNL A   1      33.384  20.946  24.397  1.00  0.00     0.052 A 
ATOM     11  C   UNL A   1      32.381  21.777  23.859  1.00  0.00     0.039 A 
ATOM     12  C   UNL A   1      32.438  23.057  24.478  1.00  0.00     0.020 A 
ATOM     13  C   UNL A   1      33.613  23.083  25.205  1.00  0.00     0.140 A 
ATOM     14  C   UNL A   1      31.577  24.164  24.599  1.00  0.00     0.013 A 
ATOM     15  N   UNL A   1      34.084  24.114  25.942  1.00  0.00    -0.238 NA
ATOM     16  C   UNL A   1      31.991  25.227  25.407  1.00  0.00     0.021 A 
ATOM     17  C   UNL A   1      33.237  25.162  26.011  1.00  0.00     0.113 A 
BRANCH  10  18
ATOM     18  C   UNL A   1      33.327  19.443  24.430  1.00  0.00     0.017 A 
ATOM     19  C   UNL A   1      33.284  15.267  25.512  1.00  0.00     0.066 C 
ATOM     20  C   UNL A   1      33.293  16.711  25.106  1.00  0.00     0.037 A 
ATOM     21  C   UNL A   1      34.440  17.269  24.580  1.00  0.00     0.024 A 
ATOM     22  N   UNL A   1      32.158  17.432  25.245  1.00  0.00    -0.261 NA
ATOM     23  C   UNL A   1      34.432  18.619  24.228  1.00  0.00     0.014 A 
ATOM     24  C   UNL A   1      32.208  18.760  24.915  1.00  0.00     0.121 A 
ENDBRANCH  10  18
ENDBRANCH   8   9
ENDBRANCH   7   8
ENDBRANCH   4   7
ENDBRANCH   2   3
ENDBRANCH   1   2
BRANCH   1  25
ATOM     25  C   UNL A   1      42.202  20.976  27.132  1.00  0.00     0.023 C 
BRANCH  25  26
ATOM     26  C   UNL A   1      42.528  20.267  25.838  1.00  0.00     0.116 C 
BRANCH  26  27
ATOM     27  N   UNL A   1      43.918  19.780  25.769  1.00  0.00    -0.352 N 
ATOM     28  C   UNL A   1      45.051  20.490  25.403  1.00  0.00     0.251 C 
ATOM     29  H   UNL A   1      44.059  18.837  26.012  1.00  0.00     0.163 HD
ATOM     30  O   UNL A   1      46.094  19.925  25.078  1.00  0.00    -0.269 OA
BRANCH  28  31
ATOM     31  C   UNL A   1      44.959  21.955  25.450  1.00  0.00     0.039 A 
ATOM     32  C   UNL A   1      44.123  22.697  24.615  1.00  0.00     0.014 A 
ATOM     33  C   UNL A   1      45.593  22.530  26.543  1.00  0.00     0.014 A 
ATOM     34  C   UNL A   1      43.851  24.015  24.977  1.00  0.00     0.010 A 
ATOM     35  C   UNL A   1      45.070  23.680  27.046  1.00  0.00     0.010 A 
ATOM     36  C   UNL A   1      44.297  24.480  26.226  1.00  0.00    -0.014 A 
BRANCH  36  37
ATOM     37  C   UNL A   1      43.914  25.767  26.778  1.00  0.00     0.031 A 
ATOM     38  C   UNL A   1      44.856  26.856  26.445  1.00  0.00     0.074 A 
ATOM     39  C   UNL A   1      42.723  25.979  27.383  1.00  0.00     0.049 A 
ATOM     40  N   UNL A   1      45.895  27.198  27.131  1.00  0.00    -0.248 NA
ATOM     41  C   UNL A   1      44.800  27.482  25.115  1.00  0.00     0.031 C 
ATOM     42  C   UNL A   1      41.562  25.077  27.479  1.00  0.00     0.029 A 
ATOM     43  N   UNL A   1      42.282  27.094  28.026  1.00  0.00    -0.354 N 
ATOM     44  C   UNL A   1      46.403  28.317  26.487  1.00  0.00     0.074 A 
ATOM     45  C   UNL A   1      45.890  28.258  25.145  1.00  0.00     0.031 C 
ATOM     46  C   UNL A   1      40.494  25.744  27.968  1.00  0.00     0.029 A 
ATOM     47  C   UNL A   1      40.943  27.050  28.407  1.00  0.00     0.049 A 
ATOM     48  H   UNL A   1      42.862  27.867  28.209  1.00  0.00     0.167 HD
ATOM     49  C   UNL A   1      46.884  29.358  27.225  1.00  0.00     0.037 A 
ATOM     50  C   UNL A   1      40.271  27.971  29.140  1.00  0.00     0.037 A 
ATOM     51  C   UNL A   1      46.952  28.980  28.620  1.00  0.00     0.049 A 
ATOM     52  C   UNL A   1      41.299  28.690  29.931  1.00  0.00     0.074 A 
ATOM     53  C   UNL A   1      47.758  28.183  29.401  1.00  0.00     0.029 A 
ATOM     54  N   UNL A   1      45.759  29.132  29.285  1.00  0.00    -0.354 N 
ATOM     55  N   UNL A   1      42.018  28.114  30.858  1.00  0.00    -0.248 NA
ATOM     56  C   UNL A   1      41.822  29.957  29.431  1.00  0.00     0.031 C 
ATOM     57  C   UNL A   1      46.943  27.725  30.480  1.00  0.00     0.029 A 
ATOM     58  C   UNL A   1      45.679  28.300  30.371  1.00  0.00     0.049 A 
ATOM     59  H   UNL A   1      45.052  29.760  29.014  1.00  0.00     0.167 HD
ATOM     60  C   UNL A   1      43.260  28.709  30.748  1.00  0.00     0.074 A 
ATOM     61  C   UNL A   1      43.037  29.932  29.986  1.00  0.00     0.031 C 
ATOM     62  C   UNL A   1      44.404  28.009  30.998  1.00  0.00     0.037 A 
BRANCH  49  63
ATOM     63  C   UNL A   1      46.828  30.820  26.834  1.00  0.00     0.058 A 
ATOM     64  C   UNL A   1      48.000  31.600  26.946  1.00  0.00     0.135 A 
ATOM     65  C   UNL A   1      45.638  31.548  26.618  1.00  0.00     0.135 A 
ATOM     66  F   UNL A   1      49.190  31.018  27.165  1.00  0.00    -0.206 F 
ATOM     67  C   UNL A   1      47.981  32.996  26.896  1.00  0.00     0.059 A 
ATOM     68  C   UNL A   1      45.603  32.935  26.515  1.00  0.00     0.059 A 
ATOM     69  F   UNL A   1      44.435  30.965  26.588  1.00  0.00    -0.206 F 
ATOM     70  C   UNL A   1      46.774  33.654  26.685  1.00  0.00     0.060 A 
BRANCH  70  71
ATOM     71  S   UNL A   1      46.736  35.454  26.670  1.00  0.00     0.124 S 
ATOM     72  O   UNL A   1      47.817  35.763  25.741  1.00  0.00    -0.237 OA
ATOM     73  O   UNL A   1      45.384  35.720  26.191  1.00  0.00    -0.237 OA
ATOM     74  O   UNL A   1      46.981  35.808  28.065  1.00  0.00    -0.744 OA
ENDBRANCH  70  71
ENDBRANCH  49  63
BRANCH  50  75
ATOM     75  C   UNL A   1      38.924  28.542  28.869  1.00  0.00     0.058 A 
ATOM     76  C   UNL A   1      37.967  28.621  29.898  1.00  0.00     0.135 A 
ATOM     77  C   UNL A   1      38.668  29.309  27.717  1.00  0.00     0.135 A 
ATOM     78  F   UNL A   1      38.130  27.909  31.024  1.00  0.00    -0.206 F 
ATOM     79  C   UNL A   1      36.877  29.493  29.837  1.00  0.00     0.059 A 
ATOM     80  C   UNL A   1      37.583  30.184  27.631  1.00  0.00     0.059 A 
ATOM     81  F   UNL A   1      39.520  29.304  26.680  1.00  0.00    -0.206 F 
ATOM     82  C   UNL A   1      36.715  30.300  28.711  1.00  0.00     0.060 A 
BRANCH  82  83
ATOM     83  S   UNL A   1      35.444  31.588  28.727  1.00  0.00     0.124 S 
ATOM     84  O   UNL A   1      34.307  30.897  28.130  1.00  0.00    -0.237 OA
ATOM     85  O   UNL A   1      35.331  31.889  30.151  1.00  0.00    -0.237 OA
ATOM     86  O   UNL A   1      36.028  32.649  27.912  1.00  0.00    -0.744 OA
ENDBRANCH  82  83
ENDBRANCH  50  75
BRANCH  62  87
ATOM     87  C   UNL A   1      44.312  26.810  31.898  1.00  0.00     0.058 A 
ATOM     88  C   UNL A   1      44.353  25.469  31.480  1.00  0.00     0.135 A 
ATOM     89  C   UNL A   1      44.272  27.051  33.279  1.00  0.00     0.135 A 
ATOM     90  F   UNL A   1      44.455  25.154  30.182  1.00  0.00    -0.206 F 
ATOM     91  C   UNL A   1      44.334  24.416  32.400  1.00  0.00     0.059 A 
ATOM     92  C   UNL A   1      44.281  26.022  34.212  1.00  0.00     0.059 A 
ATOM     93  F   UNL A   1      44.268  28.313  33.740  1.00  0.00    -0.206 F 
ATOM     94  C   UNL A   1      44.303  24.703  33.766  1.00  0.00     0.060 A 
BRANCH  94  95
ATOM     95  S   UNL A   1      44.339  23.349  34.959  1.00  0.00     0.124 S 
ATOM     96  O   UNL A   1      45.454  23.726  35.822  1.00  0.00    -0.237 OA
ATOM     97  O   UNL A   1      43.013  23.427  35.566  1.00  0.00    -0.237 OA
ATOM     98  O   UNL A   1      44.567  22.167  34.130  1.00  0.00    -0.744 OA
ENDBRANCH  94  95
ENDBRANCH  62  87
ENDBRANCH  36  37
ENDBRANCH  28  31
ENDBRANCH  26  27
ENDBRANCH  25  26
ENDBRANCH   1  25
TORSDOF 17
ENDMDL
MODEL 3
REMARK VINA RESULT:     -12.2      2.623      3.444
REMARK SMILES Cc1ccc(-c2cc3cccnc3n2CCC(=O)NCCCCNC(=O)c2ccc(-c3c4nc(c(-c5c(F)cc(S(=O)(=O)[O-])cc5F)c5ccc([nH]5)c(-c5c(F)cc(S(=O)(=O)[O-])cc5F)c5nc(c(-c6c(F)cc(S(=O)(=O)[O-])cc6F)c6ccc3[nH]6)C=C5)C=C4)cc2)cn1
REMARK SMILES IDX 21 1 20 2 19 3 17 4 18 5 16 7 15 8 14 9 6 10 7 11 8 12 13 13
REMARK SMILES IDX 9 14 12 15 10 16 11 17 5 18 1 19 2 20 3 21 94 22 4 23 93 24
REMARK SMILES IDX 22 25 23 26 24 27 25 28 26 30 27 31 28 32 92 33 29 34 91 35
REMARK SMILES IDX 30 36 31 37 32 38 85 39 33 40 90 41 84 42 86 43 34 44 89 45
REMARK SMILES IDX 83 46 82 47 35 49 69 50 48 51 68 52 49 53 52 54 67 55 87 56
REMARK SMILES IDX 50 57 51 58 66 60 88 61 53 62 36 63 37 64 46 65 38 66 39 67
REMARK SMILES IDX 45 68 47 69 40 70 41 71 42 72 43 73 44 74 70 75 71 76 80 77
REMARK SMILES IDX 72 78 73 79 79 80 81 81 74 82 75 83 76 84 77 85 78 86 54 87
REMARK SMILES IDX 55 88 64 89 56 90 57 91 63 92 65 93 58 94 59 95 60 96 61 97
REMARK SMILES IDX 62 98
REMARK H PARENT 19 6 24 29 86 48 52 59
REMARK Flexibility Score: inf
ROOT
ATOM      1  C   UNL A   1      40.045  21.926  26.721  1.00  0.00     0.023 C 
ENDROOT
BRANCH   1   2
ATOM      2  C   UNL A   1      38.892  21.793  25.739  1.00  0.00     0.116 C 
BRANCH   2   3
ATOM      3  N   UNL A   1      38.058  22.989  25.677  1.00  0.00    -0.356 N 
ATOM      4  C   UNL A   1      36.710  23.162  25.795  1.00  0.00     0.221 C 
ATOM      5  O   UNL A   1      36.271  24.315  25.720  1.00  0.00    -0.275 OA
ATOM      6  H   UNL A   1      38.559  23.822  25.522  1.00  0.00     0.163 HD
BRANCH   4   7
ATOM      7  C   UNL A   1      35.741  22.011  25.999  1.00  0.00     0.122 C 
BRANCH   7   8
ATOM      8  C   UNL A   1      35.669  20.961  24.868  1.00  0.00     0.134 C 
BRANCH   8   9
ATOM      9  N   UNL A   1      34.333  20.461  24.566  1.00  0.00    -0.325 N 
ATOM     10  C   UNL A   1      33.172  21.150  24.177  1.00  0.00     0.052 A 
ATOM     11  C   UNL A   1      32.242  20.134  23.882  1.00  0.00     0.039 A 
ATOM     12  C   UNL A   1      32.893  18.868  23.914  1.00  0.00     0.020 A 
ATOM     13  C   UNL A   1      34.143  19.089  24.461  1.00  0.00     0.140 A 
ATOM     14  C   UNL A   1      32.612  17.572  23.442  1.00  0.00     0.013 A 
ATOM     15  N   UNL A   1      35.096  18.160  24.695  1.00  0.00    -0.238 NA
ATOM     16  C   UNL A   1      33.596  16.593  23.600  1.00  0.00     0.021 A 
ATOM     17  C   UNL A   1      34.775  16.929  24.247  1.00  0.00     0.113 A 
BRANCH  10  18
ATOM     18  C   UNL A   1      33.049  22.583  23.733  1.00  0.00     0.017 A 
ATOM     19  C   UNL A   1      33.698  26.657  22.471  1.00  0.00     0.066 C 
ATOM     20  C   UNL A   1      33.442  25.244  22.905  1.00  0.00     0.037 A 
ATOM     21  C   UNL A   1      33.109  24.980  24.218  1.00  0.00     0.024 A 
ATOM     22  N   UNL A   1      33.520  24.257  21.986  1.00  0.00    -0.261 NA
ATOM     23  C   UNL A   1      32.894  23.657  24.606  1.00  0.00     0.014 A 
ATOM     24  C   UNL A   1      33.332  22.972  22.420  1.00  0.00     0.121 A 
ENDBRANCH  10  18
ENDBRANCH   8   9
ENDBRANCH   7   8
ENDBRANCH   4   7
ENDBRANCH   2   3
ENDBRANCH   1   2
BRANCH   1  25
ATOM     25  C   UNL A   1      41.339  21.119  26.598  1.00  0.00     0.023 C 
BRANCH  25  26
ATOM     26  C   UNL A   1      42.558  21.821  27.152  1.00  0.00     0.116 C 
BRANCH  26  27
ATOM     27  N   UNL A   1      43.384  22.469  26.116  1.00  0.00    -0.352 N 
ATOM     28  C   UNL A   1      43.388  23.803  25.743  1.00  0.00     0.251 C 
ATOM     29  H   UNL A   1      44.009  21.883  25.632  1.00  0.00     0.163 HD
ATOM     30  O   UNL A   1      43.874  24.178  24.677  1.00  0.00    -0.269 OA
BRANCH  28  31
ATOM     31  C   UNL A   1      42.810  24.760  26.696  1.00  0.00     0.039 A 
ATOM     32  C   UNL A   1      43.425  25.108  27.899  1.00  0.00     0.014 A 
ATOM     33  C   UNL A   1      41.722  25.466  26.203  1.00  0.00     0.014 A 
ATOM     34  C   UNL A   1      42.983  26.262  28.542  1.00  0.00     0.010 A 
ATOM     35  C   UNL A   1      41.530  26.734  26.658  1.00  0.00     0.010 A 
ATOM     36  C   UNL A   1      42.061  27.094  27.883  1.00  0.00    -0.014 A 
BRANCH  36  37
ATOM     37  C   UNL A   1      41.677  28.404  28.377  1.00  0.00     0.031 A 
ATOM     38  C   UNL A   1      42.674  29.457  28.094  1.00  0.00     0.074 A 
ATOM     39  C   UNL A   1      40.450  28.664  28.886  1.00  0.00     0.049 A 
ATOM     40  N   UNL A   1      43.668  29.785  28.848  1.00  0.00    -0.248 NA
ATOM     41  C   UNL A   1      42.736  30.053  26.750  1.00  0.00     0.031 C 
ATOM     42  C   UNL A   1      39.259  27.797  28.913  1.00  0.00     0.029 A 
ATOM     43  N   UNL A   1      39.997  29.805  29.470  1.00  0.00    -0.354 N 
ATOM     44  C   UNL A   1      44.257  30.874  28.221  1.00  0.00     0.074 A 
ATOM     45  C   UNL A   1      43.844  30.799  26.846  1.00  0.00     0.031 C 
ATOM     46  C   UNL A   1      38.178  28.506  29.305  1.00  0.00     0.029 A 
ATOM     47  C   UNL A   1      38.632  29.808  29.750  1.00  0.00     0.049 A 
ATOM     48  H   UNL A   1      40.584  30.566  29.681  1.00  0.00     0.167 HD
ATOM     49  C   UNL A   1      44.712  31.918  28.971  1.00  0.00     0.037 A 
ATOM     50  C   UNL A   1      37.936  30.765  30.410  1.00  0.00     0.037 A 
ATOM     51  C   UNL A   1      44.664  31.570  30.375  1.00  0.00     0.049 A 
ATOM     52  C   UNL A   1      38.923  31.473  31.262  1.00  0.00     0.074 A 
ATOM     53  C   UNL A   1      45.385  30.769  31.232  1.00  0.00     0.029 A 
ATOM     54  N   UNL A   1      43.430  31.772  30.945  1.00  0.00    -0.354 N 
ATOM     55  N   UNL A   1      39.552  30.898  32.252  1.00  0.00    -0.248 NA
ATOM     56  C   UNL A   1      39.519  32.712  30.776  1.00  0.00     0.031 C 
ATOM     57  C   UNL A   1      44.478  30.360  32.255  1.00  0.00     0.029 A 
ATOM     58  C   UNL A   1      43.244  30.968  32.039  1.00  0.00     0.049 A 
ATOM     59  H   UNL A   1      42.764  32.414  30.608  1.00  0.00     0.167 HD
ATOM     60  C   UNL A   1      40.817  31.455  32.224  1.00  0.00     0.074 A 
ATOM     61  C   UNL A   1      40.689  32.666  31.421  1.00  0.00     0.031 C 
ATOM     62  C   UNL A   1      41.917  30.729  32.574  1.00  0.00     0.037 A 
BRANCH  49  63
ATOM     63  C   UNL A   1      44.730  33.372  28.547  1.00  0.00     0.058 A 
ATOM     64  C   UNL A   1      45.974  34.022  28.395  1.00  0.00     0.135 A 
ATOM     65  C   UNL A   1      43.602  34.221  28.545  1.00  0.00     0.135 A 
ATOM     66  F   UNL A   1      47.117  33.318  28.394  1.00  0.00    -0.206 F 
ATOM     67  C   UNL A   1      46.089  35.410  28.299  1.00  0.00     0.059 A 
ATOM     68  C   UNL A   1      43.690  35.602  28.401  1.00  0.00     0.059 A 
ATOM     69  F   UNL A   1      42.364  33.771  28.777  1.00  0.00    -0.206 F 
ATOM     70  C   UNL A   1      44.939  36.192  28.309  1.00  0.00     0.060 A 
BRANCH  70  71
ATOM     71  S   UNL A   1      45.085  37.986  28.237  1.00  0.00     0.124 S 
ATOM     72  O   UNL A   1      46.378  38.201  28.875  1.00  0.00    -0.237 OA
ATOM     73  O   UNL A   1      45.031  38.231  26.799  1.00  0.00    -0.237 OA
ATOM     74  O   UNL A   1      43.923  38.448  28.989  1.00  0.00    -0.744 OA
ENDBRANCH  70  71
ENDBRANCH  49  63
BRANCH  50  75
ATOM     75  C   UNL A   1      36.631  31.368  30.027  1.00  0.00     0.058 A 
ATOM     76  C   UNL A   1      35.806  31.955  31.005  1.00  0.00     0.135 A 
ATOM     77  C   UNL A   1      36.326  31.674  28.687  1.00  0.00     0.135 A 
ATOM     78  F   UNL A   1      36.020  31.702  32.305  1.00  0.00    -0.206 F 
ATOM     79  C   UNL A   1      34.807  32.878  30.681  1.00  0.00     0.059 A 
ATOM     80  C   UNL A   1      35.331  32.589  28.339  1.00  0.00     0.059 A 
ATOM     81  F   UNL A   1      37.054  31.166  27.680  1.00  0.00    -0.206 F 
ATOM     82  C   UNL A   1      34.603  33.217  29.345  1.00  0.00     0.060 A 
BRANCH  82  83
ATOM     83  S   UNL A   1      33.476  34.574  28.943  1.00  0.00     0.124 S 
ATOM     84  O   UNL A   1      32.908  34.891  30.249  1.00  0.00    -0.237 OA
ATOM     85  O   UNL A   1      34.384  35.571  28.385  1.00  0.00    -0.237 OA
ATOM     86  O   UNL A   1      32.549  33.973  27.987  1.00  0.00    -0.744 OA
ENDBRANCH  82  83
ENDBRANCH  50  75
BRANCH  62  87
ATOM     87  C   UNL A   1      41.722  29.553  33.489  1.00  0.00     0.058 A 
ATOM     88  C   UNL A   1      41.644  28.209  33.088  1.00  0.00     0.135 A 
ATOM     89  C   UNL A   1      41.706  29.815  34.867  1.00  0.00     0.135 A 
ATOM     90  F   UNL A   1      41.715  27.869  31.795  1.00  0.00    -0.206 F 
ATOM     91  C   UNL A   1      41.535  27.173  34.022  1.00  0.00     0.059 A 
ATOM     92  C   UNL A   1      41.627  28.801  35.814  1.00  0.00     0.059 A 
ATOM     93  F   UNL A   1      41.814  31.078  35.312  1.00  0.00    -0.206 F 
ATOM     94  C   UNL A   1      41.532  27.480  35.385  1.00  0.00     0.060 A 
BRANCH  94  95
ATOM     95  S   UNL A   1      41.451  26.143  36.595  1.00  0.00     0.124 S 
ATOM     96  O   UNL A   1      40.723  25.110  35.867  1.00  0.00    -0.237 OA
ATOM     97  O   UNL A   1      42.862  25.864  36.852  1.00  0.00    -0.237 OA
ATOM     98  O   UNL A   1      40.728  26.740  37.717  1.00  0.00    -0.744 OA
ENDBRANCH  94  95
ENDBRANCH  62  87
ENDBRANCH  36  37
ENDBRANCH  28  31
ENDBRANCH  26  27
ENDBRANCH  25  26
ENDBRANCH   1  25
TORSDOF 17
ENDMDL
