MODEL 1
REMARK VINA RESULT:     -12.0      0.000      0.000
REMARK SMILES O=C(/C=C/C(=O)Nc1ccc2[nH]ncc2c1)NCCCCNC(=O)c1ccc(-c2c3nc(c(-c4c(F)cc(S(=O)(=O)[O-])cc4F)c4ccc([nH]4)c(-c4c(F)cc(S(=O)(=O)[O-])cc4F)c4nc(c(-c5c(F)cc(S(=O)(=O)[O-])cc5F)c5ccc2[nH]5)C=C4)C=C3)cc1
REMARK SMILES IDX 20 1 19 2 18 3 17 4 1 5 2 6 3 8 4 9 5 10 6 11 7 12 8 14 9 15
REMARK SMILES IDX 16 16 10 17 15 18 11 19 14 20 12 21 13 22 21 24 22 25 23 26
REMARK SMILES IDX 24 28 25 29 26 30 90 31 27 32 89 33 28 34 29 35 30 36 83 37
REMARK SMILES IDX 31 38 88 39 82 40 84 41 32 42 87 43 81 44 80 45 33 47 67 48
REMARK SMILES IDX 46 49 66 50 47 51 50 52 65 53 85 54 48 55 49 56 64 58 86 59
REMARK SMILES IDX 51 60 34 61 35 62 44 63 36 64 37 65 43 66 45 67 38 68 39 69
REMARK SMILES IDX 40 70 41 71 42 72 68 73 69 74 78 75 70 76 71 77 77 78 79 79
REMARK SMILES IDX 72 80 73 81 74 82 75 83 76 84 52 85 53 86 62 87 54 88 55 89
REMARK SMILES IDX 61 90 63 91 56 92 57 93 58 94 59 95 60 96
REMARK H PARENT 17 7 7 13 12 23 22 27 84 46 50 57
REMARK Flexibility Score: inf
ROOT
ATOM      1  C   UNL A   1      36.877  33.808  29.116  1.00  0.00     0.023 C 
ENDROOT
BRANCH   1   2
ATOM      2  C   UNL A   1      38.400  33.769  28.970  1.00  0.00     0.023 C 
BRANCH   2   3
ATOM      3  C   UNL A   1      39.146  34.698  29.927  1.00  0.00     0.116 C 
BRANCH   3   4
ATOM      4  N   UNL A   1      38.386  34.914  31.140  1.00  0.00    -0.353 N 
ATOM      5  O   UNL A   1      39.786  33.685  32.481  1.00  0.00    -0.270 OA
ATOM      6  C   UNL A   1      38.757  34.331  32.319  1.00  0.00     0.244 C 
ATOM      7  H   UNL A   1      37.589  35.491  31.116  1.00  0.00     0.163 HD
BRANCH   6   8
ATOM      8  C   UNL A   1      37.801  34.464  33.434  1.00  0.00     0.077 C 
ATOM      9  C   UNL A   1      36.734  33.675  33.640  1.00  0.00     0.077 C 
BRANCH   9  10
ATOM     10  C   UNL A   1      35.735  34.013  34.688  1.00  0.00     0.248 C 
ATOM     11  O   UNL A   1      35.818  33.468  35.786  1.00  0.00    -0.270 OA
ATOM     12  N   UNL A   1      34.772  34.960  34.445  1.00  0.00    -0.322 N 
ATOM     13  H   UNL A   1      34.263  35.260  35.232  1.00  0.00     0.170 HD
BRANCH  12  14
ATOM     14  C   UNL A   1      34.411  35.563  33.225  1.00  0.00     0.042 A 
ATOM     15  C   UNL A   1      34.041  36.911  33.145  1.00  0.00     0.028 A 
ATOM     16  C   UNL A   1      34.332  34.736  32.097  1.00  0.00     0.038 A 
ATOM     17  C   UNL A   1      33.427  37.433  32.004  1.00  0.00     0.030 A 
ATOM     18  C   UNL A   1      33.682  35.236  30.954  1.00  0.00     0.022 A 
ATOM     19  C   UNL A   1      33.225  36.549  30.945  1.00  0.00     0.065 A 
ATOM     20  C   UNL A   1      33.283  34.718  29.701  1.00  0.00     0.143 A 
ATOM     21  N   UNL A   1      32.570  36.697  29.752  1.00  0.00    -0.278 N 
ATOM     22  N   UNL A   1      32.616  35.609  28.961  1.00  0.00    -0.183 NA
ATOM     23  H   UNL A   1      32.106  37.526  29.494  1.00  0.00     0.190 HD
ENDBRANCH  12  14
ENDBRANCH   9  10
ENDBRANCH   6   8
ENDBRANCH   3   4
ENDBRANCH   2   3
ENDBRANCH   1   2
BRANCH   1  24
ATOM     24  C   UNL A   1      36.168  32.489  28.832  1.00  0.00     0.116 C 
BRANCH  24  25
ATOM     25  N   UNL A   1      35.883  31.737  30.042  1.00  0.00    -0.352 N 
ATOM     26  C   UNL A   1      36.635  30.759  30.648  1.00  0.00     0.251 C 
ATOM     27  H   UNL A   1      35.035  31.957  30.490  1.00  0.00     0.163 HD
ATOM     28  O   UNL A   1      36.160  30.109  31.577  1.00  0.00    -0.269 OA
BRANCH  26  29
ATOM     29  C   UNL A   1      38.002  30.471  30.161  1.00  0.00     0.039 A 
ATOM     30  C   UNL A   1      39.070  30.550  31.058  1.00  0.00     0.014 A 
ATOM     31  C   UNL A   1      38.230  30.112  28.829  1.00  0.00     0.014 A 
ATOM     32  C   UNL A   1      40.355  30.207  30.635  1.00  0.00     0.010 A 
ATOM     33  C   UNL A   1      39.498  29.696  28.431  1.00  0.00     0.010 A 
ATOM     34  C   UNL A   1      40.575  29.739  29.328  1.00  0.00    -0.014 A 
BRANCH  34  35
ATOM     35  C   UNL A   1      41.921  29.283  28.888  1.00  0.00     0.031 A 
ATOM     36  C   UNL A   1      43.061  30.261  28.795  1.00  0.00     0.074 A 
ATOM     37  C   UNL A   1      42.101  28.000  28.513  1.00  0.00     0.049 A 
ATOM     38  N   UNL A   1      44.287  30.065  28.378  1.00  0.00    -0.248 NA
ATOM     39  C   UNL A   1      42.783  31.649  29.199  1.00  0.00     0.031 C 
ATOM     40  C   UNL A   1      41.064  26.966  28.515  1.00  0.00     0.029 A 
ATOM     41  N   UNL A   1      43.217  27.348  28.049  1.00  0.00    -0.354 N 
ATOM     42  C   UNL A   1      44.918  31.301  28.457  1.00  0.00     0.074 A 
ATOM     43  C   UNL A   1      43.928  32.252  28.909  1.00  0.00     0.031 C 
ATOM     44  C   UNL A   1      41.598  25.805  28.101  1.00  0.00     0.029 A 
ATOM     45  C   UNL A   1      43.001  26.020  27.761  1.00  0.00     0.049 A 
ATOM     46  H   UNL A   1      44.088  27.789  27.935  1.00  0.00     0.167 HD
ATOM     47  C   UNL A   1      46.211  31.610  28.195  1.00  0.00     0.037 A 
ATOM     48  C   UNL A   1      43.836  25.082  27.270  1.00  0.00     0.037 A 
ATOM     49  C   UNL A   1      47.197  30.653  27.764  1.00  0.00     0.049 A 
ATOM     50  C   UNL A   1      45.264  25.454  26.973  1.00  0.00     0.074 A 
ATOM     51  C   UNL A   1      48.547  30.855  27.534  1.00  0.00     0.029 A 
ATOM     52  N   UNL A   1      46.942  29.316  27.490  1.00  0.00    -0.354 N 
ATOM     53  N   UNL A   1      45.862  26.614  27.120  1.00  0.00    -0.248 NA
ATOM     54  C   UNL A   1      46.132  24.393  26.447  1.00  0.00     0.031 C 
ATOM     55  C   UNL A   1      49.096  29.656  27.066  1.00  0.00     0.029 A 
ATOM     56  C   UNL A   1      48.103  28.690  27.065  1.00  0.00     0.049 A 
ATOM     57  H   UNL A   1      46.066  28.878  27.584  1.00  0.00     0.167 HD
ATOM     58  C   UNL A   1      47.184  26.410  26.737  1.00  0.00     0.074 A 
ATOM     59  C   UNL A   1      47.300  25.016  26.361  1.00  0.00     0.031 C 
ATOM     60  C   UNL A   1      48.208  27.298  26.702  1.00  0.00     0.037 A 
BRANCH  47  61
ATOM     61  C   UNL A   1      46.637  33.045  28.362  1.00  0.00     0.058 A 
ATOM     62  C   UNL A   1      46.556  33.969  27.307  1.00  0.00     0.135 A 
ATOM     63  C   UNL A   1      47.094  33.513  29.605  1.00  0.00     0.135 A 
ATOM     64  F   UNL A   1      46.141  33.576  26.093  1.00  0.00    -0.206 F 
ATOM     65  C   UNL A   1      46.939  35.297  27.471  1.00  0.00     0.059 A 
ATOM     66  C   UNL A   1      47.452  34.844  29.801  1.00  0.00     0.059 A 
ATOM     67  F   UNL A   1      47.191  32.674  30.650  1.00  0.00    -0.206 F 
ATOM     68  C   UNL A   1      47.385  35.724  28.723  1.00  0.00     0.060 A 
BRANCH  68  69
ATOM     69  S   UNL A   1      47.873  37.451  28.918  1.00  0.00     0.124 S 
ATOM     70  O   UNL A   1      48.664  37.669  27.710  1.00  0.00    -0.237 OA
ATOM     71  O   UNL A   1      46.585  38.136  28.963  1.00  0.00    -0.237 OA
ATOM     72  O   UNL A   1      48.625  37.454  30.168  1.00  0.00    -0.744 OA
ENDBRANCH  68  69
ENDBRANCH  47  61
BRANCH  48  73
ATOM     73  C   UNL A   1      43.349  23.694  27.047  1.00  0.00     0.058 A 
ATOM     74  C   UNL A   1      43.108  23.213  25.750  1.00  0.00     0.135 A 
ATOM     75  C   UNL A   1      43.119  22.818  28.119  1.00  0.00     0.135 A 
ATOM     76  F   UNL A   1      43.306  24.014  24.692  1.00  0.00    -0.206 F 
ATOM     77  C   UNL A   1      42.640  21.922  25.525  1.00  0.00     0.059 A 
ATOM     78  C   UNL A   1      42.679  21.512  27.918  1.00  0.00     0.059 A 
ATOM     79  F   UNL A   1      43.348  23.221  29.379  1.00  0.00    -0.206 F 
ATOM     80  C   UNL A   1      42.433  21.077  26.617  1.00  0.00     0.060 A 
BRANCH  80  81
ATOM     81  S   UNL A   1      41.868  19.391  26.309  1.00  0.00     0.124 S 
ATOM     82  O   UNL A   1      42.552  19.073  25.061  1.00  0.00    -0.237 OA
ATOM     83  O   UNL A   1      42.345  18.688  27.496  1.00  0.00    -0.237 OA
ATOM     84  O   UNL A   1      40.418  19.533  26.215  1.00  0.00    -0.744 OA
ENDBRANCH  80  81
ENDBRANCH  48  73
BRANCH  60  85
ATOM     85  C   UNL A   1      49.560  26.785  26.282  1.00  0.00     0.058 A 
ATOM     86  C   UNL A   1      50.016  26.890  24.959  1.00  0.00     0.135 A 
ATOM     87  C   UNL A   1      50.432  26.227  27.231  1.00  0.00     0.135 A 
ATOM     88  F   UNL A   1      49.222  27.409  24.009  1.00  0.00    -0.206 F 
ATOM     89  C   UNL A   1      51.279  26.439  24.587  1.00  0.00     0.059 A 
ATOM     90  C   UNL A   1      51.711  25.799  26.888  1.00  0.00     0.059 A 
ATOM     91  F   UNL A   1      50.052  26.112  28.514  1.00  0.00    -0.206 F 
ATOM     92  C   UNL A   1      52.120  25.898  25.560  1.00  0.00     0.060 A 
BRANCH  92  93
ATOM     93  S   UNL A   1      53.770  25.350  25.070  1.00  0.00     0.124 S 
ATOM     94  O   UNL A   1      54.602  25.970  26.097  1.00  0.00    -0.237 OA
ATOM     95  O   UNL A   1      53.650  23.898  25.142  1.00  0.00    -0.237 OA
ATOM     96  O   UNL A   1      53.924  25.895  23.725  1.00  0.00    -0.744 OA
ENDBRANCH  92  93
ENDBRANCH  60  85
ENDBRANCH  34  35
ENDBRANCH  26  29
ENDBRANCH  24  25
ENDBRANCH   1  24
TORSDOF 16
ENDMDL
MODEL 2
REMARK VINA RESULT:     -11.8      7.319     13.886
REMARK SMILES O=C(/C=C/C(=O)Nc1ccc2[nH]ncc2c1)NCCCCNC(=O)c1ccc(-c2c3nc(c(-c4c(F)cc(S(=O)(=O)[O-])cc4F)c4ccc([nH]4)c(-c4c(F)cc(S(=O)(=O)[O-])cc4F)c4nc(c(-c5c(F)cc(S(=O)(=O)[O-])cc5F)c5ccc2[nH]5)C=C4)C=C3)cc1
REMARK SMILES IDX 20 1 19 2 18 3 17 4 1 5 2 6 3 8 4 9 5 10 6 11 7 12 8 14 9 15
REMARK SMILES IDX 16 16 10 17 15 18 11 19 14 20 12 21 13 22 21 24 22 25 23 26
REMARK SMILES IDX 24 28 25 29 26 30 90 31 27 32 89 33 28 34 29 35 30 36 83 37
REMARK SMILES IDX 31 38 88 39 82 40 84 41 32 42 87 43 81 44 80 45 33 47 67 48
REMARK SMILES IDX 46 49 66 50 47 51 50 52 65 53 85 54 48 55 49 56 64 58 86 59
REMARK SMILES IDX 51 60 34 61 35 62 44 63 36 64 37 65 43 66 45 67 38 68 39 69
REMARK SMILES IDX 40 70 41 71 42 72 68 73 69 74 78 75 70 76 71 77 77 78 79 79
REMARK SMILES IDX 72 80 73 81 74 82 75 83 76 84 52 85 53 86 62 87 54 88 55 89
REMARK SMILES IDX 61 90 63 91 56 92 57 93 58 94 59 95 60 96
REMARK H PARENT 17 7 7 13 12 23 22 27 84 46 50 57
REMARK Flexibility Score: inf
ROOT
ATOM      1  C   UNL A   1      40.561  22.130  27.242  1.00  0.00     0.023 C 
ENDROOT
BRANCH   1   2
ATOM      2  C   UNL A   1      39.277  22.760  26.694  1.00  0.00     0.023 C 
BRANCH   2   3
ATOM      3  C   UNL A   1      38.496  21.860  25.736  1.00  0.00     0.116 C 
BRANCH   3   4
ATOM      4  N   UNL A   1      37.075  21.918  26.010  1.00  0.00    -0.353 N 
ATOM      5  O   UNL A   1      36.763  23.976  25.044  1.00  0.00    -0.270 OA
ATOM      6  C   UNL A   1      36.336  23.017  25.678  1.00  0.00     0.244 C 
ATOM      7  H   UNL A   1      36.635  21.152  26.443  1.00  0.00     0.163 HD
BRANCH   6   8
ATOM      8  C   UNL A   1      34.949  23.040  26.182  1.00  0.00     0.077 C 
ATOM      9  C   UNL A   1      34.421  22.153  27.039  1.00  0.00     0.077 C 
BRANCH   9  10
ATOM     10  C   UNL A   1      32.963  22.162  27.334  1.00  0.00     0.248 C 
ATOM     11  O   UNL A   1      32.584  22.526  28.445  1.00  0.00    -0.270 OA
ATOM     12  N   UNL A   1      32.059  21.823  26.360  1.00  0.00    -0.322 N 
ATOM     13  H   UNL A   1      31.117  22.023  26.567  1.00  0.00     0.170 HD
BRANCH  12  14
ATOM     14  C   UNL A   1      32.290  21.230  25.104  1.00  0.00     0.042 A 
ATOM     15  C   UNL A   1      32.099  21.930  23.907  1.00  0.00     0.028 A 
ATOM     16  C   UNL A   1      32.622  19.869  25.087  1.00  0.00     0.038 A 
ATOM     17  C   UNL A   1      32.061  21.271  22.675  1.00  0.00     0.030 A 
ATOM     18  C   UNL A   1      32.551  19.186  23.859  1.00  0.00     0.022 A 
ATOM     19  C   UNL A   1      32.248  19.890  22.700  1.00  0.00     0.065 A 
ATOM     20  C   UNL A   1      32.671  17.844  23.433  1.00  0.00     0.143 A 
ATOM     21  N   UNL A   1      32.166  18.945  21.712  1.00  0.00    -0.278 N 
ATOM     22  N   UNL A   1      32.449  17.694  22.123  1.00  0.00    -0.183 NA
ATOM     23  H   UNL A   1      31.921  19.160  20.783  1.00  0.00     0.190 HD
ENDBRANCH  12  14
ENDBRANCH   9  10
ENDBRANCH   6   8
ENDBRANCH   3   4
ENDBRANCH   2   3
ENDBRANCH   1   2
BRANCH   1  24
ATOM     24  C   UNL A   1      41.758  23.070  27.315  1.00  0.00     0.116 C 
BRANCH  24  25
ATOM     25  N   UNL A   1      41.866  23.927  26.146  1.00  0.00    -0.352 N 
ATOM     26  C   UNL A   1      41.735  25.292  26.062  1.00  0.00     0.251 C 
ATOM     27  H   UNL A   1      42.059  23.467  25.298  1.00  0.00     0.163 HD
ATOM     28  O   UNL A   1      41.691  25.835  24.960  1.00  0.00    -0.269 OA
BRANCH  26  29
ATOM     29  C   UNL A   1      41.617  26.100  27.296  1.00  0.00     0.039 A 
ATOM     30  C   UNL A   1      42.609  27.037  27.588  1.00  0.00     0.014 A 
ATOM     31  C   UNL A   1      40.525  25.943  28.155  1.00  0.00     0.014 A 
ATOM     32  C   UNL A   1      42.474  27.862  28.706  1.00  0.00     0.010 A 
ATOM     33  C   UNL A   1      40.354  26.818  29.225  1.00  0.00     0.010 A 
ATOM     34  C   UNL A   1      41.327  27.787  29.514  1.00  0.00    -0.014 A 
BRANCH  34  35
ATOM     35  C   UNL A   1      41.125  28.718  30.656  1.00  0.00     0.031 A 
ATOM     36  C   UNL A   1      41.977  28.602  31.891  1.00  0.00     0.074 A 
ATOM     37  C   UNL A   1      40.132  29.630  30.605  1.00  0.00     0.049 A 
ATOM     38  N   UNL A   1      41.912  29.282  33.008  1.00  0.00    -0.248 NA
ATOM     39  C   UNL A   1      43.024  27.568  31.882  1.00  0.00     0.031 C 
ATOM     40  C   UNL A   1      39.209  29.813  29.482  1.00  0.00     0.029 A 
ATOM     41  N   UNL A   1      39.727  30.569  31.521  1.00  0.00    -0.354 N 
ATOM     42  C   UNL A   1      42.895  28.752  33.835  1.00  0.00     0.074 A 
ATOM     43  C   UNL A   1      43.507  27.658  33.114  1.00  0.00     0.031 C 
ATOM     44  C   UNL A   1      38.366  30.819  29.764  1.00  0.00     0.029 A 
ATOM     45  C   UNL A   1      38.655  31.324  31.103  1.00  0.00     0.049 A 
ATOM     46  H   UNL A   1      40.163  30.691  32.395  1.00  0.00     0.167 HD
ATOM     47  C   UNL A   1      43.267  29.154  35.074  1.00  0.00     0.037 A 
ATOM     48  C   UNL A   1      37.976  32.305  31.729  1.00  0.00     0.037 A 
ATOM     49  C   UNL A   1      42.666  30.258  35.778  1.00  0.00     0.049 A 
ATOM     50  C   UNL A   1      38.399  32.724  33.112  1.00  0.00     0.074 A 
ATOM     51  C   UNL A   1      43.014  30.783  37.010  1.00  0.00     0.029 A 
ATOM     52  N   UNL A   1      41.588  31.002  35.319  1.00  0.00    -0.354 N 
ATOM     53  N   UNL A   1      39.379  32.257  33.851  1.00  0.00    -0.248 NA
ATOM     54  C   UNL A   1      37.630  33.803  33.745  1.00  0.00     0.031 C 
ATOM     55  C   UNL A   1      42.112  31.805  37.322  1.00  0.00     0.029 A 
ATOM     56  C   UNL A   1      41.240  31.961  36.256  1.00  0.00     0.049 A 
ATOM     57  H   UNL A   1      41.137  30.868  34.454  1.00  0.00     0.167 HD
ATOM     58  C   UNL A   1      39.362  33.009  35.021  1.00  0.00     0.074 A 
ATOM     59  C   UNL A   1      38.284  33.967  34.887  1.00  0.00     0.031 C 
ATOM     60  C   UNL A   1      40.169  32.915  36.107  1.00  0.00     0.037 A 
BRANCH  47  61
ATOM     61  C   UNL A   1      44.374  28.394  35.755  1.00  0.00     0.058 A 
ATOM     62  C   UNL A   1      45.727  28.717  35.557  1.00  0.00     0.135 A 
ATOM     63  C   UNL A   1      44.078  27.355  36.653  1.00  0.00     0.135 A 
ATOM     64  F   UNL A   1      46.070  29.692  34.700  1.00  0.00    -0.206 F 
ATOM     65  C   UNL A   1      46.745  28.020  36.199  1.00  0.00     0.059 A 
ATOM     66  C   UNL A   1      45.078  26.664  37.331  1.00  0.00     0.059 A 
ATOM     67  F   UNL A   1      42.802  27.002  36.882  1.00  0.00    -0.206 F 
ATOM     68  C   UNL A   1      46.409  26.995  37.085  1.00  0.00     0.060 A 
BRANCH  68  69
ATOM     69  S   UNL A   1      47.743  26.104  37.914  1.00  0.00     0.124 S 
ATOM     70  O   UNL A   1      47.648  26.635  39.271  1.00  0.00    -0.237 OA
ATOM     71  O   UNL A   1      47.339  24.712  37.748  1.00  0.00    -0.237 OA
ATOM     72  O   UNL A   1      48.933  26.501  37.168  1.00  0.00    -0.744 OA
ENDBRANCH  68  69
ENDBRANCH  47  61
BRANCH  48  73
ATOM     73  C   UNL A   1      36.836  32.976  31.046  1.00  0.00     0.058 A 
ATOM     74  C   UNL A   1      35.510  32.685  31.401  1.00  0.00     0.135 A 
ATOM     75  C   UNL A   1      37.046  33.923  30.031  1.00  0.00     0.135 A 
ATOM     76  F   UNL A   1      35.256  31.782  32.361  1.00  0.00    -0.206 F 
ATOM     77  C   UNL A   1      34.433  33.293  30.764  1.00  0.00     0.059 A 
ATOM     78  C   UNL A   1      35.986  34.567  29.399  1.00  0.00     0.059 A 
ATOM     79  F   UNL A   1      38.295  34.250  29.664  1.00  0.00    -0.206 F 
ATOM     80  C   UNL A   1      34.682  34.237  29.766  1.00  0.00     0.060 A 
BRANCH  80  81
ATOM     81  S   UNL A   1      33.277  35.052  28.978  1.00  0.00     0.124 S 
ATOM     82  O   UNL A   1      32.415  35.326  30.121  1.00  0.00    -0.237 OA
ATOM     83  O   UNL A   1      33.908  36.214  28.358  1.00  0.00    -0.237 OA
ATOM     84  O   UNL A   1      32.785  34.044  28.043  1.00  0.00    -0.744 OA
ENDBRANCH  80  81
ENDBRANCH  48  73
BRANCH  60  85
ATOM     85  C   UNL A   1      39.949  33.900  37.225  1.00  0.00     0.058 A 
ATOM     86  C   UNL A   1      40.554  35.166  37.229  1.00  0.00     0.135 A 
ATOM     87  C   UNL A   1      39.075  33.590  38.280  1.00  0.00     0.135 A 
ATOM     88  F   UNL A   1      41.404  35.513  36.250  1.00  0.00    -0.206 F 
ATOM     89  C   UNL A   1      40.321  36.081  38.252  1.00  0.00     0.059 A 
ATOM     90  C   UNL A   1      38.801  34.501  39.295  1.00  0.00     0.059 A 
ATOM     91  F   UNL A   1      38.459  32.398  38.320  1.00  0.00    -0.206 F 
ATOM     92  C   UNL A   1      39.440  35.739  39.280  1.00  0.00     0.060 A 
BRANCH  92  93
ATOM     93  S   UNL A   1      39.118  36.949  40.581  1.00  0.00     0.124 S 
ATOM     94  O   UNL A   1      40.464  37.436  40.868  1.00  0.00    -0.237 OA
ATOM     95  O   UNL A   1      38.229  37.895  39.913  1.00  0.00    -0.237 OA
ATOM     96  O   UNL A   1      38.499  36.156  41.638  1.00  0.00    -0.744 OA
ENDBRANCH  92  93
ENDBRANCH  60  85
ENDBRANCH  34  35
ENDBRANCH  26  29
ENDBRANCH  24  25
ENDBRANCH   1  24
TORSDOF 16
ENDMDL
MODEL 3
REMARK VINA RESULT:     -11.7      6.026     14.073
REMARK SMILES O=C(/C=C/C(=O)Nc1ccc2[nH]ncc2c1)NCCCCNC(=O)c1ccc(-c2c3nc(c(-c4c(F)cc(S(=O)(=O)[O-])cc4F)c4ccc([nH]4)c(-c4c(F)cc(S(=O)(=O)[O-])cc4F)c4nc(c(-c5c(F)cc(S(=O)(=O)[O-])cc5F)c5ccc2[nH]5)C=C4)C=C3)cc1
REMARK SMILES IDX 20 1 19 2 18 3 17 4 1 5 2 6 3 8 4 9 5 10 6 11 7 12 8 14 9 15
REMARK SMILES IDX 16 16 10 17 15 18 11 19 14 20 12 21 13 22 21 24 22 25 23 26
REMARK SMILES IDX 24 28 25 29 26 30 90 31 27 32 89 33 28 34 29 35 30 36 83 37
REMARK SMILES IDX 31 38 88 39 82 40 84 41 32 42 87 43 81 44 80 45 33 47 67 48
REMARK SMILES IDX 46 49 66 50 47 51 50 52 65 53 85 54 48 55 49 56 64 58 86 59
REMARK SMILES IDX 51 60 34 61 35 62 44 63 36 64 37 65 43 66 45 67 38 68 39 69
REMARK SMILES IDX 40 70 41 71 42 72 68 73 69 74 78 75 70 76 71 77 77 78 79 79
REMARK SMILES IDX 72 80 73 81 74 82 75 83 76 84 52 85 53 86 62 87 54 88 55 89
REMARK SMILES IDX 61 90 63 91 56 92 57 93 58 94 59 95 60 96
REMARK H PARENT 17 7 7 13 12 23 22 27 84 46 50 57
REMARK Flexibility Score: inf
ROOT
ATOM      1  C   UNL A   1      45.816  23.789  26.858  1.00  0.00     0.023 C 
ENDROOT
BRANCH   1   2
ATOM      2  C   UNL A   1      46.360  24.046  25.450  1.00  0.00     0.023 C 
BRANCH   2   3
ATOM      3  C   UNL A   1      46.363  22.814  24.546  1.00  0.00     0.116 C 
BRANCH   3   4
ATOM      4  N   UNL A   1      45.482  21.787  25.062  1.00  0.00    -0.353 N 
ATOM      5  O   UNL A   1      46.900  20.045  24.592  1.00  0.00    -0.270 OA
ATOM      6  C   UNL A   1      45.818  20.465  24.987  1.00  0.00     0.244 C 
ATOM      7  H   UNL A   1      44.627  22.046  25.475  1.00  0.00     0.163 HD
BRANCH   6   8
ATOM      8  C   UNL A   1      44.762  19.507  25.365  1.00  0.00     0.077 C 
ATOM      9  C   UNL A   1      43.447  19.774  25.396  1.00  0.00     0.077 C 
BRANCH   9  10
ATOM     10  C   UNL A   1      42.489  18.793  25.969  1.00  0.00     0.248 C 
ATOM     11  O   UNL A   1      42.773  17.598  25.939  1.00  0.00    -0.270 OA
ATOM     12  N   UNL A   1      41.335  19.225  26.572  1.00  0.00    -0.322 N 
ATOM     13  H   UNL A   1      40.841  18.544  27.083  1.00  0.00     0.170 HD
BRANCH  12  14
ATOM     14  C   UNL A   1      40.758  20.509  26.562  1.00  0.00     0.042 A 
ATOM     15  C   UNL A   1      41.186  21.521  27.431  1.00  0.00     0.028 A 
ATOM     16  C   UNL A   1      39.659  20.714  25.718  1.00  0.00     0.038 A 
ATOM     17  C   UNL A   1      40.442  22.690  27.611  1.00  0.00     0.030 A 
ATOM     18  C   UNL A   1      38.880  21.870  25.914  1.00  0.00     0.022 A 
ATOM     19  C   UNL A   1      39.270  22.805  26.865  1.00  0.00     0.065 A 
ATOM     20  C   UNL A   1      37.668  22.380  25.398  1.00  0.00     0.143 A 
ATOM     21  N   UNL A   1      38.275  23.746  26.878  1.00  0.00    -0.278 N 
ATOM     22  N   UNL A   1      37.302  23.529  25.973  1.00  0.00    -0.183 NA
ATOM     23  H   UNL A   1      38.270  24.513  27.495  1.00  0.00     0.190 HD
ENDBRANCH  12  14
ENDBRANCH   9  10
ENDBRANCH   6   8
ENDBRANCH   3   4
ENDBRANCH   2   3
ENDBRANCH   1   2
BRANCH   1  24
ATOM     24  C   UNL A   1      44.545  24.555  27.207  1.00  0.00     0.116 C 
BRANCH  24  25
ATOM     25  N   UNL A   1      43.640  24.677  26.077  1.00  0.00    -0.352 N 
ATOM     26  C   UNL A   1      42.476  25.400  25.977  1.00  0.00     0.251 C 
ATOM     27  H   UNL A   1      43.895  24.172  25.271  1.00  0.00     0.163 HD
ATOM     28  O   UNL A   1      41.746  25.254  24.998  1.00  0.00    -0.269 OA
BRANCH  26  29
ATOM     29  C   UNL A   1      42.089  26.329  27.062  1.00  0.00     0.039 A 
ATOM     30  C   UNL A   1      41.166  25.904  28.019  1.00  0.00     0.014 A 
ATOM     31  C   UNL A   1      42.644  27.610  27.143  1.00  0.00     0.014 A 
ATOM     32  C   UNL A   1      40.848  26.739  29.093  1.00  0.00     0.010 A 
ATOM     33  C   UNL A   1      42.385  28.408  28.254  1.00  0.00     0.010 A 
ATOM     34  C   UNL A   1      41.484  27.983  29.241  1.00  0.00    -0.014 A 
BRANCH  34  35
ATOM     35  C   UNL A   1      41.225  28.845  30.426  1.00  0.00     0.031 A 
ATOM     36  C   UNL A   1      42.049  28.687  31.675  1.00  0.00     0.074 A 
ATOM     37  C   UNL A   1      40.205  29.728  30.397  1.00  0.00     0.049 A 
ATOM     38  N   UNL A   1      41.935  29.304  32.824  1.00  0.00    -0.248 NA
ATOM     39  C   UNL A   1      43.128  27.688  31.639  1.00  0.00     0.031 C 
ATOM     40  C   UNL A   1      39.306  29.943  29.262  1.00  0.00     0.029 A 
ATOM     41  N   UNL A   1      39.749  30.603  31.351  1.00  0.00    -0.354 N 
ATOM     42  C   UNL A   1      42.913  28.760  33.647  1.00  0.00     0.074 A 
ATOM     43  C   UNL A   1      43.578  27.726  32.886  1.00  0.00     0.031 C 
ATOM     44  C   UNL A   1      38.424  30.907  29.575  1.00  0.00     0.029 A 
ATOM     45  C   UNL A   1      38.665  31.347  30.945  1.00  0.00     0.049 A 
ATOM     46  H   UNL A   1      40.159  30.691  32.241  1.00  0.00     0.167 HD
ATOM     47  C   UNL A   1      43.242  29.106  34.916  1.00  0.00     0.037 A 
ATOM     48  C   UNL A   1      37.940  32.273  31.604  1.00  0.00     0.037 A 
ATOM     49  C   UNL A   1      42.589  30.151  35.661  1.00  0.00     0.049 A 
ATOM     50  C   UNL A   1      38.315  32.628  33.019  1.00  0.00     0.074 A 
ATOM     51  C   UNL A   1      42.891  30.619  36.928  1.00  0.00     0.029 A 
ATOM     52  N   UNL A   1      41.500  30.886  35.214  1.00  0.00    -0.354 N 
ATOM     53  N   UNL A   1      39.290  32.152  33.758  1.00  0.00    -0.248 NA
ATOM     54  C   UNL A   1      37.498  33.649  33.687  1.00  0.00     0.031 C 
ATOM     55  C   UNL A   1      41.950  31.596  37.270  1.00  0.00     0.029 A 
ATOM     56  C   UNL A   1      41.100  31.783  36.191  1.00  0.00     0.049 A 
ATOM     57  H   UNL A   1      41.076  30.785  34.331  1.00  0.00     0.167 HD
ATOM     58  C   UNL A   1      39.221  32.839  34.965  1.00  0.00     0.074 A 
ATOM     59  C   UNL A   1      38.117  33.770  34.853  1.00  0.00     0.031 C 
ATOM     60  C   UNL A   1      40.004  32.711  36.065  1.00  0.00     0.037 A 
BRANCH  47  61
ATOM     61  C   UNL A   1      44.355  28.344  35.585  1.00  0.00     0.058 A 
ATOM     62  C   UNL A   1      45.696  28.754  35.491  1.00  0.00     0.135 A 
ATOM     63  C   UNL A   1      44.074  27.210  36.366  1.00  0.00     0.135 A 
ATOM     64  F   UNL A   1      46.026  29.821  34.747  1.00  0.00    -0.206 F 
ATOM     65  C   UNL A   1      46.718  28.053  36.122  1.00  0.00     0.059 A 
ATOM     66  C   UNL A   1      45.077  26.512  37.032  1.00  0.00     0.059 A 
ATOM     67  F   UNL A   1      42.811  26.772  36.492  1.00  0.00    -0.206 F 
ATOM     68  C   UNL A   1      46.398  26.932  36.891  1.00  0.00     0.060 A 
BRANCH  68  69
ATOM     69  S   UNL A   1      47.737  26.039  37.707  1.00  0.00     0.124 S 
ATOM     70  O   UNL A   1      48.688  25.873  36.610  1.00  0.00    -0.237 OA
ATOM     71  O   UNL A   1      48.138  26.968  38.758  1.00  0.00    -0.237 OA
ATOM     72  O   UNL A   1      47.097  24.812  38.170  1.00  0.00    -0.744 OA
ENDBRANCH  68  69
ENDBRANCH  47  61
BRANCH  48  73
ATOM     73  C   UNL A   1      36.797  32.945  30.928  1.00  0.00     0.058 A 
ATOM     74  C   UNL A   1      35.472  32.639  31.276  1.00  0.00     0.135 A 
ATOM     75  C   UNL A   1      37.003  33.908  29.928  1.00  0.00     0.135 A 
ATOM     76  F   UNL A   1      35.222  31.720  32.221  1.00  0.00    -0.206 F 
ATOM     77  C   UNL A   1      34.392  33.249  30.645  1.00  0.00     0.059 A 
ATOM     78  C   UNL A   1      35.939  34.553  29.303  1.00  0.00     0.059 A 
ATOM     79  F   UNL A   1      38.249  34.249  29.568  1.00  0.00    -0.206 F 
ATOM     80  C   UNL A   1      34.637  34.209  29.661  1.00  0.00     0.060 A 
BRANCH  80  81
ATOM     81  S   UNL A   1      33.228  35.024  28.881  1.00  0.00     0.124 S 
ATOM     82  O   UNL A   1      32.401  35.355  30.036  1.00  0.00    -0.237 OA
ATOM     83  O   UNL A   1      33.864  36.152  28.206  1.00  0.00    -0.237 OA
ATOM     84  O   UNL A   1      32.692  33.995  27.994  1.00  0.00    -0.744 OA
ENDBRANCH  80  81
ENDBRANCH  48  73
BRANCH  60  85
ATOM     85  C   UNL A   1      39.725  33.627  37.227  1.00  0.00     0.058 A 
ATOM     86  C   UNL A   1      38.843  33.272  38.259  1.00  0.00     0.135 A 
ATOM     87  C   UNL A   1      40.395  34.858  37.335  1.00  0.00     0.135 A 
ATOM     88  F   UNL A   1      38.172  32.111  38.204  1.00  0.00    -0.206 F 
ATOM     89  C   UNL A   1      38.615  34.113  39.344  1.00  0.00     0.059 A 
ATOM     90  C   UNL A   1      40.207  35.700  38.426  1.00  0.00     0.059 A 
ATOM     91  F   UNL A   1      41.259  35.244  36.383  1.00  0.00    -0.206 F 
ATOM     92  C   UNL A   1      39.305  35.325  39.420  1.00  0.00     0.060 A 
BRANCH  92  93
ATOM     93  S   UNL A   1      39.027  36.390  40.851  1.00  0.00     0.124 S 
ATOM     94  O   UNL A   1      37.964  35.672  41.548  1.00  0.00    -0.237 OA
ATOM     95  O   UNL A   1      40.332  36.382  41.503  1.00  0.00    -0.237 OA
ATOM     96  O   UNL A   1      38.637  37.664  40.256  1.00  0.00    -0.744 OA
ENDBRANCH  92  93
ENDBRANCH  60  85
ENDBRANCH  34  35
ENDBRANCH  26  29
ENDBRANCH  24  25
ENDBRANCH   1  24
TORSDOF 16
ENDMDL
