MODEL 1
REMARK VINA RESULT:     -11.2      0.000      0.000
REMARK SMILES O=C(NCCCCNC(=O)c1ccc(-c2c3nc(c(-c4c(F)cc(S(=O)(=O)[O-])cc4F)c4ccc([nH]4)c(-c4c(F)cc(S(=O)(=O)[O-])cc4F)c4nc(c(-c5c(F)cc(S(=O)(=O)[O-])cc5F)c5ccc2[nH]5)C=C4)C=C3)cc1)c1ccc(CN2C(=O)CSC2=S)cc1
REMARK SMILES IDX 6 1 5 2 4 3 3 4 1 5 2 6 77 8 78 9 90 10 79 11 89 12 80 13
REMARK SMILES IDX 81 14 82 15 83 16 87 17 84 18 85 19 86 20 88 21 7 22 8 23
REMARK SMILES IDX 9 24 10 26 11 27 12 28 76 29 13 30 75 31 14 32 15 33 16 34
REMARK SMILES IDX 69 35 17 36 74 37 68 38 70 39 18 40 73 41 67 42 66 43 19 45
REMARK SMILES IDX 53 46 32 47 52 48 33 49 36 50 51 51 71 52 34 53 35 54 50 56
REMARK SMILES IDX 72 57 37 58 20 59 21 60 30 61 22 62 23 63 29 64 31 65 24 66
REMARK SMILES IDX 25 67 26 68 27 69 28 70 54 71 55 72 64 73 56 74 57 75 63 76
REMARK SMILES IDX 65 77 58 78 59 79 60 80 61 81 62 82 38 83 39 84 48 85 40 86
REMARK SMILES IDX 41 87 47 88 49 89 42 90 43 91 44 92 45 93 46 94
REMARK H PARENT 3 7 8 25 70 44 36 55
REMARK Flexibility Score: inf
ROOT
ATOM      1  C   UNL A   1      33.915  28.405  25.803  1.00  0.00     0.023 C 
ENDROOT
BRANCH   1   2
ATOM      2  C   UNL A   1      33.125  29.209  24.771  1.00  0.00     0.023 C 
BRANCH   2   3
ATOM      3  C   UNL A   1      33.509  28.954  23.315  1.00  0.00     0.116 C 
BRANCH   3   4
ATOM      4  N   UNL A   1      32.404  28.423  22.531  1.00  0.00    -0.352 N 
ATOM      5  O   UNL A   1      31.055  26.811  21.684  1.00  0.00    -0.269 OA
ATOM      6  C   UNL A   1      31.913  27.141  22.496  1.00  0.00     0.251 C 
ATOM      7  H   UNL A   1      31.948  29.070  21.947  1.00  0.00     0.163 HD
BRANCH   6   8
ATOM      8  C   UNL A   1      32.451  26.142  23.436  1.00  0.00     0.039 A 
ATOM      9  C   UNL A   1      31.738  25.801  24.587  1.00  0.00     0.014 A 
ATOM     10  C   UNL A   1      33.694  25.566  23.173  1.00  0.00     0.014 A 
ATOM     11  C   UNL A   1      32.319  24.954  25.528  1.00  0.00     0.006 A 
ATOM     12  C   UNL A   1      34.268  24.709  24.115  1.00  0.00     0.006 A 
ATOM     13  C   UNL A   1      33.600  24.419  25.315  1.00  0.00    -0.028 A 
BRANCH  13  14
ATOM     14  C   UNL A   1      34.266  23.595  26.399  1.00  0.00     0.162 C 
BRANCH  14  15
ATOM     15  N   UNL A   1      35.052  22.497  25.830  1.00  0.00    -0.293 N 
ATOM     16  C   UNL A   1      34.388  21.353  25.418  1.00  0.00     0.238 C 
ATOM     17  C   UNL A   1      36.413  22.524  25.638  1.00  0.00     0.143 C 
ATOM     18  O   UNL A   1      33.170  21.209  25.399  1.00  0.00    -0.273 OA
ATOM     19  C   UNL A   1      35.330  20.267  24.980  1.00  0.00     0.177 C 
ATOM     20  S   UNL A   1      36.964  21.011  24.937  1.00  0.00    -0.086 SA
ATOM     21  S   UNL A   1      37.483  23.765  25.951  1.00  0.00    -0.052 S 
ENDBRANCH  14  15
ENDBRANCH  13  14
ENDBRANCH   6   8
ENDBRANCH   3   4
ENDBRANCH   2   3
ENDBRANCH   1   2
BRANCH   1  22
ATOM     22  C   UNL A   1      33.493  28.604  27.255  1.00  0.00     0.116 C 
BRANCH  22  23
ATOM     23  N   UNL A   1      33.469  30.001  27.663  1.00  0.00    -0.352 N 
ATOM     24  C   UNL A   1      34.475  30.747  28.237  1.00  0.00     0.251 C 
ATOM     25  H   UNL A   1      32.621  30.477  27.507  1.00  0.00     0.163 HD
ATOM     26  O   UNL A   1      34.254  31.892  28.618  1.00  0.00    -0.269 OA
BRANCH  24  27
ATOM     27  C   UNL A   1      35.809  30.140  28.424  1.00  0.00     0.039 A 
ATOM     28  C   UNL A   1      36.712  30.142  27.357  1.00  0.00     0.014 A 
ATOM     29  C   UNL A   1      36.183  29.619  29.665  1.00  0.00     0.014 A 
ATOM     30  C   UNL A   1      38.023  29.700  27.560  1.00  0.00     0.010 A 
ATOM     31  C   UNL A   1      37.506  29.239  29.881  1.00  0.00     0.010 A 
ATOM     32  C   UNL A   1      38.442  29.289  28.835  1.00  0.00    -0.014 A 
BRANCH  32  33
ATOM     33  C   UNL A   1      39.853  28.915  29.119  1.00  0.00     0.031 A 
ATOM     34  C   UNL A   1      40.807  29.955  29.639  1.00  0.00     0.074 A 
ATOM     35  C   UNL A   1      40.299  27.682  28.802  1.00  0.00     0.049 A 
ATOM     36  N   UNL A   1      42.106  29.889  29.773  1.00  0.00    -0.248 NA
ATOM     37  C   UNL A   1      40.227  31.251  30.028  1.00  0.00     0.031 C 
ATOM     38  C   UNL A   1      39.483  26.598  28.248  1.00  0.00     0.029 A 
ATOM     39  N   UNL A   1      41.560  27.142  28.870  1.00  0.00    -0.354 N 
ATOM     40  C   UNL A   1      42.504  31.144  30.218  1.00  0.00     0.074 A 
ATOM     41  C   UNL A   1      41.312  31.959  30.315  1.00  0.00     0.031 C 
ATOM     42  C   UNL A   1      40.263  25.527  28.027  1.00  0.00     0.029 A 
ATOM     43  C   UNL A   1      41.639  25.857  28.384  1.00  0.00     0.049 A 
ATOM     44  H   UNL A   1      42.334  27.629  29.233  1.00  0.00     0.167 HD
ATOM     45  C   UNL A   1      43.750  31.574  30.528  1.00  0.00     0.037 A 
ATOM     46  C   UNL A   1      42.703  25.046  28.220  1.00  0.00     0.037 A 
ATOM     47  C   UNL A   1      44.922  30.741  30.493  1.00  0.00     0.049 A 
ATOM     48  C   UNL A   1      44.071  25.538  28.613  1.00  0.00     0.074 A 
ATOM     49  C   UNL A   1      46.214  31.062  30.875  1.00  0.00     0.029 A 
ATOM     50  N   UNL A   1      44.947  29.424  30.062  1.00  0.00    -0.354 N 
ATOM     51  N   UNL A   1      44.419  26.709  29.091  1.00  0.00    -0.248 NA
ATOM     52  C   UNL A   1      45.192  24.601  28.446  1.00  0.00     0.031 C 
ATOM     53  C   UNL A   1      47.026  29.947  30.649  1.00  0.00     0.029 A 
ATOM     54  C   UNL A   1      46.233  28.921  30.160  1.00  0.00     0.049 A 
ATOM     55  H   UNL A   1      44.166  28.921  29.736  1.00  0.00     0.167 HD
ATOM     56  C   UNL A   1      45.790  26.636  29.314  1.00  0.00     0.074 A 
ATOM     57  C   UNL A   1      46.209  25.307  28.921  1.00  0.00     0.031 C 
ATOM     58  C   UNL A   1      46.626  27.584  29.800  1.00  0.00     0.037 A 
BRANCH  45  59
ATOM     59  C   UNL A   1      43.918  33.004  30.948  1.00  0.00     0.058 A 
ATOM     60  C   UNL A   1      43.888  33.383  32.298  1.00  0.00     0.135 A 
ATOM     61  C   UNL A   1      44.195  33.995  29.992  1.00  0.00     0.135 A 
ATOM     62  F   UNL A   1      43.611  32.477  33.248  1.00  0.00    -0.206 F 
ATOM     63  C   UNL A   1      44.117  34.698  32.688  1.00  0.00     0.059 A 
ATOM     64  C   UNL A   1      44.448  35.313  30.361  1.00  0.00     0.059 A 
ATOM     65  F   UNL A   1      44.232  33.685  28.687  1.00  0.00    -0.206 F 
ATOM     66  C   UNL A   1      44.400  35.656  31.712  1.00  0.00     0.060 A 
BRANCH  66  67
ATOM     67  S   UNL A   1      44.737  37.350  32.236  1.00  0.00     0.124 S 
ATOM     68  O   UNL A   1      44.979  38.007  30.955  1.00  0.00    -0.237 OA
ATOM     69  O   UNL A   1      43.499  37.721  32.913  1.00  0.00    -0.237 OA
ATOM     70  O   UNL A   1      45.904  37.212  33.101  1.00  0.00    -0.744 OA
ENDBRANCH  66  67
ENDBRANCH  45  59
BRANCH  46  71
ATOM     71  C   UNL A   1      42.532  23.680  27.658  1.00  0.00     0.058 A 
ATOM     72  C   UNL A   1      42.396  22.567  28.501  1.00  0.00     0.135 A 
ATOM     73  C   UNL A   1      42.535  23.456  26.274  1.00  0.00     0.135 A 
ATOM     74  F   UNL A   1      42.394  22.732  29.833  1.00  0.00    -0.206 F 
ATOM     75  C   UNL A   1      42.304  21.276  27.994  1.00  0.00     0.059 A 
ATOM     76  C   UNL A   1      42.420  22.175  25.741  1.00  0.00     0.059 A 
ATOM     77  F   UNL A   1      42.642  24.489  25.424  1.00  0.00    -0.206 F 
ATOM     78  C   UNL A   1      42.326  21.089  26.612  1.00  0.00     0.060 A 
BRANCH  78  79
ATOM     79  S   UNL A   1      42.199  19.411  25.957  1.00  0.00     0.124 S 
ATOM     80  O   UNL A   1      43.043  19.497  24.770  1.00  0.00    -0.237 OA
ATOM     81  O   UNL A   1      42.723  18.607  27.056  1.00  0.00    -0.237 OA
ATOM     82  O   UNL A   1      40.769  19.259  25.706  1.00  0.00    -0.744 OA
ENDBRANCH  78  79
ENDBRANCH  46  71
BRANCH  58  83
ATOM     83  C   UNL A   1      48.066  27.212  29.996  1.00  0.00     0.058 A 
ATOM     84  C   UNL A   1      49.036  27.489  29.023  1.00  0.00     0.135 A 
ATOM     85  C   UNL A   1      48.490  26.649  31.211  1.00  0.00     0.135 A 
ATOM     86  F   UNL A   1      48.679  28.020  27.843  1.00  0.00    -0.206 F 
ATOM     87  C   UNL A   1      50.382  27.216  29.245  1.00  0.00     0.059 A 
ATOM     88  C   UNL A   1      49.832  26.386  31.461  1.00  0.00     0.059 A 
ATOM     89  F   UNL A   1      47.598  26.374  32.175  1.00  0.00    -0.206 F 
ATOM     90  C   UNL A   1      50.771  26.669  30.471  1.00  0.00     0.060 A 
BRANCH  90  91
ATOM     91  S   UNL A   1      52.527  26.378  30.776  1.00  0.00     0.124 S 
ATOM     92  O   UNL A   1      52.487  25.172  31.596  1.00  0.00    -0.237 OA
ATOM     93  O   UNL A   1      53.057  26.209  29.426  1.00  0.00    -0.237 OA
ATOM     94  O   UNL A   1      52.957  27.593  31.462  1.00  0.00    -0.744 OA
ENDBRANCH  90  91
ENDBRANCH  58  83
ENDBRANCH  32  33
ENDBRANCH  24  27
ENDBRANCH  22  23
ENDBRANCH   1  22
TORSDOF 16
ENDMDL
MODEL 2
REMARK VINA RESULT:     -11.0      3.393      9.575
REMARK SMILES O=C(NCCCCNC(=O)c1ccc(-c2c3nc(c(-c4c(F)cc(S(=O)(=O)[O-])cc4F)c4ccc([nH]4)c(-c4c(F)cc(S(=O)(=O)[O-])cc4F)c4nc(c(-c5c(F)cc(S(=O)(=O)[O-])cc5F)c5ccc2[nH]5)C=C4)C=C3)cc1)c1ccc(CN2C(=O)CSC2=S)cc1
REMARK SMILES IDX 6 1 5 2 4 3 3 4 1 5 2 6 77 8 78 9 90 10 79 11 89 12 80 13
REMARK SMILES IDX 81 14 82 15 83 16 87 17 84 18 85 19 86 20 88 21 7 22 8 23
REMARK SMILES IDX 9 24 10 26 11 27 12 28 76 29 13 30 75 31 14 32 15 33 16 34
REMARK SMILES IDX 69 35 17 36 74 37 68 38 70 39 18 40 73 41 67 42 66 43 19 45
REMARK SMILES IDX 53 46 32 47 52 48 33 49 36 50 51 51 71 52 34 53 35 54 50 56
REMARK SMILES IDX 72 57 37 58 20 59 21 60 30 61 22 62 23 63 29 64 31 65 24 66
REMARK SMILES IDX 25 67 26 68 27 69 28 70 54 71 55 72 64 73 56 74 57 75 63 76
REMARK SMILES IDX 65 77 58 78 59 79 60 80 61 81 62 82 38 83 39 84 48 85 40 86
REMARK SMILES IDX 41 87 47 88 49 89 42 90 43 91 44 92 45 93 46 94
REMARK H PARENT 3 7 8 25 70 44 36 55
REMARK Flexibility Score: inf
ROOT
ATOM      1  C   UNL A   1      35.697  23.122  25.714  1.00  0.00     0.023 C 
ENDROOT
BRANCH   1   2
ATOM      2  C   UNL A   1      35.657  21.640  26.087  1.00  0.00     0.023 C 
BRANCH   2   3
ATOM      3  C   UNL A   1      35.480  20.679  24.914  1.00  0.00     0.116 C 
BRANCH   3   4
ATOM      4  N   UNL A   1      34.466  19.667  25.169  1.00  0.00    -0.352 N 
ATOM      5  O   UNL A   1      32.368  18.881  25.514  1.00  0.00    -0.269 OA
ATOM      6  C   UNL A   1      33.098  19.796  25.149  1.00  0.00     0.251 C 
ATOM      7  H   UNL A   1      34.806  18.769  25.386  1.00  0.00     0.163 HD
BRANCH   6   8
ATOM      8  C   UNL A   1      32.506  21.071  24.705  1.00  0.00     0.039 A 
ATOM      9  C   UNL A   1      31.933  21.943  25.633  1.00  0.00     0.014 A 
ATOM     10  C   UNL A   1      32.501  21.377  23.344  1.00  0.00     0.014 A 
ATOM     11  C   UNL A   1      31.264  23.080  25.183  1.00  0.00     0.006 A 
ATOM     12  C   UNL A   1      31.838  22.522  22.899  1.00  0.00     0.006 A 
ATOM     13  C   UNL A   1      31.187  23.368  23.811  1.00  0.00    -0.028 A 
BRANCH  13  14
ATOM     14  C   UNL A   1      30.358  24.542  23.331  1.00  0.00     0.162 C 
BRANCH  14  15
ATOM     15  N   UNL A   1      31.004  25.819  23.647  1.00  0.00    -0.293 N 
ATOM     16  C   UNL A   1      30.616  26.489  24.795  1.00  0.00     0.238 C 
ATOM     17  C   UNL A   1      32.005  26.399  22.903  1.00  0.00     0.143 C 
ATOM     18  O   UNL A   1      29.833  26.060  25.637  1.00  0.00    -0.273 OA
ATOM     19  C   UNL A   1      31.265  27.839  24.922  1.00  0.00     0.177 C 
ATOM     20  S   UNL A   1      32.501  27.922  23.620  1.00  0.00    -0.086 SA
ATOM     21  S   UNL A   1      32.743  25.818  21.524  1.00  0.00    -0.052 S 
ENDBRANCH  14  15
ENDBRANCH  13  14
ENDBRANCH   6   8
ENDBRANCH   3   4
ENDBRANCH   2   3
ENDBRANCH   1   2
BRANCH   1  22
ATOM     22  C   UNL A   1      37.006  23.612  25.104  1.00  0.00     0.116 C 
BRANCH  22  23
ATOM     23  N   UNL A   1      38.123  22.705  25.331  1.00  0.00    -0.352 N 
ATOM     24  C   UNL A   1      39.293  22.936  26.020  1.00  0.00     0.251 C 
ATOM     25  H   UNL A   1      38.029  21.806  24.939  1.00  0.00     0.163 HD
ATOM     26  O   UNL A   1      40.183  22.092  26.027  1.00  0.00    -0.269 OA
BRANCH  24  27
ATOM     27  C   UNL A   1      39.479  24.227  26.716  1.00  0.00     0.039 A 
ATOM     28  C   UNL A   1      38.911  24.404  27.981  1.00  0.00     0.014 A 
ATOM     29  C   UNL A   1      40.256  25.236  26.143  1.00  0.00     0.014 A 
ATOM     30  C   UNL A   1      39.196  25.562  28.710  1.00  0.00     0.010 A 
ATOM     31  C   UNL A   1      40.590  26.359  26.896  1.00  0.00     0.010 A 
ATOM     32  C   UNL A   1      40.074  26.527  28.192  1.00  0.00    -0.014 A 
BRANCH  32  33
ATOM     33  C   UNL A   1      40.489  27.719  28.979  1.00  0.00     0.031 A 
ATOM     34  C   UNL A   1      41.773  27.684  29.760  1.00  0.00     0.074 A 
ATOM     35  C   UNL A   1      39.661  28.779  29.080  1.00  0.00     0.049 A 
ATOM     36  N   UNL A   1      42.221  28.531  30.649  1.00  0.00    -0.248 NA
ATOM     37  C   UNL A   1      42.653  26.524  29.539  1.00  0.00     0.031 C 
ATOM     38  C   UNL A   1      38.367  28.916  28.407  1.00  0.00     0.029 A 
ATOM     39  N   UNL A   1      39.771  29.932  29.817  1.00  0.00    -0.354 N 
ATOM     40  C   UNL A   1      43.410  27.990  31.124  1.00  0.00     0.074 A 
ATOM     41  C   UNL A   1      43.605  26.730  30.439  1.00  0.00     0.031 C 
ATOM     42  C   UNL A   1      37.805  30.083  28.762  1.00  0.00     0.029 A 
ATOM     43  C   UNL A   1      38.676  30.760  29.717  1.00  0.00     0.049 A 
ATOM     44  H   UNL A   1      40.559  30.147  30.365  1.00  0.00     0.167 HD
ATOM     45  C   UNL A   1      44.265  28.501  32.039  1.00  0.00     0.037 A 
ATOM     46  C   UNL A   1      38.394  31.920  30.343  1.00  0.00     0.037 A 
ATOM     47  C   UNL A   1      44.099  29.785  32.669  1.00  0.00     0.049 A 
ATOM     48  C   UNL A   1      39.384  32.486  31.326  1.00  0.00     0.074 A 
ATOM     49  C   UNL A   1      44.958  30.428  33.543  1.00  0.00     0.029 A 
ATOM     50  N   UNL A   1      43.011  30.623  32.486  1.00  0.00    -0.354 N 
ATOM     51  N   UNL A   1      40.533  31.987  31.717  1.00  0.00    -0.248 NA
ATOM     52  C   UNL A   1      39.043  33.770  31.956  1.00  0.00     0.031 C 
ATOM     53  C   UNL A   1      44.377  31.645  33.910  1.00  0.00     0.029 A 
ATOM     54  C   UNL A   1      43.173  31.773  33.238  1.00  0.00     0.049 A 
ATOM     55  H   UNL A   1      42.239  30.428  31.907  1.00  0.00     0.167 HD
ATOM     56  C   UNL A   1      41.065  32.913  32.607  1.00  0.00     0.074 A 
ATOM     57  C   UNL A   1      40.117  34.002  32.699  1.00  0.00     0.031 C 
ATOM     58  C   UNL A   1      42.236  32.865  33.288  1.00  0.00     0.037 A 
BRANCH  45  59
ATOM     59  C   UNL A   1      45.469  27.688  32.413  1.00  0.00     0.058 A 
ATOM     60  C   UNL A   1      46.693  27.836  31.746  1.00  0.00     0.135 A 
ATOM     61  C   UNL A   1      45.417  26.806  33.506  1.00  0.00     0.135 A 
ATOM     62  F   UNL A   1      46.790  28.653  30.686  1.00  0.00    -0.206 F 
ATOM     63  C   UNL A   1      47.825  27.133  32.143  1.00  0.00     0.059 A 
ATOM     64  C   UNL A   1      46.542  26.108  33.933  1.00  0.00     0.059 A 
ATOM     65  F   UNL A   1      44.268  26.626  34.175  1.00  0.00    -0.206 F 
ATOM     66  C   UNL A   1      47.741  26.274  33.240  1.00  0.00     0.060 A 
BRANCH  66  67
ATOM     67  S   UNL A   1      49.229  25.400  33.769  1.00  0.00     0.124 S 
ATOM     68  O   UNL A   1      50.034  25.436  32.552  1.00  0.00    -0.237 OA
ATOM     69  O   UNL A   1      49.708  26.232  34.868  1.00  0.00    -0.237 OA
ATOM     70  O   UNL A   1      48.731  24.084  34.154  1.00  0.00    -0.744 OA
ENDBRANCH  66  67
ENDBRANCH  45  59
BRANCH  46  71
ATOM     71  C   UNL A   1      37.120  32.635  30.069  1.00  0.00     0.058 A 
ATOM     72  C   UNL A   1      37.055  33.638  29.090  1.00  0.00     0.135 A 
ATOM     73  C   UNL A   1      35.955  32.357  30.799  1.00  0.00     0.135 A 
ATOM     74  F   UNL A   1      38.145  33.943  28.370  1.00  0.00    -0.206 F 
ATOM     75  C   UNL A   1      35.890  34.365  28.867  1.00  0.00     0.059 A 
ATOM     76  C   UNL A   1      34.771  33.055  30.579  1.00  0.00     0.059 A 
ATOM     77  F   UNL A   1      35.960  31.394  31.733  1.00  0.00    -0.206 F 
ATOM     78  C   UNL A   1      34.755  34.071  29.624  1.00  0.00     0.060 A 
BRANCH  78  79
ATOM     79  S   UNL A   1      33.243  35.013  29.327  1.00  0.00     0.124 S 
ATOM     80  O   UNL A   1      33.779  36.281  28.847  1.00  0.00    -0.237 OA
ATOM     81  O   UNL A   1      32.556  34.194  28.333  1.00  0.00    -0.237 OA
ATOM     82  O   UNL A   1      32.610  35.050  30.642  1.00  0.00    -0.744 OA
ENDBRANCH  78  79
ENDBRANCH  46  71
BRANCH  58  83
ATOM     83  C   UNL A   1      42.593  34.042  34.146  1.00  0.00     0.058 A 
ATOM     84  C   UNL A   1      42.353  34.047  35.528  1.00  0.00     0.135 A 
ATOM     85  C   UNL A   1      43.263  35.144  33.589  1.00  0.00     0.135 A 
ATOM     86  F   UNL A   1      41.710  33.020  36.105  1.00  0.00    -0.206 F 
ATOM     87  C   UNL A   1      42.762  35.107  36.330  1.00  0.00     0.059 A 
ATOM     88  C   UNL A   1      43.697  36.205  34.375  1.00  0.00     0.059 A 
ATOM     89  F   UNL A   1      43.522  35.181  32.272  1.00  0.00    -0.206 F 
ATOM     90  C   UNL A   1      43.438  36.180  35.744  1.00  0.00     0.060 A 
BRANCH  90  91
ATOM     91  S   UNL A   1      44.023  37.522  36.802  1.00  0.00     0.124 S 
ATOM     92  O   UNL A   1      44.065  38.639  35.865  1.00  0.00    -0.237 OA
ATOM     93  O   UNL A   1      42.983  37.592  37.825  1.00  0.00    -0.237 OA
ATOM     94  O   UNL A   1      45.320  37.043  37.270  1.00  0.00    -0.744 OA
ENDBRANCH  90  91
ENDBRANCH  58  83
ENDBRANCH  32  33
ENDBRANCH  24  27
ENDBRANCH  22  23
ENDBRANCH   1  22
TORSDOF 16
ENDMDL
MODEL 3
REMARK VINA RESULT:     -11.0      5.157     10.714
REMARK SMILES O=C(NCCCCNC(=O)c1ccc(-c2c3nc(c(-c4c(F)cc(S(=O)(=O)[O-])cc4F)c4ccc([nH]4)c(-c4c(F)cc(S(=O)(=O)[O-])cc4F)c4nc(c(-c5c(F)cc(S(=O)(=O)[O-])cc5F)c5ccc2[nH]5)C=C4)C=C3)cc1)c1ccc(CN2C(=O)CSC2=S)cc1
REMARK SMILES IDX 6 1 5 2 4 3 3 4 1 5 2 6 77 8 78 9 90 10 79 11 89 12 80 13
REMARK SMILES IDX 81 14 82 15 83 16 87 17 84 18 85 19 86 20 88 21 7 22 8 23
REMARK SMILES IDX 9 24 10 26 11 27 12 28 76 29 13 30 75 31 14 32 15 33 16 34
REMARK SMILES IDX 69 35 17 36 74 37 68 38 70 39 18 40 73 41 67 42 66 43 19 45
REMARK SMILES IDX 53 46 32 47 52 48 33 49 36 50 51 51 71 52 34 53 35 54 50 56
REMARK SMILES IDX 72 57 37 58 20 59 21 60 30 61 22 62 23 63 29 64 31 65 24 66
REMARK SMILES IDX 25 67 26 68 27 69 28 70 54 71 55 72 64 73 56 74 57 75 63 76
REMARK SMILES IDX 65 77 58 78 59 79 60 80 61 81 62 82 38 83 39 84 48 85 40 86
REMARK SMILES IDX 41 87 47 88 49 89 42 90 43 91 44 92 45 93 46 94
REMARK H PARENT 3 7 8 25 70 44 36 55
REMARK Flexibility Score: inf
ROOT
ATOM      1  C   UNL A   1      37.287  23.518  25.266  1.00  0.00     0.023 C 
ENDROOT
BRANCH   1   2
ATOM      2  C   UNL A   1      37.043  22.009  25.259  1.00  0.00     0.023 C 
BRANCH   2   3
ATOM      3  C   UNL A   1      35.730  21.560  25.895  1.00  0.00     0.116 C 
BRANCH   3   4
ATOM      4  N   UNL A   1      35.270  20.279  25.381  1.00  0.00    -0.352 N 
ATOM      5  O   UNL A   1      33.762  18.802  24.555  1.00  0.00    -0.269 OA
ATOM      6  C   UNL A   1      34.054  19.962  24.827  1.00  0.00     0.251 C 
ATOM      7  H   UNL A   1      35.918  19.541  25.438  1.00  0.00     0.163 HD
BRANCH   6   8
ATOM      8  C   UNL A   1      33.076  21.037  24.583  1.00  0.00     0.039 A 
ATOM      9  C   UNL A   1      32.837  21.491  23.284  1.00  0.00     0.014 A 
ATOM     10  C   UNL A   1      32.418  21.613  25.669  1.00  0.00     0.014 A 
ATOM     11  C   UNL A   1      32.008  22.593  23.084  1.00  0.00     0.006 A 
ATOM     12  C   UNL A   1      31.580  22.711  25.463  1.00  0.00     0.006 A 
ATOM     13  C   UNL A   1      31.392  23.231  24.173  1.00  0.00    -0.028 A 
BRANCH  13  14
ATOM     14  C   UNL A   1      30.589  24.497  23.951  1.00  0.00     0.162 C 
BRANCH  14  15
ATOM     15  N   UNL A   1      31.213  25.648  24.608  1.00  0.00    -0.293 N 
ATOM     16  C   UNL A   1      30.711  26.065  25.830  1.00  0.00     0.238 C 
ATOM     17  C   UNL A   1      32.296  26.340  24.119  1.00  0.00     0.143 C 
ATOM     18  O   UNL A   1      29.835  25.490  26.469  1.00  0.00    -0.273 OA
ATOM     19  C   UNL A   1      31.360  27.329  26.320  1.00  0.00     0.177 C 
ATOM     20  S   UNL A   1      32.731  27.649  25.204  1.00  0.00    -0.086 SA
ATOM     21  S   UNL A   1      33.173  26.049  22.730  1.00  0.00    -0.052 S 
ENDBRANCH  14  15
ENDBRANCH  13  14
ENDBRANCH   6   8
ENDBRANCH   3   4
ENDBRANCH   2   3
ENDBRANCH   1   2
BRANCH   1  22
ATOM     22  C   UNL A   1      38.194  24.034  26.378  1.00  0.00     0.116 C 
BRANCH  22  23
ATOM     23  N   UNL A   1      39.606  23.771  26.139  1.00  0.00    -0.352 N 
ATOM     24  C   UNL A   1      40.701  24.479  26.582  1.00  0.00     0.251 C 
ATOM     25  H   UNL A   1      39.806  22.981  25.586  1.00  0.00     0.163 HD
ATOM     26  O   UNL A   1      41.827  24.180  26.199  1.00  0.00    -0.269 OA
BRANCH  24  27
ATOM     27  C   UNL A   1      40.500  25.627  27.492  1.00  0.00     0.039 A 
ATOM     28  C   UNL A   1      39.560  25.521  28.522  1.00  0.00     0.014 A 
ATOM     29  C   UNL A   1      41.274  26.782  27.359  1.00  0.00     0.014 A 
ATOM     30  C   UNL A   1      39.460  26.540  29.473  1.00  0.00     0.010 A 
ATOM     31  C   UNL A   1      41.217  27.766  28.342  1.00  0.00     0.010 A 
ATOM     32  C   UNL A   1      40.318  27.649  29.416  1.00  0.00    -0.014 A 
BRANCH  32  33
ATOM     33  C   UNL A   1      40.318  28.700  30.467  1.00  0.00     0.031 A 
ATOM     34  C   UNL A   1      41.213  28.552  31.667  1.00  0.00     0.074 A 
ATOM     35  C   UNL A   1      39.438  29.720  30.399  1.00  0.00     0.049 A 
ATOM     36  N   UNL A   1      41.232  29.248  32.774  1.00  0.00    -0.248 NA
ATOM     37  C   UNL A   1      42.195  27.455  31.631  1.00  0.00     0.031 C 
ATOM     38  C   UNL A   1      38.485  29.950  29.310  1.00  0.00     0.029 A 
ATOM     39  N   UNL A   1      39.178  30.738  31.283  1.00  0.00    -0.354 N 
ATOM     40  C   UNL A   1      42.191  28.650  33.581  1.00  0.00     0.074 A 
ATOM     41  C   UNL A   1      42.721  27.522  32.847  1.00  0.00     0.031 C 
ATOM     42  C   UNL A   1      37.747  31.037  29.590  1.00  0.00     0.029 A 
ATOM     43  C   UNL A   1      38.143  31.558  30.895  1.00  0.00     0.049 A 
ATOM     44  H   UNL A   1      39.684  30.870  32.116  1.00  0.00     0.167 HD
ATOM     45  C   UNL A   1      42.599  29.015  34.819  1.00  0.00     0.037 A 
ATOM     46  C   UNL A   1      37.563  32.597  31.528  1.00  0.00     0.037 A 
ATOM     47  C   UNL A   1      42.116  30.175  35.519  1.00  0.00     0.049 A 
ATOM     48  C   UNL A   1      38.067  33.005  32.887  1.00  0.00     0.074 A 
ATOM     49  C   UNL A   1      42.534  30.677  36.740  1.00  0.00     0.029 A 
ATOM     50  N   UNL A   1      41.118  31.020  35.059  1.00  0.00    -0.354 N 
ATOM     51  N   UNL A   1      39.018  32.463  33.609  1.00  0.00    -0.248 NA
ATOM     52  C   UNL A   1      37.421  34.165  33.519  1.00  0.00     0.031 C 
ATOM     53  C   UNL A   1      41.770  31.810  37.031  1.00  0.00     0.029 A 
ATOM     54  C   UNL A   1      40.900  32.033  35.976  1.00  0.00     0.049 A 
ATOM     55  H   UNL A   1      40.636  30.914  34.207  1.00  0.00     0.167 HD
ATOM     56  C   UNL A   1      39.107  33.236  34.761  1.00  0.00     0.074 A 
ATOM     57  C   UNL A   1      38.116  34.285  34.642  1.00  0.00     0.031 C 
ATOM     58  C   UNL A   1      39.936  33.091  35.823  1.00  0.00     0.037 A 
BRANCH  45  59
ATOM     59  C   UNL A   1      43.631  28.165  35.501  1.00  0.00     0.058 A 
ATOM     60  C   UNL A   1      45.003  28.388  35.323  1.00  0.00     0.135 A 
ATOM     61  C   UNL A   1      43.239  27.166  36.408  1.00  0.00     0.135 A 
ATOM     62  F   UNL A   1      45.429  29.320  34.455  1.00  0.00    -0.206 F 
ATOM     63  C   UNL A   1      45.955  27.646  36.012  1.00  0.00     0.059 A 
ATOM     64  C   UNL A   1      44.173  26.425  37.125  1.00  0.00     0.059 A 
ATOM     65  F   UNL A   1      41.937  26.911  36.612  1.00  0.00    -0.206 F 
ATOM     66  C   UNL A   1      45.530  26.669  36.915  1.00  0.00     0.060 A 
BRANCH  66  67
ATOM     67  S   UNL A   1      46.777  25.741  37.834  1.00  0.00     0.124 S 
ATOM     68  O   UNL A   1      46.010  25.295  38.994  1.00  0.00    -0.237 OA
ATOM     69  O   UNL A   1      47.155  24.698  36.887  1.00  0.00    -0.237 OA
ATOM     70  O   UNL A   1      47.807  26.737  38.108  1.00  0.00    -0.744 OA
ENDBRANCH  66  67
ENDBRANCH  45  59
BRANCH  46  71
ATOM     71  C   UNL A   1      36.436  33.333  30.896  1.00  0.00     0.058 A 
ATOM     72  C   UNL A   1      36.655  34.173  29.794  1.00  0.00     0.135 A 
ATOM     73  C   UNL A   1      35.130  33.238  31.398  1.00  0.00     0.135 A 
ATOM     74  F   UNL A   1      37.889  34.299  29.283  1.00  0.00    -0.206 F 
ATOM     75  C   UNL A   1      35.626  34.922  29.233  1.00  0.00     0.059 A 
ATOM     76  C   UNL A   1      34.079  33.960  30.838  1.00  0.00     0.059 A 
ATOM     77  F   UNL A   1      34.865  32.433  32.437  1.00  0.00    -0.206 F 
ATOM     78  C   UNL A   1      34.342  34.815  29.768  1.00  0.00     0.060 A 
BRANCH  78  79
ATOM     79  S   UNL A   1      33.007  35.783  29.032  1.00  0.00     0.124 S 
ATOM     80  O   UNL A   1      33.754  36.831  28.344  1.00  0.00    -0.237 OA
ATOM     81  O   UNL A   1      32.347  34.803  28.176  1.00  0.00    -0.237 OA
ATOM     82  O   UNL A   1      32.232  36.216  30.190  1.00  0.00    -0.744 OA
ENDBRANCH  78  79
ENDBRANCH  46  71
BRANCH  58  83
ATOM     83  C   UNL A   1      39.857  34.116  36.916  1.00  0.00     0.058 A 
ATOM     84  C   UNL A   1      40.417  35.392  36.770  1.00  0.00     0.135 A 
ATOM     85  C   UNL A   1      39.135  33.841  38.090  1.00  0.00     0.135 A 
ATOM     86  F   UNL A   1      41.122  35.700  35.670  1.00  0.00    -0.206 F 
ATOM     87  C   UNL A   1      40.269  36.364  37.754  1.00  0.00     0.059 A 
ATOM     88  C   UNL A   1      38.958  34.804  39.077  1.00  0.00     0.059 A 
ATOM     89  F   UNL A   1      38.574  32.635  38.270  1.00  0.00    -0.206 F 
ATOM     90  C   UNL A   1      39.533  36.062  38.903  1.00  0.00     0.060 A 
BRANCH  90  91
ATOM     91  S   UNL A   1      39.291  37.350  40.145  1.00  0.00     0.124 S 
ATOM     92  O   UNL A   1      38.598  36.615  41.198  1.00  0.00    -0.237 OA
ATOM     93  O   UNL A   1      40.660  37.755  40.450  1.00  0.00    -0.237 OA
ATOM     94  O   UNL A   1      38.491  38.350  39.444  1.00  0.00    -0.744 OA
ENDBRANCH  90  91
ENDBRANCH  58  83
ENDBRANCH  32  33
ENDBRANCH  24  27
ENDBRANCH  22  23
ENDBRANCH   1  22
TORSDOF 16
ENDMDL
