MODEL 1
REMARK VINA RESULT:     -11.4      0.000      0.000
REMARK SMILES C[C@H](c1ccc(Br)s1)[NH+]1CCC(CC(=O)NCCCCNC(=O)c2ccc(-c3c4nc(c(-c5c(F)cc(S(=O)(=O)[O-])cc5F)c5ccc([nH]5)c(-c5c(F)cc(S(=O)(=O)[O-])cc5F)c5nc(c(-c6c(F)cc(S(=O)(=O)[O-])cc6F)c6ccc3[nH]6)C=C5)C=C4)cc2)CC1
REMARK SMILES IDX 18 1 17 2 16 3 14 4 15 5 13 7 12 8 9 9 10 10 91 11 11 13
REMARK SMILES IDX 90 14 2 15 1 16 3 17 4 18 8 19 5 20 6 21 7 22 19 23 20 24
REMARK SMILES IDX 21 25 22 26 23 28 24 29 25 30 89 31 26 32 88 33 27 34 28 35
REMARK SMILES IDX 29 36 82 37 30 38 87 39 81 40 83 41 31 42 86 43 80 44 79 45
REMARK SMILES IDX 32 47 66 48 45 49 65 50 46 51 49 52 64 53 84 54 47 55 48 56
REMARK SMILES IDX 63 58 85 59 50 60 33 61 34 62 43 63 35 64 36 65 42 66 44 67
REMARK SMILES IDX 37 68 38 69 39 70 40 71 41 72 67 73 68 74 77 75 69 76 70 77
REMARK SMILES IDX 76 78 78 79 71 80 72 81 73 82 74 83 75 84 51 85 52 86 61 87
REMARK SMILES IDX 53 88 54 89 60 90 62 91 55 92 56 93 57 94 58 95 59 96
REMARK H PARENT 16 6 9 12 21 27 83 46 49 57
REMARK Flexibility Score: inf
ROOT
ATOM      1  C   UNL A   1      36.237  22.480  25.722  1.00  0.00     0.023 C 
ENDROOT
BRANCH   1   2
ATOM      2  C   UNL A   1      35.689  21.425  24.745  1.00  0.00     0.116 C 
BRANCH   2   3
ATOM      3  N   UNL A   1      34.452  20.802  25.205  1.00  0.00    -0.356 N 
ATOM      4  C   UNL A   1      33.151  20.956  24.806  1.00  0.00     0.220 C 
ATOM      5  O   UNL A   1      32.293  20.261  25.356  1.00  0.00    -0.275 OA
ATOM      6  H   UNL A   1      34.575  20.153  25.935  1.00  0.00     0.163 HD
BRANCH   4   7
ATOM      7  C   UNL A   1      32.744  21.975  23.739  1.00  0.00     0.104 C 
BRANCH   7   8
ATOM      8  C   UNL A   1      31.739  23.035  24.256  1.00  0.00     0.009 C 
ATOM      9  N   UNL A   1      31.665  25.903  24.997  1.00  0.00    -0.328 N 
ATOM     10  C   UNL A   1      31.641  24.885  26.044  1.00  0.00     0.263 C 
ATOM     11  C   UNL A   1      30.852  25.421  23.865  1.00  0.00     0.263 C 
ATOM     12  H   UNL A   1      32.633  26.028  24.701  1.00  0.00     0.348 HD
ATOM     13  C   UNL A   1      32.292  23.629  25.530  1.00  0.00     0.066 C 
ATOM     14  C   UNL A   1      31.467  24.152  23.235  1.00  0.00     0.066 C 
BRANCH   9  15
ATOM     15  C   UNL A   1      31.278  27.266  25.451  1.00  0.00     0.222 C 
ATOM     16  C   UNL A   1      30.589  27.956  24.262  1.00  0.00     0.082 C 
BRANCH  15  17
ATOM     17  C   UNL A   1      32.434  28.126  25.952  1.00  0.00     0.063 A 
ATOM     18  C   UNL A   1      33.753  27.773  26.206  1.00  0.00     0.023 A 
ATOM     19  S   UNL A   1      32.148  29.770  26.381  1.00  0.00    -0.127 S 
ATOM     20  C   UNL A   1      34.480  28.812  26.863  1.00  0.00     0.028 A 
ATOM     21  C   UNL A   1      33.707  29.933  27.019  1.00  0.00     0.070 A 
ATOM     22  Br  UNL A   1      34.305  31.490  27.870  1.00  0.00    -0.039 Br
ENDBRANCH  15  17
ENDBRANCH   9  15
ENDBRANCH   7   8
ENDBRANCH   4   7
ENDBRANCH   2   3
ENDBRANCH   1   2
BRANCH   1  23
ATOM     23  C   UNL A   1      37.376  23.349  25.219  1.00  0.00     0.023 C 
BRANCH  23  24
ATOM     24  C   UNL A   1      38.174  24.034  26.310  1.00  0.00     0.116 C 
BRANCH  24  25
ATOM     25  N   UNL A   1      39.612  23.786  26.230  1.00  0.00    -0.352 N 
ATOM     26  C   UNL A   1      40.651  24.512  26.771  1.00  0.00     0.251 C 
ATOM     27  H   UNL A   1      39.874  22.987  25.718  1.00  0.00     0.163 HD
ATOM     28  O   UNL A   1      41.810  24.212  26.530  1.00  0.00    -0.269 OA
BRANCH  26  29
ATOM     29  C   UNL A   1      40.335  25.692  27.604  1.00  0.00     0.039 A 
ATOM     30  C   UNL A   1      39.424  25.556  28.654  1.00  0.00     0.014 A 
ATOM     31  C   UNL A   1      41.026  26.889  27.414  1.00  0.00     0.014 A 
ATOM     32  C   UNL A   1      39.298  26.587  29.587  1.00  0.00     0.010 A 
ATOM     33  C   UNL A   1      40.978  27.867  28.397  1.00  0.00     0.010 A 
ATOM     34  C   UNL A   1      40.124  27.719  29.501  1.00  0.00    -0.014 A 
BRANCH  34  35
ATOM     35  C   UNL A   1      40.146  28.755  30.565  1.00  0.00     0.031 A 
ATOM     36  C   UNL A   1      41.081  28.605  31.731  1.00  0.00     0.074 A 
ATOM     37  C   UNL A   1      39.252  29.763  30.533  1.00  0.00     0.049 A 
ATOM     38  N   UNL A   1      41.165  29.324  32.820  1.00  0.00    -0.248 NA
ATOM     39  C   UNL A   1      42.020  27.472  31.685  1.00  0.00     0.031 C 
ATOM     40  C   UNL A   1      38.251  29.979  29.484  1.00  0.00     0.029 A 
ATOM     41  N   UNL A   1      39.028  30.790  31.416  1.00  0.00    -0.354 N 
ATOM     42  C   UNL A   1      42.146  28.720  33.595  1.00  0.00     0.074 A 
ATOM     43  C   UNL A   1      42.588  27.542  32.880  1.00  0.00     0.031 C 
ATOM     44  C   UNL A   1      37.542  31.082  29.771  1.00  0.00     0.029 A 
ATOM     45  C   UNL A   1      38.003  31.627  31.043  1.00  0.00     0.049 A 
ATOM     46  H   UNL A   1      39.553  30.914  32.240  1.00  0.00     0.167 HD
ATOM     47  C   UNL A   1      42.654  29.126  34.783  1.00  0.00     0.037 A 
ATOM     48  C   UNL A   1      37.486  32.706  31.662  1.00  0.00     0.037 A 
ATOM     49  C   UNL A   1      42.234  30.318  35.469  1.00  0.00     0.049 A 
ATOM     50  C   UNL A   1      38.060  33.134  32.983  1.00  0.00     0.074 A 
ATOM     51  C   UNL A   1      42.745  30.866  36.631  1.00  0.00     0.029 A 
ATOM     52  N   UNL A   1      41.199  31.144  35.055  1.00  0.00    -0.354 N 
ATOM     53  N   UNL A   1      39.040  32.595  33.667  1.00  0.00    -0.248 NA
ATOM     54  C   UNL A   1      37.454  34.311  33.622  1.00  0.00     0.031 C 
ATOM     55  C   UNL A   1      41.991  32.004  36.943  1.00  0.00     0.029 A 
ATOM     56  C   UNL A   1      41.035  32.183  35.955  1.00  0.00     0.049 A 
ATOM     57  H   UNL A   1      40.661  31.011  34.241  1.00  0.00     0.167 HD
ATOM     58  C   UNL A   1      39.176  33.370  34.813  1.00  0.00     0.074 A 
ATOM     59  C   UNL A   1      38.187  34.427  34.721  1.00  0.00     0.031 C 
ATOM     60  C   UNL A   1      40.036  33.218  35.849  1.00  0.00     0.037 A 
BRANCH  47  61
ATOM     61  C   UNL A   1      43.725  28.272  35.402  1.00  0.00     0.058 A 
ATOM     62  C   UNL A   1      45.078  28.425  35.056  1.00  0.00     0.135 A 
ATOM     63  C   UNL A   1      43.398  27.287  36.348  1.00  0.00     0.135 A 
ATOM     64  F   UNL A   1      45.443  29.340  34.144  1.00  0.00    -0.206 F 
ATOM     65  C   UNL A   1      46.063  27.606  35.595  1.00  0.00     0.059 A 
ATOM     66  C   UNL A   1      44.372  26.475  36.921  1.00  0.00     0.059 A 
ATOM     67  F   UNL A   1      42.120  27.098  36.712  1.00  0.00    -0.206 F 
ATOM     68  C   UNL A   1      45.699  26.629  36.522  1.00  0.00     0.060 A 
BRANCH  68  69
ATOM     69  S   UNL A   1      46.987  25.558  37.197  1.00  0.00     0.124 S 
ATOM     70  O   UNL A   1      46.195  24.451  37.724  1.00  0.00    -0.237 OA
ATOM     71  O   UNL A   1      47.792  25.255  36.018  1.00  0.00    -0.237 OA
ATOM     72  O   UNL A   1      47.637  26.399  38.197  1.00  0.00    -0.744 OA
ENDBRANCH  68  69
ENDBRANCH  47  61
BRANCH  48  73
ATOM     73  C   UNL A   1      36.376  33.463  31.025  1.00  0.00     0.058 A 
ATOM     74  C   UNL A   1      36.603  34.227  29.871  1.00  0.00     0.135 A 
ATOM     75  C   UNL A   1      35.068  33.412  31.529  1.00  0.00     0.135 A 
ATOM     76  F   UNL A   1      37.839  34.314  29.356  1.00  0.00    -0.206 F 
ATOM     77  C   UNL A   1      35.573  34.915  29.238  1.00  0.00     0.059 A 
ATOM     78  C   UNL A   1      34.017  34.075  30.902  1.00  0.00     0.059 A 
ATOM     79  F   UNL A   1      34.798  32.683  32.623  1.00  0.00    -0.206 F 
ATOM     80  C   UNL A   1      34.281  34.828  29.759  1.00  0.00     0.060 A 
BRANCH  80  81
ATOM     81  S   UNL A   1      32.937  35.665  28.888  1.00  0.00     0.124 S 
ATOM     82  O   UNL A   1      33.663  36.689  28.144  1.00  0.00    -0.237 OA
ATOM     83  O   UNL A   1      32.366  34.583  28.093  1.00  0.00    -0.237 OA
ATOM     84  O   UNL A   1      32.088  36.153  29.972  1.00  0.00    -0.744 OA
ENDBRANCH  80  81
ENDBRANCH  48  73
BRANCH  60  85
ATOM     85  C   UNL A   1      39.946  34.212  36.971  1.00  0.00     0.058 A 
ATOM     86  C   UNL A   1      40.571  35.465  36.884  1.00  0.00     0.135 A 
ATOM     87  C   UNL A   1      39.172  33.939  38.109  1.00  0.00     0.135 A 
ATOM     88  F   UNL A   1      41.331  35.769  35.820  1.00  0.00    -0.206 F 
ATOM     89  C   UNL A   1      40.438  36.413  37.893  1.00  0.00     0.059 A 
ATOM     90  C   UNL A   1      39.006  34.881  39.120  1.00  0.00     0.059 A 
ATOM     91  F   UNL A   1      38.548  32.758  38.235  1.00  0.00    -0.206 F 
ATOM     92  C   UNL A   1      39.649  36.113  39.005  1.00  0.00     0.060 A 
BRANCH  92  93
ATOM     93  S   UNL A   1      39.439  37.373  40.280  1.00  0.00     0.124 S 
ATOM     94  O   UNL A   1      38.736  36.626  41.319  1.00  0.00    -0.237 OA
ATOM     95  O   UNL A   1      40.818  37.741  40.587  1.00  0.00    -0.237 OA
ATOM     96  O   UNL A   1      38.656  38.407  39.611  1.00  0.00    -0.744 OA
ENDBRANCH  92  93
ENDBRANCH  60  85
ENDBRANCH  34  35
ENDBRANCH  26  29
ENDBRANCH  24  25
ENDBRANCH  23  24
ENDBRANCH   1  23
TORSDOF 17
ENDMDL
MODEL 2
REMARK VINA RESULT:     -11.1      6.906     12.289
REMARK SMILES C[C@H](c1ccc(Br)s1)[NH+]1CCC(CC(=O)NCCCCNC(=O)c2ccc(-c3c4nc(c(-c5c(F)cc(S(=O)(=O)[O-])cc5F)c5ccc([nH]5)c(-c5c(F)cc(S(=O)(=O)[O-])cc5F)c5nc(c(-c6c(F)cc(S(=O)(=O)[O-])cc6F)c6ccc3[nH]6)C=C5)C=C4)cc2)CC1
REMARK SMILES IDX 18 1 17 2 16 3 14 4 15 5 13 7 12 8 9 9 10 10 91 11 11 13
REMARK SMILES IDX 90 14 2 15 1 16 3 17 4 18 8 19 5 20 6 21 7 22 19 23 20 24
REMARK SMILES IDX 21 25 22 26 23 28 24 29 25 30 89 31 26 32 88 33 27 34 28 35
REMARK SMILES IDX 29 36 82 37 30 38 87 39 81 40 83 41 31 42 86 43 80 44 79 45
REMARK SMILES IDX 32 47 66 48 45 49 65 50 46 51 49 52 64 53 84 54 47 55 48 56
REMARK SMILES IDX 63 58 85 59 50 60 33 61 34 62 43 63 35 64 36 65 42 66 44 67
REMARK SMILES IDX 37 68 38 69 39 70 40 71 41 72 67 73 68 74 77 75 69 76 70 77
REMARK SMILES IDX 76 78 78 79 71 80 72 81 73 82 74 83 75 84 51 85 52 86 61 87
REMARK SMILES IDX 53 88 54 89 60 90 62 91 55 92 56 93 57 94 58 95 59 96
REMARK H PARENT 16 6 9 12 21 27 83 46 49 57
REMARK Flexibility Score: inf
ROOT
ATOM      1  C   UNL A   1      34.173  30.560  27.230  1.00  0.00     0.023 C 
ENDROOT
BRANCH   1   2
ATOM      2  C   UNL A   1      32.657  30.303  27.267  1.00  0.00     0.116 C 
BRANCH   2   3
ATOM      3  N   UNL A   1      32.054  30.224  25.940  1.00  0.00    -0.356 N 
ATOM      4  C   UNL A   1      31.578  29.162  25.218  1.00  0.00     0.220 C 
ATOM      5  O   UNL A   1      31.079  29.393  24.114  1.00  0.00    -0.275 OA
ATOM      6  H   UNL A   1      31.977  31.090  25.480  1.00  0.00     0.163 HD
BRANCH   4   7
ATOM      7  C   UNL A   1      31.681  27.722  25.726  1.00  0.00     0.104 C 
BRANCH   7   8
ATOM      8  C   UNL A   1      31.810  26.679  24.588  1.00  0.00     0.009 C 
ATOM      9  N   UNL A   1      33.348  24.233  23.931  1.00  0.00    -0.328 N 
ATOM     10  C   UNL A   1      33.672  25.491  23.266  1.00  0.00     0.263 C 
ATOM     11  C   UNL A   1      31.883  24.154  24.083  1.00  0.00     0.263 C 
ATOM     12  H   UNL A   1      33.793  24.238  24.849  1.00  0.00     0.348 HD
ATOM     13  C   UNL A   1      33.253  26.640  24.143  1.00  0.00     0.066 C 
ATOM     14  C   UNL A   1      31.356  25.271  25.010  1.00  0.00     0.066 C 
BRANCH   9  15
ATOM     15  C   UNL A   1      33.931  23.025  23.288  1.00  0.00     0.222 C 
ATOM     16  C   UNL A   1      32.795  21.998  23.150  1.00  0.00     0.082 C 
BRANCH  15  17
ATOM     17  C   UNL A   1      35.105  22.404  24.037  1.00  0.00     0.063 A 
ATOM     18  C   UNL A   1      35.178  21.199  24.723  1.00  0.00     0.023 A 
ATOM     19  S   UNL A   1      36.577  23.285  24.193  1.00  0.00    -0.127 S 
ATOM     20  C   UNL A   1      36.389  21.066  25.469  1.00  0.00     0.028 A 
ATOM     21  C   UNL A   1      37.213  22.141  25.266  1.00  0.00     0.070 A 
ATOM     22  Br  UNL A   1      38.876  22.341  26.104  1.00  0.00    -0.039 Br
ENDBRANCH  15  17
ENDBRANCH   9  15
ENDBRANCH   7   8
ENDBRANCH   4   7
ENDBRANCH   2   3
ENDBRANCH   1   2
BRANCH   1  23
ATOM     23  C   UNL A   1      34.641  31.941  27.656  1.00  0.00     0.023 C 
BRANCH  23  24
ATOM     24  C   UNL A   1      35.801  31.938  28.633  1.00  0.00     0.116 C 
BRANCH  24  25
ATOM     25  N   UNL A   1      35.595  31.063  29.785  1.00  0.00    -0.352 N 
ATOM     26  C   UNL A   1      36.488  30.212  30.400  1.00  0.00     0.251 C 
ATOM     27  H   UNL A   1      34.692  31.086  30.177  1.00  0.00     0.163 HD
ATOM     28  O   UNL A   1      36.123  29.477  31.305  1.00  0.00    -0.269 OA
BRANCH  26  29
ATOM     29  C   UNL A   1      37.881  30.167  29.907  1.00  0.00     0.039 A 
ATOM     30  C   UNL A   1      38.924  30.439  30.795  1.00  0.00     0.014 A 
ATOM     31  C   UNL A   1      38.150  29.743  28.604  1.00  0.00     0.014 A 
ATOM     32  C   UNL A   1      40.238  30.169  30.409  1.00  0.00     0.010 A 
ATOM     33  C   UNL A   1      39.443  29.377  28.261  1.00  0.00     0.010 A 
ATOM     34  C   UNL A   1      40.498  29.573  29.164  1.00  0.00    -0.014 A 
BRANCH  34  35
ATOM     35  C   UNL A   1      41.857  29.110  28.787  1.00  0.00     0.031 A 
ATOM     36  C   UNL A   1      42.987  30.098  28.714  1.00  0.00     0.074 A 
ATOM     37  C   UNL A   1      42.045  27.831  28.406  1.00  0.00     0.049 A 
ATOM     38  N   UNL A   1      44.210  29.924  28.286  1.00  0.00    -0.248 NA
ATOM     39  C   UNL A   1      42.691  31.474  29.145  1.00  0.00     0.031 C 
ATOM     40  C   UNL A   1      41.010  26.793  28.373  1.00  0.00     0.029 A 
ATOM     41  N   UNL A   1      43.170  27.185  27.956  1.00  0.00    -0.354 N 
ATOM     42  C   UNL A   1      44.821  31.168  28.373  1.00  0.00     0.074 A 
ATOM     43  C   UNL A   1      43.818  32.101  28.840  1.00  0.00     0.031 C 
ATOM     44  C   UNL A   1      41.555  25.640  27.956  1.00  0.00     0.029 A 
ATOM     45  C   UNL A   1      42.963  25.862  27.646  1.00  0.00     0.049 A 
ATOM     46  H   UNL A   1      44.044  27.630  27.864  1.00  0.00     0.167 HD
ATOM     47  C   UNL A   1      46.108  31.498  28.115  1.00  0.00     0.037 A 
ATOM     48  C   UNL A   1      43.810  24.935  27.158  1.00  0.00     0.037 A 
ATOM     49  C   UNL A   1      47.106  30.557  27.686  1.00  0.00     0.049 A 
ATOM     50  C   UNL A   1      45.232  25.325  26.871  1.00  0.00     0.074 A 
ATOM     51  C   UNL A   1      48.457  30.769  27.483  1.00  0.00     0.029 A 
ATOM     52  N   UNL A   1      46.859  29.223  27.391  1.00  0.00    -0.354 N 
ATOM     53  N   UNL A   1      45.814  26.490  27.032  1.00  0.00    -0.248 NA
ATOM     54  C   UNL A   1      46.113  24.281  26.330  1.00  0.00     0.031 C 
ATOM     55  C   UNL A   1      49.022  29.572  27.025  1.00  0.00     0.029 A 
ATOM     56  C   UNL A   1      48.028  28.606  26.978  1.00  0.00     0.049 A 
ATOM     57  H   UNL A   1      45.983  28.781  27.465  1.00  0.00     0.167 HD
ATOM     58  C   UNL A   1      47.130  26.318  26.620  1.00  0.00     0.074 A 
ATOM     59  C   UNL A   1      47.264  24.931  26.219  1.00  0.00     0.031 C 
ATOM     60  C   UNL A   1      48.135  27.226  26.573  1.00  0.00     0.037 A 
BRANCH  47  61
ATOM     61  C   UNL A   1      46.500  32.937  28.302  1.00  0.00     0.058 A 
ATOM     62  C   UNL A   1      46.958  33.419  29.539  1.00  0.00     0.135 A 
ATOM     63  C   UNL A   1      46.416  33.846  27.235  1.00  0.00     0.135 A 
ATOM     64  F   UNL A   1      47.042  32.595  30.596  1.00  0.00    -0.206 F 
ATOM     65  C   UNL A   1      47.279  34.759  29.724  1.00  0.00     0.059 A 
ATOM     66  C   UNL A   1      46.759  35.186  27.390  1.00  0.00     0.059 A 
ATOM     67  F   UNL A   1      45.982  33.438  26.032  1.00  0.00    -0.206 F 
ATOM     68  C   UNL A   1      47.170  35.636  28.645  1.00  0.00     0.060 A 
BRANCH  68  69
ATOM     69  S   UNL A   1      47.569  37.378  28.906  1.00  0.00     0.124 S 
ATOM     70  O   UNL A   1      48.988  37.301  29.241  1.00  0.00    -0.237 OA
ATOM     71  O   UNL A   1      47.256  37.969  27.609  1.00  0.00    -0.237 OA
ATOM     72  O   UNL A   1      46.685  37.769  29.999  1.00  0.00    -0.744 OA
ENDBRANCH  68  69
ENDBRANCH  47  61
BRANCH  48  73
ATOM     73  C   UNL A   1      43.333  23.546  26.929  1.00  0.00     0.058 A 
ATOM     74  C   UNL A   1      43.073  23.085  25.630  1.00  0.00     0.135 A 
ATOM     75  C   UNL A   1      43.163  22.643  27.990  1.00  0.00     0.135 A 
ATOM     76  F   UNL A   1      43.213  23.913  24.584  1.00  0.00    -0.206 F 
ATOM     77  C   UNL A   1      42.660  21.778  25.389  1.00  0.00     0.059 A 
ATOM     78  C   UNL A   1      42.770  21.326  27.772  1.00  0.00     0.059 A 
ATOM     79  F   UNL A   1      43.413  23.033  29.250  1.00  0.00    -0.206 F 
ATOM     80  C   UNL A   1      42.517  20.904  26.468  1.00  0.00     0.060 A 
BRANCH  80  81
ATOM     81  S   UNL A   1      42.051  19.190  26.137  1.00  0.00     0.124 S 
ATOM     82  O   UNL A   1      42.854  18.891  24.956  1.00  0.00    -0.237 OA
ATOM     83  O   UNL A   1      42.455  18.519  27.369  1.00  0.00    -0.237 OA
ATOM     84  O   UNL A   1      40.610  19.270  25.920  1.00  0.00    -0.744 OA
ENDBRANCH  80  81
ENDBRANCH  48  73
BRANCH  60  85
ATOM     85  C   UNL A   1      49.467  26.754  26.066  1.00  0.00     0.058 A 
ATOM     86  C   UNL A   1      49.885  27.028  24.755  1.00  0.00     0.135 A 
ATOM     87  C   UNL A   1      50.361  26.086  26.916  1.00  0.00     0.135 A 
ATOM     88  F   UNL A   1      49.061  27.655  23.900  1.00  0.00    -0.206 F 
ATOM     89  C   UNL A   1      51.143  26.648  24.300  1.00  0.00     0.059 A 
ATOM     90  C   UNL A   1      51.633  25.717  26.491  1.00  0.00     0.059 A 
ATOM     91  F   UNL A   1      50.011  25.808  28.182  1.00  0.00    -0.206 F 
ATOM     92  C   UNL A   1      52.013  25.997  25.178  1.00  0.00     0.060 A 
BRANCH  92  93
ATOM     93  S   UNL A   1      53.663  25.560  24.593  1.00  0.00     0.124 S 
ATOM     94  O   UNL A   1      53.639  26.080  23.230  1.00  0.00    -0.237 OA
ATOM     95  O   UNL A   1      54.526  26.274  25.529  1.00  0.00    -0.237 OA
ATOM     96  O   UNL A   1      53.691  24.105  24.712  1.00  0.00    -0.744 OA
ENDBRANCH  92  93
ENDBRANCH  60  85
ENDBRANCH  34  35
ENDBRANCH  26  29
ENDBRANCH  24  25
ENDBRANCH  23  24
ENDBRANCH   1  23
TORSDOF 17
ENDMDL
MODEL 3
REMARK VINA RESULT:     -11.1      2.401      3.094
REMARK SMILES C[C@H](c1ccc(Br)s1)[NH+]1CCC(CC(=O)NCCCCNC(=O)c2ccc(-c3c4nc(c(-c5c(F)cc(S(=O)(=O)[O-])cc5F)c5ccc([nH]5)c(-c5c(F)cc(S(=O)(=O)[O-])cc5F)c5nc(c(-c6c(F)cc(S(=O)(=O)[O-])cc6F)c6ccc3[nH]6)C=C5)C=C4)cc2)CC1
REMARK SMILES IDX 18 1 17 2 16 3 14 4 15 5 13 7 12 8 9 9 10 10 91 11 11 13
REMARK SMILES IDX 90 14 2 15 1 16 3 17 4 18 8 19 5 20 6 21 7 22 19 23 20 24
REMARK SMILES IDX 21 25 22 26 23 28 24 29 25 30 89 31 26 32 88 33 27 34 28 35
REMARK SMILES IDX 29 36 82 37 30 38 87 39 81 40 83 41 31 42 86 43 80 44 79 45
REMARK SMILES IDX 32 47 66 48 45 49 65 50 46 51 49 52 64 53 84 54 47 55 48 56
REMARK SMILES IDX 63 58 85 59 50 60 33 61 34 62 43 63 35 64 36 65 42 66 44 67
REMARK SMILES IDX 37 68 38 69 39 70 40 71 41 72 67 73 68 74 77 75 69 76 70 77
REMARK SMILES IDX 76 78 78 79 71 80 72 81 73 82 74 83 75 84 51 85 52 86 61 87
REMARK SMILES IDX 53 88 54 89 60 90 62 91 55 92 56 93 57 94 58 95 59 96
REMARK H PARENT 16 6 9 12 21 27 83 46 49 57
REMARK Flexibility Score: inf
ROOT
ATOM      1  C   UNL A   1      35.755  21.424  25.668  1.00  0.00     0.023 C 
ENDROOT
BRANCH   1   2
ATOM      2  C   UNL A   1      34.552  20.539  25.299  1.00  0.00     0.116 C 
BRANCH   2   3
ATOM      3  N   UNL A   1      33.274  21.100  25.726  1.00  0.00    -0.356 N 
ATOM      4  C   UNL A   1      32.207  21.581  25.014  1.00  0.00     0.220 C 
ATOM      5  O   UNL A   1      31.220  21.969  25.645  1.00  0.00    -0.275 OA
ATOM      6  H   UNL A   1      33.157  21.141  26.702  1.00  0.00     0.163 HD
BRANCH   4   7
ATOM      7  C   UNL A   1      32.224  21.676  23.487  1.00  0.00     0.104 C 
BRANCH   7   8
ATOM      8  C   UNL A   1      32.115  23.129  22.962  1.00  0.00     0.009 C 
ATOM      9  N   UNL A   1      31.536  25.855  23.967  1.00  0.00    -0.328 N 
ATOM     10  C   UNL A   1      30.529  25.144  23.187  1.00  0.00     0.263 C 
ATOM     11  C   UNL A   1      32.862  25.556  23.394  1.00  0.00     0.263 C 
ATOM     12  H   UNL A   1      31.488  25.516  24.928  1.00  0.00     0.348 HD
ATOM     13  C   UNL A   1      30.749  23.662  23.324  1.00  0.00     0.066 C 
ATOM     14  C   UNL A   1      33.204  24.056  23.529  1.00  0.00     0.066 C 
BRANCH   9  15
ATOM     15  C   UNL A   1      31.286  27.314  24.118  1.00  0.00     0.222 C 
ATOM     16  C   UNL A   1      31.812  27.994  22.844  1.00  0.00     0.082 C 
BRANCH  15  17
ATOM     17  C   UNL A   1      31.926  27.950  25.348  1.00  0.00     0.063 A 
ATOM     18  C   UNL A   1      31.552  27.865  26.683  1.00  0.00     0.023 A 
ATOM     19  S   UNL A   1      33.261  29.022  25.155  1.00  0.00    -0.127 S 
ATOM     20  C   UNL A   1      32.279  28.770  27.513  1.00  0.00     0.028 A 
ATOM     21  C   UNL A   1      33.221  29.455  26.791  1.00  0.00     0.070 A 
ATOM     22  Br  UNL A   1      34.345  30.757  27.530  1.00  0.00    -0.039 Br
ENDBRANCH  15  17
ENDBRANCH   9  15
ENDBRANCH   7   8
ENDBRANCH   4   7
ENDBRANCH   2   3
ENDBRANCH   1   2
BRANCH   1  23
ATOM     23  C   UNL A   1      36.054  22.590  24.742  1.00  0.00     0.023 C 
BRANCH  23  24
ATOM     24  C   UNL A   1      37.245  23.431  25.155  1.00  0.00     0.116 C 
BRANCH  24  25
ATOM     25  N   UNL A   1      38.451  22.651  25.422  1.00  0.00    -0.352 N 
ATOM     26  C   UNL A   1      39.576  23.005  26.135  1.00  0.00     0.251 C 
ATOM     27  H   UNL A   1      38.461  21.744  25.039  1.00  0.00     0.163 HD
ATOM     28  O   UNL A   1      40.541  22.258  26.186  1.00  0.00    -0.269 OA
BRANCH  26  29
ATOM     29  C   UNL A   1      39.612  24.329  26.792  1.00  0.00     0.039 A 
ATOM     30  C   UNL A   1      39.005  24.484  28.040  1.00  0.00     0.014 A 
ATOM     31  C   UNL A   1      40.344  25.373  26.225  1.00  0.00     0.014 A 
ATOM     32  C   UNL A   1      39.235  25.651  28.773  1.00  0.00     0.010 A 
ATOM     33  C   UNL A   1      40.657  26.483  26.995  1.00  0.00     0.010 A 
ATOM     34  C   UNL A   1      40.117  26.627  28.282  1.00  0.00    -0.014 A 
BRANCH  34  35
ATOM     35  C   UNL A   1      40.525  27.796  29.102  1.00  0.00     0.031 A 
ATOM     36  C   UNL A   1      41.819  27.756  29.864  1.00  0.00     0.074 A 
ATOM     37  C   UNL A   1      39.681  28.837  29.245  1.00  0.00     0.049 A 
ATOM     38  N   UNL A   1      42.293  28.613  30.731  1.00  0.00    -0.248 NA
ATOM     39  C   UNL A   1      42.676  26.579  29.652  1.00  0.00     0.031 C 
ATOM     40  C   UNL A   1      38.368  28.961  28.605  1.00  0.00     0.029 A 
ATOM     41  N   UNL A   1      39.793  29.986  29.987  1.00  0.00    -0.354 N 
ATOM     42  C   UNL A   1      43.488  28.069  31.183  1.00  0.00     0.074 A 
ATOM     43  C   UNL A   1      43.639  26.781  30.539  1.00  0.00     0.031 C 
ATOM     44  C   UNL A   1      37.812  30.130  28.961  1.00  0.00     0.029 A 
ATOM     45  C   UNL A   1      38.704  30.818  29.887  1.00  0.00     0.049 A 
ATOM     46  H   UNL A   1      40.581  30.194  30.541  1.00  0.00     0.167 HD
ATOM     47  C   UNL A   1      44.392  28.605  32.036  1.00  0.00     0.037 A 
ATOM     48  C   UNL A   1      38.448  31.999  30.484  1.00  0.00     0.037 A 
ATOM     49  C   UNL A   1      44.251  29.901  32.643  1.00  0.00     0.049 A 
ATOM     50  C   UNL A   1      39.462  32.572  31.433  1.00  0.00     0.074 A 
ATOM     51  C   UNL A   1      45.149  30.575  33.450  1.00  0.00     0.029 A 
ATOM     52  N   UNL A   1      43.137  30.717  32.510  1.00  0.00    -0.354 N 
ATOM     53  N   UNL A   1      40.623  32.080  31.791  1.00  0.00    -0.248 NA
ATOM     54  C   UNL A   1      39.130  33.857  32.066  1.00  0.00     0.031 C 
ATOM     55  C   UNL A   1      44.561  31.784  33.840  1.00  0.00     0.029 A 
ATOM     56  C   UNL A   1      43.312  31.877  33.246  1.00  0.00     0.049 A 
ATOM     57  H   UNL A   1      42.340  30.504  31.973  1.00  0.00     0.167 HD
ATOM     58  C   UNL A   1      41.166  32.996  32.685  1.00  0.00     0.074 A 
ATOM     59  C   UNL A   1      40.212  34.083  32.798  1.00  0.00     0.031 C 
ATOM     60  C   UNL A   1      42.343  32.941  33.354  1.00  0.00     0.037 A 
BRANCH  47  61
ATOM     61  C   UNL A   1      45.614  27.787  32.348  1.00  0.00     0.058 A 
ATOM     62  C   UNL A   1      46.781  27.884  31.573  1.00  0.00     0.135 A 
ATOM     63  C   UNL A   1      45.619  26.894  33.432  1.00  0.00     0.135 A 
ATOM     64  F   UNL A   1      46.823  28.710  30.515  1.00  0.00    -0.206 F 
ATOM     65  C   UNL A   1      47.896  27.095  31.834  1.00  0.00     0.059 A 
ATOM     66  C   UNL A   1      46.734  26.115  33.729  1.00  0.00     0.059 A 
ATOM     67  F   UNL A   1      44.530  26.761  34.204  1.00  0.00    -0.206 F 
ATOM     68  C   UNL A   1      47.860  26.209  32.911  1.00  0.00     0.060 A 
BRANCH  68  69
ATOM     69  S   UNL A   1      49.307  25.175  33.225  1.00  0.00     0.124 S 
ATOM     70  O   UNL A   1      49.807  24.959  31.871  1.00  0.00    -0.237 OA
ATOM     71  O   UNL A   1      50.128  26.035  34.073  1.00  0.00    -0.237 OA
ATOM     72  O   UNL A   1      48.747  24.000  33.884  1.00  0.00    -0.744 OA
ENDBRANCH  68  69
ENDBRANCH  47  61
BRANCH  48  73
ATOM     73  C   UNL A   1      37.183  32.721  30.183  1.00  0.00     0.058 A 
ATOM     74  C   UNL A   1      37.119  33.639  29.125  1.00  0.00     0.135 A 
ATOM     75  C   UNL A   1      36.010  32.484  30.916  1.00  0.00     0.135 A 
ATOM     76  F   UNL A   1      38.216  33.904  28.400  1.00  0.00    -0.206 F 
ATOM     77  C   UNL A   1      35.937  34.299  28.803  1.00  0.00     0.059 A 
ATOM     78  C   UNL A   1      34.811  33.118  30.601  1.00  0.00     0.059 A 
ATOM     79  F   UNL A   1      36.017  31.605  31.930  1.00  0.00    -0.206 F 
ATOM     80  C   UNL A   1      34.787  34.027  29.545  1.00  0.00     0.060 A 
BRANCH  80  81
ATOM     81  S   UNL A   1      33.241  34.835  29.073  1.00  0.00     0.124 S 
ATOM     82  O   UNL A   1      32.554  34.927  30.357  1.00  0.00    -0.237 OA
ATOM     83  O   UNL A   1      33.713  36.096  28.510  1.00  0.00    -0.237 OA
ATOM     84  O   UNL A   1      32.659  33.906  28.109  1.00  0.00    -0.744 OA
ENDBRANCH  80  81
ENDBRANCH  48  73
BRANCH  60  85
ATOM     85  C   UNL A   1      42.667  34.083  34.273  1.00  0.00     0.058 A 
ATOM     86  C   UNL A   1      42.354  34.029  35.639  1.00  0.00     0.135 A 
ATOM     87  C   UNL A   1      43.360  35.209  33.800  1.00  0.00     0.135 A 
ATOM     88  F   UNL A   1      41.683  32.977  36.137  1.00  0.00    -0.206 F 
ATOM     89  C   UNL A   1      42.708  35.056  36.506  1.00  0.00     0.059 A 
ATOM     90  C   UNL A   1      43.745  36.238  34.654  1.00  0.00     0.059 A 
ATOM     91  F   UNL A   1      43.690  35.304  32.503  1.00  0.00    -0.206 F 
ATOM     92  C   UNL A   1      43.409  36.155  36.005  1.00  0.00     0.060 A 
BRANCH  92  93
ATOM     93  S   UNL A   1      43.912  37.455  37.151  1.00  0.00     0.124 S 
ATOM     94  O   UNL A   1      45.130  36.888  37.722  1.00  0.00    -0.237 OA
ATOM     95  O   UNL A   1      44.102  38.599  36.263  1.00  0.00    -0.237 OA
ATOM     96  O   UNL A   1      42.778  37.561  38.064  1.00  0.00    -0.744 OA
ENDBRANCH  92  93
ENDBRANCH  60  85
ENDBRANCH  34  35
ENDBRANCH  26  29
ENDBRANCH  24  25
ENDBRANCH  23  24
ENDBRANCH   1  23
TORSDOF 17
ENDMDL
