MODEL 1
REMARK VINA RESULT:     -13.1      0.000      0.000
REMARK SMILES CC(C)(C(=O)N1C[C@@H]2c3ccccc3OC[C@]2(C(=O)NCCCCNC(=O)c2ccc(-c3c4nc(c(-c5c(F)cc(S(=O)(=O)[O-])cc5F)c5ccc([nH]5)c(-c5c(F)cc(S(=O)(=O)[O-])cc5F)c5nc(c(-c6c(F)cc(S(=O)(=O)[O-])cc6F)c6ccc3[nH]6)C=C5)C=C4)cc2)C1)[NH+]1CCOCC1
REMARK SMILES IDX 22 1 21 2 20 3 18 4 19 5 17 7 6 8 7 9 94 10 8 11 9 12 16 13
REMARK SMILES IDX 10 14 14 15 15 16 11 17 13 18 12 19 4 20 5 21 2 22 1 23 3 24
REMARK SMILES IDX 95 25 96 26 100 27 97 29 99 30 98 31 23 32 24 33 25 34 26 35
REMARK SMILES IDX 27 37 28 38 29 39 93 40 30 41 92 42 31 43 32 44 33 45 86 46
REMARK SMILES IDX 34 47 91 48 85 49 87 50 35 51 90 52 84 53 83 54 36 56 70 57
REMARK SMILES IDX 49 58 69 59 50 60 53 61 68 62 88 63 51 64 52 65 67 67 89 68
REMARK SMILES IDX 54 69 37 70 38 71 47 72 39 73 40 74 46 75 48 76 41 77 42 78
REMARK SMILES IDX 43 79 44 80 45 81 71 82 72 83 81 84 73 85 74 86 80 87 82 88
REMARK SMILES IDX 75 89 76 90 77 91 78 92 79 93 55 94 56 95 65 96 57 97 58 98
REMARK SMILES IDX 64 99 66 100 59 101 60 102 61 103 62 104 63 105
REMARK H PARENT 20 6 95 28 25 36 87 55 53 66
REMARK Flexibility Score: inf
ROOT
ATOM      1  C   UNL A   1      33.201  30.037  27.253  1.00  0.00     0.023 C 
ENDROOT
BRANCH   1   2
ATOM      2  C   UNL A   1      32.663  29.425  25.971  1.00  0.00     0.116 C 
BRANCH   2   3
ATOM      3  N   UNL A   1      33.625  29.189  24.908  1.00  0.00    -0.355 N 
ATOM      4  C   UNL A   1      33.382  28.384  23.811  1.00  0.00     0.232 C 
ATOM      5  O   UNL A   1      33.914  28.660  22.733  1.00  0.00    -0.274 OA
ATOM      6  H   UNL A   1      34.503  29.629  24.974  1.00  0.00     0.163 HD
BRANCH   4   7
ATOM      7  C   UNL A   1      32.473  27.145  24.061  1.00  0.00     0.109 C 
ATOM      8  N   UNL A   1      30.406  27.218  22.717  1.00  0.00    -0.335 N 
ATOM      9  C   UNL A   1      30.461  25.921  23.334  1.00  0.00     0.129 C 
ATOM     10  C   UNL A   1      31.781  27.703  22.683  1.00  0.00     0.141 C 
ATOM     11  C   UNL A   1      31.957  25.698  23.596  1.00  0.00     0.063 C 
ATOM     12  C   UNL A   1      32.119  24.516  24.529  1.00  0.00     0.000 A 
ATOM     13  C   UNL A   1      33.812  26.545  24.710  1.00  0.00     0.249 C 
ATOM     14  C   UNL A   1      31.574  23.253  24.251  1.00  0.00     0.008 A 
ATOM     15  C   UNL A   1      32.890  24.663  25.674  1.00  0.00     0.122 A 
ATOM     16  O   UNL A   1      33.498  25.849  25.938  1.00  0.00    -0.492 OA
ATOM     17  C   UNL A   1      31.776  22.185  25.130  1.00  0.00     0.001 A 
ATOM     18  C   UNL A   1      33.080  23.613  26.568  1.00  0.00     0.047 A 
ATOM     19  C   UNL A   1      32.525  22.365  26.291  1.00  0.00     0.004 A 
BRANCH   8  20
ATOM     20  C   UNL A   1      29.348  28.076  23.040  1.00  0.00     0.283 C 
ATOM     21  O   UNL A   1      28.325  27.572  23.511  1.00  0.00    -0.268 OA
BRANCH  20  22
ATOM     22  C   UNL A   1      29.544  29.649  22.837  1.00  0.00     0.171 C 
ATOM     23  C   UNL A   1      30.172  30.259  24.105  1.00  0.00     0.090 C 
ATOM     24  C   UNL A   1      30.531  29.879  21.670  1.00  0.00     0.090 C 
BRANCH  22  25
ATOM     25  N   UNL A   1      28.266  30.437  22.721  1.00  0.00    -0.319 N 
ATOM     26  C   UNL A   1      27.658  30.695  21.405  1.00  0.00     0.291 C 
ATOM     27  C   UNL A   1      28.069  31.636  23.548  1.00  0.00     0.291 C 
ATOM     28  H   UNL A   1      27.762  29.658  23.144  1.00  0.00     0.349 HD
ATOM     29  C   UNL A   1      28.243  31.955  20.745  1.00  0.00     0.221 C 
ATOM     30  C   UNL A   1      28.594  32.917  22.881  1.00  0.00     0.221 C 
ATOM     31  O   UNL A   1      28.028  33.111  21.577  1.00  0.00    -0.370 OA
ENDBRANCH  22  25
ENDBRANCH  20  22
ENDBRANCH   8  20
ENDBRANCH   4   7
ENDBRANCH   2   3
ENDBRANCH   1   2
BRANCH   1  32
ATOM     32  C   UNL A   1      34.698  29.897  27.507  1.00  0.00     0.023 C 
BRANCH  32  33
ATOM     33  C   UNL A   1      35.427  31.113  28.065  1.00  0.00     0.116 C 
BRANCH  33  34
ATOM     34  N   UNL A   1      35.463  31.197  29.517  1.00  0.00    -0.352 N 
ATOM     35  C   UNL A   1      36.419  30.740  30.400  1.00  0.00     0.251 C 
ATOM     36  H   UNL A   1      34.691  31.647  29.930  1.00  0.00     0.163 HD
ATOM     37  O   UNL A   1      36.267  30.896  31.608  1.00  0.00    -0.269 OA
BRANCH  35  38
ATOM     38  C   UNL A   1      37.592  29.999  29.890  1.00  0.00     0.039 A 
ATOM     39  C   UNL A   1      38.360  29.202  30.738  1.00  0.00     0.014 A 
ATOM     40  C   UNL A   1      37.977  30.185  28.560  1.00  0.00     0.014 A 
ATOM     41  C   UNL A   1      39.624  28.792  30.328  1.00  0.00     0.010 A 
ATOM     42  C   UNL A   1      39.205  29.680  28.119  1.00  0.00     0.010 A 
ATOM     43  C   UNL A   1      40.071  29.045  29.020  1.00  0.00    -0.014 A 
BRANCH  43  44
ATOM     44  C   UNL A   1      41.458  28.674  28.629  1.00  0.00     0.031 A 
ATOM     45  C   UNL A   1      42.584  29.672  28.745  1.00  0.00     0.074 A 
ATOM     46  C   UNL A   1      41.718  27.414  28.230  1.00  0.00     0.049 A 
ATOM     47  N   UNL A   1      43.847  29.534  28.424  1.00  0.00    -0.248 NA
ATOM     48  C   UNL A   1      42.253  30.999  29.291  1.00  0.00     0.031 C 
ATOM     49  C   UNL A   1      40.722  26.347  28.105  1.00  0.00     0.029 A 
ATOM     50  N   UNL A   1      42.899  26.807  27.884  1.00  0.00    -0.354 N 
ATOM     51  C   UNL A   1      44.450  30.755  28.700  1.00  0.00     0.074 A 
ATOM     52  C   UNL A   1      43.414  31.633  29.199  1.00  0.00     0.031 C 
ATOM     53  C   UNL A   1      41.340  25.205  27.770  1.00  0.00     0.029 A 
ATOM     54  C   UNL A   1      42.763  25.473  27.584  1.00  0.00     0.049 A 
ATOM     55  H   UNL A   1      43.760  27.283  27.853  1.00  0.00     0.167 HD
ATOM     56  C   UNL A   1      45.750  31.111  28.558  1.00  0.00     0.037 A 
ATOM     57  C   UNL A   1      43.675  24.566  27.188  1.00  0.00     0.037 A 
ATOM     58  C   UNL A   1      46.786  30.225  28.089  1.00  0.00     0.049 A 
ATOM     59  C   UNL A   1      45.102  24.991  27.008  1.00  0.00     0.074 A 
ATOM     60  C   UNL A   1      48.132  30.494  27.905  1.00  0.00     0.029 A 
ATOM     61  N   UNL A   1      46.594  28.896  27.742  1.00  0.00    -0.354 N 
ATOM     62  N   UNL A   1      45.642  26.166  27.224  1.00  0.00    -0.248 NA
ATOM     63  C   UNL A   1      46.039  23.975  26.512  1.00  0.00     0.031 C 
ATOM     64  C   UNL A   1      48.749  29.334  27.422  1.00  0.00     0.029 A 
ATOM     65  C   UNL A   1      47.795  28.334  27.339  1.00  0.00     0.049 A 
ATOM     66  H   UNL A   1      45.733  28.422  27.778  1.00  0.00     0.167 HD
ATOM     67  C   UNL A   1      46.985  26.031  26.894  1.00  0.00     0.074 A 
ATOM     68  C   UNL A   1      47.178  24.655  26.483  1.00  0.00     0.031 C 
ATOM     69  C   UNL A   1      47.968  26.964  26.924  1.00  0.00     0.037 A 
BRANCH  56  70
ATOM     70  C   UNL A   1      46.132  32.525  28.901  1.00  0.00     0.058 A 
ATOM     71  C   UNL A   1      46.601  32.874  30.177  1.00  0.00     0.135 A 
ATOM     72  C   UNL A   1      46.078  33.534  27.925  1.00  0.00     0.135 A 
ATOM     73  F   UNL A   1      46.656  31.952  31.151  1.00  0.00    -0.206 F 
ATOM     74  C   UNL A   1      46.986  34.177  30.479  1.00  0.00     0.059 A 
ATOM     75  C   UNL A   1      46.478  34.839  28.199  1.00  0.00     0.059 A 
ATOM     76  F   UNL A   1      45.637  33.255  26.689  1.00  0.00    -0.206 F 
ATOM     77  C   UNL A   1      46.920  35.153  29.484  1.00  0.00     0.060 A 
BRANCH  77  78
ATOM     78  S   UNL A   1      47.432  36.837  29.889  1.00  0.00     0.124 S 
ATOM     79  O   UNL A   1      47.477  36.784  31.347  1.00  0.00    -0.237 OA
ATOM     80  O   UNL A   1      48.726  36.941  29.220  1.00  0.00    -0.237 OA
ATOM     81  O   UNL A   1      46.370  37.663  29.323  1.00  0.00    -0.744 OA
ENDBRANCH  77  78
ENDBRANCH  56  70
BRANCH  57  82
ATOM     82  C   UNL A   1      43.248  23.167  26.932  1.00  0.00     0.058 A 
ATOM     83  C   UNL A   1      43.154  22.671  25.625  1.00  0.00     0.135 A 
ATOM     84  C   UNL A   1      42.985  22.283  27.991  1.00  0.00     0.135 A 
ATOM     85  F   UNL A   1      43.388  23.482  24.582  1.00  0.00    -0.206 F 
ATOM     86  C   UNL A   1      42.822  21.345  25.374  1.00  0.00     0.059 A 
ATOM     87  C   UNL A   1      42.675  20.947  27.767  1.00  0.00     0.059 A 
ATOM     88  F   UNL A   1      43.076  22.710  29.261  1.00  0.00    -0.206 F 
ATOM     89  C   UNL A   1      42.594  20.487  26.453  1.00  0.00     0.060 A 
BRANCH  89  90
ATOM     90  S   UNL A   1      42.253  18.746  26.120  1.00  0.00     0.124 S 
ATOM     91  O   UNL A   1      42.553  18.135  27.409  1.00  0.00    -0.237 OA
ATOM     92  O   UNL A   1      40.845  18.776  25.738  1.00  0.00    -0.237 OA
ATOM     93  O   UNL A   1      43.180  18.426  25.038  1.00  0.00    -0.744 OA
ENDBRANCH  89  90
ENDBRANCH  57  82
BRANCH  69  94
ATOM     94  C   UNL A   1      49.340  26.524  26.506  1.00  0.00     0.058 A 
ATOM     95  C   UNL A   1      49.806  26.726  25.198  1.00  0.00     0.135 A 
ATOM     96  C   UNL A   1      50.209  25.924  27.430  1.00  0.00     0.135 A 
ATOM     97  F   UNL A   1      49.009  27.288  24.277  1.00  0.00    -0.206 F 
ATOM     98  C   UNL A   1      51.081  26.326  24.813  1.00  0.00     0.059 A 
ATOM     99  C   UNL A   1      51.495  25.534  27.073  1.00  0.00     0.059 A 
ATOM    100  F   UNL A   1      49.811  25.716  28.696  1.00  0.00    -0.206 F 
ATOM    101  C   UNL A   1      51.918  25.729  25.758  1.00  0.00     0.060 A 
BRANCH 101 102
ATOM    102  S   UNL A   1      53.578  25.231  25.252  1.00  0.00     0.124 S 
ATOM    103  O   UNL A   1      54.404  25.919  26.239  1.00  0.00    -0.237 OA
ATOM    104  O   UNL A   1      53.521  23.778  25.375  1.00  0.00    -0.237 OA
ATOM    105  O   UNL A   1      53.681  25.734  23.885  1.00  0.00    -0.744 OA
ENDBRANCH 101 102
ENDBRANCH  69  94
ENDBRANCH  43  44
ENDBRANCH  35  38
ENDBRANCH  33  34
ENDBRANCH  32  33
ENDBRANCH   1  32
TORSDOF 17
ENDMDL
MODEL 2
REMARK VINA RESULT:     -12.8      6.181     11.446
REMARK SMILES CC(C)(C(=O)N1C[C@@H]2c3ccccc3OC[C@]2(C(=O)NCCCCNC(=O)c2ccc(-c3c4nc(c(-c5c(F)cc(S(=O)(=O)[O-])cc5F)c5ccc([nH]5)c(-c5c(F)cc(S(=O)(=O)[O-])cc5F)c5nc(c(-c6c(F)cc(S(=O)(=O)[O-])cc6F)c6ccc3[nH]6)C=C5)C=C4)cc2)C1)[NH+]1CCOCC1
REMARK SMILES IDX 22 1 21 2 20 3 18 4 19 5 17 7 6 8 7 9 94 10 8 11 9 12 16 13
REMARK SMILES IDX 10 14 14 15 15 16 11 17 13 18 12 19 4 20 5 21 2 22 1 23 3 24
REMARK SMILES IDX 95 25 96 26 100 27 97 29 99 30 98 31 23 32 24 33 25 34 26 35
REMARK SMILES IDX 27 37 28 38 29 39 93 40 30 41 92 42 31 43 32 44 33 45 86 46
REMARK SMILES IDX 34 47 91 48 85 49 87 50 35 51 90 52 84 53 83 54 36 56 70 57
REMARK SMILES IDX 49 58 69 59 50 60 53 61 68 62 88 63 51 64 52 65 67 67 89 68
REMARK SMILES IDX 54 69 37 70 38 71 47 72 39 73 40 74 46 75 48 76 41 77 42 78
REMARK SMILES IDX 43 79 44 80 45 81 71 82 72 83 81 84 73 85 74 86 80 87 82 88
REMARK SMILES IDX 75 89 76 90 77 91 78 92 79 93 55 94 56 95 65 96 57 97 58 98
REMARK SMILES IDX 64 99 66 100 59 101 60 102 61 103 62 104 63 105
REMARK H PARENT 20 6 95 28 25 36 87 55 53 66
REMARK Flexibility Score: inf
ROOT
ATOM      1  C   UNL A   1      37.623  22.347  25.205  1.00  0.00     0.023 C 
ENDROOT
BRANCH   1   2
ATOM      2  C   UNL A   1      36.299  21.814  25.726  1.00  0.00     0.116 C 
BRANCH   2   3
ATOM      3  N   UNL A   1      35.541  22.693  26.599  1.00  0.00    -0.355 N 
ATOM      4  C   UNL A   1      34.199  22.526  26.887  1.00  0.00     0.232 C 
ATOM      5  O   UNL A   1      33.773  22.873  27.991  1.00  0.00    -0.274 OA
ATOM      6  H   UNL A   1      36.011  23.452  27.011  1.00  0.00     0.163 HD
BRANCH   4   7
ATOM      7  C   UNL A   1      33.322  21.946  25.738  1.00  0.00     0.109 C 
ATOM      8  N   UNL A   1      32.369  23.715  24.308  1.00  0.00    -0.335 N 
ATOM      9  C   UNL A   1      32.084  22.459  23.670  1.00  0.00     0.129 C 
ATOM     10  C   UNL A   1      33.519  23.472  25.171  1.00  0.00     0.141 C 
ATOM     11  C   UNL A   1      33.175  21.519  24.198  1.00  0.00     0.063 C 
ATOM     12  C   UNL A   1      32.797  20.091  23.856  1.00  0.00     0.000 A 
ATOM     13  C   UNL A   1      34.070  20.582  26.127  1.00  0.00     0.249 C 
ATOM     14  C   UNL A   1      32.520  19.677  22.545  1.00  0.00     0.008 A 
ATOM     15  C   UNL A   1      32.789  19.138  24.865  1.00  0.00     0.122 A 
ATOM     16  O   UNL A   1      33.128  19.485  26.134  1.00  0.00    -0.492 OA
ATOM     17  C   UNL A   1      32.205  18.342  22.276  1.00  0.00     0.001 A 
ATOM     18  C   UNL A   1      32.455  17.810  24.613  1.00  0.00     0.047 A 
ATOM     19  C   UNL A   1      32.167  17.409  23.310  1.00  0.00     0.004 A 
BRANCH   8  20
ATOM     20  C   UNL A   1      31.302  24.514  24.736  1.00  0.00     0.283 C 
ATOM     21  O   UNL A   1      30.535  24.042  25.578  1.00  0.00    -0.268 OA
BRANCH  20  22
ATOM     22  C   UNL A   1      31.175  25.999  24.159  1.00  0.00     0.171 C 
ATOM     23  C   UNL A   1      31.445  25.989  22.641  1.00  0.00     0.090 C 
ATOM     24  C   UNL A   1      29.726  26.492  24.372  1.00  0.00     0.090 C 
BRANCH  22  25
ATOM     25  N   UNL A   1      32.225  26.961  24.648  1.00  0.00    -0.319 N 
ATOM     26  C   UNL A   1      32.626  26.982  26.065  1.00  0.00     0.291 C 
ATOM     27  C   UNL A   1      32.229  28.348  24.161  1.00  0.00     0.291 C 
ATOM     28  H   UNL A   1      32.931  26.431  24.138  1.00  0.00     0.349 HD
ATOM     29  C   UNL A   1      31.710  27.891  26.902  1.00  0.00     0.221 C 
ATOM     30  C   UNL A   1      31.367  29.286  25.019  1.00  0.00     0.221 C 
ATOM     31  O   UNL A   1      31.742  29.242  26.403  1.00  0.00    -0.370 OA
ENDBRANCH  22  25
ENDBRANCH  20  22
ENDBRANCH   8  20
ENDBRANCH   4   7
ENDBRANCH   2   3
ENDBRANCH   1   2
BRANCH   1  32
ATOM     32  C   UNL A   1      38.255  23.496  25.984  1.00  0.00     0.023 C 
BRANCH  32  33
ATOM     33  C   UNL A   1      39.453  23.163  26.866  1.00  0.00     0.116 C 
BRANCH  33  34
ATOM     34  N   UNL A   1      40.751  23.468  26.284  1.00  0.00    -0.352 N 
ATOM     35  C   UNL A   1      41.565  24.564  26.476  1.00  0.00     0.251 C 
ATOM     36  H   UNL A   1      41.099  22.790  25.661  1.00  0.00     0.163 HD
ATOM     37  O   UNL A   1      42.634  24.651  25.880  1.00  0.00    -0.269 OA
BRANCH  35  38
ATOM     38  C   UNL A   1      41.110  25.668  27.348  1.00  0.00     0.039 A 
ATOM     39  C   UNL A   1      41.656  26.946  27.229  1.00  0.00     0.014 A 
ATOM     40  C   UNL A   1      40.191  25.389  28.362  1.00  0.00     0.014 A 
ATOM     41  C   UNL A   1      41.467  27.867  28.255  1.00  0.00     0.010 A 
ATOM     42  C   UNL A   1      39.921  26.355  29.336  1.00  0.00     0.010 A 
ATOM     43  C   UNL A   1      40.615  27.574  29.333  1.00  0.00    -0.014 A 
BRANCH  43  44
ATOM     44  C   UNL A   1      40.493  28.536  30.461  1.00  0.00     0.031 A 
ATOM     45  C   UNL A   1      41.472  28.504  31.609  1.00  0.00     0.074 A 
ATOM     46  C   UNL A   1      39.539  29.487  30.420  1.00  0.00     0.049 A 
ATOM     47  N   UNL A   1      41.503  29.245  32.689  1.00  0.00    -0.248 NA
ATOM     48  C   UNL A   1      42.558  27.511  31.539  1.00  0.00     0.031 C 
ATOM     49  C   UNL A   1      38.552  29.644  29.351  1.00  0.00     0.029 A 
ATOM     50  N   UNL A   1      39.260  30.516  31.283  1.00  0.00    -0.354 N 
ATOM     51  C   UNL A   1      42.586  28.792  33.435  1.00  0.00     0.074 A 
ATOM     52  C   UNL A   1      43.178  27.699  32.696  1.00  0.00     0.031 C 
ATOM     53  C   UNL A   1      37.816  30.739  29.589  1.00  0.00     0.029 A 
ATOM     54  C   UNL A   1      38.229  31.320  30.862  1.00  0.00     0.049 A 
ATOM     55  H   UNL A   1      39.752  30.664  32.123  1.00  0.00     0.167 HD
ATOM     56  C   UNL A   1      43.047  29.251  34.624  1.00  0.00     0.037 A 
ATOM     57  C   UNL A   1      37.662  32.396  31.441  1.00  0.00     0.037 A 
ATOM     58  C   UNL A   1      42.473  30.359  35.344  1.00  0.00     0.049 A 
ATOM     59  C   UNL A   1      38.171  32.865  32.771  1.00  0.00     0.074 A 
ATOM     60  C   UNL A   1      42.866  30.895  36.559  1.00  0.00     0.029 A 
ATOM     61  N   UNL A   1      41.392  31.111  34.909  1.00  0.00    -0.354 N 
ATOM     62  N   UNL A   1      39.162  32.389  33.486  1.00  0.00    -0.248 NA
ATOM     63  C   UNL A   1      37.473  34.002  33.384  1.00  0.00     0.031 C 
ATOM     64  C   UNL A   1      42.006  31.954  36.871  1.00  0.00     0.029 A 
ATOM     65  C   UNL A   1      41.100  32.101  35.834  1.00  0.00     0.049 A 
ATOM     66  H   UNL A   1      40.904  30.964  34.067  1.00  0.00     0.167 HD
ATOM     67  C   UNL A   1      39.211  33.172  34.633  1.00  0.00     0.074 A 
ATOM     68  C   UNL A   1      38.162  34.164  34.507  1.00  0.00     0.031 C 
ATOM     69  C   UNL A   1      40.046  33.074  35.697  1.00  0.00     0.037 A 
BRANCH  56  70
ATOM     70  C   UNL A   1      44.228  28.547  35.236  1.00  0.00     0.058 A 
ATOM     71  C   UNL A   1      44.069  27.453  36.101  1.00  0.00     0.135 A 
ATOM     72  C   UNL A   1      45.538  28.939  34.912  1.00  0.00     0.135 A 
ATOM     73  F   UNL A   1      42.839  27.047  36.456  1.00  0.00    -0.206 F 
ATOM     74  C   UNL A   1      45.165  26.784  36.637  1.00  0.00     0.059 A 
ATOM     75  C   UNL A   1      46.648  28.271  35.421  1.00  0.00     0.059 A 
ATOM     76  F   UNL A   1      45.747  29.980  34.091  1.00  0.00    -0.206 F 
ATOM     77  C   UNL A   1      46.451  27.200  36.291  1.00  0.00     0.060 A 
BRANCH  77  78
ATOM     78  S   UNL A   1      47.863  26.315  36.988  1.00  0.00     0.124 S 
ATOM     79  O   UNL A   1      47.217  25.494  38.007  1.00  0.00    -0.237 OA
ATOM     80  O   UNL A   1      48.382  25.594  35.830  1.00  0.00    -0.237 OA
ATOM     81  O   UNL A   1      48.720  27.383  37.493  1.00  0.00    -0.744 OA
ENDBRANCH  77  78
ENDBRANCH  56  70
BRANCH  57  82
ATOM     82  C   UNL A   1      36.545  33.090  30.753  1.00  0.00     0.058 A 
ATOM     83  C   UNL A   1      35.229  32.975  31.222  1.00  0.00     0.135 A 
ATOM     84  C   UNL A   1      36.780  33.929  29.652  1.00  0.00     0.135 A 
ATOM     85  F   UNL A   1      34.957  32.179  32.266  1.00  0.00    -0.206 F 
ATOM     86  C   UNL A   1      34.184  33.674  30.628  1.00  0.00     0.059 A 
ATOM     87  C   UNL A   1      35.756  34.656  29.057  1.00  0.00     0.059 A 
ATOM     88  F   UNL A   1      38.026  34.081  29.176  1.00  0.00    -0.206 F 
ATOM     89  C   UNL A   1      34.459  34.520  29.552  1.00  0.00     0.060 A 
BRANCH  89  90
ATOM     90  S   UNL A   1      33.111  35.494  28.847  1.00  0.00     0.124 S 
ATOM     91  O   UNL A   1      33.842  36.506  28.095  1.00  0.00    -0.237 OA
ATOM     92  O   UNL A   1      32.397  34.499  28.054  1.00  0.00    -0.237 OA
ATOM     93  O   UNL A   1      32.396  35.974  30.026  1.00  0.00    -0.744 OA
ENDBRANCH  89  90
ENDBRANCH  57  82
BRANCH  69  94
ATOM     94  C   UNL A   1      39.860  34.071  36.804  1.00  0.00     0.058 A 
ATOM     95  C   UNL A   1      40.490  35.324  36.772  1.00  0.00     0.135 A 
ATOM     96  C   UNL A   1      39.019  33.782  37.889  1.00  0.00     0.135 A 
ATOM     97  F   UNL A   1      41.310  35.642  35.758  1.00  0.00    -0.206 F 
ATOM     98  C   UNL A   1      40.311  36.251  37.792  1.00  0.00     0.059 A 
ATOM     99  C   UNL A   1      38.809  34.702  38.911  1.00  0.00     0.059 A 
ATOM    100  F   UNL A   1      38.389  32.599  37.961  1.00  0.00    -0.206 F 
ATOM    101  C   UNL A   1      39.470  35.930  38.860  1.00  0.00     0.060 A 
BRANCH 101 102
ATOM    102  S   UNL A   1      39.230  37.148  40.171  1.00  0.00     0.124 S 
ATOM    103  O   UNL A   1      38.463  38.178  39.477  1.00  0.00    -0.237 OA
ATOM    104  O   UNL A   1      38.501  36.386  41.178  1.00  0.00    -0.237 OA
ATOM    105  O   UNL A   1      40.593  37.521  40.539  1.00  0.00    -0.744 OA
ENDBRANCH 101 102
ENDBRANCH  69  94
ENDBRANCH  43  44
ENDBRANCH  35  38
ENDBRANCH  33  34
ENDBRANCH  32  33
ENDBRANCH   1  32
TORSDOF 17
ENDMDL
MODEL 3
REMARK VINA RESULT:     -12.7      1.656      4.142
REMARK SMILES CC(C)(C(=O)N1C[C@@H]2c3ccccc3OC[C@]2(C(=O)NCCCCNC(=O)c2ccc(-c3c4nc(c(-c5c(F)cc(S(=O)(=O)[O-])cc5F)c5ccc([nH]5)c(-c5c(F)cc(S(=O)(=O)[O-])cc5F)c5nc(c(-c6c(F)cc(S(=O)(=O)[O-])cc6F)c6ccc3[nH]6)C=C5)C=C4)cc2)C1)[NH+]1CCOCC1
REMARK SMILES IDX 22 1 21 2 20 3 18 4 19 5 17 7 6 8 7 9 94 10 8 11 9 12 16 13
REMARK SMILES IDX 10 14 14 15 15 16 11 17 13 18 12 19 4 20 5 21 2 22 1 23 3 24
REMARK SMILES IDX 95 25 96 26 100 27 97 29 99 30 98 31 23 32 24 33 25 34 26 35
REMARK SMILES IDX 27 37 28 38 29 39 93 40 30 41 92 42 31 43 32 44 33 45 86 46
REMARK SMILES IDX 34 47 91 48 85 49 87 50 35 51 90 52 84 53 83 54 36 56 70 57
REMARK SMILES IDX 49 58 69 59 50 60 53 61 68 62 88 63 51 64 52 65 67 67 89 68
REMARK SMILES IDX 54 69 37 70 38 71 47 72 39 73 40 74 46 75 48 76 41 77 42 78
REMARK SMILES IDX 43 79 44 80 45 81 71 82 72 83 81 84 73 85 74 86 80 87 82 88
REMARK SMILES IDX 75 89 76 90 77 91 78 92 79 93 55 94 56 95 65 96 57 97 58 98
REMARK SMILES IDX 64 99 66 100 59 101 60 102 61 103 62 104 63 105
REMARK H PARENT 20 6 95 28 25 36 87 55 53 66
REMARK Flexibility Score: inf
ROOT
ATOM      1  C   UNL A   1      34.253  29.468  27.387  1.00  0.00     0.023 C 
ENDROOT
BRANCH   1   2
ATOM      2  C   UNL A   1      33.636  28.792  26.175  1.00  0.00     0.116 C 
BRANCH   2   3
ATOM      3  N   UNL A   1      34.468  28.696  24.988  1.00  0.00    -0.355 N 
ATOM      4  C   UNL A   1      33.977  28.468  23.716  1.00  0.00     0.232 C 
ATOM      5  O   UNL A   1      34.566  28.955  22.748  1.00  0.00    -0.274 OA
ATOM      6  H   UNL A   1      35.441  28.800  25.096  1.00  0.00     0.163 HD
BRANCH   4   7
ATOM      7  C   UNL A   1      32.721  27.552  23.624  1.00  0.00     0.109 C 
ATOM      8  N   UNL A   1      33.240  25.201  24.159  1.00  0.00    -0.335 N 
ATOM      9  C   UNL A   1      31.810  25.303  24.057  1.00  0.00     0.129 C 
ATOM     10  C   UNL A   1      33.717  26.547  24.453  1.00  0.00     0.141 C 
ATOM     11  C   UNL A   1      31.522  26.780  24.360  1.00  0.00     0.063 C 
ATOM     12  C   UNL A   1      30.090  27.088  23.970  1.00  0.00     0.000 A 
ATOM     13  C   UNL A   1      31.944  28.954  23.658  1.00  0.00     0.249 C 
ATOM     14  C   UNL A   1      28.999  26.362  24.470  1.00  0.00     0.008 A 
ATOM     15  C   UNL A   1      29.837  28.171  23.140  1.00  0.00     0.122 A 
ATOM     16  O   UNL A   1      30.863  28.945  22.698  1.00  0.00    -0.492 OA
ATOM     17  C   UNL A   1      27.693  26.703  24.103  1.00  0.00     0.001 A 
ATOM     18  C   UNL A   1      28.544  28.507  22.749  1.00  0.00     0.047 A 
ATOM     19  C   UNL A   1      27.465  27.773  23.239  1.00  0.00     0.004 A 
BRANCH   8  20
ATOM     20  C   UNL A   1      33.925  24.374  23.260  1.00  0.00     0.283 C 
ATOM     21  O   UNL A   1      33.687  24.515  22.058  1.00  0.00    -0.268 OA
BRANCH  20  22
ATOM     22  C   UNL A   1      35.006  23.347  23.832  1.00  0.00     0.171 C 
ATOM     23  C   UNL A   1      36.066  23.056  22.751  1.00  0.00     0.090 C 
ATOM     24  C   UNL A   1      35.729  24.002  25.030  1.00  0.00     0.090 C 
BRANCH  22  25
ATOM     25  N   UNL A   1      34.478  21.965  24.119  1.00  0.00    -0.319 N 
ATOM     26  C   UNL A   1      33.033  21.731  24.281  1.00  0.00     0.291 C 
ATOM     27  C   UNL A   1      35.182  21.098  25.074  1.00  0.00     0.291 C 
ATOM     28  H   UNL A   1      34.730  21.686  23.171  1.00  0.00     0.349 HD
ATOM     29  C   UNL A   1      32.576  21.974  25.728  1.00  0.00     0.221 C 
ATOM     30  C   UNL A   1      34.698  21.283  26.520  1.00  0.00     0.221 C 
ATOM     31  O   UNL A   1      33.278  21.105  26.636  1.00  0.00    -0.370 OA
ENDBRANCH  22  25
ENDBRANCH  20  22
ENDBRANCH   8  20
ENDBRANCH   4   7
ENDBRANCH   2   3
ENDBRANCH   1   2
BRANCH   1  32
ATOM     32  C   UNL A   1      33.883  30.929  27.621  1.00  0.00     0.023 C 
BRANCH  32  33
ATOM     33  C   UNL A   1      34.922  31.811  28.305  1.00  0.00     0.116 C 
BRANCH  33  34
ATOM     34  N   UNL A   1      34.867  31.812  29.759  1.00  0.00    -0.352 N 
ATOM     35  C   UNL A   1      35.763  31.296  30.672  1.00  0.00     0.251 C 
ATOM     36  H   UNL A   1      34.074  32.246  30.148  1.00  0.00     0.163 HD
ATOM     37  O   UNL A   1      35.537  31.385  31.875  1.00  0.00    -0.269 OA
BRANCH  35  38
ATOM     38  C   UNL A   1      36.960  30.573  30.194  1.00  0.00     0.039 A 
ATOM     39  C   UNL A   1      37.674  29.728  31.044  1.00  0.00     0.014 A 
ATOM     40  C   UNL A   1      37.423  30.822  28.900  1.00  0.00     0.014 A 
ATOM     41  C   UNL A   1      38.958  29.329  30.688  1.00  0.00     0.010 A 
ATOM     42  C   UNL A   1      38.672  30.330  28.505  1.00  0.00     0.010 A 
ATOM     43  C   UNL A   1      39.481  29.644  29.422  1.00  0.00    -0.014 A 
BRANCH  43  44
ATOM     44  C   UNL A   1      40.887  29.283  29.093  1.00  0.00     0.031 A 
ATOM     45  C   UNL A   1      42.006  30.272  29.306  1.00  0.00     0.074 A 
ATOM     46  C   UNL A   1      41.166  28.036  28.665  1.00  0.00     0.049 A 
ATOM     47  N   UNL A   1      43.284  30.141  29.049  1.00  0.00    -0.248 NA
ATOM     48  C   UNL A   1      41.648  31.580  29.880  1.00  0.00     0.031 C 
ATOM     49  C   UNL A   1      40.177  26.978  28.449  1.00  0.00     0.029 A 
ATOM     50  N   UNL A   1      42.364  27.438  28.362  1.00  0.00    -0.354 N 
ATOM     51  C   UNL A   1      43.873  31.350  29.401  1.00  0.00     0.074 A 
ATOM     52  C   UNL A   1      42.813  32.213  29.873  1.00  0.00     0.031 C 
ATOM     53  C   UNL A   1      40.811  25.847  28.108  1.00  0.00     0.029 A 
ATOM     54  C   UNL A   1      42.242  26.116  28.009  1.00  0.00     0.049 A 
ATOM     55  H   UNL A   1      43.226  27.912  28.395  1.00  0.00     0.167 HD
ATOM     56  C   UNL A   1      45.180  31.706  29.342  1.00  0.00     0.037 A 
ATOM     57  C   UNL A   1      43.173  25.221  27.630  1.00  0.00     0.037 A 
ATOM     58  C   UNL A   1      46.238  30.834  28.898  1.00  0.00     0.049 A 
ATOM     59  C   UNL A   1      44.608  25.647  27.543  1.00  0.00     0.074 A 
ATOM     60  C   UNL A   1      47.592  31.105  28.798  1.00  0.00     0.029 A 
ATOM     61  N   UNL A   1      46.064  29.519  28.495  1.00  0.00    -0.354 N 
ATOM     62  N   UNL A   1      45.137  26.812  27.830  1.00  0.00    -0.248 NA
ATOM     63  C   UNL A   1      45.569  24.646  27.063  1.00  0.00     0.031 C 
ATOM     64  C   UNL A   1      48.234  29.961  28.308  1.00  0.00     0.029 A 
ATOM     65  C   UNL A   1      47.284  28.967  28.138  1.00  0.00     0.049 A 
ATOM     66  H   UNL A   1      45.201  29.047  28.467  1.00  0.00     0.167 HD
ATOM     67  C   UNL A   1      46.496  26.685  27.568  1.00  0.00     0.074 A 
ATOM     68  C   UNL A   1      46.709  25.323  27.120  1.00  0.00     0.031 C 
ATOM     69  C   UNL A   1      47.477  27.613  27.684  1.00  0.00     0.037 A 
BRANCH  56  70
ATOM     70  C   UNL A   1      45.544  33.107  29.755  1.00  0.00     0.058 A 
ATOM     71  C   UNL A   1      45.906  33.416  31.075  1.00  0.00     0.135 A 
ATOM     72  C   UNL A   1      45.583  34.142  28.806  1.00  0.00     0.135 A 
ATOM     73  F   UNL A   1      45.870  32.468  32.025  1.00  0.00    -0.206 F 
ATOM     74  C   UNL A   1      46.276  34.706  31.445  1.00  0.00     0.059 A 
ATOM     75  C   UNL A   1      45.970  35.434  29.149  1.00  0.00     0.059 A 
ATOM     76  F   UNL A   1      45.246  33.901  27.530  1.00  0.00    -0.206 F 
ATOM     77  C   UNL A   1      46.305  35.708  30.474  1.00  0.00     0.060 A 
BRANCH  77  78
ATOM     78  S   UNL A   1      46.796  37.375  30.968  1.00  0.00     0.124 S 
ATOM     79  O   UNL A   1      46.133  38.187  29.953  1.00  0.00    -0.237 OA
ATOM     80  O   UNL A   1      46.248  37.476  32.317  1.00  0.00    -0.237 OA
ATOM     81  O   UNL A   1      48.253  37.339  30.888  1.00  0.00    -0.744 OA
ENDBRANCH  77  78
ENDBRANCH  56  70
BRANCH  57  82
ATOM     82  C   UNL A   1      42.759  23.833  27.303  1.00  0.00     0.058 A 
ATOM     83  C   UNL A   1      42.571  23.434  25.972  1.00  0.00     0.135 A 
ATOM     84  C   UNL A   1      42.603  22.866  28.308  1.00  0.00     0.135 A 
ATOM     85  F   UNL A   1      42.702  24.326  24.980  1.00  0.00    -0.206 F 
ATOM     86  C   UNL A   1      42.250  22.121  25.648  1.00  0.00     0.059 A 
ATOM     87  C   UNL A   1      42.305  21.542  28.007  1.00  0.00     0.059 A 
ATOM     88  F   UNL A   1      42.786  23.199  29.596  1.00  0.00    -0.206 F 
ATOM     89  C   UNL A   1      42.129  21.179  26.672  1.00  0.00     0.060 A 
BRANCH  89  90
ATOM     90  S   UNL A   1      41.802  19.458  26.234  1.00  0.00     0.124 S 
ATOM     91  O   UNL A   1      40.358  19.473  26.039  1.00  0.00    -0.237 OA
ATOM     92  O   UNL A   1      42.608  19.290  25.029  1.00  0.00    -0.237 OA
ATOM     93  O   UNL A   1      42.276  18.721  27.402  1.00  0.00    -0.744 OA
ENDBRANCH  89  90
ENDBRANCH  57  82
BRANCH  69  94
ATOM     94  C   UNL A   1      48.870  27.183  27.326  1.00  0.00     0.058 A 
ATOM     95  C   UNL A   1      49.730  26.622  28.281  1.00  0.00     0.135 A 
ATOM     96  C   UNL A   1      49.336  27.303  26.008  1.00  0.00     0.135 A 
ATOM     97  F   UNL A   1      49.332  26.494  29.556  1.00  0.00    -0.206 F 
ATOM     98  C   UNL A   1      51.017  26.214  27.948  1.00  0.00     0.059 A 
ATOM     99  C   UNL A   1      50.612  26.883  25.646  1.00  0.00     0.059 A 
ATOM    100  F   UNL A   1      48.547  27.827  25.056  1.00  0.00    -0.206 F 
ATOM    101  C   UNL A   1      51.450  26.351  26.627  1.00  0.00     0.060 A 
BRANCH 101 102
ATOM    102  S   UNL A   1      53.116  25.802  26.201  1.00  0.00     0.124 S 
ATOM    103  O   UNL A   1      53.481  26.756  25.159  1.00  0.00    -0.237 OA
ATOM    104  O   UNL A   1      53.827  25.944  27.467  1.00  0.00    -0.237 OA
ATOM    105  O   UNL A   1      52.915  24.427  25.751  1.00  0.00    -0.744 OA
ENDBRANCH 101 102
ENDBRANCH  69  94
ENDBRANCH  43  44
ENDBRANCH  35  38
ENDBRANCH  33  34
ENDBRANCH  32  33
ENDBRANCH   1  32
TORSDOF 17
ENDMDL
