MODEL 1
REMARK VINA RESULT:     -11.1      0.000      0.000
REMARK SMILES COc1ccc(NS(=O)(=O)c2ccc(CCC(=O)NCCCCNC(=O)c3ccc(-c4c5nc(c(-c6c(F)cc(S(=O)(=O)[O-])cc6F)c6ccc([nH]6)c(-c6c(F)cc(S(=O)(=O)[O-])cc6F)c6nc(c(-c7c(F)cc(S(=O)(=O)[O-])cc7F)c7ccc4[nH]7)C=C6)C=C5)cc3)cc2)cn1
REMARK SMILES IDX 20 1 19 2 17 3 18 4 16 6 15 7 14 8 11 9 12 10 94 11 13 12
REMARK SMILES IDX 93 13 8 14 9 15 10 16 7 17 6 19 3 20 4 21 96 22 5 23 95 24
REMARK SMILES IDX 2 25 1 26 21 27 22 28 23 29 24 30 25 31 26 33 27 34 28 35
REMARK SMILES IDX 92 36 29 37 91 38 30 39 31 40 32 41 85 42 33 43 90 44 84 45
REMARK SMILES IDX 86 46 34 47 89 48 83 49 82 50 35 52 69 53 48 54 68 55 49 56
REMARK SMILES IDX 52 57 67 58 87 59 50 60 51 61 66 63 88 64 53 65 36 66 37 67
REMARK SMILES IDX 46 68 38 69 39 70 45 71 47 72 40 73 41 74 42 75 43 76 44 77
REMARK SMILES IDX 70 78 71 79 80 80 72 81 73 82 79 83 81 84 74 85 75 86 76 87
REMARK SMILES IDX 77 88 78 89 54 90 55 91 64 92 56 93 57 94 63 95 65 96 58 97
REMARK SMILES IDX 59 98 60 99 61 100 62 101
REMARK H PARENT 19 5 7 18 24 32 86 51 52 62
REMARK Flexibility Score: inf
ROOT
ATOM      1  C   UNL A   1      34.186  31.927  28.096  1.00  0.00     0.116 C 
ENDROOT
BRANCH   1   2
ATOM      2  N   UNL A   1      35.570  31.669  27.746  1.00  0.00    -0.356 N 
ATOM      3  C   UNL A   1      36.226  30.476  27.673  1.00  0.00     0.220 C 
ATOM      4  O   UNL A   1      37.458  30.485  27.615  1.00  0.00    -0.275 OA
ATOM      5  H   UNL A   1      36.109  32.465  27.532  1.00  0.00     0.163 HD
BRANCH   3   6
ATOM      6  C   UNL A   1      35.458  29.168  27.612  1.00  0.00     0.105 C 
BRANCH   6   7
ATOM      7  C   UNL A   1      34.532  29.058  26.396  1.00  0.00     0.045 C 
BRANCH   7   8
ATOM      8  C   UNL A   1      33.556  27.905  26.474  1.00  0.00    -0.047 A 
ATOM      9  C   UNL A   1      31.654  25.856  26.312  1.00  0.00     0.087 A 
ATOM     10  C   UNL A   1      31.288  27.109  26.818  1.00  0.00     0.022 A 
ATOM     11  C   UNL A   1      32.977  25.600  25.943  1.00  0.00     0.022 A 
ATOM     12  C   UNL A   1      32.247  28.118  26.928  1.00  0.00     0.005 A 
ATOM     13  C   UNL A   1      33.925  26.625  26.027  1.00  0.00     0.005 A 
BRANCH   9  14
ATOM     14  S   UNL A   1      30.388  24.664  25.941  1.00  0.00     0.261 S 
ATOM     15  O   UNL A   1      29.155  25.161  26.514  1.00  0.00    -0.201 OA
ATOM     16  O   UNL A   1      30.898  23.351  26.267  1.00  0.00    -0.201 OA
BRANCH  14  17
ATOM     17  N   UNL A   1      30.176  24.731  24.254  1.00  0.00    -0.278 N 
ATOM     18  H   UNL A   1      30.126  23.914  23.705  1.00  0.00     0.180 HD
BRANCH  17  19
ATOM     19  C   UNL A   1      30.074  26.033  23.674  1.00  0.00     0.067 A 
ATOM     20  C   UNL A   1      29.943  28.441  22.398  1.00  0.00     0.213 A 
ATOM     21  C   UNL A   1      28.897  28.075  23.232  1.00  0.00     0.070 A 
ATOM     22  N   UNL A   1      31.014  27.661  22.149  1.00  0.00    -0.220 NA
ATOM     23  C   UNL A   1      28.966  26.845  23.888  1.00  0.00     0.034 A 
ATOM     24  C   UNL A   1      31.056  26.478  22.794  1.00  0.00     0.141 A 
BRANCH  20  25
ATOM     25  O   UNL A   1      29.835  29.636  21.727  1.00  0.00    -0.481 OA
ATOM     26  C   UNL A   1      28.487  30.095  21.690  1.00  0.00     0.280 C 
ENDBRANCH  20  25
ENDBRANCH  17  19
ENDBRANCH  14  17
ENDBRANCH   9  14
ENDBRANCH   7   8
ENDBRANCH   6   7
ENDBRANCH   3   6
ENDBRANCH   1   2
BRANCH   1  27
ATOM     27  C   UNL A   1      33.930  33.427  28.117  1.00  0.00     0.023 C 
BRANCH  27  28
ATOM     28  C   UNL A   1      33.786  34.063  29.484  1.00  0.00     0.023 C 
BRANCH  28  29
ATOM     29  C   UNL A   1      33.628  35.570  29.441  1.00  0.00     0.116 C 
BRANCH  29  30
ATOM     30  N   UNL A   1      32.718  36.107  30.450  1.00  0.00    -0.352 N 
ATOM     31  C   UNL A   1      32.734  35.939  31.818  1.00  0.00     0.251 C 
ATOM     32  H   UNL A   1      31.989  36.672  30.104  1.00  0.00     0.163 HD
ATOM     33  O   UNL A   1      31.858  36.423  32.526  1.00  0.00    -0.269 OA
BRANCH  31  34
ATOM     34  C   UNL A   1      33.816  35.148  32.431  1.00  0.00     0.039 A 
ATOM     35  C   UNL A   1      33.553  33.858  32.900  1.00  0.00     0.014 A 
ATOM     36  C   UNL A   1      35.107  35.668  32.480  1.00  0.00     0.014 A 
ATOM     37  C   UNL A   1      34.611  33.063  33.344  1.00  0.00     0.010 A 
ATOM     38  C   UNL A   1      36.165  34.829  32.770  1.00  0.00     0.010 A 
ATOM     39  C   UNL A   1      35.931  33.527  33.240  1.00  0.00    -0.014 A 
BRANCH  39  40
ATOM     40  C   UNL A   1      37.104  32.734  33.684  1.00  0.00     0.031 A 
ATOM     41  C   UNL A   1      37.789  33.125  34.970  1.00  0.00     0.074 A 
ATOM     42  C   UNL A   1      37.619  31.768  32.899  1.00  0.00     0.049 A 
ATOM     43  N   UNL A   1      38.952  32.755  35.437  1.00  0.00    -0.248 NA
ATOM     44  C   UNL A   1      37.102  34.127  35.806  1.00  0.00     0.031 C 
ATOM     45  C   UNL A   1      37.082  31.341  31.604  1.00  0.00     0.029 A 
ATOM     46  N   UNL A   1      38.729  30.982  33.070  1.00  0.00    -0.354 N 
ATOM     47  C   UNL A   1      39.158  33.526  36.576  1.00  0.00     0.074 A 
ATOM     48  C   UNL A   1      38.039  34.432  36.687  1.00  0.00     0.031 C 
ATOM     49  C   UNL A   1      37.846  30.350  31.115  1.00  0.00     0.029 A 
ATOM     50  C   UNL A   1      38.951  30.105  32.035  1.00  0.00     0.049 A 
ATOM     51  H   UNL A   1      39.314  31.040  33.860  1.00  0.00     0.167 HD
ATOM     52  C   UNL A   1      40.171  33.460  37.472  1.00  0.00     0.037 A 
ATOM     53  C   UNL A   1      39.941  29.208  31.853  1.00  0.00     0.037 A 
ATOM     54  C   UNL A   1      41.225  32.486  37.399  1.00  0.00     0.049 A 
ATOM     55  C   UNL A   1      41.010  29.088  32.906  1.00  0.00     0.074 A 
ATOM     56  C   UNL A   1      42.257  32.262  38.291  1.00  0.00     0.029 A 
ATOM     57  N   UNL A   1      41.361  31.550  36.381  1.00  0.00    -0.354 N 
ATOM     58  N   UNL A   1      41.176  29.799  33.996  1.00  0.00    -0.248 NA
ATOM     59  C   UNL A   1      42.019  28.039  32.712  1.00  0.00     0.031 C 
ATOM     60  C   UNL A   1      43.029  31.202  37.803  1.00  0.00     0.029 A 
ATOM     61  C   UNL A   1      42.455  30.742  36.628  1.00  0.00     0.049 A 
ATOM     62  H   UNL A   1      40.765  31.475  35.601  1.00  0.00     0.167 HD
ATOM     63  C   UNL A   1      42.287  29.261  34.637  1.00  0.00     0.074 A 
ATOM     64  C   UNL A   1      42.748  28.162  33.813  1.00  0.00     0.031 C 
ATOM     65  C   UNL A   1      42.873  29.639  35.800  1.00  0.00     0.037 A 
BRANCH  52  66
ATOM     66  C   UNL A   1      40.162  34.446  38.609  1.00  0.00     0.058 A 
ATOM     67  C   UNL A   1      39.385  34.239  39.762  1.00  0.00     0.135 A 
ATOM     68  C   UNL A   1      40.935  35.616  38.546  1.00  0.00     0.135 A 
ATOM     69  F   UNL A   1      38.611  33.147  39.870  1.00  0.00    -0.206 F 
ATOM     70  C   UNL A   1      39.336  35.178  40.786  1.00  0.00     0.059 A 
ATOM     71  C   UNL A   1      40.930  36.552  39.576  1.00  0.00     0.059 A 
ATOM     72  F   UNL A   1      41.696  35.867  37.469  1.00  0.00    -0.206 F 
ATOM     73  C   UNL A   1      40.111  36.335  40.682  1.00  0.00     0.060 A 
BRANCH  73  74
ATOM     74  S   UNL A   1      40.034  37.545  42.019  1.00  0.00     0.124 S 
ATOM     75  O   UNL A   1      39.166  38.565  41.437  1.00  0.00    -0.237 OA
ATOM     76  O   UNL A   1      39.455  36.771  43.112  1.00  0.00    -0.237 OA
ATOM     77  O   UNL A   1      41.428  37.937  42.203  1.00  0.00    -0.744 OA
ENDBRANCH  73  74
ENDBRANCH  52  66
BRANCH  53  78
ATOM     78  C   UNL A   1      39.934  28.323  30.658  1.00  0.00     0.058 A 
ATOM     79  C   UNL A   1      40.787  28.580  29.573  1.00  0.00     0.135 A 
ATOM     80  C   UNL A   1      39.102  27.196  30.579  1.00  0.00     0.135 A 
ATOM     81  F   UNL A   1      41.600  29.647  29.600  1.00  0.00    -0.206 F 
ATOM     82  C   UNL A   1      40.805  27.765  28.447  1.00  0.00     0.059 A 
ATOM     83  C   UNL A   1      39.118  26.351  29.472  1.00  0.00     0.059 A 
ATOM     84  F   UNL A   1      38.282  26.894  31.597  1.00  0.00    -0.206 F 
ATOM     85  C   UNL A   1      39.967  26.649  28.407  1.00  0.00     0.060 A 
BRANCH  85  86
ATOM     86  S   UNL A   1      40.037  25.568  26.961  1.00  0.00     0.124 S 
ATOM     87  O   UNL A   1      40.582  26.466  25.949  1.00  0.00    -0.237 OA
ATOM     88  O   UNL A   1      40.924  24.503  27.416  1.00  0.00    -0.237 OA
ATOM     89  O   UNL A   1      38.644  25.174  26.770  1.00  0.00    -0.744 OA
ENDBRANCH  85  86
ENDBRANCH  53  78
BRANCH  65  90
ATOM     90  C   UNL A   1      44.038  28.823  36.281  1.00  0.00     0.058 A 
ATOM     91  C   UNL A   1      45.361  29.264  36.134  1.00  0.00     0.135 A 
ATOM     92  C   UNL A   1      43.818  27.608  36.950  1.00  0.00     0.135 A 
ATOM     93  F   UNL A   1      45.623  30.417  35.499  1.00  0.00    -0.206 F 
ATOM     94  C   UNL A   1      46.431  28.516  36.614  1.00  0.00     0.059 A 
ATOM     95  C   UNL A   1      44.870  26.857  37.462  1.00  0.00     0.059 A 
ATOM     96  F   UNL A   1      42.569  27.150  37.128  1.00  0.00    -0.206 F 
ATOM     97  C   UNL A   1      46.174  27.314  37.277  1.00  0.00     0.060 A 
BRANCH  97  98
ATOM     98  S   UNL A   1      47.568  26.367  37.924  1.00  0.00     0.124 S 
ATOM     99  O   UNL A   1      47.469  26.642  39.354  1.00  0.00    -0.237 OA
ATOM    100  O   UNL A   1      47.239  25.005  37.515  1.00  0.00    -0.237 OA
ATOM    101  O   UNL A   1      48.720  26.957  37.249  1.00  0.00    -0.744 OA
ENDBRANCH  97  98
ENDBRANCH  65  90
ENDBRANCH  39  40
ENDBRANCH  31  34
ENDBRANCH  29  30
ENDBRANCH  28  29
ENDBRANCH  27  28
ENDBRANCH   1  27
TORSDOF 20
ENDMDL
MODEL 2
REMARK VINA RESULT:     -11.0      1.774      2.964
REMARK SMILES COc1ccc(NS(=O)(=O)c2ccc(CCC(=O)NCCCCNC(=O)c3ccc(-c4c5nc(c(-c6c(F)cc(S(=O)(=O)[O-])cc6F)c6ccc([nH]6)c(-c6c(F)cc(S(=O)(=O)[O-])cc6F)c6nc(c(-c7c(F)cc(S(=O)(=O)[O-])cc7F)c7ccc4[nH]7)C=C6)C=C5)cc3)cc2)cn1
REMARK SMILES IDX 20 1 19 2 17 3 18 4 16 6 15 7 14 8 11 9 12 10 94 11 13 12
REMARK SMILES IDX 93 13 8 14 9 15 10 16 7 17 6 19 3 20 4 21 96 22 5 23 95 24
REMARK SMILES IDX 2 25 1 26 21 27 22 28 23 29 24 30 25 31 26 33 27 34 28 35
REMARK SMILES IDX 92 36 29 37 91 38 30 39 31 40 32 41 85 42 33 43 90 44 84 45
REMARK SMILES IDX 86 46 34 47 89 48 83 49 82 50 35 52 69 53 48 54 68 55 49 56
REMARK SMILES IDX 52 57 67 58 87 59 50 60 51 61 66 63 88 64 53 65 36 66 37 67
REMARK SMILES IDX 46 68 38 69 39 70 45 71 47 72 40 73 41 74 42 75 43 76 44 77
REMARK SMILES IDX 70 78 71 79 80 80 72 81 73 82 79 83 81 84 74 85 75 86 76 87
REMARK SMILES IDX 77 88 78 89 54 90 55 91 64 92 56 93 57 94 63 95 65 96 58 97
REMARK SMILES IDX 59 98 60 99 61 100 62 101
REMARK H PARENT 19 5 7 18 24 32 86 51 52 62
REMARK Flexibility Score: inf
ROOT
ATOM      1  C   UNL A   1      34.597  31.783  29.357  1.00  0.00     0.116 C 
ENDROOT
BRANCH   1   2
ATOM      2  N   UNL A   1      35.190  30.751  28.527  1.00  0.00    -0.356 N 
ATOM      3  C   UNL A   1      34.619  30.032  27.518  1.00  0.00     0.220 C 
ATOM      4  O   UNL A   1      35.202  29.026  27.109  1.00  0.00    -0.275 OA
ATOM      5  H   UNL A   1      36.132  30.541  28.718  1.00  0.00     0.163 HD
BRANCH   3   6
ATOM      6  C   UNL A   1      33.321  30.489  26.875  1.00  0.00     0.105 C 
BRANCH   6   7
ATOM      7  C   UNL A   1      32.113  29.623  27.253  1.00  0.00     0.045 C 
BRANCH   7   8
ATOM      8  C   UNL A   1      31.773  28.568  26.223  1.00  0.00    -0.047 A 
ATOM      9  C   UNL A   1      31.457  26.509  24.353  1.00  0.00     0.087 A 
ATOM     10  C   UNL A   1      31.898  27.769  23.934  1.00  0.00     0.022 A 
ATOM     11  C   UNL A   1      31.116  26.286  25.690  1.00  0.00     0.022 A 
ATOM     12  C   UNL A   1      32.022  28.804  24.864  1.00  0.00     0.005 A 
ATOM     13  C   UNL A   1      31.273  27.317  26.620  1.00  0.00     0.005 A 
BRANCH   9  14
ATOM     14  S   UNL A   1      31.540  25.138  23.223  1.00  0.00     0.261 S 
ATOM     15  O   UNL A   1      31.776  25.688  21.905  1.00  0.00    -0.201 OA
ATOM     16  O   UNL A   1      30.416  24.268  23.489  1.00  0.00    -0.201 OA
BRANCH  14  17
ATOM     17  N   UNL A   1      32.957  24.290  23.633  1.00  0.00    -0.278 N 
ATOM     18  H   UNL A   1      33.835  24.734  23.668  1.00  0.00     0.180 HD
BRANCH  17  19
ATOM     19  C   UNL A   1      32.806  22.899  23.927  1.00  0.00     0.067 A 
ATOM     20  C   UNL A   1      32.405  20.296  24.640  1.00  0.00     0.213 A 
ATOM     21  C   UNL A   1      32.326  20.635  23.297  1.00  0.00     0.070 A 
ATOM     22  N   UNL A   1      32.636  21.185  25.627  1.00  0.00    -0.220 NA
ATOM     23  C   UNL A   1      32.536  21.966  22.932  1.00  0.00     0.034 A 
ATOM     24  C   UNL A   1      32.834  22.463  25.248  1.00  0.00     0.141 A 
BRANCH  20  25
ATOM     25  O   UNL A   1      32.153  18.990  24.983  1.00  0.00    -0.481 OA
ATOM     26  C   UNL A   1      32.537  18.093  23.945  1.00  0.00     0.280 C 
ENDBRANCH  20  25
ENDBRANCH  17  19
ENDBRANCH  14  17
ENDBRANCH   9  14
ENDBRANCH   7   8
ENDBRANCH   6   7
ENDBRANCH   3   6
ENDBRANCH   1   2
BRANCH   1  27
ATOM     27  C   UNL A   1      34.929  33.155  28.789  1.00  0.00     0.023 C 
BRANCH  27  28
ATOM     28  C   UNL A   1      33.756  34.082  28.546  1.00  0.00     0.023 C 
BRANCH  28  29
ATOM     29  C   UNL A   1      33.975  35.490  29.062  1.00  0.00     0.116 C 
BRANCH  29  30
ATOM     30  N   UNL A   1      32.978  35.936  30.033  1.00  0.00    -0.352 N 
ATOM     31  C   UNL A   1      32.910  35.697  31.388  1.00  0.00     0.251 C 
ATOM     32  H   UNL A   1      32.249  36.488  29.666  1.00  0.00     0.163 HD
ATOM     33  O   UNL A   1      31.970  36.106  32.058  1.00  0.00    -0.269 OA
BRANCH  31  34
ATOM     34  C   UNL A   1      33.984  34.918  32.033  1.00  0.00     0.039 A 
ATOM     35  C   UNL A   1      33.728  33.619  32.478  1.00  0.00     0.014 A 
ATOM     36  C   UNL A   1      35.262  35.462  32.136  1.00  0.00     0.014 A 
ATOM     37  C   UNL A   1      34.783  32.839  32.954  1.00  0.00     0.010 A 
ATOM     38  C   UNL A   1      36.325  34.638  32.456  1.00  0.00     0.010 A 
ATOM     39  C   UNL A   1      36.097  33.328  32.904  1.00  0.00    -0.014 A 
BRANCH  39  40
ATOM     40  C   UNL A   1      37.268  32.552  33.383  1.00  0.00     0.031 A 
ATOM     41  C   UNL A   1      37.894  32.937  34.701  1.00  0.00     0.074 A 
ATOM     42  C   UNL A   1      37.832  31.607  32.606  1.00  0.00     0.049 A 
ATOM     43  N   UNL A   1      39.045  32.584  35.208  1.00  0.00    -0.248 NA
ATOM     44  C   UNL A   1      37.154  33.914  35.521  1.00  0.00     0.031 C 
ATOM     45  C   UNL A   1      37.355  31.188  31.286  1.00  0.00     0.029 A 
ATOM     46  N   UNL A   1      38.950  30.840  32.810  1.00  0.00    -0.354 N 
ATOM     47  C   UNL A   1      39.190  33.343  36.365  1.00  0.00     0.074 A 
ATOM     48  C   UNL A   1      38.050  34.225  36.443  1.00  0.00     0.031 C 
ATOM     49  C   UNL A   1      38.157  30.219  30.814  1.00  0.00     0.029 A 
ATOM     50  C   UNL A   1      39.230  29.982  31.774  1.00  0.00     0.049 A 
ATOM     51  H   UNL A   1      39.502  30.898  33.624  1.00  0.00     0.167 HD
ATOM     52  C   UNL A   1      40.168  33.284  37.298  1.00  0.00     0.037 A 
ATOM     53  C   UNL A   1      40.244  29.108  31.619  1.00  0.00     0.037 A 
ATOM     54  C   UNL A   1      41.244  32.332  37.254  1.00  0.00     0.049 A 
ATOM     55  C   UNL A   1      41.273  28.994  32.712  1.00  0.00     0.074 A 
ATOM     56  C   UNL A   1      42.244  32.116  38.183  1.00  0.00     0.029 A 
ATOM     57  N   UNL A   1      41.438  31.413  36.231  1.00  0.00    -0.354 N 
ATOM     58  N   UNL A   1      41.382  29.693  33.817  1.00  0.00    -0.248 NA
ATOM     59  C   UNL A   1      42.309  27.967  32.544  1.00  0.00     0.031 C 
ATOM     60  C   UNL A   1      43.056  31.078  37.712  1.00  0.00     0.029 A 
ATOM     61  C   UNL A   1      42.538  30.623  36.509  1.00  0.00     0.049 A 
ATOM     62  H   UNL A   1      40.875  31.337  35.426  1.00  0.00     0.167 HD
ATOM     63  C   UNL A   1      42.478  29.167  34.494  1.00  0.00     0.074 A 
ATOM     64  C   UNL A   1      42.993  28.089  33.674  1.00  0.00     0.031 C 
ATOM     65  C   UNL A   1      43.010  29.540  35.684  1.00  0.00     0.037 A 
BRANCH  52  66
ATOM     66  C   UNL A   1      40.095  34.254  38.447  1.00  0.00     0.058 A 
ATOM     67  C   UNL A   1      40.638  35.547  38.360  1.00  0.00     0.135 A 
ATOM     68  C   UNL A   1      39.479  33.887  39.654  1.00  0.00     0.135 A 
ATOM     69  F   UNL A   1      41.257  35.946  37.237  1.00  0.00    -0.206 F 
ATOM     70  C   UNL A   1      40.618  36.421  39.441  1.00  0.00     0.059 A 
ATOM     71  C   UNL A   1      39.414  34.759  40.736  1.00  0.00     0.059 A 
ATOM     72  F   UNL A   1      38.942  32.664  39.795  1.00  0.00    -0.206 F 
ATOM     73  C   UNL A   1      40.005  36.017  40.627  1.00  0.00     0.060 A 
BRANCH  73  74
ATOM     74  S   UNL A   1      39.990  37.162  42.022  1.00  0.00     0.124 S 
ATOM     75  O   UNL A   1      39.278  38.303  41.454  1.00  0.00    -0.237 OA
ATOM     76  O   UNL A   1      39.267  36.408  43.040  1.00  0.00    -0.237 OA
ATOM     77  O   UNL A   1      41.407  37.379  42.298  1.00  0.00    -0.744 OA
ENDBRANCH  73  74
ENDBRANCH  52  66
BRANCH  53  78
ATOM     78  C   UNL A   1      40.302  28.239  30.413  1.00  0.00     0.058 A 
ATOM     79  C   UNL A   1      39.417  27.159  30.266  1.00  0.00     0.135 A 
ATOM     80  C   UNL A   1      41.217  28.478  29.376  1.00  0.00     0.135 A 
ATOM     81  F   UNL A   1      38.526  26.889  31.231  1.00  0.00    -0.206 F 
ATOM     82  C   UNL A   1      39.448  26.337  29.145  1.00  0.00     0.059 A 
ATOM     83  C   UNL A   1      41.251  27.683  28.233  1.00  0.00     0.059 A 
ATOM     84  F   UNL A   1      42.071  29.510  29.457  1.00  0.00    -0.206 F 
ATOM     85  C   UNL A   1      40.368  26.608  28.131  1.00  0.00     0.060 A 
BRANCH  85  86
ATOM     86  S   UNL A   1      40.361  25.564  26.657  1.00  0.00     0.124 S 
ATOM     87  O   UNL A   1      40.808  26.500  25.632  1.00  0.00    -0.237 OA
ATOM     88  O   UNL A   1      41.308  24.514  27.020  1.00  0.00    -0.237 OA
ATOM     89  O   UNL A   1      38.969  25.135  26.557  1.00  0.00    -0.744 OA
ENDBRANCH  85  86
ENDBRANCH  53  78
BRANCH  65  90
ATOM     90  C   UNL A   1      44.171  28.740  36.200  1.00  0.00     0.058 A 
ATOM     91  C   UNL A   1      45.497  29.146  35.996  1.00  0.00     0.135 A 
ATOM     92  C   UNL A   1      43.945  27.580  36.958  1.00  0.00     0.135 A 
ATOM     93  F   UNL A   1      45.765  30.246  35.275  1.00  0.00    -0.206 F 
ATOM     94  C   UNL A   1      46.565  28.416  36.508  1.00  0.00     0.059 A 
ATOM     95  C   UNL A   1      44.995  26.849  37.503  1.00  0.00     0.059 A 
ATOM     96  F   UNL A   1      42.693  27.157  37.192  1.00  0.00    -0.206 F 
ATOM     97  C   UNL A   1      46.302  27.269  37.260  1.00  0.00     0.060 A 
BRANCH  97  98
ATOM     98  S   UNL A   1      47.694  26.347  37.947  1.00  0.00     0.124 S 
ATOM     99  O   UNL A   1      48.249  27.313  38.888  1.00  0.00    -0.237 OA
ATOM    100  O   UNL A   1      47.039  25.185  38.542  1.00  0.00    -0.237 OA
ATOM    101  O   UNL A   1      48.521  26.061  36.778  1.00  0.00    -0.744 OA
ENDBRANCH  97  98
ENDBRANCH  65  90
ENDBRANCH  39  40
ENDBRANCH  31  34
ENDBRANCH  29  30
ENDBRANCH  28  29
ENDBRANCH  27  28
ENDBRANCH   1  27
TORSDOF 20
ENDMDL
MODEL 3
REMARK VINA RESULT:     -11.0      6.737      9.298
REMARK SMILES COc1ccc(NS(=O)(=O)c2ccc(CCC(=O)NCCCCNC(=O)c3ccc(-c4c5nc(c(-c6c(F)cc(S(=O)(=O)[O-])cc6F)c6ccc([nH]6)c(-c6c(F)cc(S(=O)(=O)[O-])cc6F)c6nc(c(-c7c(F)cc(S(=O)(=O)[O-])cc7F)c7ccc4[nH]7)C=C6)C=C5)cc3)cc2)cn1
REMARK SMILES IDX 20 1 19 2 17 3 18 4 16 6 15 7 14 8 11 9 12 10 94 11 13 12
REMARK SMILES IDX 93 13 8 14 9 15 10 16 7 17 6 19 3 20 4 21 96 22 5 23 95 24
REMARK SMILES IDX 2 25 1 26 21 27 22 28 23 29 24 30 25 31 26 33 27 34 28 35
REMARK SMILES IDX 92 36 29 37 91 38 30 39 31 40 32 41 85 42 33 43 90 44 84 45
REMARK SMILES IDX 86 46 34 47 89 48 83 49 82 50 35 52 69 53 48 54 68 55 49 56
REMARK SMILES IDX 52 57 67 58 87 59 50 60 51 61 66 63 88 64 53 65 36 66 37 67
REMARK SMILES IDX 46 68 38 69 39 70 45 71 47 72 40 73 41 74 42 75 43 76 44 77
REMARK SMILES IDX 70 78 71 79 80 80 72 81 73 82 79 83 81 84 74 85 75 86 76 87
REMARK SMILES IDX 77 88 78 89 54 90 55 91 64 92 56 93 57 94 63 95 65 96 58 97
REMARK SMILES IDX 59 98 60 99 61 100 62 101
REMARK H PARENT 19 5 7 18 24 32 86 51 52 62
REMARK Flexibility Score: inf
ROOT
ATOM      1  C   UNL A   1      35.315  33.020  28.260  1.00  0.00     0.116 C 
ENDROOT
BRANCH   1   2
ATOM      2  N   UNL A   1      33.920  33.360  28.056  1.00  0.00    -0.356 N 
ATOM      3  C   UNL A   1      32.949  32.644  27.420  1.00  0.00     0.220 C 
ATOM      4  O   UNL A   1      31.896  33.214  27.124  1.00  0.00    -0.275 OA
ATOM      5  H   UNL A   1      33.635  34.226  28.427  1.00  0.00     0.163 HD
BRANCH   3   6
ATOM      6  C   UNL A   1      33.136  31.166  27.129  1.00  0.00     0.105 C 
BRANCH   6   7
ATOM      7  C   UNL A   1      31.876  30.484  26.583  1.00  0.00     0.045 C 
BRANCH   7   8
ATOM      8  C   UNL A   1      32.150  29.495  25.472  1.00  0.00    -0.047 A 
ATOM      9  C   UNL A   1      32.596  27.426  23.639  1.00  0.00     0.087 A 
ATOM     10  C   UNL A   1      33.658  27.922  24.402  1.00  0.00     0.022 A 
ATOM     11  C   UNL A   1      31.324  27.997  23.740  1.00  0.00     0.022 A 
ATOM     12  C   UNL A   1      33.439  28.977  25.291  1.00  0.00     0.005 A 
ATOM     13  C   UNL A   1      31.105  29.031  24.655  1.00  0.00     0.005 A 
BRANCH   9  14
ATOM     14  S   UNL A   1      32.821  25.932  22.701  1.00  0.00     0.261 S 
ATOM     15  O   UNL A   1      33.647  26.267  21.560  1.00  0.00    -0.201 OA
ATOM     16  O   UNL A   1      31.529  25.303  22.541  1.00  0.00    -0.201 OA
BRANCH  14  17
ATOM     17  N   UNL A   1      33.771  24.915  23.681  1.00  0.00    -0.278 N 
ATOM     18  H   UNL A   1      34.667  25.182  23.989  1.00  0.00     0.180 HD
BRANCH  17  19
ATOM     19  C   UNL A   1      33.199  23.654  24.034  1.00  0.00     0.067 A 
ATOM     20  C   UNL A   1      32.265  21.159  24.627  1.00  0.00     0.213 A 
ATOM     21  C   UNL A   1      32.176  22.148  25.596  1.00  0.00     0.070 A 
ATOM     22  N   UNL A   1      32.820  21.345  23.412  1.00  0.00    -0.220 NA
ATOM     23  C   UNL A   1      32.649  23.425  25.291  1.00  0.00     0.034 A 
ATOM     24  C   UNL A   1      33.271  22.587  23.144  1.00  0.00     0.141 A 
BRANCH  20  25
ATOM     25  O   UNL A   1      31.834  19.898  24.961  1.00  0.00    -0.481 OA
ATOM     26  C   UNL A   1      32.857  18.926  24.764  1.00  0.00     0.280 C 
ENDBRANCH  20  25
ENDBRANCH  17  19
ENDBRANCH  14  17
ENDBRANCH   9  14
ENDBRANCH   7   8
ENDBRANCH   6   7
ENDBRANCH   3   6
ENDBRANCH   1   2
BRANCH   1  27
ATOM     27  C   UNL A   1      35.963  34.036  29.190  1.00  0.00     0.023 C 
BRANCH  27  28
ATOM     28  C   UNL A   1      37.440  33.845  29.466  1.00  0.00     0.023 C 
BRANCH  28  29
ATOM     29  C   UNL A   1      37.730  33.200  30.807  1.00  0.00     0.116 C 
BRANCH  29  30
ATOM     30  N   UNL A   1      36.761  32.181  31.205  1.00  0.00    -0.352 N 
ATOM     31  C   UNL A   1      36.842  30.809  31.097  1.00  0.00     0.251 C 
ATOM     32  H   UNL A   1      35.930  32.523  31.609  1.00  0.00     0.163 HD
ATOM     33  O   UNL A   1      35.909  30.091  31.437  1.00  0.00    -0.269 OA
BRANCH  31  34
ATOM     34  C   UNL A   1      38.069  30.205  30.547  1.00  0.00     0.039 A 
ATOM     35  C   UNL A   1      38.286  30.210  29.167  1.00  0.00     0.014 A 
ATOM     36  C   UNL A   1      39.030  29.689  31.412  1.00  0.00     0.014 A 
ATOM     37  C   UNL A   1      39.512  29.768  28.665  1.00  0.00     0.010 A 
ATOM     38  C   UNL A   1      40.293  29.403  30.928  1.00  0.00     0.010 A 
ATOM     39  C   UNL A   1      40.541  29.403  29.547  1.00  0.00    -0.014 A 
BRANCH  39  40
ATOM     40  C   UNL A   1      41.871  28.933  29.086  1.00  0.00     0.031 A 
ATOM     41  C   UNL A   1      42.994  29.936  28.997  1.00  0.00     0.074 A 
ATOM     42  C   UNL A   1      42.040  27.672  28.644  1.00  0.00     0.049 A 
ATOM     43  N   UNL A   1      44.155  29.832  28.405  1.00  0.00    -0.248 NA
ATOM     44  C   UNL A   1      42.743  31.262  29.590  1.00  0.00     0.031 C 
ATOM     45  C   UNL A   1      41.013  26.628  28.623  1.00  0.00     0.029 A 
ATOM     46  N   UNL A   1      43.142  27.060  28.104  1.00  0.00    -0.354 N 
ATOM     47  C   UNL A   1      44.735  31.092  28.499  1.00  0.00     0.074 A 
ATOM     48  C   UNL A   1      43.771  31.960  29.136  1.00  0.00     0.031 C 
ATOM     49  C   UNL A   1      41.543  25.497  28.126  1.00  0.00     0.029 A 
ATOM     50  C   UNL A   1      42.929  25.749  27.750  1.00  0.00     0.049 A 
ATOM     51  H   UNL A   1      44.006  27.517  27.981  1.00  0.00     0.167 HD
ATOM     52  C   UNL A   1      45.975  31.484  28.123  1.00  0.00     0.037 A 
ATOM     53  C   UNL A   1      43.764  24.857  27.181  1.00  0.00     0.037 A 
ATOM     54  C   UNL A   1      46.955  30.584  27.580  1.00  0.00     0.049 A 
ATOM     55  C   UNL A   1      45.168  25.288  26.852  1.00  0.00     0.074 A 
ATOM     56  C   UNL A   1      48.270  30.842  27.242  1.00  0.00     0.029 A 
ATOM     57  N   UNL A   1      46.729  29.238  27.325  1.00  0.00    -0.354 N 
ATOM     58  N   UNL A   1      45.717  26.473  26.977  1.00  0.00    -0.248 NA
ATOM     59  C   UNL A   1      46.070  24.261  26.316  1.00  0.00     0.031 C 
ATOM     60  C   UNL A   1      48.835  29.655  26.764  1.00  0.00     0.029 A 
ATOM     61  C   UNL A   1      47.883  28.650  26.841  1.00  0.00     0.049 A 
ATOM     62  H   UNL A   1      45.873  28.772  27.468  1.00  0.00     0.167 HD
ATOM     63  C   UNL A   1      47.038  26.327  26.568  1.00  0.00     0.074 A 
ATOM     64  C   UNL A   1      47.206  24.936  26.198  1.00  0.00     0.031 C 
ATOM     65  C   UNL A   1      48.024  27.256  26.506  1.00  0.00     0.037 A 
BRANCH  52  66
ATOM     66  C   UNL A   1      46.336  32.933  28.313  1.00  0.00     0.058 A 
ATOM     67  C   UNL A   1      46.898  33.404  29.512  1.00  0.00     0.135 A 
ATOM     68  C   UNL A   1      46.114  33.866  27.288  1.00  0.00     0.135 A 
ATOM     69  F   UNL A   1      47.115  32.561  30.535  1.00  0.00    -0.206 F 
ATOM     70  C   UNL A   1      47.180  34.752  29.706  1.00  0.00     0.059 A 
ATOM     71  C   UNL A   1      46.423  35.214  27.446  1.00  0.00     0.059 A 
ATOM     72  F   UNL A   1      45.580  33.474  26.121  1.00  0.00    -0.206 F 
ATOM     73  C   UNL A   1      46.936  35.650  28.667  1.00  0.00     0.060 A 
BRANCH  73  74
ATOM     74  S   UNL A   1      47.303  37.397  28.935  1.00  0.00     0.124 S 
ATOM     75  O   UNL A   1      48.651  37.498  28.382  1.00  0.00    -0.237 OA
ATOM     76  O   UNL A   1      46.254  38.060  28.170  1.00  0.00    -0.237 OA
ATOM     77  O   UNL A   1      47.207  37.545  30.384  1.00  0.00    -0.744 OA
ENDBRANCH  73  74
ENDBRANCH  52  66
BRANCH  53  78
ATOM     78  C   UNL A   1      43.310  23.461  26.940  1.00  0.00     0.058 A 
ATOM     79  C   UNL A   1      42.982  23.030  25.645  1.00  0.00     0.135 A 
ATOM     80  C   UNL A   1      43.217  22.525  27.981  1.00  0.00     0.135 A 
ATOM     81  F   UNL A   1      43.052  23.888  24.616  1.00  0.00    -0.206 F 
ATOM     82  C   UNL A   1      42.561  21.729  25.392  1.00  0.00     0.059 A 
ATOM     83  C   UNL A   1      42.822  21.210  27.750  1.00  0.00     0.059 A 
ATOM     84  F   UNL A   1      43.540  22.879  29.234  1.00  0.00    -0.206 F 
ATOM     85  C   UNL A   1      42.486  20.824  26.452  1.00  0.00     0.060 A 
BRANCH  85  86
ATOM     86  S   UNL A   1      41.989  19.123  26.102  1.00  0.00     0.124 S 
ATOM     87  O   UNL A   1      42.899  18.767  25.020  1.00  0.00    -0.237 OA
ATOM     88  O   UNL A   1      42.228  18.463  27.382  1.00  0.00    -0.237 OA
ATOM     89  O   UNL A   1      40.583  19.256  25.728  1.00  0.00    -0.744 OA
ENDBRANCH  85  86
ENDBRANCH  53  78
BRANCH  65  90
ATOM     90  C   UNL A   1      49.385  26.787  26.077  1.00  0.00     0.058 A 
ATOM     91  C   UNL A   1      49.837  26.935  24.758  1.00  0.00     0.135 A 
ATOM     92  C   UNL A   1      50.268  26.234  27.019  1.00  0.00     0.135 A 
ATOM     93  F   UNL A   1      49.029  27.455  23.821  1.00  0.00    -0.206 F 
ATOM     94  C   UNL A   1      51.112  26.530  24.380  1.00  0.00     0.059 A 
ATOM     95  C   UNL A   1      51.557  25.847  26.670  1.00  0.00     0.059 A 
ATOM     96  F   UNL A   1      49.887  26.085  28.297  1.00  0.00    -0.206 F 
ATOM     97  C   UNL A   1      51.964  25.987  25.344  1.00  0.00     0.060 A 
BRANCH  97  98
ATOM     98  S   UNL A   1      53.628  25.493  24.849  1.00  0.00     0.124 S 
ATOM     99  O   UNL A   1      53.730  24.166  25.448  1.00  0.00    -0.237 OA
ATOM    100  O   UNL A   1      53.546  25.527  23.392  1.00  0.00    -0.237 OA
ATOM    101  O   UNL A   1      54.478  26.520  25.446  1.00  0.00    -0.744 OA
ENDBRANCH  97  98
ENDBRANCH  65  90
ENDBRANCH  39  40
ENDBRANCH  31  34
ENDBRANCH  29  30
ENDBRANCH  28  29
ENDBRANCH  27  28
ENDBRANCH   1  27
TORSDOF 20
ENDMDL
