MODEL 1
REMARK VINA RESULT:     -11.4      0.000      0.000
REMARK SMILES C[C@@H]1CCCN(C(=O)c2ccc(=O)n([C@H](C)C(=O)NCCCCNC(=O)c3ccc(-c4c5nc(c(-c6c(F)cc(S(=O)(=O)[O-])cc6F)c6ccc([nH]6)c(-c6c(F)cc(S(=O)(=O)[O-])cc6F)c6nc(c(-c7c(F)cc(S(=O)(=O)[O-])cc7F)c7ccc4[nH]7)C=C6)C=C5)cc3)n2)C1
REMARK SMILES IDX 21 1 20 2 19 3 17 4 18 5 15 7 16 8 14 9 9 10 10 11 93 12
REMARK SMILES IDX 11 13 12 14 13 15 7 16 8 17 6 18 1 19 2 20 3 21 94 22 4 23
REMARK SMILES IDX 5 24 22 25 23 26 24 27 25 28 26 30 27 31 28 32 92 33 29 34
REMARK SMILES IDX 91 35 30 36 31 37 32 38 85 39 33 40 90 41 84 42 86 43 34 44
REMARK SMILES IDX 89 45 83 46 82 47 35 49 69 50 48 51 68 52 49 53 52 54 67 55
REMARK SMILES IDX 87 56 50 57 51 58 66 60 88 61 53 62 36 63 37 64 46 65 38 66
REMARK SMILES IDX 39 67 45 68 47 69 40 70 41 71 42 72 43 73 44 74 70 75 71 76
REMARK SMILES IDX 80 77 72 78 73 79 79 80 81 81 74 82 75 83 76 84 77 85 78 86
REMARK SMILES IDX 54 87 55 88 64 89 56 90 57 91 63 92 65 93 58 94 59 95 60 96
REMARK SMILES IDX 61 97 62 98
REMARK H PARENT 19 6 24 29 86 48 52 59
REMARK Flexibility Score: inf
ROOT
ATOM      1  C   UNL A   1      36.067  21.093  24.908  1.00  0.00     0.023 C 
ENDROOT
BRANCH   1   2
ATOM      2  C   UNL A   1      34.725  20.571  25.415  1.00  0.00     0.116 C 
BRANCH   2   3
ATOM      3  N   UNL A   1      34.234  21.304  26.559  1.00  0.00    -0.354 N 
ATOM      4  C   UNL A   1      33.068  21.992  26.727  1.00  0.00     0.244 C 
ATOM      5  O   UNL A   1      32.919  22.558  27.816  1.00  0.00    -0.273 OA
ATOM      6  H   UNL A   1      34.834  21.307  27.339  1.00  0.00     0.163 HD
BRANCH   4   7
ATOM      7  C   UNL A   1      32.004  22.135  25.615  1.00  0.00     0.197 C 
ATOM      8  C   UNL A   1      30.637  22.527  26.176  1.00  0.00     0.044 C 
BRANCH   7   9
ATOM      9  N   UNL A   1      32.463  22.941  24.469  1.00  0.00    -0.217 N 
ATOM     10  C   UNL A   1      33.049  24.997  23.627  1.00  0.00     0.149 A 
ATOM     11  C   UNL A   1      33.224  24.478  22.262  1.00  0.00     0.042 A 
ATOM     12  N   UNL A   1      32.692  24.300  24.661  1.00  0.00    -0.164 NA
ATOM     13  C   UNL A   1      32.997  23.176  22.096  1.00  0.00     0.076 A 
ATOM     14  C   UNL A   1      32.577  22.318  23.226  1.00  0.00     0.267 A 
ATOM     15  O   UNL A   1      32.345  21.134  23.002  1.00  0.00    -0.268 OA
BRANCH  10  16
ATOM     16  C   UNL A   1      33.318  26.481  23.797  1.00  0.00     0.274 C 
ATOM     17  O   UNL A   1      34.010  27.025  22.943  1.00  0.00    -0.267 OA
BRANCH  16  18
ATOM     18  N   UNL A   1      32.801  27.103  24.927  1.00  0.00    -0.337 N 
ATOM     19  C   UNL A   1      34.609  29.186  27.558  1.00  0.00     0.009 C 
ATOM     20  C   UNL A   1      33.762  28.880  26.327  1.00  0.00     0.005 C 
ATOM     21  C   UNL A   1      32.358  29.483  26.482  1.00  0.00     0.007 C 
ATOM     22  C   UNL A   1      33.672  27.370  26.069  1.00  0.00     0.123 C 
ATOM     23  C   UNL A   1      31.465  29.116  25.299  1.00  0.00     0.022 C 
ATOM     24  C   UNL A   1      31.439  27.613  25.055  1.00  0.00     0.120 C 
ENDBRANCH  16  18
ENDBRANCH  10  16
ENDBRANCH   7   9
ENDBRANCH   4   7
ENDBRANCH   2   3
ENDBRANCH   1   2
BRANCH   1  25
ATOM     25  C   UNL A   1      36.109  22.590  24.590  1.00  0.00     0.023 C 
BRANCH  25  26
ATOM     26  C   UNL A   1      37.209  23.392  25.282  1.00  0.00     0.116 C 
BRANCH  26  27
ATOM     27  N   UNL A   1      38.463  22.671  25.456  1.00  0.00    -0.352 N 
ATOM     28  C   UNL A   1      39.588  23.053  26.155  1.00  0.00     0.251 C 
ATOM     29  H   UNL A   1      38.513  21.793  25.014  1.00  0.00     0.163 HD
ATOM     30  O   UNL A   1      40.572  22.322  26.188  1.00  0.00    -0.269 OA
BRANCH  28  31
ATOM     31  C   UNL A   1      39.637  24.383  26.800  1.00  0.00     0.039 A 
ATOM     32  C   UNL A   1      40.346  25.441  26.232  1.00  0.00     0.014 A 
ATOM     33  C   UNL A   1      39.025  24.534  28.049  1.00  0.00     0.014 A 
ATOM     34  C   UNL A   1      40.621  26.568  26.998  1.00  0.00     0.010 A 
ATOM     35  C   UNL A   1      39.239  25.698  28.788  1.00  0.00     0.010 A 
ATOM     36  C   UNL A   1      40.105  26.687  28.300  1.00  0.00    -0.014 A 
BRANCH  36  37
ATOM     37  C   UNL A   1      40.561  27.805  29.160  1.00  0.00     0.031 A 
ATOM     38  C   UNL A   1      39.660  28.990  29.394  1.00  0.00     0.074 A 
ATOM     39  C   UNL A   1      41.739  27.709  29.803  1.00  0.00     0.049 A 
ATOM     40  N   UNL A   1      39.851  30.033  30.161  1.00  0.00    -0.248 NA
ATOM     41  C   UNL A   1      38.375  29.009  28.674  1.00  0.00     0.031 C 
ATOM     42  C   UNL A   1      42.684  26.600  29.666  1.00  0.00     0.029 A 
ATOM     43  N   UNL A   1      42.326  28.537  30.725  1.00  0.00    -0.354 N 
ATOM     44  C   UNL A   1      38.729  30.837  30.000  1.00  0.00     0.074 A 
ATOM     45  C   UNL A   1      37.866  30.176  29.045  1.00  0.00     0.031 C 
ATOM     46  C   UNL A   1      43.703  26.785  30.519  1.00  0.00     0.029 A 
ATOM     47  C   UNL A   1      43.504  28.044  31.232  1.00  0.00     0.049 A 
ATOM     48  H   UNL A   1      41.939  29.400  30.999  1.00  0.00     0.167 HD
ATOM     49  C   UNL A   1      38.437  32.014  30.602  1.00  0.00     0.037 A 
ATOM     50  C   UNL A   1      44.328  28.546  32.172  1.00  0.00     0.037 A 
ATOM     51  C   UNL A   1      39.281  32.650  31.578  1.00  0.00     0.049 A 
ATOM     52  C   UNL A   1      43.982  29.849  32.830  1.00  0.00     0.074 A 
ATOM     53  C   UNL A   1      39.073  33.844  32.247  1.00  0.00     0.029 A 
ATOM     54  N   UNL A   1      40.485  32.137  32.034  1.00  0.00    -0.354 N 
ATOM     55  N   UNL A   1      42.926  30.606  32.647  1.00  0.00    -0.248 NA
ATOM     56  C   UNL A   1      44.939  30.375  33.813  1.00  0.00     0.031 C 
ATOM     57  C   UNL A   1      40.165  34.062  33.096  1.00  0.00     0.029 A 
ATOM     58  C   UNL A   1      41.036  32.993  32.972  1.00  0.00     0.049 A 
ATOM     59  H   UNL A   1      40.889  31.291  31.735  1.00  0.00     0.167 HD
ATOM     60  C   UNL A   1      43.089  31.696  33.493  1.00  0.00     0.074 A 
ATOM     61  C   UNL A   1      44.338  31.493  34.200  1.00  0.00     0.031 C 
ATOM     62  C   UNL A   1      42.281  32.769  33.663  1.00  0.00     0.037 A 
BRANCH  49  63
ATOM     63  C   UNL A   1      37.154  32.694  30.221  1.00  0.00     0.058 A 
ATOM     64  C   UNL A   1      35.964  32.468  30.929  1.00  0.00     0.135 A 
ATOM     65  C   UNL A   1      37.124  33.618  29.164  1.00  0.00     0.135 A 
ATOM     66  F   UNL A   1      35.936  31.580  31.936  1.00  0.00    -0.206 F 
ATOM     67  C   UNL A   1      34.783  33.122  30.593  1.00  0.00     0.059 A 
ATOM     68  C   UNL A   1      35.958  34.297  28.822  1.00  0.00     0.059 A 
ATOM     69  F   UNL A   1      38.234  33.867  28.452  1.00  0.00    -0.206 F 
ATOM     70  C   UNL A   1      34.790  34.035  29.536  1.00  0.00     0.060 A 
BRANCH  70  71
ATOM     71  S   UNL A   1      33.253  34.884  29.115  1.00  0.00     0.124 S 
ATOM     72  O   UNL A   1      32.573  34.908  30.408  1.00  0.00    -0.237 OA
ATOM     73  O   UNL A   1      33.729  36.175  28.627  1.00  0.00    -0.237 OA
ATOM     74  O   UNL A   1      32.652  34.018  28.107  1.00  0.00    -0.744 OA
ENDBRANCH  70  71
ENDBRANCH  49  63
BRANCH  50  75
ATOM     75  C   UNL A   1      45.542  27.785  32.555  1.00  0.00     0.058 A 
ATOM     76  C   UNL A   1      45.475  26.760  33.509  1.00  0.00     0.135 A 
ATOM     77  C   UNL A   1      46.773  28.016  31.921  1.00  0.00     0.135 A 
ATOM     78  F   UNL A   1      44.319  26.507  34.141  1.00  0.00    -0.206 F 
ATOM     79  C   UNL A   1      46.585  25.981  33.817  1.00  0.00     0.059 A 
ATOM     80  C   UNL A   1      47.891  27.239  32.200  1.00  0.00     0.059 A 
ATOM     81  F   UNL A   1      46.879  28.975  30.990  1.00  0.00    -0.206 F 
ATOM     82  C   UNL A   1      47.788  26.224  33.150  1.00  0.00     0.060 A 
BRANCH  82  83
ATOM     83  S   UNL A   1      49.198  25.143  33.478  1.00  0.00     0.124 S 
ATOM     84  O   UNL A   1      50.022  25.988  34.334  1.00  0.00    -0.237 OA
ATOM     85  O   UNL A   1      48.567  23.997  34.127  1.00  0.00    -0.237 OA
ATOM     86  O   UNL A   1      49.731  24.879  32.145  1.00  0.00    -0.744 OA
ENDBRANCH  82  83
ENDBRANCH  50  75
BRANCH  62  87
ATOM     87  C   UNL A   1      42.716  33.812  34.648  1.00  0.00     0.058 A 
ATOM     88  C   UNL A   1      43.392  34.967  34.227  1.00  0.00     0.135 A 
ATOM     89  C   UNL A   1      42.378  33.700  36.004  1.00  0.00     0.135 A 
ATOM     90  F   UNL A   1      43.740  35.115  32.939  1.00  0.00    -0.206 F 
ATOM     91  C   UNL A   1      43.721  35.978  35.122  1.00  0.00     0.059 A 
ATOM     92  C   UNL A   1      42.685  34.705  36.915  1.00  0.00     0.059 A 
ATOM     93  F   UNL A   1      41.724  32.615  36.450  1.00  0.00    -0.206 F 
ATOM     94  C   UNL A   1      43.359  35.840  36.464  1.00  0.00     0.060 A 
BRANCH  94  95
ATOM     95  S   UNL A   1      43.737  37.187  37.605  1.00  0.00     0.124 S 
ATOM     96  O   UNL A   1      44.162  38.239  36.688  1.00  0.00    -0.237 OA
ATOM     97  O   UNL A   1      42.455  37.405  38.270  1.00  0.00    -0.237 OA
ATOM     98  O   UNL A   1      44.787  36.629  38.452  1.00  0.00    -0.744 OA
ENDBRANCH  94  95
ENDBRANCH  62  87
ENDBRANCH  36  37
ENDBRANCH  28  31
ENDBRANCH  26  27
ENDBRANCH  25  26
ENDBRANCH   1  25
TORSDOF 17
ENDMDL
MODEL 2
REMARK VINA RESULT:     -11.4      2.400      8.556
REMARK SMILES C[C@@H]1CCCN(C(=O)c2ccc(=O)n([C@H](C)C(=O)NCCCCNC(=O)c3ccc(-c4c5nc(c(-c6c(F)cc(S(=O)(=O)[O-])cc6F)c6ccc([nH]6)c(-c6c(F)cc(S(=O)(=O)[O-])cc6F)c6nc(c(-c7c(F)cc(S(=O)(=O)[O-])cc7F)c7ccc4[nH]7)C=C6)C=C5)cc3)n2)C1
REMARK SMILES IDX 21 1 20 2 19 3 17 4 18 5 15 7 16 8 14 9 9 10 10 11 93 12
REMARK SMILES IDX 11 13 12 14 13 15 7 16 8 17 6 18 1 19 2 20 3 21 94 22 4 23
REMARK SMILES IDX 5 24 22 25 23 26 24 27 25 28 26 30 27 31 28 32 92 33 29 34
REMARK SMILES IDX 91 35 30 36 31 37 32 38 85 39 33 40 90 41 84 42 86 43 34 44
REMARK SMILES IDX 89 45 83 46 82 47 35 49 69 50 48 51 68 52 49 53 52 54 67 55
REMARK SMILES IDX 87 56 50 57 51 58 66 60 88 61 53 62 36 63 37 64 46 65 38 66
REMARK SMILES IDX 39 67 45 68 47 69 40 70 41 71 42 72 43 73 44 74 70 75 71 76
REMARK SMILES IDX 80 77 72 78 73 79 79 80 81 81 74 82 75 83 76 84 77 85 78 86
REMARK SMILES IDX 54 87 55 88 64 89 56 90 57 91 63 92 65 93 58 94 59 95 60 96
REMARK SMILES IDX 61 97 62 98
REMARK H PARENT 19 6 24 29 86 48 52 59
REMARK Flexibility Score: inf
ROOT
ATOM      1  C   UNL A   1      37.452  22.624  25.023  1.00  0.00     0.023 C 
ENDROOT
BRANCH   1   2
ATOM      2  C   UNL A   1      36.637  21.352  25.252  1.00  0.00     0.116 C 
BRANCH   2   3
ATOM      3  N   UNL A   1      35.731  21.461  26.371  1.00  0.00    -0.354 N 
ATOM      4  C   UNL A   1      34.381  21.659  26.392  1.00  0.00     0.244 C 
ATOM      5  O   UNL A   1      33.858  21.743  27.509  1.00  0.00    -0.273 OA
ATOM      6  H   UNL A   1      36.152  21.378  27.256  1.00  0.00     0.163 HD
BRANCH   4   7
ATOM      7  C   UNL A   1      33.535  21.845  25.112  1.00  0.00     0.197 C 
ATOM      8  C   UNL A   1      32.262  20.999  25.138  1.00  0.00     0.044 C 
BRANCH   7   9
ATOM      9  N   UNL A   1      33.337  23.260  24.744  1.00  0.00    -0.217 N 
ATOM     10  C   UNL A   1      32.260  25.253  25.125  1.00  0.00     0.149 A 
ATOM     11  C   UNL A   1      32.888  25.907  23.967  1.00  0.00     0.042 A 
ATOM     12  N   UNL A   1      32.453  24.026  25.497  1.00  0.00    -0.164 NA
ATOM     13  C   UNL A   1      33.728  25.157  23.255  1.00  0.00     0.076 A 
ATOM     14  C   UNL A   1      33.991  23.746  23.612  1.00  0.00     0.267 A 
ATOM     15  O   UNL A   1      34.745  23.096  22.895  1.00  0.00    -0.268 OA
BRANCH  10  16
ATOM     16  C   UNL A   1      31.310  26.125  25.927  1.00  0.00     0.274 C 
ATOM     17  O   UNL A   1      30.296  25.591  26.362  1.00  0.00    -0.267 OA
BRANCH  16  18
ATOM     18  N   UNL A   1      31.634  27.468  26.070  1.00  0.00    -0.337 N 
ATOM     19  C   UNL A   1      34.867  29.033  27.346  1.00  0.00     0.009 C 
ATOM     20  C   UNL A   1      33.830  28.540  26.343  1.00  0.00     0.005 C 
ATOM     21  C   UNL A   1      33.346  29.700  25.461  1.00  0.00     0.007 C 
ATOM     22  C   UNL A   1      32.642  27.870  27.048  1.00  0.00     0.123 C 
ATOM     23  C   UNL A   1      32.243  29.246  24.506  1.00  0.00     0.022 C 
ATOM     24  C   UNL A   1      31.107  28.551  25.244  1.00  0.00     0.120 C 
ENDBRANCH  16  18
ENDBRANCH  10  16
ENDBRANCH   7   9
ENDBRANCH   4   7
ENDBRANCH   2   3
ENDBRANCH   1   2
BRANCH   1  25
ATOM     25  C   UNL A   1      37.274  23.714  26.083  1.00  0.00     0.023 C 
BRANCH  25  26
ATOM     26  C   UNL A   1      38.551  24.204  26.761  1.00  0.00     0.116 C 
BRANCH  26  27
ATOM     27  N   UNL A   1      39.570  24.698  25.845  1.00  0.00    -0.352 N 
ATOM     28  C   UNL A   1      40.601  25.581  26.094  1.00  0.00     0.251 C 
ATOM     29  H   UNL A   1      39.515  24.357  24.924  1.00  0.00     0.163 HD
ATOM     30  O   UNL A   1      41.368  25.903  25.194  1.00  0.00    -0.269 OA
BRANCH  28  31
ATOM     31  C   UNL A   1      40.730  26.202  27.431  1.00  0.00     0.039 A 
ATOM     32  C   UNL A   1      39.914  25.815  28.493  1.00  0.00     0.014 A 
ATOM     33  C   UNL A   1      41.636  27.256  27.583  1.00  0.00     0.014 A 
ATOM     34  C   UNL A   1      39.853  26.613  29.631  1.00  0.00     0.010 A 
ATOM     35  C   UNL A   1      41.627  28.011  28.757  1.00  0.00     0.010 A 
ATOM     36  C   UNL A   1      40.678  27.743  29.753  1.00  0.00    -0.014 A 
BRANCH  36  37
ATOM     37  C   UNL A   1      40.464  28.676  30.885  1.00  0.00     0.031 A 
ATOM     38  C   UNL A   1      41.416  28.671  32.054  1.00  0.00     0.074 A 
ATOM     39  C   UNL A   1      39.477  29.588  30.816  1.00  0.00     0.049 A 
ATOM     40  N   UNL A   1      41.435  29.451  33.106  1.00  0.00    -0.248 NA
ATOM     41  C   UNL A   1      42.487  27.660  32.045  1.00  0.00     0.031 C 
ATOM     42  C   UNL A   1      38.509  29.697  29.724  1.00  0.00     0.029 A 
ATOM     43  N   UNL A   1      39.147  30.616  31.660  1.00  0.00    -0.354 N 
ATOM     44  C   UNL A   1      42.498  29.012  33.887  1.00  0.00     0.074 A 
ATOM     45  C   UNL A   1      43.090  27.884  33.204  1.00  0.00     0.031 C 
ATOM     46  C   UNL A   1      37.732  30.770  29.934  1.00  0.00     0.029 A 
ATOM     47  C   UNL A   1      38.119  31.400  31.193  1.00  0.00     0.049 A 
ATOM     48  H   UNL A   1      39.603  30.778  32.518  1.00  0.00     0.167 HD
ATOM     49  C   UNL A   1      42.947  29.513  35.062  1.00  0.00     0.037 A 
ATOM     50  C   UNL A   1      37.558  32.506  31.716  1.00  0.00     0.037 A 
ATOM     51  C   UNL A   1      42.377  30.658  35.720  1.00  0.00     0.049 A 
ATOM     52  C   UNL A   1      38.076  33.047  33.017  1.00  0.00     0.074 A 
ATOM     53  C   UNL A   1      42.762  31.244  36.914  1.00  0.00     0.029 A 
ATOM     54  N   UNL A   1      41.312  31.399  35.233  1.00  0.00    -0.354 N 
ATOM     55  N   UNL A   1      39.069  32.604  33.753  1.00  0.00    -0.248 NA
ATOM     56  C   UNL A   1      37.396  34.228  33.567  1.00  0.00     0.031 C 
ATOM     57  C   UNL A   1      41.914  32.331  37.158  1.00  0.00     0.029 A 
ATOM     58  C   UNL A   1      41.021  32.434  36.105  1.00  0.00     0.049 A 
ATOM     59  H   UNL A   1      40.833  31.216  34.393  1.00  0.00     0.167 HD
ATOM     60  C   UNL A   1      39.135  33.452  34.850  1.00  0.00     0.074 A 
ATOM     61  C   UNL A   1      38.093  34.445  34.676  1.00  0.00     0.031 C 
ATOM     62  C   UNL A   1      39.978  33.410  35.909  1.00  0.00     0.037 A 
BRANCH  49  63
ATOM     63  C   UNL A   1      44.110  28.824  35.716  1.00  0.00     0.058 A 
ATOM     64  C   UNL A   1      45.434  29.212  35.457  1.00  0.00     0.135 A 
ATOM     65  C   UNL A   1      43.897  27.794  36.646  1.00  0.00     0.135 A 
ATOM     66  F   UNL A   1      45.691  30.178  34.561  1.00  0.00    -0.206 F 
ATOM     67  C   UNL A   1      46.508  28.591  36.087  1.00  0.00     0.059 A 
ATOM     68  C   UNL A   1      44.956  27.171  37.300  1.00  0.00     0.059 A 
ATOM     69  F   UNL A   1      42.650  27.382  36.924  1.00  0.00    -0.206 F 
ATOM     70  C   UNL A   1      46.259  27.570  37.006  1.00  0.00     0.060 A 
BRANCH  70  71
ATOM     71  S   UNL A   1      47.662  26.780  37.823  1.00  0.00     0.124 S 
ATOM     72  O   UNL A   1      48.713  27.772  37.618  1.00  0.00    -0.237 OA
ATOM     73  O   UNL A   1      47.188  26.636  39.196  1.00  0.00    -0.237 OA
ATOM     74  O   UNL A   1      47.824  25.532  37.085  1.00  0.00    -0.744 OA
ENDBRANCH  70  71
ENDBRANCH  49  63
BRANCH  50  75
ATOM     75  C   UNL A   1      36.462  33.182  30.981  1.00  0.00     0.058 A 
ATOM     76  C   UNL A   1      35.140  33.113  31.442  1.00  0.00     0.135 A 
ATOM     77  C   UNL A   1      36.725  33.970  29.850  1.00  0.00     0.135 A 
ATOM     78  F   UNL A   1      34.843  32.369  32.519  1.00  0.00    -0.206 F 
ATOM     79  C   UNL A   1      34.115  33.811  30.813  1.00  0.00     0.059 A 
ATOM     80  C   UNL A   1      35.719  34.690  29.215  1.00  0.00     0.059 A 
ATOM     81  F   UNL A   1      37.978  34.079  29.384  1.00  0.00    -0.206 F 
ATOM     82  C   UNL A   1      34.416  34.603  29.704  1.00  0.00     0.060 A 
BRANCH  82  83
ATOM     83  S   UNL A   1      33.100  35.588  28.954  1.00  0.00     0.124 S 
ATOM     84  O   UNL A   1      32.426  34.595  28.127  1.00  0.00    -0.237 OA
ATOM     85  O   UNL A   1      32.360  36.057  30.122  1.00  0.00    -0.237 OA
ATOM     86  O   UNL A   1      33.832  36.625  28.231  1.00  0.00    -0.744 OA
ENDBRANCH  82  83
ENDBRANCH  50  75
BRANCH  62  87
ATOM     87  C   UNL A   1      39.814  34.460  36.966  1.00  0.00     0.058 A 
ATOM     88  C   UNL A   1      39.015  34.230  38.096  1.00  0.00     0.135 A 
ATOM     89  C   UNL A   1      40.528  35.665  36.894  1.00  0.00     0.135 A 
ATOM     90  F   UNL A   1      38.310  33.093  38.205  1.00  0.00    -0.206 F 
ATOM     91  C   UNL A   1      38.927  35.164  39.122  1.00  0.00     0.059 A 
ATOM     92  C   UNL A   1      40.467  36.608  37.914  1.00  0.00     0.059 A 
ATOM     93  F   UNL A   1      41.311  35.923  35.835  1.00  0.00    -0.206 F 
ATOM     94  C   UNL A   1      39.661  36.348  39.024  1.00  0.00     0.060 A 
BRANCH  94  95
ATOM     95  S   UNL A   1      39.588  37.527  40.389  1.00  0.00     0.124 S 
ATOM     96  O   UNL A   1      40.784  38.327  40.152  1.00  0.00    -0.237 OA
ATOM     97  O   UNL A   1      38.315  38.203  40.153  1.00  0.00    -0.237 OA
ATOM     98  O   UNL A   1      39.626  36.675  41.575  1.00  0.00    -0.744 OA
ENDBRANCH  94  95
ENDBRANCH  62  87
ENDBRANCH  36  37
ENDBRANCH  28  31
ENDBRANCH  26  27
ENDBRANCH  25  26
ENDBRANCH   1  25
TORSDOF 17
ENDMDL
MODEL 3
REMARK VINA RESULT:     -11.3      2.501      8.603
REMARK SMILES C[C@@H]1CCCN(C(=O)c2ccc(=O)n([C@H](C)C(=O)NCCCCNC(=O)c3ccc(-c4c5nc(c(-c6c(F)cc(S(=O)(=O)[O-])cc6F)c6ccc([nH]6)c(-c6c(F)cc(S(=O)(=O)[O-])cc6F)c6nc(c(-c7c(F)cc(S(=O)(=O)[O-])cc7F)c7ccc4[nH]7)C=C6)C=C5)cc3)n2)C1
REMARK SMILES IDX 21 1 20 2 19 3 17 4 18 5 15 7 16 8 14 9 9 10 10 11 93 12
REMARK SMILES IDX 11 13 12 14 13 15 7 16 8 17 6 18 1 19 2 20 3 21 94 22 4 23
REMARK SMILES IDX 5 24 22 25 23 26 24 27 25 28 26 30 27 31 28 32 92 33 29 34
REMARK SMILES IDX 91 35 30 36 31 37 32 38 85 39 33 40 90 41 84 42 86 43 34 44
REMARK SMILES IDX 89 45 83 46 82 47 35 49 69 50 48 51 68 52 49 53 52 54 67 55
REMARK SMILES IDX 87 56 50 57 51 58 66 60 88 61 53 62 36 63 37 64 46 65 38 66
REMARK SMILES IDX 39 67 45 68 47 69 40 70 41 71 42 72 43 73 44 74 70 75 71 76
REMARK SMILES IDX 80 77 72 78 73 79 79 80 81 81 74 82 75 83 76 84 77 85 78 86
REMARK SMILES IDX 54 87 55 88 64 89 56 90 57 91 63 92 65 93 58 94 59 95 60 96
REMARK SMILES IDX 61 97 62 98
REMARK H PARENT 19 6 24 29 86 48 52 59
REMARK Flexibility Score: inf
ROOT
ATOM      1  C   UNL A   1      39.082  22.767  26.425  1.00  0.00     0.023 C 
ENDROOT
BRANCH   1   2
ATOM      2  C   UNL A   1      38.128  21.775  25.764  1.00  0.00     0.116 C 
BRANCH   2   3
ATOM      3  N   UNL A   1      37.788  22.142  24.409  1.00  0.00    -0.354 N 
ATOM      4  C   UNL A   1      36.640  22.683  23.907  1.00  0.00     0.244 C 
ATOM      5  O   UNL A   1      36.612  22.870  22.686  1.00  0.00    -0.273 OA
ATOM      6  H   UNL A   1      38.495  21.978  23.744  1.00  0.00     0.163 HD
BRANCH   4   7
ATOM      7  C   UNL A   1      35.400  22.989  24.777  1.00  0.00     0.197 C 
ATOM      8  C   UNL A   1      35.710  23.997  25.884  1.00  0.00     0.044 C 
BRANCH   7   9
ATOM      9  N   UNL A   1      34.191  23.284  23.985  1.00  0.00    -0.217 N 
ATOM     10  C   UNL A   1      32.892  24.831  22.891  1.00  0.00     0.149 A 
ATOM     11  C   UNL A   1      31.841  23.850  22.583  1.00  0.00     0.042 A 
ATOM     12  N   UNL A   1      33.986  24.587  23.545  1.00  0.00    -0.164 NA
ATOM     13  C   UNL A   1      32.052  22.608  23.016  1.00  0.00     0.076 A 
ATOM     14  C   UNL A   1      33.271  22.256  23.776  1.00  0.00     0.267 A 
ATOM     15  O   UNL A   1      33.390  21.104  24.182  1.00  0.00    -0.268 OA
BRANCH  10  16
ATOM     16  C   UNL A   1      32.635  26.239  22.385  1.00  0.00     0.274 C 
ATOM     17  O   UNL A   1      33.353  26.646  21.478  1.00  0.00    -0.267 OA
BRANCH  16  18
ATOM     18  N   UNL A   1      31.642  26.979  23.016  1.00  0.00    -0.337 N 
ATOM     19  C   UNL A   1      31.765  28.798  26.363  1.00  0.00     0.009 C 
ATOM     20  C   UNL A   1      31.812  28.605  24.851  1.00  0.00     0.005 C 
ATOM     21  C   UNL A   1      30.724  29.449  24.171  1.00  0.00     0.007 C 
ATOM     22  C   UNL A   1      31.661  27.126  24.469  1.00  0.00     0.123 C 
ATOM     23  C   UNL A   1      30.697  29.205  22.663  1.00  0.00     0.022 C 
ATOM     24  C   UNL A   1      30.588  27.723  22.332  1.00  0.00     0.120 C 
ENDBRANCH  16  18
ENDBRANCH  10  16
ENDBRANCH   7   9
ENDBRANCH   4   7
ENDBRANCH   2   3
ENDBRANCH   1   2
BRANCH   1  25
ATOM     25  C   UNL A   1      40.417  22.179  26.890  1.00  0.00     0.023 C 
BRANCH  25  26
ATOM     26  C   UNL A   1      41.618  23.121  26.836  1.00  0.00     0.116 C 
BRANCH  26  27
ATOM     27  N   UNL A   1      41.505  24.189  25.852  1.00  0.00    -0.352 N 
ATOM     28  C   UNL A   1      41.380  25.546  26.061  1.00  0.00     0.251 C 
ATOM     29  H   UNL A   1      41.519  23.902  24.910  1.00  0.00     0.163 HD
ATOM     30  O   UNL A   1      41.282  26.311  25.108  1.00  0.00    -0.269 OA
BRANCH  28  31
ATOM     31  C   UNL A   1      41.283  26.072  27.441  1.00  0.00     0.039 A 
ATOM     32  C   UNL A   1      40.127  25.906  28.202  1.00  0.00     0.014 A 
ATOM     33  C   UNL A   1      42.354  26.822  27.937  1.00  0.00     0.014 A 
ATOM     34  C   UNL A   1      39.958  26.659  29.358  1.00  0.00     0.010 A 
ATOM     35  C   UNL A   1      42.211  27.520  29.138  1.00  0.00     0.010 A 
ATOM     36  C   UNL A   1      40.982  27.506  29.812  1.00  0.00    -0.014 A 
BRANCH  36  37
ATOM     37  C   UNL A   1      40.710  28.434  30.937  1.00  0.00     0.031 A 
ATOM     38  C   UNL A   1      41.615  28.440  32.142  1.00  0.00     0.074 A 
ATOM     39  C   UNL A   1      39.712  29.330  30.830  1.00  0.00     0.049 A 
ATOM     40  N   UNL A   1      41.581  29.217  33.195  1.00  0.00    -0.248 NA
ATOM     41  C   UNL A   1      42.701  27.445  32.173  1.00  0.00     0.031 C 
ATOM     42  C   UNL A   1      38.786  29.427  29.701  1.00  0.00     0.029 A 
ATOM     43  N   UNL A   1      39.334  30.352  31.663  1.00  0.00    -0.354 N 
ATOM     44  C   UNL A   1      42.619  28.793  34.016  1.00  0.00     0.074 A 
ATOM     45  C   UNL A   1      43.255  27.676  33.355  1.00  0.00     0.031 C 
ATOM     46  C   UNL A   1      37.985  30.488  29.883  1.00  0.00     0.029 A 
ATOM     47  C   UNL A   1      38.313  31.120  31.157  1.00  0.00     0.049 A 
ATOM     48  H   UNL A   1      39.753  30.518  32.538  1.00  0.00     0.167 HD
ATOM     49  C   UNL A   1      43.014  29.298  35.209  1.00  0.00     0.037 A 
ATOM     50  C   UNL A   1      37.715  32.217  31.660  1.00  0.00     0.037 A 
ATOM     51  C   UNL A   1      42.401  30.432  35.847  1.00  0.00     0.049 A 
ATOM     52  C   UNL A   1      38.173  32.762  32.982  1.00  0.00     0.074 A 
ATOM     53  C   UNL A   1      42.730  31.021  37.056  1.00  0.00     0.029 A 
ATOM     54  N   UNL A   1      41.344  31.158  35.320  1.00  0.00    -0.354 N 
ATOM     55  N   UNL A   1      39.143  32.332  33.754  1.00  0.00    -0.248 NA
ATOM     56  C   UNL A   1      37.454  33.931  33.506  1.00  0.00     0.031 C 
ATOM     57  C   UNL A   1      41.857  32.094  37.269  1.00  0.00     0.029 A 
ATOM     58  C   UNL A   1      41.003  32.187  36.181  1.00  0.00     0.049 A 
ATOM     59  H   UNL A   1      40.902  30.970  34.461  1.00  0.00     0.167 HD
ATOM     60  C   UNL A   1      39.153  33.179  34.855  1.00  0.00     0.074 A 
ATOM     61  C   UNL A   1      38.103  34.156  34.642  1.00  0.00     0.031 C 
ATOM     62  C   UNL A   1      39.954  33.147  35.947  1.00  0.00     0.037 A 
BRANCH  49  63
ATOM     63  C   UNL A   1      44.161  28.625  35.906  1.00  0.00     0.058 A 
ATOM     64  C   UNL A   1      43.959  27.534  36.766  1.00  0.00     0.135 A 
ATOM     65  C   UNL A   1      45.481  29.045  35.677  1.00  0.00     0.135 A 
ATOM     66  F   UNL A   1      42.715  27.106  37.033  1.00  0.00    -0.206 F 
ATOM     67  C   UNL A   1      45.026  26.892  37.387  1.00  0.00     0.059 A 
ATOM     68  C   UNL A   1      46.564  28.407  36.274  1.00  0.00     0.059 A 
ATOM     69  F   UNL A   1      45.726  30.086  34.867  1.00  0.00    -0.206 F 
ATOM     70  C   UNL A   1      46.326  27.337  37.136  1.00  0.00     0.060 A 
BRANCH  70  71
ATOM     71  S   UNL A   1      47.701  26.490  37.941  1.00  0.00     0.124 S 
ATOM     72  O   UNL A   1      48.813  26.838  37.059  1.00  0.00    -0.237 OA
ATOM     73  O   UNL A   1      47.724  27.111  39.262  1.00  0.00    -0.237 OA
ATOM     74  O   UNL A   1      47.297  25.088  37.917  1.00  0.00    -0.744 OA
ENDBRANCH  70  71
ENDBRANCH  49  63
BRANCH  50  75
ATOM     75  C   UNL A   1      36.638  32.878  30.884  1.00  0.00     0.058 A 
ATOM     76  C   UNL A   1      35.292  32.700  31.230  1.00  0.00     0.135 A 
ATOM     77  C   UNL A   1      36.937  33.757  29.832  1.00  0.00     0.135 A 
ATOM     78  F   UNL A   1      34.960  31.866  32.228  1.00  0.00    -0.206 F 
ATOM     79  C   UNL A   1      34.275  33.379  30.567  1.00  0.00     0.059 A 
ATOM     80  C   UNL A   1      35.940  34.461  29.166  1.00  0.00     0.059 A 
ATOM     81  F   UNL A   1      38.213  33.971  29.478  1.00  0.00    -0.206 F 
ATOM     82  C   UNL A   1      34.611  34.264  29.540  1.00  0.00     0.060 A 
BRANCH  82  83
ATOM     83  S   UNL A   1      33.297  35.220  28.752  1.00  0.00     0.124 S 
ATOM     84  O   UNL A   1      34.064  36.178  27.964  1.00  0.00    -0.237 OA
ATOM     85  O   UNL A   1      32.580  34.198  27.995  1.00  0.00    -0.237 OA
ATOM     86  O   UNL A   1      32.563  35.775  29.886  1.00  0.00    -0.744 OA
ENDBRANCH  82  83
ENDBRANCH  50  75
BRANCH  62  87
ATOM     87  C   UNL A   1      39.733  34.191  36.999  1.00  0.00     0.058 A 
ATOM     88  C   UNL A   1      39.042  33.892  38.182  1.00  0.00     0.135 A 
ATOM     89  C   UNL A   1      40.290  35.472  36.863  1.00  0.00     0.135 A 
ATOM     90  F   UNL A   1      38.488  32.681  38.352  1.00  0.00    -0.206 F 
ATOM     91  C   UNL A   1      38.908  34.829  39.198  1.00  0.00     0.059 A 
ATOM     92  C   UNL A   1      40.181  36.422  37.873  1.00  0.00     0.059 A 
ATOM     93  F   UNL A   1      40.967  35.799  35.751  1.00  0.00    -0.206 F 
ATOM     94  C   UNL A   1      39.485  36.091  39.036  1.00  0.00     0.060 A 
BRANCH  94  95
ATOM     95  S   UNL A   1      39.358  37.281  40.388  1.00  0.00     0.124 S 
ATOM     96  O   UNL A   1      38.616  38.366  39.756  1.00  0.00    -0.237 OA
ATOM     97  O   UNL A   1      38.631  36.525  41.405  1.00  0.00    -0.237 OA
ATOM     98  O   UNL A   1      40.751  37.575  40.713  1.00  0.00    -0.744 OA
ENDBRANCH  94  95
ENDBRANCH  62  87
ENDBRANCH  36  37
ENDBRANCH  28  31
ENDBRANCH  26  27
ENDBRANCH  25  26
ENDBRANCH   1  25
TORSDOF 17
ENDMDL
