MODEL 1
REMARK VINA RESULT:     -11.7      0.000      0.000
REMARK SMILES C[C@H](C(=O)NCCCCNC(=O)c1ccc(-c2c3nc(c(-c4c(F)cc(S(=O)(=O)[O-])cc4F)c4ccc([nH]4)c(-c4c(F)cc(S(=O)(=O)[O-])cc4F)c4nc(c(-c5c(F)cc(S(=O)(=O)[O-])cc5F)c5ccc2[nH]5)C=C4)C=C3)cc1)[C@@H](C(=O)c1ccccc1)c1ccc(F)cc1
REMARK SMILES IDX 7 1 6 2 5 3 3 4 4 5 2 7 1 8 79 9 80 10 81 11 82 12 83 13
REMARK SMILES IDX 87 14 84 15 86 16 85 17 88 18 89 19 94 20 90 21 93 22 91 23
REMARK SMILES IDX 92 24 8 25 9 26 10 27 11 28 12 30 13 31 14 32 78 33 15 34
REMARK SMILES IDX 77 35 16 36 17 37 18 38 71 39 19 40 76 41 70 42 72 43 20 44
REMARK SMILES IDX 75 45 69 46 68 47 21 49 55 50 34 51 54 52 35 53 38 54 53 55
REMARK SMILES IDX 73 56 36 57 37 58 52 60 74 61 39 62 22 63 23 64 32 65 24 66
REMARK SMILES IDX 25 67 31 68 33 69 26 70 27 71 28 72 29 73 30 74 56 75 57 76
REMARK SMILES IDX 66 77 58 78 59 79 65 80 67 81 60 82 61 83 62 84 63 85 64 86
REMARK SMILES IDX 40 87 41 88 50 89 42 90 43 91 49 92 51 93 44 94 45 95 46 96
REMARK SMILES IDX 47 97 48 98
REMARK H PARENT 5 6 10 29 72 48 38 59
REMARK Flexibility Score: inf
ROOT
ATOM      1  C   UNL A   1      31.908  27.079  25.794  1.00  0.00     0.023 C 
ENDROOT
BRANCH   1   2
ATOM      2  C   UNL A   1      32.638  25.747  25.639  1.00  0.00     0.116 C 
BRANCH   2   3
ATOM      3  N   UNL A   1      31.740  24.606  25.648  1.00  0.00    -0.356 N 
ATOM      4  C   UNL A   1      31.907  23.336  26.095  1.00  0.00     0.223 C 
ATOM      5  O   UNL A   1      30.930  22.584  26.069  1.00  0.00    -0.275 OA
ATOM      6  H   UNL A   1      30.853  24.786  25.262  1.00  0.00     0.163 HD
BRANCH   4   7
ATOM      7  C   UNL A   1      33.249  22.870  26.620  1.00  0.00     0.090 C 
ATOM      8  C   UNL A   1      33.030  22.429  28.088  1.00  0.00     0.019 C 
BRANCH   7   9
ATOM      9  C   UNL A   1      33.954  21.734  25.817  1.00  0.00     0.103 C 
BRANCH   9  10
ATOM     10  C   UNL A   1      33.438  21.350  24.400  1.00  0.00     0.171 C 
ATOM     11  O   UNL A   1      33.233  22.213  23.539  1.00  0.00    -0.293 OA
BRANCH  10  12
ATOM     12  C   UNL A   1      33.184  19.932  23.968  1.00  0.00     0.018 A 
ATOM     13  C   UNL A   1      33.937  18.920  24.600  1.00  0.00     0.012 A 
ATOM     14  C   UNL A   1      32.317  19.563  22.943  1.00  0.00     0.012 A 
ATOM     15  C   UNL A   1      33.904  17.600  24.147  1.00  0.00     0.001 A 
ATOM     16  C   UNL A   1      32.313  18.246  22.461  1.00  0.00     0.001 A 
ATOM     17  C   UNL A   1      33.116  17.270  23.052  1.00  0.00     0.000 A 
ENDBRANCH  10  12
ENDBRANCH   9  10
BRANCH   9  18
ATOM     18  C   UNL A   1      35.448  22.156  25.740  1.00  0.00    -0.036 A 
ATOM     19  C   UNL A   1      36.450  21.211  25.472  1.00  0.00     0.007 A 
ATOM     20  C   UNL A   1      35.836  23.478  26.054  1.00  0.00     0.007 A 
ATOM     21  C   UNL A   1      37.797  21.575  25.543  1.00  0.00     0.039 A 
ATOM     22  C   UNL A   1      37.180  23.841  26.111  1.00  0.00     0.039 A 
ATOM     23  C   UNL A   1      38.149  22.882  25.865  1.00  0.00     0.123 A 
ATOM     24  F   UNL A   1      39.443  23.218  25.948  1.00  0.00    -0.207 F 
ENDBRANCH   9  18
ENDBRANCH   7   9
ENDBRANCH   4   7
ENDBRANCH   2   3
ENDBRANCH   1   2
BRANCH   1  25
ATOM     25  C   UNL A   1      32.179  27.811  27.107  1.00  0.00     0.023 C 
BRANCH  25  26
ATOM     26  C   UNL A   1      33.575  28.400  27.219  1.00  0.00     0.116 C 
BRANCH  26  27
ATOM     27  N   UNL A   1      33.536  29.810  27.560  1.00  0.00    -0.352 N 
ATOM     28  C   UNL A   1      34.486  30.588  28.164  1.00  0.00     0.251 C 
ATOM     29  H   UNL A   1      32.702  30.276  27.320  1.00  0.00     0.163 HD
ATOM     30  O   UNL A   1      34.169  31.709  28.571  1.00  0.00    -0.269 OA
BRANCH  28  31
ATOM     31  C   UNL A   1      35.872  30.101  28.336  1.00  0.00     0.039 A 
ATOM     32  C   UNL A   1      36.247  29.559  29.568  1.00  0.00     0.014 A 
ATOM     33  C   UNL A   1      36.822  30.229  27.318  1.00  0.00     0.014 A 
ATOM     34  C   UNL A   1      37.565  29.146  29.775  1.00  0.00     0.010 A 
ATOM     35  C   UNL A   1      38.106  29.724  27.489  1.00  0.00     0.010 A 
ATOM     36  C   UNL A   1      38.504  29.223  28.736  1.00  0.00    -0.014 A 
BRANCH  36  37
ATOM     37  C   UNL A   1      39.931  28.879  28.963  1.00  0.00     0.031 A 
ATOM     38  C   UNL A   1      40.849  29.895  29.594  1.00  0.00     0.074 A 
ATOM     39  C   UNL A   1      40.406  27.679  28.577  1.00  0.00     0.049 A 
ATOM     40  N   UNL A   1      42.129  29.808  29.851  1.00  0.00    -0.248 NA
ATOM     41  C   UNL A   1      40.258  31.196  29.951  1.00  0.00     0.031 C 
ATOM     42  C   UNL A   1      39.626  26.633  27.911  1.00  0.00     0.029 A 
ATOM     43  N   UNL A   1      41.658  27.135  28.694  1.00  0.00    -0.354 N 
ATOM     44  C   UNL A   1      42.497  31.047  30.366  1.00  0.00     0.074 A 
ATOM     45  C   UNL A   1      41.323  31.888  30.328  1.00  0.00     0.031 C 
ATOM     46  C   UNL A   1      40.409  25.559  27.715  1.00  0.00     0.029 A 
ATOM     47  C   UNL A   1      41.749  25.850  28.214  1.00  0.00     0.049 A 
ATOM     48  H   UNL A   1      42.422  27.619  29.085  1.00  0.00     0.167 HD
ATOM     49  C   UNL A   1      43.697  31.441  30.856  1.00  0.00     0.037 A 
ATOM     50  C   UNL A   1      42.795  24.999  28.194  1.00  0.00     0.037 A 
ATOM     51  C   UNL A   1      44.845  30.579  30.943  1.00  0.00     0.049 A 
ATOM     52  C   UNL A   1      44.105  25.441  28.789  1.00  0.00     0.074 A 
ATOM     53  C   UNL A   1      46.088  30.849  31.487  1.00  0.00     0.029 A 
ATOM     54  N   UNL A   1      44.885  29.271  30.482  1.00  0.00    -0.354 N 
ATOM     55  N   UNL A   1      44.420  26.596  29.327  1.00  0.00    -0.248 NA
ATOM     56  C   UNL A   1      45.196  24.459  28.789  1.00  0.00     0.031 C 
ATOM     57  C   UNL A   1      46.891  29.715  31.323  1.00  0.00     0.029 A 
ATOM     58  C   UNL A   1      46.133  28.723  30.720  1.00  0.00     0.049 A 
ATOM     59  H   UNL A   1      44.136  28.802  30.049  1.00  0.00     0.167 HD
ATOM     60  C   UNL A   1      45.733  26.465  29.767  1.00  0.00     0.074 A 
ATOM     61  C   UNL A   1      46.149  25.118  29.434  1.00  0.00     0.031 C 
ATOM     62  C   UNL A   1      46.520  27.373  30.396  1.00  0.00     0.037 A 
BRANCH  49  63
ATOM     63  C   UNL A   1      43.820  32.863  31.335  1.00  0.00     0.058 A 
ATOM     64  C   UNL A   1      44.102  33.922  30.455  1.00  0.00     0.135 A 
ATOM     65  C   UNL A   1      43.648  33.174  32.694  1.00  0.00     0.135 A 
ATOM     66  F   UNL A   1      44.293  33.682  29.147  1.00  0.00    -0.206 F 
ATOM     67  C   UNL A   1      44.254  35.227  30.911  1.00  0.00     0.059 A 
ATOM     68  C   UNL A   1      43.763  34.478  33.167  1.00  0.00     0.059 A 
ATOM     69  F   UNL A   1      43.375  32.203  33.580  1.00  0.00    -0.206 F 
ATOM     70  C   UNL A   1      44.086  35.495  32.270  1.00  0.00     0.060 A 
BRANCH  70  71
ATOM     71  S   UNL A   1      44.301  37.191  32.850  1.00  0.00     0.124 S 
ATOM     72  O   UNL A   1      44.547  37.898  31.596  1.00  0.00    -0.237 OA
ATOM     73  O   UNL A   1      43.019  37.468  33.490  1.00  0.00    -0.237 OA
ATOM     74  O   UNL A   1      45.442  37.099  33.754  1.00  0.00    -0.744 OA
ENDBRANCH  70  71
ENDBRANCH  49  63
BRANCH  50  75
ATOM     75  C   UNL A   1      42.625  23.627  27.651  1.00  0.00     0.058 A 
ATOM     76  C   UNL A   1      42.745  23.380  26.275  1.00  0.00     0.135 A 
ATOM     77  C   UNL A   1      42.362  22.533  28.489  1.00  0.00     0.135 A 
ATOM     78  F   UNL A   1      42.994  24.394  25.431  1.00  0.00    -0.206 F 
ATOM     79  C   UNL A   1      42.591  22.103  25.746  1.00  0.00     0.059 A 
ATOM     80  C   UNL A   1      42.229  21.242  27.987  1.00  0.00     0.059 A 
ATOM     81  F   UNL A   1      42.259  22.713  29.816  1.00  0.00    -0.206 F 
ATOM     82  C   UNL A   1      42.335  21.039  26.612  1.00  0.00     0.060 A 
BRANCH  82  83
ATOM     83  S   UNL A   1      42.187  19.377  25.920  1.00  0.00     0.124 S 
ATOM     84  O   UNL A   1      42.722  18.560  27.003  1.00  0.00    -0.237 OA
ATOM     85  O   UNL A   1      40.751  19.268  25.686  1.00  0.00    -0.237 OA
ATOM     86  O   UNL A   1      43.007  19.443  24.714  1.00  0.00    -0.744 OA
ENDBRANCH  82  83
ENDBRANCH  50  75
BRANCH  62  87
ATOM     87  C   UNL A   1      47.890  26.921  30.818  1.00  0.00     0.058 A 
ATOM     88  C   UNL A   1      48.109  26.241  32.026  1.00  0.00     0.135 A 
ATOM     89  C   UNL A   1      48.994  27.143  29.979  1.00  0.00     0.135 A 
ATOM     90  F   UNL A   1      47.087  26.006  32.864  1.00  0.00    -0.206 F 
ATOM     91  C   UNL A   1      49.382  25.827  32.404  1.00  0.00     0.059 A 
ATOM     92  C   UNL A   1      50.271  26.714  30.324  1.00  0.00     0.059 A 
ATOM     93  F   UNL A   1      48.835  27.776  28.805  1.00  0.00    -0.206 F 
ATOM     94  C   UNL A   1      50.457  26.072  31.547  1.00  0.00     0.060 A 
BRANCH  94  95
ATOM     95  S   UNL A   1      52.103  25.521  32.041  1.00  0.00     0.124 S 
ATOM     96  O   UNL A   1      52.356  26.362  33.206  1.00  0.00    -0.237 OA
ATOM     97  O   UNL A   1      51.891  24.103  32.317  1.00  0.00    -0.237 OA
ATOM     98  O   UNL A   1      52.923  25.809  30.868  1.00  0.00    -0.744 OA
ENDBRANCH  94  95
ENDBRANCH  62  87
ENDBRANCH  36  37
ENDBRANCH  28  31
ENDBRANCH  26  27
ENDBRANCH  25  26
ENDBRANCH   1  25
TORSDOF 18
ENDMDL
MODEL 2
REMARK VINA RESULT:     -11.6      1.350      2.822
REMARK SMILES C[C@H](C(=O)NCCCCNC(=O)c1ccc(-c2c3nc(c(-c4c(F)cc(S(=O)(=O)[O-])cc4F)c4ccc([nH]4)c(-c4c(F)cc(S(=O)(=O)[O-])cc4F)c4nc(c(-c5c(F)cc(S(=O)(=O)[O-])cc5F)c5ccc2[nH]5)C=C4)C=C3)cc1)[C@@H](C(=O)c1ccccc1)c1ccc(F)cc1
REMARK SMILES IDX 7 1 6 2 5 3 3 4 4 5 2 7 1 8 79 9 80 10 81 11 82 12 83 13
REMARK SMILES IDX 87 14 84 15 86 16 85 17 88 18 89 19 94 20 90 21 93 22 91 23
REMARK SMILES IDX 92 24 8 25 9 26 10 27 11 28 12 30 13 31 14 32 78 33 15 34
REMARK SMILES IDX 77 35 16 36 17 37 18 38 71 39 19 40 76 41 70 42 72 43 20 44
REMARK SMILES IDX 75 45 69 46 68 47 21 49 55 50 34 51 54 52 35 53 38 54 53 55
REMARK SMILES IDX 73 56 36 57 37 58 52 60 74 61 39 62 22 63 23 64 32 65 24 66
REMARK SMILES IDX 25 67 31 68 33 69 26 70 27 71 28 72 29 73 30 74 56 75 57 76
REMARK SMILES IDX 66 77 58 78 59 79 65 80 67 81 60 82 61 83 62 84 63 85 64 86
REMARK SMILES IDX 40 87 41 88 50 89 42 90 43 91 49 92 51 93 44 94 45 95 46 96
REMARK SMILES IDX 47 97 48 98
REMARK H PARENT 5 6 10 29 72 48 38 59
REMARK Flexibility Score: inf
ROOT
ATOM      1  C   UNL A   1      31.489  27.235  26.353  1.00  0.00     0.023 C 
ENDROOT
BRANCH   1   2
ATOM      2  C   UNL A   1      31.399  25.712  26.323  1.00  0.00     0.116 C 
BRANCH   2   3
ATOM      3  N   UNL A   1      30.712  25.209  25.147  1.00  0.00    -0.356 N 
ATOM      4  C   UNL A   1      31.027  24.215  24.279  1.00  0.00     0.223 C 
ATOM      5  O   UNL A   1      30.202  23.927  23.409  1.00  0.00    -0.275 OA
ATOM      6  H   UNL A   1      29.867  25.671  24.943  1.00  0.00     0.163 HD
BRANCH   4   7
ATOM      7  C   UNL A   1      32.345  23.477  24.393  1.00  0.00     0.090 C 
ATOM      8  C   UNL A   1      32.007  21.977  24.568  1.00  0.00     0.019 C 
BRANCH   7   9
ATOM      9  C   UNL A   1      33.353  23.668  23.218  1.00  0.00     0.103 C 
BRANCH   9  10
ATOM     10  C   UNL A   1      33.239  24.913  22.292  1.00  0.00     0.171 C 
ATOM     11  O   UNL A   1      33.245  24.797  21.061  1.00  0.00    -0.293 OA
BRANCH  10  12
ATOM     12  C   UNL A   1      33.085  26.317  22.809  1.00  0.00     0.018 A 
ATOM     13  C   UNL A   1      31.931  27.027  22.414  1.00  0.00     0.012 A 
ATOM     14  C   UNL A   1      34.033  26.983  23.582  1.00  0.00     0.012 A 
ATOM     15  C   UNL A   1      31.785  28.388  22.692  1.00  0.00     0.001 A 
ATOM     16  C   UNL A   1      33.907  28.358  23.827  1.00  0.00     0.001 A 
ATOM     17  C   UNL A   1      32.793  29.061  23.370  1.00  0.00     0.000 A 
ENDBRANCH  10  12
ENDBRANCH   9  10
BRANCH   9  18
ATOM     18  C   UNL A   1      34.760  23.624  23.876  1.00  0.00    -0.036 A 
ATOM     19  C   UNL A   1      35.841  23.013  23.222  1.00  0.00     0.007 A 
ATOM     20  C   UNL A   1      34.948  24.095  25.195  1.00  0.00     0.007 A 
ATOM     21  C   UNL A   1      37.064  22.858  23.881  1.00  0.00     0.039 A 
ATOM     22  C   UNL A   1      36.173  23.950  25.844  1.00  0.00     0.039 A 
ATOM     23  C   UNL A   1      37.217  23.322  25.184  1.00  0.00     0.123 A 
ATOM     24  F   UNL A   1      38.387  23.152  25.814  1.00  0.00    -0.207 F 
ENDBRANCH   9  18
ENDBRANCH   7   9
ENDBRANCH   4   7
ENDBRANCH   2   3
ENDBRANCH   1   2
BRANCH   1  25
ATOM     25  C   UNL A   1      32.171  27.813  27.592  1.00  0.00     0.023 C 
BRANCH  25  26
ATOM     26  C   UNL A   1      33.516  28.464  27.320  1.00  0.00     0.116 C 
BRANCH  26  27
ATOM     27  N   UNL A   1      33.491  29.887  27.606  1.00  0.00    -0.352 N 
ATOM     28  C   UNL A   1      34.450  30.679  28.175  1.00  0.00     0.251 C 
ATOM     29  H   UNL A   1      32.660  30.350  27.352  1.00  0.00     0.163 HD
ATOM     30  O   UNL A   1      34.146  31.817  28.540  1.00  0.00    -0.269 OA
BRANCH  28  31
ATOM     31  C   UNL A   1      35.834  30.187  28.359  1.00  0.00     0.039 A 
ATOM     32  C   UNL A   1      36.214  29.704  29.614  1.00  0.00     0.014 A 
ATOM     33  C   UNL A   1      36.775  30.254  27.328  1.00  0.00     0.014 A 
ATOM     34  C   UNL A   1      37.530  29.288  29.831  1.00  0.00     0.010 A 
ATOM     35  C   UNL A   1      38.055  29.745  27.514  1.00  0.00     0.010 A 
ATOM     36  C   UNL A   1      38.460  29.303  28.781  1.00  0.00    -0.014 A 
BRANCH  36  37
ATOM     37  C   UNL A   1      39.885  28.956  29.012  1.00  0.00     0.031 A 
ATOM     38  C   UNL A   1      40.803  29.969  29.651  1.00  0.00     0.074 A 
ATOM     39  C   UNL A   1      40.360  27.756  28.625  1.00  0.00     0.049 A 
ATOM     40  N   UNL A   1      42.082  29.879  29.912  1.00  0.00    -0.248 NA
ATOM     41  C   UNL A   1      40.212  31.270  30.009  1.00  0.00     0.031 C 
ATOM     42  C   UNL A   1      39.581  26.714  27.952  1.00  0.00     0.029 A 
ATOM     43  N   UNL A   1      41.611  27.210  28.745  1.00  0.00    -0.354 N 
ATOM     44  C   UNL A   1      42.449  31.115  30.433  1.00  0.00     0.074 A 
ATOM     45  C   UNL A   1      41.276  31.958  30.393  1.00  0.00     0.031 C 
ATOM     46  C   UNL A   1      40.363  25.640  27.756  1.00  0.00     0.029 A 
ATOM     47  C   UNL A   1      41.702  25.926  28.261  1.00  0.00     0.049 A 
ATOM     48  H   UNL A   1      42.374  27.692  29.141  1.00  0.00     0.167 HD
ATOM     49  C   UNL A   1      43.648  31.506  30.929  1.00  0.00     0.037 A 
ATOM     50  C   UNL A   1      42.746  25.075  28.242  1.00  0.00     0.037 A 
ATOM     51  C   UNL A   1      44.794  30.642  31.018  1.00  0.00     0.049 A 
ATOM     52  C   UNL A   1      44.055  25.513  28.844  1.00  0.00     0.074 A 
ATOM     53  C   UNL A   1      46.035  30.909  31.568  1.00  0.00     0.029 A 
ATOM     54  N   UNL A   1      44.834  29.336  30.553  1.00  0.00    -0.354 N 
ATOM     55  N   UNL A   1      44.370  26.665  29.387  1.00  0.00    -0.248 NA
ATOM     56  C   UNL A   1      45.145  24.528  28.846  1.00  0.00     0.031 C 
ATOM     57  C   UNL A   1      46.837  29.774  31.403  1.00  0.00     0.029 A 
ATOM     58  C   UNL A   1      46.080  28.785  30.794  1.00  0.00     0.049 A 
ATOM     59  H   UNL A   1      44.086  28.869  30.115  1.00  0.00     0.167 HD
ATOM     60  C   UNL A   1      45.680  26.530  29.832  1.00  0.00     0.074 A 
ATOM     61  C   UNL A   1      46.096  25.184  29.496  1.00  0.00     0.031 C 
ATOM     62  C   UNL A   1      46.466  27.435  30.467  1.00  0.00     0.037 A 
BRANCH  49  63
ATOM     63  C   UNL A   1      43.771  32.926  31.413  1.00  0.00     0.058 A 
ATOM     64  C   UNL A   1      44.252  33.955  30.585  1.00  0.00     0.135 A 
ATOM     65  C   UNL A   1      43.396  33.267  32.724  1.00  0.00     0.135 A 
ATOM     66  F   UNL A   1      44.641  33.685  29.328  1.00  0.00    -0.206 F 
ATOM     67  C   UNL A   1      44.401  35.257  31.052  1.00  0.00     0.059 A 
ATOM     68  C   UNL A   1      43.507  34.569  33.201  1.00  0.00     0.059 A 
ATOM     69  F   UNL A   1      42.928  32.326  33.559  1.00  0.00    -0.206 F 
ATOM     70  C   UNL A   1      44.029  35.554  32.363  1.00  0.00     0.060 A 
BRANCH  70  71
ATOM     71  S   UNL A   1      44.241  37.244  32.960  1.00  0.00     0.124 S 
ATOM     72  O   UNL A   1      45.669  37.268  33.265  1.00  0.00    -0.237 OA
ATOM     73  O   UNL A   1      43.827  38.038  31.808  1.00  0.00    -0.237 OA
ATOM     74  O   UNL A   1      43.351  37.310  34.115  1.00  0.00    -0.744 OA
ENDBRANCH  70  71
ENDBRANCH  49  63
BRANCH  50  75
ATOM     75  C   UNL A   1      42.577  23.704  27.694  1.00  0.00     0.058 A 
ATOM     76  C   UNL A   1      42.425  22.603  28.550  1.00  0.00     0.135 A 
ATOM     77  C   UNL A   1      42.541  23.466  26.312  1.00  0.00     0.135 A 
ATOM     78  F   UNL A   1      42.454  22.779  29.880  1.00  0.00    -0.206 F 
ATOM     79  C   UNL A   1      42.263  21.312  28.057  1.00  0.00     0.059 A 
ATOM     80  C   UNL A   1      42.356  22.187  25.795  1.00  0.00     0.059 A 
ATOM     81  F   UNL A   1      42.661  24.489  25.450  1.00  0.00    -0.206 F 
ATOM     82  C   UNL A   1      42.228  21.115  26.677  1.00  0.00     0.060 A 
BRANCH  82  83
ATOM     83  S   UNL A   1      41.967  19.441  26.048  1.00  0.00     0.124 S 
ATOM     84  O   UNL A   1      42.418  18.631  27.173  1.00  0.00    -0.237 OA
ATOM     85  O   UNL A   1      40.531  19.432  25.788  1.00  0.00    -0.237 OA
ATOM     86  O   UNL A   1      42.811  19.396  24.857  1.00  0.00    -0.744 OA
ENDBRANCH  82  83
ENDBRANCH  50  75
BRANCH  62  87
ATOM     87  C   UNL A   1      47.834  26.979  30.894  1.00  0.00     0.058 A 
ATOM     88  C   UNL A   1      48.061  26.375  32.139  1.00  0.00     0.135 A 
ATOM     89  C   UNL A   1      48.926  27.121  30.022  1.00  0.00     0.135 A 
ATOM     90  F   UNL A   1      47.050  26.218  33.009  1.00  0.00    -0.206 F 
ATOM     91  C   UNL A   1      49.332  25.957  32.521  1.00  0.00     0.059 A 
ATOM     92  C   UNL A   1      50.199  26.685  30.372  1.00  0.00     0.059 A 
ATOM     93  F   UNL A   1      48.759  27.680  28.812  1.00  0.00    -0.206 F 
ATOM     94  C   UNL A   1      50.396  26.120  31.631  1.00  0.00     0.060 A 
BRANCH  94  95
ATOM     95  S   UNL A   1      52.038  25.564  32.130  1.00  0.00     0.124 S 
ATOM     96  O   UNL A   1      52.852  26.005  31.002  1.00  0.00    -0.237 OA
ATOM     97  O   UNL A   1      52.247  26.284  33.383  1.00  0.00    -0.237 OA
ATOM     98  O   UNL A   1      51.880  24.119  32.264  1.00  0.00    -0.744 OA
ENDBRANCH  94  95
ENDBRANCH  62  87
ENDBRANCH  36  37
ENDBRANCH  28  31
ENDBRANCH  26  27
ENDBRANCH  25  26
ENDBRANCH   1  25
TORSDOF 18
ENDMDL
MODEL 3
REMARK VINA RESULT:     -11.4      2.777      3.995
REMARK SMILES C[C@H](C(=O)NCCCCNC(=O)c1ccc(-c2c3nc(c(-c4c(F)cc(S(=O)(=O)[O-])cc4F)c4ccc([nH]4)c(-c4c(F)cc(S(=O)(=O)[O-])cc4F)c4nc(c(-c5c(F)cc(S(=O)(=O)[O-])cc5F)c5ccc2[nH]5)C=C4)C=C3)cc1)[C@@H](C(=O)c1ccccc1)c1ccc(F)cc1
REMARK SMILES IDX 7 1 6 2 5 3 3 4 4 5 2 7 1 8 79 9 80 10 81 11 82 12 83 13
REMARK SMILES IDX 87 14 84 15 86 16 85 17 88 18 89 19 94 20 90 21 93 22 91 23
REMARK SMILES IDX 92 24 8 25 9 26 10 27 11 28 12 30 13 31 14 32 78 33 15 34
REMARK SMILES IDX 77 35 16 36 17 37 18 38 71 39 19 40 76 41 70 42 72 43 20 44
REMARK SMILES IDX 75 45 69 46 68 47 21 49 55 50 34 51 54 52 35 53 38 54 53 55
REMARK SMILES IDX 73 56 36 57 37 58 52 60 74 61 39 62 22 63 23 64 32 65 24 66
REMARK SMILES IDX 25 67 31 68 33 69 26 70 27 71 28 72 29 73 30 74 56 75 57 76
REMARK SMILES IDX 66 77 58 78 59 79 65 80 67 81 60 82 61 83 62 84 63 85 64 86
REMARK SMILES IDX 40 87 41 88 50 89 42 90 43 91 49 92 51 93 44 94 45 95 46 96
REMARK SMILES IDX 47 97 48 98
REMARK H PARENT 5 6 10 29 72 48 38 59
REMARK Flexibility Score: inf
ROOT
ATOM      1  C   UNL A   1      32.214  26.959  25.817  1.00  0.00     0.023 C 
ENDROOT
BRANCH   1   2
ATOM      2  C   UNL A   1      32.586  25.571  25.306  1.00  0.00     0.116 C 
BRANCH   2   3
ATOM      3  N   UNL A   1      32.035  24.502  26.120  1.00  0.00    -0.356 N 
ATOM      4  C   UNL A   1      32.606  23.391  26.649  1.00  0.00     0.223 C 
ATOM      5  O   UNL A   1      31.919  22.691  27.396  1.00  0.00    -0.275 OA
ATOM      6  H   UNL A   1      31.077  24.602  26.325  1.00  0.00     0.163 HD
BRANCH   4   7
ATOM      7  C   UNL A   1      34.046  23.038  26.339  1.00  0.00     0.090 C 
ATOM      8  C   UNL A   1      34.410  21.818  27.219  1.00  0.00     0.019 C 
BRANCH   7   9
ATOM      9  C   UNL A   1      34.383  22.743  24.845  1.00  0.00     0.103 C 
BRANCH   9  10
ATOM     10  C   UNL A   1      35.845  22.896  24.335  1.00  0.00     0.171 C 
ATOM     11  O   UNL A   1      36.086  23.112  23.142  1.00  0.00    -0.293 OA
BRANCH  10  12
ATOM     12  C   UNL A   1      37.048  22.825  25.235  1.00  0.00     0.018 A 
ATOM     13  C   UNL A   1      37.388  23.992  25.951  1.00  0.00     0.012 A 
ATOM     14  C   UNL A   1      37.884  21.717  25.349  1.00  0.00     0.012 A 
ATOM     15  C   UNL A   1      38.581  24.082  26.670  1.00  0.00     0.001 A 
ATOM     16  C   UNL A   1      39.102  21.819  26.037  1.00  0.00     0.001 A 
ATOM     17  C   UNL A   1      39.457  23.004  26.682  1.00  0.00     0.000 A 
ENDBRANCH  10  12
ENDBRANCH   9  10
BRANCH   9  18
ATOM     18  C   UNL A   1      33.882  21.294  24.592  1.00  0.00    -0.036 A 
ATOM     19  C   UNL A   1      34.702  20.190  24.873  1.00  0.00     0.007 A 
ATOM     20  C   UNL A   1      32.636  21.066  23.966  1.00  0.00     0.007 A 
ATOM     21  C   UNL A   1      34.295  18.902  24.513  1.00  0.00     0.039 A 
ATOM     22  C   UNL A   1      32.227  19.780  23.621  1.00  0.00     0.039 A 
ATOM     23  C   UNL A   1      33.066  18.710  23.888  1.00  0.00     0.123 A 
ATOM     24  F   UNL A   1      32.692  17.475  23.530  1.00  0.00    -0.207 F 
ENDBRANCH   9  18
ENDBRANCH   7   9
ENDBRANCH   4   7
ENDBRANCH   2   3
ENDBRANCH   1   2
BRANCH   1  25
ATOM     25  C   UNL A   1      33.328  27.687  26.568  1.00  0.00     0.023 C 
BRANCH  25  26
ATOM     26  C   UNL A   1      34.018  28.775  25.765  1.00  0.00     0.116 C 
BRANCH  26  27
ATOM     27  N   UNL A   1      33.731  30.096  26.294  1.00  0.00    -0.352 N 
ATOM     28  C   UNL A   1      34.324  30.769  27.327  1.00  0.00     0.251 C 
ATOM     29  H   UNL A   1      33.000  30.578  25.843  1.00  0.00     0.163 HD
ATOM     30  O   UNL A   1      33.782  31.787  27.766  1.00  0.00    -0.269 OA
BRANCH  28  31
ATOM     31  C   UNL A   1      35.594  30.292  27.918  1.00  0.00     0.039 A 
ATOM     32  C   UNL A   1      35.557  29.639  29.153  1.00  0.00     0.014 A 
ATOM     33  C   UNL A   1      36.824  30.536  27.299  1.00  0.00     0.014 A 
ATOM     34  C   UNL A   1      36.747  29.230  29.760  1.00  0.00     0.010 A 
ATOM     35  C   UNL A   1      37.998  30.038  27.853  1.00  0.00     0.010 A 
ATOM     36  C   UNL A   1      37.977  29.424  29.113  1.00  0.00    -0.014 A 
BRANCH  36  37
ATOM     37  C   UNL A   1      39.259  29.085  29.781  1.00  0.00     0.031 A 
ATOM     38  C   UNL A   1      39.671  29.834  31.023  1.00  0.00     0.074 A 
ATOM     39  C   UNL A   1      40.060  28.135  29.261  1.00  0.00     0.049 A 
ATOM     40  N   UNL A   1      40.759  29.715  31.739  1.00  0.00    -0.248 NA
ATOM     41  C   UNL A   1      38.755  30.883  31.503  1.00  0.00     0.031 C 
ATOM     42  C   UNL A   1      39.792  27.377  28.037  1.00  0.00     0.029 A 
ATOM     43  N   UNL A   1      41.262  27.643  29.700  1.00  0.00    -0.354 N 
ATOM     44  C   UNL A   1      40.671  30.690  32.728  1.00  0.00     0.074 A 
ATOM     45  C   UNL A   1      39.455  31.432  32.484  1.00  0.00     0.031 C 
ATOM     46  C   UNL A   1      40.781  26.488  27.846  1.00  0.00     0.029 A 
ATOM     47  C   UNL A   1      41.764  26.633  28.915  1.00  0.00     0.049 A 
ATOM     48  H   UNL A   1      41.722  27.981  30.503  1.00  0.00     0.167 HD
ATOM     49  C   UNL A   1      41.510  30.928  33.765  1.00  0.00     0.037 A 
ATOM     50  C   UNL A   1      42.886  25.898  29.053  1.00  0.00     0.037 A 
ATOM     51  C   UNL A   1      42.687  30.147  34.033  1.00  0.00     0.049 A 
ATOM     52  C   UNL A   1      43.777  26.146  30.241  1.00  0.00     0.074 A 
ATOM     53  C   UNL A   1      43.569  30.251  35.094  1.00  0.00     0.029 A 
ATOM     54  N   UNL A   1      43.140  29.106  33.236  1.00  0.00    -0.354 N 
ATOM     55  N   UNL A   1      43.648  27.031  31.200  1.00  0.00    -0.248 NA
ATOM     56  C   UNL A   1      44.958  25.282  30.373  1.00  0.00     0.031 C 
ATOM     57  C   UNL A   1      44.576  29.295  34.919  1.00  0.00     0.029 A 
ATOM     58  C   UNL A   1      44.294  28.565  33.775  1.00  0.00     0.049 A 
ATOM     59  H   UNL A   1      42.706  28.797  32.408  1.00  0.00     0.167 HD
ATOM     60  C   UNL A   1      44.707  26.805  32.072  1.00  0.00     0.074 A 
ATOM     61  C   UNL A   1      45.465  25.697  31.525  1.00  0.00     0.031 C 
ATOM     62  C   UNL A   1      45.022  27.449  33.223  1.00  0.00     0.037 A 
BRANCH  49  63
ATOM     63  C   UNL A   1      41.176  32.075  34.681  1.00  0.00     0.058 A 
ATOM     64  C   UNL A   1      40.357  31.910  35.811  1.00  0.00     0.135 A 
ATOM     65  C   UNL A   1      41.688  33.359  34.431  1.00  0.00     0.135 A 
ATOM     66  F   UNL A   1      39.825  30.708  36.091  1.00  0.00    -0.206 F 
ATOM     67  C   UNL A   1      40.020  32.982  36.630  1.00  0.00     0.059 A 
ATOM     68  C   UNL A   1      41.390  34.439  35.256  1.00  0.00     0.059 A 
ATOM     69  F   UNL A   1      42.478  33.575  33.367  1.00  0.00    -0.206 F 
ATOM     70  C   UNL A   1      40.538  34.245  36.342  1.00  0.00     0.060 A 
BRANCH  70  71
ATOM     71  S   UNL A   1      40.081  35.630  37.405  1.00  0.00     0.124 S 
ATOM     72  O   UNL A   1      39.804  36.672  36.422  1.00  0.00    -0.237 OA
ATOM     73  O   UNL A   1      38.920  35.109  38.119  1.00  0.00    -0.237 OA
ATOM     74  O   UNL A   1      41.273  35.838  38.222  1.00  0.00    -0.744 OA
ENDBRANCH  70  71
ENDBRANCH  49  63
BRANCH  50  75
ATOM     75  C   UNL A   1      43.190  24.818  28.079  1.00  0.00     0.058 A 
ATOM     76  C   UNL A   1      43.886  25.098  26.893  1.00  0.00     0.135 A 
ATOM     77  C   UNL A   1      42.816  23.487  28.318  1.00  0.00     0.135 A 
ATOM     78  F   UNL A   1      44.263  26.355  26.618  1.00  0.00    -0.206 F 
ATOM     79  C   UNL A   1      44.183  24.102  25.968  1.00  0.00     0.059 A 
ATOM     80  C   UNL A   1      43.123  22.469  27.420  1.00  0.00     0.059 A 
ATOM     81  F   UNL A   1      42.168  23.163  29.448  1.00  0.00    -0.206 F 
ATOM     82  C   UNL A   1      43.798  22.789  26.242  1.00  0.00     0.060 A 
BRANCH  82  83
ATOM     83  S   UNL A   1      44.233  21.495  25.059  1.00  0.00     0.124 S 
ATOM     84  O   UNL A   1      43.215  20.489  25.336  1.00  0.00    -0.237 OA
ATOM     85  O   UNL A   1      44.113  22.193  23.783  1.00  0.00    -0.237 OA
ATOM     86  O   UNL A   1      45.596  21.136  25.442  1.00  0.00    -0.744 OA
ENDBRANCH  82  83
ENDBRANCH  50  75
BRANCH  62  87
ATOM     87  C   UNL A   1      46.201  26.934  34.000  1.00  0.00     0.058 A 
ATOM     88  C   UNL A   1      46.062  25.965  35.005  1.00  0.00     0.135 A 
ATOM     89  C   UNL A   1      47.494  27.396  33.705  1.00  0.00     0.135 A 
ATOM     90  F   UNL A   1      44.848  25.492  35.326  1.00  0.00    -0.206 F 
ATOM     91  C   UNL A   1      47.163  25.496  35.716  1.00  0.00     0.059 A 
ATOM     92  C   UNL A   1      48.611  26.922  34.384  1.00  0.00     0.059 A 
ATOM     93  F   UNL A   1      47.682  28.313  32.742  1.00  0.00    -0.206 F 
ATOM     94  C   UNL A   1      48.433  25.984  35.400  1.00  0.00     0.060 A 
BRANCH  94  95
ATOM     95  S   UNL A   1      49.855  25.361  36.320  1.00  0.00     0.124 S 
ATOM     96  O   UNL A   1      50.851  25.225  35.263  1.00  0.00    -0.237 OA
ATOM     97  O   UNL A   1      50.097  26.429  37.286  1.00  0.00    -0.237 OA
ATOM     98  O   UNL A   1      49.368  24.108  36.889  1.00  0.00    -0.744 OA
ENDBRANCH  94  95
ENDBRANCH  62  87
ENDBRANCH  36  37
ENDBRANCH  28  31
ENDBRANCH  26  27
ENDBRANCH  25  26
ENDBRANCH   1  25
TORSDOF 18
ENDMDL
