MODEL 1
REMARK VINA RESULT:     -11.9      0.000      0.000
REMARK SMILES COc1ncccc1Cn1ccc(C(=O)NCCCCNC(=O)c2ccc(-c3c4nc(c(-c5c(F)cc(S(=O)(=O)[O-])cc5F)c5ccc([nH]5)c(-c5c(F)cc(S(=O)(=O)[O-])cc5F)c5nc(c(-c6c(F)cc(S(=O)(=O)[O-])cc6F)c6ccc3[nH]6)C=C5)C=C4)cc2)n1
REMARK SMILES IDX 18 1 17 2 16 3 14 4 15 5 13 7 10 8 11 9 90 10 12 11 9 12
REMARK SMILES IDX 8 13 3 14 4 15 5 16 7 17 6 18 2 19 1 20 19 21 20 22 21 23
REMARK SMILES IDX 22 24 23 26 24 27 25 28 89 29 26 30 88 31 27 32 28 33 29 34
REMARK SMILES IDX 82 35 30 36 87 37 81 38 83 39 31 40 86 41 80 42 79 43 32 45
REMARK SMILES IDX 66 46 45 47 65 48 46 49 49 50 64 51 84 52 47 53 48 54 63 56
REMARK SMILES IDX 85 57 50 58 33 59 34 60 43 61 35 62 36 63 42 64 44 65 37 66
REMARK SMILES IDX 38 67 39 68 40 69 41 70 67 71 68 72 77 73 69 74 70 75 76 76
REMARK SMILES IDX 78 77 71 78 72 79 73 80 74 81 75 82 51 83 52 84 61 85 53 86
REMARK SMILES IDX 54 87 60 88 62 89 55 90 56 91 57 92 58 93 59 94
REMARK H PARENT 16 6 21 25 83 44 49 55
REMARK Flexibility Score: inf
ROOT
ATOM      1  C   UNL A   1      36.369  23.195  23.626  1.00  0.00     0.023 C 
ENDROOT
BRANCH   1   2
ATOM      2  C   UNL A   1      34.881  23.540  23.655  1.00  0.00     0.116 C 
BRANCH   2   3
ATOM      3  N   UNL A   1      34.068  22.356  23.457  1.00  0.00    -0.351 N 
ATOM      4  C   UNL A   1      32.868  22.011  24.038  1.00  0.00     0.271 C 
ATOM      5  O   UNL A   1      32.333  20.960  23.690  1.00  0.00    -0.267 OA
ATOM      6  H   UNL A   1      34.427  21.701  22.815  1.00  0.00     0.163 HD
BRANCH   4   7
ATOM      7  C   UNL A   1      32.213  22.948  24.961  1.00  0.00     0.150 A 
ATOM      8  N   UNL A   1      31.032  24.548  25.729  1.00  0.00    -0.267 N 
ATOM      9  C   UNL A   1      31.293  23.756  26.812  1.00  0.00     0.110 A 
ATOM     10  N   UNL A   1      31.590  24.086  24.589  1.00  0.00    -0.167 NA
ATOM     11  C   UNL A   1      32.119  22.757  26.364  1.00  0.00     0.056 A 
BRANCH   8  12
ATOM     12  C   UNL A   1      30.114  25.681  25.695  1.00  0.00     0.185 C 
BRANCH  12  13
ATOM     13  C   UNL A   1      30.804  27.016  25.706  1.00  0.00     0.036 A 
ATOM     14  C   UNL A   1      30.843  27.832  24.578  1.00  0.00     0.218 A 
ATOM     15  N   UNL A   1      31.518  29.001  24.501  1.00  0.00    -0.222 NA
ATOM     16  C   UNL A   1      32.179  29.389  25.613  1.00  0.00     0.115 A 
ATOM     17  C   UNL A   1      31.485  27.468  26.842  1.00  0.00     0.013 A 
ATOM     18  C   UNL A   1      32.190  28.667  26.795  1.00  0.00     0.021 A 
BRANCH  14  19
ATOM     19  O   UNL A   1      30.284  27.370  23.412  1.00  0.00    -0.481 OA
ATOM     20  C   UNL A   1      30.104  28.451  22.500  1.00  0.00     0.280 C 
ENDBRANCH  14  19
ENDBRANCH  12  13
ENDBRANCH   8  12
ENDBRANCH   4   7
ENDBRANCH   2   3
ENDBRANCH   1   2
BRANCH   1  21
ATOM     21  C   UNL A   1      36.831  22.250  24.746  1.00  0.00     0.023 C 
BRANCH  21  22
ATOM     22  C   UNL A   1      37.759  22.888  25.774  1.00  0.00     0.116 C 
BRANCH  22  23
ATOM     23  N   UNL A   1      38.793  21.969  26.234  1.00  0.00    -0.352 N 
ATOM     24  C   UNL A   1      40.088  22.261  26.619  1.00  0.00     0.251 C 
ATOM     25  H   UNL A   1      38.536  21.019  26.275  1.00  0.00     0.163 HD
ATOM     26  O   UNL A   1      40.949  21.396  26.585  1.00  0.00    -0.269 OA
BRANCH  24  27
ATOM     27  C   UNL A   1      40.412  23.628  27.073  1.00  0.00     0.039 A 
ATOM     28  C   UNL A   1      39.770  24.732  26.508  1.00  0.00     0.014 A 
ATOM     29  C   UNL A   1      41.371  23.800  28.071  1.00  0.00     0.014 A 
ATOM     30  C   UNL A   1      40.039  26.000  27.020  1.00  0.00     0.010 A 
ATOM     31  C   UNL A   1      41.558  25.039  28.647  1.00  0.00     0.010 A 
ATOM     32  C   UNL A   1      40.914  26.147  28.111  1.00  0.00    -0.014 A 
BRANCH  32  33
ATOM     33  C   UNL A   1      41.031  27.443  28.780  1.00  0.00     0.031 A 
ATOM     34  C   UNL A   1      42.111  28.313  28.233  1.00  0.00     0.074 A 
ATOM     35  C   UNL A   1      40.151  27.928  29.683  1.00  0.00     0.049 A 
ATOM     36  N   UNL A   1      43.239  28.605  28.789  1.00  0.00    -0.248 NA
ATOM     37  C   UNL A   1      41.995  28.784  26.843  1.00  0.00     0.031 C 
ATOM     38  C   UNL A   1      38.868  27.355  30.104  1.00  0.00     0.029 A 
ATOM     39  N   UNL A   1      40.187  29.108  30.365  1.00  0.00    -0.354 N 
ATOM     40  C   UNL A   1      43.879  29.487  27.923  1.00  0.00     0.074 A 
ATOM     41  C   UNL A   1      43.166  29.404  26.674  1.00  0.00     0.031 C 
ATOM     42  C   UNL A   1      38.160  28.283  30.788  1.00  0.00     0.029 A 
ATOM     43  C   UNL A   1      38.998  29.448  31.003  1.00  0.00     0.049 A 
ATOM     44  H   UNL A   1      40.991  29.675  30.401  1.00  0.00     0.167 HD
ATOM     45  C   UNL A   1      44.797  30.383  28.383  1.00  0.00     0.037 A 
ATOM     46  C   UNL A   1      38.720  30.608  31.654  1.00  0.00     0.037 A 
ATOM     47  C   UNL A   1      45.211  30.048  29.724  1.00  0.00     0.049 A 
ATOM     48  C   UNL A   1      40.023  31.218  32.019  1.00  0.00     0.074 A 
ATOM     49  C   UNL A   1      45.816  28.957  30.315  1.00  0.00     0.029 A 
ATOM     50  N   UNL A   1      44.648  30.770  30.750  1.00  0.00    -0.354 N 
ATOM     51  N   UNL A   1      40.851  30.703  32.887  1.00  0.00    -0.248 NA
ATOM     52  C   UNL A   1      40.607  32.181  31.099  1.00  0.00     0.031 C 
ATOM     53  C   UNL A   1      45.185  28.828  31.587  1.00  0.00     0.029 A 
ATOM     54  C   UNL A   1      44.287  29.887  31.734  1.00  0.00     0.049 A 
ATOM     55  H   UNL A   1      44.527  31.746  30.773  1.00  0.00     0.167 HD
ATOM     56  C   UNL A   1      42.109  30.924  32.346  1.00  0.00     0.074 A 
ATOM     57  C   UNL A   1      41.901  31.928  31.305  1.00  0.00     0.031 C 
ATOM     58  C   UNL A   1      43.143  30.070  32.603  1.00  0.00     0.037 A 
BRANCH  45  59
ATOM     59  C   UNL A   1      45.050  31.755  27.798  1.00  0.00     0.058 A 
ATOM     60  C   UNL A   1      46.307  32.034  27.216  1.00  0.00     0.135 A 
ATOM     61  C   UNL A   1      44.229  32.880  28.032  1.00  0.00     0.135 A 
ATOM     62  F   UNL A   1      47.175  31.045  26.952  1.00  0.00    -0.206 F 
ATOM     63  C   UNL A   1      46.744  33.335  26.962  1.00  0.00     0.059 A 
ATOM     64  C   UNL A   1      44.624  34.181  27.735  1.00  0.00     0.059 A 
ATOM     65  F   UNL A   1      43.046  32.788  28.648  1.00  0.00    -0.206 F 
ATOM     66  C   UNL A   1      45.898  34.402  27.238  1.00  0.00     0.060 A 
BRANCH  66  67
ATOM     67  S   UNL A   1      46.489  36.086  26.990  1.00  0.00     0.124 S 
ATOM     68  O   UNL A   1      47.447  36.221  28.081  1.00  0.00    -0.237 OA
ATOM     69  O   UNL A   1      47.055  36.010  25.646  1.00  0.00    -0.237 OA
ATOM     70  O   UNL A   1      45.276  36.887  27.107  1.00  0.00    -0.744 OA
ENDBRANCH  66  67
ENDBRANCH  45  59
BRANCH  46  71
ATOM     71  C   UNL A   1      37.443  31.366  31.736  1.00  0.00     0.058 A 
ATOM     72  C   UNL A   1      36.850  31.660  32.979  1.00  0.00     0.135 A 
ATOM     73  C   UNL A   1      36.943  32.080  30.628  1.00  0.00     0.135 A 
ATOM     74  F   UNL A   1      37.269  31.037  34.091  1.00  0.00    -0.206 F 
ATOM     75  C   UNL A   1      35.874  32.651  33.128  1.00  0.00     0.059 A 
ATOM     76  C   UNL A   1      35.964  33.068  30.751  1.00  0.00     0.059 A 
ATOM     77  F   UNL A   1      37.464  31.908  29.405  1.00  0.00    -0.206 F 
ATOM     78  C   UNL A   1      35.456  33.371  32.010  1.00  0.00     0.060 A 
BRANCH  78  79
ATOM     79  S   UNL A   1      34.350  34.787  32.227  1.00  0.00     0.124 S 
ATOM     80  O   UNL A   1      33.236  34.191  32.957  1.00  0.00    -0.237 OA
ATOM     81  O   UNL A   1      35.183  35.717  32.982  1.00  0.00    -0.237 OA
ATOM     82  O   UNL A   1      34.051  35.195  30.857  1.00  0.00    -0.744 OA
ENDBRANCH  78  79
ENDBRANCH  46  71
BRANCH  58  83
ATOM     83  C   UNL A   1      43.009  29.104  33.753  1.00  0.00     0.058 A 
ATOM     84  C   UNL A   1      43.334  29.389  35.092  1.00  0.00     0.135 A 
ATOM     85  C   UNL A   1      42.380  27.876  33.495  1.00  0.00     0.135 A 
ATOM     86  F   UNL A   1      43.849  30.575  35.444  1.00  0.00    -0.206 F 
ATOM     87  C   UNL A   1      43.076  28.476  36.119  1.00  0.00     0.059 A 
ATOM     88  C   UNL A   1      42.082  26.968  34.506  1.00  0.00     0.059 A 
ATOM     89  F   UNL A   1      41.994  27.568  32.246  1.00  0.00    -0.206 F 
ATOM     90  C   UNL A   1      42.446  27.269  35.816  1.00  0.00     0.060 A 
BRANCH  90  91
ATOM     91  S   UNL A   1      42.042  26.121  37.151  1.00  0.00     0.124 S 
ATOM     92  O   UNL A   1      42.324  24.827  36.539  1.00  0.00    -0.237 OA
ATOM     93  O   UNL A   1      42.956  26.533  38.212  1.00  0.00    -0.237 OA
ATOM     94  O   UNL A   1      40.631  26.390  37.418  1.00  0.00    -0.744 OA
ENDBRANCH  90  91
ENDBRANCH  58  83
ENDBRANCH  32  33
ENDBRANCH  24  27
ENDBRANCH  22  23
ENDBRANCH  21  22
ENDBRANCH   1  21
TORSDOF 17
ENDMDL
MODEL 2
REMARK VINA RESULT:     -11.9      1.646      2.296
REMARK SMILES COc1ncccc1Cn1ccc(C(=O)NCCCCNC(=O)c2ccc(-c3c4nc(c(-c5c(F)cc(S(=O)(=O)[O-])cc5F)c5ccc([nH]5)c(-c5c(F)cc(S(=O)(=O)[O-])cc5F)c5nc(c(-c6c(F)cc(S(=O)(=O)[O-])cc6F)c6ccc3[nH]6)C=C5)C=C4)cc2)n1
REMARK SMILES IDX 18 1 17 2 16 3 14 4 15 5 13 7 10 8 11 9 90 10 12 11 9 12
REMARK SMILES IDX 8 13 3 14 4 15 5 16 7 17 6 18 2 19 1 20 19 21 20 22 21 23
REMARK SMILES IDX 22 24 23 26 24 27 25 28 89 29 26 30 88 31 27 32 28 33 29 34
REMARK SMILES IDX 82 35 30 36 87 37 81 38 83 39 31 40 86 41 80 42 79 43 32 45
REMARK SMILES IDX 66 46 45 47 65 48 46 49 49 50 64 51 84 52 47 53 48 54 63 56
REMARK SMILES IDX 85 57 50 58 33 59 34 60 43 61 35 62 36 63 42 64 44 65 37 66
REMARK SMILES IDX 38 67 39 68 40 69 41 70 67 71 68 72 77 73 69 74 70 75 76 76
REMARK SMILES IDX 78 77 71 78 72 79 73 80 74 81 75 82 51 83 52 84 61 85 53 86
REMARK SMILES IDX 54 87 60 88 62 89 55 90 56 91 57 92 58 93 59 94
REMARK H PARENT 16 6 21 25 83 44 49 55
REMARK Flexibility Score: inf
ROOT
ATOM      1  C   UNL A   1      38.165  23.736  26.140  1.00  0.00     0.023 C 
ENDROOT
BRANCH   1   2
ATOM      2  C   UNL A   1      36.691  23.738  25.735  1.00  0.00     0.116 C 
BRANCH   2   3
ATOM      3  N   UNL A   1      35.932  22.792  26.528  1.00  0.00    -0.351 N 
ATOM      4  C   UNL A   1      34.651  22.325  26.343  1.00  0.00     0.271 C 
ATOM      5  O   UNL A   1      34.216  21.486  27.132  1.00  0.00    -0.267 OA
ATOM      6  H   UNL A   1      36.401  22.430  27.316  1.00  0.00     0.163 HD
BRANCH   4   7
ATOM      7  C   UNL A   1      33.886  22.749  25.163  1.00  0.00     0.150 A 
ATOM      8  N   UNL A   1      32.605  23.851  23.863  1.00  0.00    -0.267 N 
ATOM      9  C   UNL A   1      33.298  23.010  23.039  1.00  0.00     0.110 A 
ATOM     10  N   UNL A   1      32.935  23.706  25.165  1.00  0.00    -0.167 NA
ATOM     11  C   UNL A   1      34.076  22.229  23.855  1.00  0.00     0.056 A 
BRANCH   8  12
ATOM     12  C   UNL A   1      31.724  24.934  23.441  1.00  0.00     0.185 C 
BRANCH  12  13
ATOM     13  C   UNL A   1      32.394  26.279  23.410  1.00  0.00     0.036 A 
ATOM     14  C   UNL A   1      32.043  27.296  24.294  1.00  0.00     0.218 A 
ATOM     15  N   UNL A   1      32.548  28.549  24.260  1.00  0.00    -0.222 NA
ATOM     16  C   UNL A   1      33.466  28.802  23.302  1.00  0.00     0.115 A 
ATOM     17  C   UNL A   1      33.365  26.580  22.447  1.00  0.00     0.013 A 
ATOM     18  C   UNL A   1      33.903  27.861  22.385  1.00  0.00     0.021 A 
BRANCH  14  19
ATOM     19  O   UNL A   1      31.015  27.073  25.177  1.00  0.00    -0.481 OA
ATOM     20  C   UNL A   1      31.518  27.056  26.511  1.00  0.00     0.280 C 
ENDBRANCH  14  19
ENDBRANCH  12  13
ENDBRANCH   8  12
ENDBRANCH   4   7
ENDBRANCH   2   3
ENDBRANCH   1   2
BRANCH   1  21
ATOM     21  C   UNL A   1      38.853  22.365  26.053  1.00  0.00     0.023 C 
BRANCH  21  22
ATOM     22  C   UNL A   1      40.031  22.184  27.006  1.00  0.00     0.116 C 
BRANCH  22  23
ATOM     23  N   UNL A   1      41.283  21.941  26.300  1.00  0.00    -0.352 N 
ATOM     24  C   UNL A   1      42.166  22.868  25.781  1.00  0.00     0.251 C 
ATOM     25  H   UNL A   1      41.530  20.995  26.177  1.00  0.00     0.163 HD
ATOM     26  O   UNL A   1      42.933  22.551  24.885  1.00  0.00    -0.269 OA
BRANCH  24  27
ATOM     27  C   UNL A   1      42.170  24.240  26.326  1.00  0.00     0.039 A 
ATOM     28  C   UNL A   1      41.492  25.266  25.664  1.00  0.00     0.014 A 
ATOM     29  C   UNL A   1      42.863  24.497  27.509  1.00  0.00     0.014 A 
ATOM     30  C   UNL A   1      41.446  26.529  26.251  1.00  0.00     0.010 A 
ATOM     31  C   UNL A   1      42.730  25.715  28.141  1.00  0.00     0.010 A 
ATOM     32  C   UNL A   1      42.043  26.743  27.507  1.00  0.00    -0.014 A 
BRANCH  32  33
ATOM     33  C   UNL A   1      41.814  28.002  28.216  1.00  0.00     0.031 A 
ATOM     34  C   UNL A   1      42.888  29.016  28.015  1.00  0.00     0.074 A 
ATOM     35  C   UNL A   1      40.668  28.333  28.851  1.00  0.00     0.049 A 
ATOM     36  N   UNL A   1      43.776  29.396  28.871  1.00  0.00    -0.248 NA
ATOM     37  C   UNL A   1      43.100  29.553  26.661  1.00  0.00     0.031 C 
ATOM     38  C   UNL A   1      39.399  27.599  28.883  1.00  0.00     0.029 A 
ATOM     39  N   UNL A   1      40.372  29.467  29.547  1.00  0.00    -0.354 N 
ATOM     40  C   UNL A   1      44.516  30.394  28.241  1.00  0.00     0.074 A 
ATOM     41  C   UNL A   1      44.188  30.307  26.842  1.00  0.00     0.031 C 
ATOM     42  C   UNL A   1      38.423  28.401  29.367  1.00  0.00     0.029 A 
ATOM     43  C   UNL A   1      39.022  29.636  29.838  1.00  0.00     0.049 A 
ATOM     44  H   UNL A   1      41.061  30.116  29.821  1.00  0.00     0.167 HD
ATOM     45  C   UNL A   1      45.158  31.356  28.963  1.00  0.00     0.037 A 
ATOM     46  C   UNL A   1      38.437  30.718  30.417  1.00  0.00     0.037 A 
ATOM     47  C   UNL A   1      45.226  30.989  30.357  1.00  0.00     0.049 A 
ATOM     48  C   UNL A   1      39.506  31.444  31.146  1.00  0.00     0.074 A 
ATOM     49  C   UNL A   1      45.775  29.938  31.064  1.00  0.00     0.029 A 
ATOM     50  N   UNL A   1      44.321  31.583  31.204  1.00  0.00    -0.354 N 
ATOM     51  N   UNL A   1      40.122  30.973  32.196  1.00  0.00    -0.248 NA
ATOM     52  C   UNL A   1      40.197  32.518  30.450  1.00  0.00     0.031 C 
ATOM     53  C   UNL A   1      44.841  29.665  32.105  1.00  0.00     0.029 A 
ATOM     54  C   UNL A   1      43.814  30.609  32.024  1.00  0.00     0.049 A 
ATOM     55  H   UNL A   1      44.080  32.537  31.218  1.00  0.00     0.167 HD
ATOM     56  C   UNL A   1      41.443  31.362  32.033  1.00  0.00     0.074 A 
ATOM     57  C   UNL A   1      41.407  32.397  31.002  1.00  0.00     0.031 C 
ATOM     58  C   UNL A   1      42.464  30.613  32.545  1.00  0.00     0.037 A 
BRANCH  45  59
ATOM     59  C   UNL A   1      45.391  32.780  28.508  1.00  0.00     0.058 A 
ATOM     60  C   UNL A   1      46.707  33.293  28.503  1.00  0.00     0.135 A 
ATOM     61  C   UNL A   1      44.368  33.739  28.350  1.00  0.00     0.135 A 
ATOM     62  F   UNL A   1      47.763  32.477  28.652  1.00  0.00    -0.206 F 
ATOM     63  C   UNL A   1      46.979  34.660  28.428  1.00  0.00     0.059 A 
ATOM     64  C   UNL A   1      44.620  35.102  28.217  1.00  0.00     0.059 A 
ATOM     65  F   UNL A   1      43.070  33.421  28.412  1.00  0.00    -0.206 F 
ATOM     66  C   UNL A   1      45.926  35.557  28.298  1.00  0.00     0.060 A 
BRANCH  66  67
ATOM     67  S   UNL A   1      46.267  37.325  28.284  1.00  0.00     0.124 S 
ATOM     68  O   UNL A   1      47.567  37.365  27.626  1.00  0.00    -0.237 OA
ATOM     69  O   UNL A   1      45.141  37.842  27.511  1.00  0.00    -0.237 OA
ATOM     70  O   UNL A   1      46.261  37.679  29.700  1.00  0.00    -0.744 OA
ENDBRANCH  66  67
ENDBRANCH  45  59
BRANCH  46  71
ATOM     71  C   UNL A   1      37.104  31.325  30.159  1.00  0.00     0.058 A 
ATOM     72  C   UNL A   1      36.408  32.009  31.174  1.00  0.00     0.135 A 
ATOM     73  C   UNL A   1      36.627  31.516  28.846  1.00  0.00     0.135 A 
ATOM     74  F   UNL A   1      36.797  31.895  32.453  1.00  0.00    -0.206 F 
ATOM     75  C   UNL A   1      35.352  32.885  30.900  1.00  0.00     0.059 A 
ATOM     76  C   UNL A   1      35.571  32.379  28.549  1.00  0.00     0.059 A 
ATOM     77  F   UNL A   1      37.241  30.945  27.800  1.00  0.00    -0.206 F 
ATOM     78  C   UNL A   1      34.958  33.085  29.579  1.00  0.00     0.060 A 
BRANCH  78  79
ATOM     79  S   UNL A   1      33.736  34.366  29.199  1.00  0.00     0.124 S 
ATOM     80  O   UNL A   1      32.853  33.674  28.268  1.00  0.00    -0.237 OA
ATOM     81  O   UNL A   1      33.175  34.656  30.515  1.00  0.00    -0.237 OA
ATOM     82  O   UNL A   1      34.539  35.439  28.618  1.00  0.00    -0.744 OA
ENDBRANCH  78  79
ENDBRANCH  46  71
BRANCH  58  83
ATOM     83  C   UNL A   1      42.139  29.572  33.586  1.00  0.00     0.058 A 
ATOM     84  C   UNL A   1      41.669  28.274  33.314  1.00  0.00     0.135 A 
ATOM     85  C   UNL A   1      42.465  29.867  34.919  1.00  0.00     0.135 A 
ATOM     86  F   UNL A   1      41.424  27.873  32.059  1.00  0.00    -0.206 F 
ATOM     87  C   UNL A   1      41.497  27.329  34.330  1.00  0.00     0.059 A 
ATOM     88  C   UNL A   1      42.336  28.931  35.940  1.00  0.00     0.059 A 
ATOM     89  F   UNL A   1      42.972  31.071  35.237  1.00  0.00    -0.206 F 
ATOM     90  C   UNL A   1      41.838  27.667  35.640  1.00  0.00     0.060 A 
BRANCH  90  91
ATOM     91  S   UNL A   1      41.689  26.423  36.942  1.00  0.00     0.124 S 
ATOM     92  O   UNL A   1      41.731  25.178  36.182  1.00  0.00    -0.237 OA
ATOM     93  O   UNL A   1      42.856  26.695  37.776  1.00  0.00    -0.237 OA
ATOM     94  O   UNL A   1      40.404  26.731  37.564  1.00  0.00    -0.744 OA
ENDBRANCH  90  91
ENDBRANCH  58  83
ENDBRANCH  32  33
ENDBRANCH  24  27
ENDBRANCH  22  23
ENDBRANCH  21  22
ENDBRANCH   1  21
TORSDOF 17
ENDMDL
MODEL 3
REMARK VINA RESULT:     -11.9      2.791      9.564
REMARK SMILES COc1ncccc1Cn1ccc(C(=O)NCCCCNC(=O)c2ccc(-c3c4nc(c(-c5c(F)cc(S(=O)(=O)[O-])cc5F)c5ccc([nH]5)c(-c5c(F)cc(S(=O)(=O)[O-])cc5F)c5nc(c(-c6c(F)cc(S(=O)(=O)[O-])cc6F)c6ccc3[nH]6)C=C5)C=C4)cc2)n1
REMARK SMILES IDX 18 1 17 2 16 3 14 4 15 5 13 7 10 8 11 9 90 10 12 11 9 12
REMARK SMILES IDX 8 13 3 14 4 15 5 16 7 17 6 18 2 19 1 20 19 21 20 22 21 23
REMARK SMILES IDX 22 24 23 26 24 27 25 28 89 29 26 30 88 31 27 32 28 33 29 34
REMARK SMILES IDX 82 35 30 36 87 37 81 38 83 39 31 40 86 41 80 42 79 43 32 45
REMARK SMILES IDX 66 46 45 47 65 48 46 49 49 50 64 51 84 52 47 53 48 54 63 56
REMARK SMILES IDX 85 57 50 58 33 59 34 60 43 61 35 62 36 63 42 64 44 65 37 66
REMARK SMILES IDX 38 67 39 68 40 69 41 70 67 71 68 72 77 73 69 74 70 75 76 76
REMARK SMILES IDX 78 77 71 78 72 79 73 80 74 81 75 82 51 83 52 84 61 85 53 86
REMARK SMILES IDX 54 87 60 88 62 89 55 90 56 91 57 92 58 93 59 94
REMARK H PARENT 16 6 21 25 83 44 49 55
REMARK Flexibility Score: inf
ROOT
ATOM      1  C   UNL A   1      33.016  28.735  25.069  1.00  0.00     0.023 C 
ENDROOT
BRANCH   1   2
ATOM      2  C   UNL A   1      33.178  28.976  23.569  1.00  0.00     0.116 C 
BRANCH   2   3
ATOM      3  N   UNL A   1      31.890  29.164  22.930  1.00  0.00    -0.351 N 
ATOM      4  C   UNL A   1      30.988  28.224  22.487  1.00  0.00     0.271 C 
ATOM      5  O   UNL A   1      29.928  28.616  22.002  1.00  0.00    -0.267 OA
ATOM      6  H   UNL A   1      31.621  30.102  22.793  1.00  0.00     0.163 HD
BRANCH   4   7
ATOM      7  C   UNL A   1      31.261  26.797  22.703  1.00  0.00     0.150 A 
ATOM      8  N   UNL A   1      32.077  24.836  22.518  1.00  0.00    -0.267 N 
ATOM      9  C   UNL A   1      31.444  24.837  23.729  1.00  0.00     0.110 A 
ATOM     10  N   UNL A   1      31.973  26.014  21.865  1.00  0.00    -0.167 NA
ATOM     11  C   UNL A   1      30.839  26.063  23.842  1.00  0.00     0.056 A 
BRANCH   8  12
ATOM     12  C   UNL A   1      32.942  23.780  22.002  1.00  0.00     0.185 C 
BRANCH  12  13
ATOM     13  C   UNL A   1      33.159  22.652  22.970  1.00  0.00     0.036 A 
ATOM     14  C   UNL A   1      34.286  22.591  23.787  1.00  0.00     0.218 A 
ATOM     15  N   UNL A   1      34.579  21.563  24.614  1.00  0.00    -0.222 NA
ATOM     16  C   UNL A   1      33.693  20.543  24.642  1.00  0.00     0.115 A 
ATOM     17  C   UNL A   1      32.259  21.583  23.049  1.00  0.00     0.013 A 
ATOM     18  C   UNL A   1      32.531  20.508  23.889  1.00  0.00     0.021 A 
BRANCH  14  19
ATOM     19  O   UNL A   1      35.247  23.563  23.655  1.00  0.00    -0.481 OA
ATOM     20  C   UNL A   1      36.529  22.958  23.496  1.00  0.00     0.280 C 
ENDBRANCH  14  19
ENDBRANCH  12  13
ENDBRANCH   8  12
ENDBRANCH   4   7
ENDBRANCH   2   3
ENDBRANCH   1   2
BRANCH   1  21
ATOM     21  C   UNL A   1      32.950  30.013  25.921  1.00  0.00     0.023 C 
BRANCH  21  22
ATOM     22  C   UNL A   1      33.638  29.907  27.278  1.00  0.00     0.116 C 
BRANCH  22  23
ATOM     23  N   UNL A   1      33.689  31.187  27.975  1.00  0.00    -0.352 N 
ATOM     24  C   UNL A   1      34.664  31.654  28.836  1.00  0.00     0.251 C 
ATOM     25  H   UNL A   1      32.933  31.797  27.811  1.00  0.00     0.163 HD
ATOM     26  O   UNL A   1      34.400  32.528  29.646  1.00  0.00    -0.269 OA
BRANCH  24  27
ATOM     27  C   UNL A   1      36.024  31.083  28.760  1.00  0.00     0.039 A 
ATOM     28  C   UNL A   1      37.142  31.881  29.013  1.00  0.00     0.014 A 
ATOM     29  C   UNL A   1      36.174  29.736  28.430  1.00  0.00     0.014 A 
ATOM     30  C   UNL A   1      38.403  31.289  29.016  1.00  0.00     0.010 A 
ATOM     31  C   UNL A   1      37.408  29.130  28.537  1.00  0.00     0.010 A 
ATOM     32  C   UNL A   1      38.530  29.904  28.806  1.00  0.00    -0.014 A 
BRANCH  32  33
ATOM     33  C   UNL A   1      39.823  29.252  29.019  1.00  0.00     0.031 A 
ATOM     34  C   UNL A   1      40.171  29.051  30.455  1.00  0.00     0.074 A 
ATOM     35  C   UNL A   1      40.577  28.697  28.047  1.00  0.00     0.049 A 
ATOM     36  N   UNL A   1      41.060  29.686  31.142  1.00  0.00    -0.248 NA
ATOM     37  C   UNL A   1      39.327  28.155  31.262  1.00  0.00     0.031 C 
ATOM     38  C   UNL A   1      40.249  28.517  26.629  1.00  0.00     0.029 A 
ATOM     39  N   UNL A   1      41.792  28.086  28.149  1.00  0.00    -0.354 N 
ATOM     40  C   UNL A   1      41.055  29.110  32.409  1.00  0.00     0.074 A 
ATOM     41  C   UNL A   1      39.851  28.323  32.480  1.00  0.00     0.031 C 
ATOM     42  C   UNL A   1      41.130  27.660  26.064  1.00  0.00     0.029 A 
ATOM     43  C   UNL A   1      42.179  27.366  27.023  1.00  0.00     0.049 A 
ATOM     44  H   UNL A   1      42.351  28.151  28.957  1.00  0.00     0.167 HD
ATOM     45  C   UNL A   1      42.161  29.146  33.204  1.00  0.00     0.037 A 
ATOM     46  C   UNL A   1      43.278  26.578  26.892  1.00  0.00     0.037 A 
ATOM     47  C   UNL A   1      43.121  30.099  32.701  1.00  0.00     0.049 A 
ATOM     48  C   UNL A   1      44.246  27.015  27.929  1.00  0.00     0.074 A 
ATOM     49  C   UNL A   1      43.113  31.459  32.462  1.00  0.00     0.029 A 
ATOM     50  N   UNL A   1      44.188  29.597  31.995  1.00  0.00    -0.354 N 
ATOM     51  N   UNL A   1      44.840  28.177  27.927  1.00  0.00    -0.248 NA
ATOM     52  C   UNL A   1      44.228  26.327  29.210  1.00  0.00     0.031 C 
ATOM     53  C   UNL A   1      43.868  31.627  31.264  1.00  0.00     0.029 A 
ATOM     54  C   UNL A   1      44.358  30.377  30.881  1.00  0.00     0.049 A 
ATOM     55  H   UNL A   1      44.733  28.817  32.246  1.00  0.00     0.167 HD
ATOM     56  C   UNL A   1      44.868  28.559  29.260  1.00  0.00     0.074 A 
ATOM     57  C   UNL A   1      44.577  27.339  30.009  1.00  0.00     0.031 C 
ATOM     58  C   UNL A   1      44.846  29.878  29.612  1.00  0.00     0.037 A 
BRANCH  45  59
ATOM     59  C   UNL A   1      42.554  28.081  34.204  1.00  0.00     0.058 A 
ATOM     60  C   UNL A   1      42.619  28.416  35.575  1.00  0.00     0.135 A 
ATOM     61  C   UNL A   1      43.137  26.843  33.856  1.00  0.00     0.135 A 
ATOM     62  F   UNL A   1      42.104  29.572  36.024  1.00  0.00    -0.206 F 
ATOM     63  C   UNL A   1      43.282  27.620  36.511  1.00  0.00     0.059 A 
ATOM     64  C   UNL A   1      43.753  26.009  34.783  1.00  0.00     0.059 A 
ATOM     65  F   UNL A   1      43.224  26.423  32.589  1.00  0.00    -0.206 F 
ATOM     66  C   UNL A   1      43.857  26.423  36.100  1.00  0.00     0.060 A 
BRANCH  66  67
ATOM     67  S   UNL A   1      44.783  25.435  37.288  1.00  0.00     0.124 S 
ATOM     68  O   UNL A   1      46.140  25.926  37.079  1.00  0.00    -0.237 OA
ATOM     69  O   UNL A   1      44.152  25.811  38.549  1.00  0.00    -0.237 OA
ATOM     70  O   UNL A   1      44.530  24.065  36.852  1.00  0.00    -0.744 OA
ENDBRANCH  66  67
ENDBRANCH  45  59
BRANCH  46  71
ATOM     71  C   UNL A   1      43.446  25.305  26.140  1.00  0.00     0.058 A 
ATOM     72  C   UNL A   1      44.607  25.056  25.383  1.00  0.00     0.135 A 
ATOM     73  C   UNL A   1      42.625  24.189  26.396  1.00  0.00     0.135 A 
ATOM     74  F   UNL A   1      45.455  26.057  25.099  1.00  0.00    -0.206 F 
ATOM     75  C   UNL A   1      44.969  23.771  24.966  1.00  0.00     0.059 A 
ATOM     76  C   UNL A   1      42.961  22.898  25.984  1.00  0.00     0.059 A 
ATOM     77  F   UNL A   1      41.517  24.305  27.142  1.00  0.00    -0.206 F 
ATOM     78  C   UNL A   1      44.152  22.692  25.296  1.00  0.00     0.060 A 
BRANCH  78  79
ATOM     79  S   UNL A   1      44.715  21.008  24.941  1.00  0.00     0.124 S 
ATOM     80  O   UNL A   1      43.804  20.208  25.751  1.00  0.00    -0.237 OA
ATOM     81  O   UNL A   1      44.529  20.919  23.496  1.00  0.00    -0.237 OA
ATOM     82  O   UNL A   1      46.106  21.015  25.387  1.00  0.00    -0.744 OA
ENDBRANCH  78  79
ENDBRANCH  46  71
BRANCH  58  83
ATOM     83  C   UNL A   1      45.156  30.910  28.557  1.00  0.00     0.058 A 
ATOM     84  C   UNL A   1      44.256  31.356  27.572  1.00  0.00     0.135 A 
ATOM     85  C   UNL A   1      46.385  31.581  28.650  1.00  0.00     0.135 A 
ATOM     86  F   UNL A   1      43.023  30.839  27.473  1.00  0.00    -0.206 F 
ATOM     87  C   UNL A   1      44.583  32.396  26.698  1.00  0.00     0.059 A 
ATOM     88  C   UNL A   1      46.717  32.641  27.815  1.00  0.00     0.059 A 
ATOM     89  F   UNL A   1      47.267  31.239  29.605  1.00  0.00    -0.206 F 
ATOM     90  C   UNL A   1      45.815  33.036  26.830  1.00  0.00     0.060 A 
BRANCH  90  91
ATOM     91  S   UNL A   1      46.209  34.432  25.752  1.00  0.00     0.124 S 
ATOM     92  O   UNL A   1      45.894  35.574  26.603  1.00  0.00    -0.237 OA
ATOM     93  O   UNL A   1      47.625  34.224  25.467  1.00  0.00    -0.237 OA
ATOM     94  O   UNL A   1      45.319  34.242  24.609  1.00  0.00    -0.744 OA
ENDBRANCH  90  91
ENDBRANCH  58  83
ENDBRANCH  32  33
ENDBRANCH  24  27
ENDBRANCH  22  23
ENDBRANCH  21  22
ENDBRANCH   1  21
TORSDOF 17
ENDMDL
