MODEL 1
REMARK VINA RESULT:     -13.7      0.000      0.000
REMARK SMILES Cc1ccc([C@@H](CC(=O)NCCCCNC(=O)c2ccc(-c3c4nc(c(-c5c(F)cc(S(=O)(=O)[O-])cc5F)c5ccc([nH]5)c(-c5c(F)cc(S(=O)(=O)[O-])cc5F)c5nc(c(-c6c(F)cc(S(=O)(=O)[O-])cc6F)c6ccc3[nH]6)C=C5)C=C4)cc2)NC(=O)c2ccc(OC(F)F)cc2)cc1
REMARK SMILES IDX 11 1 10 2 8 3 9 4 7 6 6 7 5 8 1 9 2 10 3 11 98 12 4 13 97 14
REMARK SMILES IDX 84 15 85 16 86 18 87 19 88 20 96 21 89 22 95 23 90 24 91 25
REMARK SMILES IDX 92 26 93 27 94 28 12 29 13 30 14 31 15 32 16 33 17 35 18 36
REMARK SMILES IDX 19 37 83 38 20 39 82 40 21 41 22 42 23 43 76 44 24 45 81 46
REMARK SMILES IDX 75 47 77 48 25 49 80 50 74 51 73 52 26 54 60 55 39 56 59 57
REMARK SMILES IDX 40 58 43 59 58 60 78 61 41 62 42 63 57 65 79 66 44 67 27 68
REMARK SMILES IDX 28 69 37 70 29 71 30 72 36 73 38 74 31 75 32 76 33 77 34 78
REMARK SMILES IDX 35 79 61 80 62 81 71 82 63 83 64 84 70 85 72 86 65 87 66 88
REMARK SMILES IDX 67 89 68 90 69 91 45 92 46 93 55 94 47 95 48 96 54 97 56 98
REMARK SMILES IDX 49 99 50 100 51 101 52 102 53 103
REMARK H PARENT 10 5 84 17 15 34 77 53 43 64
REMARK Flexibility Score: inf
ROOT
ATOM      1  C   UNL A   1      32.507  28.223  23.836  1.00  0.00     0.116 C 
ENDROOT
BRANCH   1   2
ATOM      2  N   UNL A   1      32.935  27.563  22.613  1.00  0.00    -0.356 N 
ATOM      3  C   UNL A   1      33.154  26.242  22.365  1.00  0.00     0.222 C 
ATOM      4  O   UNL A   1      33.545  25.914  21.241  1.00  0.00    -0.275 OA
ATOM      5  H   UNL A   1      33.090  28.162  21.847  1.00  0.00     0.163 HD
BRANCH   3   6
ATOM      6  C   UNL A   1      32.896  25.190  23.421  1.00  0.00     0.129 C 
BRANCH   6   7
ATOM      7  C   UNL A   1      33.682  25.343  24.744  1.00  0.00     0.122 C 
BRANCH   7   8
ATOM      8  C   UNL A   1      34.923  24.454  24.749  1.00  0.00    -0.025 A 
ATOM      9  C   UNL A   1      37.843  21.279  24.978  1.00  0.00     0.044 C 
ATOM     10  C   UNL A   1      36.915  22.452  24.852  1.00  0.00    -0.051 A 
ATOM     11  C   UNL A   1      36.807  23.398  25.871  1.00  0.00     0.004 A 
ATOM     12  C   UNL A   1      36.104  22.581  23.723  1.00  0.00     0.004 A 
ATOM     13  C   UNL A   1      35.834  24.402  25.810  1.00  0.00     0.006 A 
ATOM     14  C   UNL A   1      35.119  23.569  23.672  1.00  0.00     0.006 A 
ENDBRANCH   7   8
BRANCH   7  15
ATOM     15  N   UNL A   1      32.866  25.189  25.946  1.00  0.00    -0.345 N 
ATOM     16  C   UNL A   1      32.215  24.084  26.428  1.00  0.00     0.251 C 
ATOM     17  H   UNL A   1      32.768  26.003  26.492  1.00  0.00     0.164 HD
ATOM     18  O   UNL A   1      31.342  24.203  27.284  1.00  0.00    -0.269 OA
BRANCH  16  19
ATOM     19  C   UNL A   1      32.553  22.736  25.926  1.00  0.00     0.040 A 
ATOM     20  C   UNL A   1      33.500  21.974  26.612  1.00  0.00     0.017 A 
ATOM     21  C   UNL A   1      32.015  22.263  24.728  1.00  0.00     0.017 A 
ATOM     22  C   UNL A   1      33.866  20.719  26.120  1.00  0.00     0.047 A 
ATOM     23  C   UNL A   1      32.372  20.999  24.248  1.00  0.00     0.047 A 
ATOM     24  C   UNL A   1      33.297  20.217  24.944  1.00  0.00     0.126 A 
BRANCH  24  25
ATOM     25  O   UNL A   1      33.741  18.978  24.580  1.00  0.00    -0.435 OA
BRANCH  25  26
ATOM     26  C   UNL A   1      32.933  17.854  24.901  1.00  0.00     0.542 C 
ATOM     27  F   UNL A   1      32.578  17.893  26.207  1.00  0.00    -0.167 F 
ATOM     28  F   UNL A   1      31.807  17.857  24.148  1.00  0.00    -0.167 F 
ENDBRANCH  25  26
ENDBRANCH  24  25
ENDBRANCH  16  19
ENDBRANCH   7  15
ENDBRANCH   6   7
ENDBRANCH   3   6
ENDBRANCH   1   2
BRANCH   1  29
ATOM     29  C   UNL A   1      33.707  28.622  24.701  1.00  0.00     0.023 C 
BRANCH  29  30
ATOM     30  C   UNL A   1      33.383  29.431  25.949  1.00  0.00     0.023 C 
BRANCH  30  31
ATOM     31  C   UNL A   1      34.473  29.355  27.006  1.00  0.00     0.116 C 
BRANCH  31  32
ATOM     32  N   UNL A   1      35.172  30.599  27.290  1.00  0.00    -0.352 N 
ATOM     33  C   UNL A   1      36.310  30.766  28.068  1.00  0.00     0.251 C 
ATOM     34  H   UNL A   1      34.795  31.413  26.887  1.00  0.00     0.163 HD
ATOM     35  O   UNL A   1      36.602  31.868  28.528  1.00  0.00    -0.269 OA
BRANCH  33  36
ATOM     36  C   UNL A   1      37.228  29.612  28.221  1.00  0.00     0.039 A 
ATOM     37  C   UNL A   1      37.268  28.958  29.459  1.00  0.00     0.014 A 
ATOM     38  C   UNL A   1      38.219  29.379  27.277  1.00  0.00     0.014 A 
ATOM     39  C   UNL A   1      38.410  28.240  29.828  1.00  0.00     0.010 A 
ATOM     40  C   UNL A   1      39.399  28.809  27.696  1.00  0.00     0.010 A 
ATOM     41  C   UNL A   1      39.511  28.252  28.978  1.00  0.00    -0.014 A 
BRANCH  41  42
ATOM     42  C   UNL A   1      40.840  27.724  29.279  1.00  0.00     0.031 A 
ATOM     43  C   UNL A   1      41.178  26.347  28.840  1.00  0.00     0.074 A 
ATOM     44  C   UNL A   1      41.813  28.565  29.690  1.00  0.00     0.049 A 
ATOM     45  N   UNL A   1      42.295  25.744  29.060  1.00  0.00    -0.248 NA
ATOM     46  C   UNL A   1      40.234  25.531  28.082  1.00  0.00     0.031 C 
ATOM     47  C   UNL A   1      43.257  28.374  29.579  1.00  0.00     0.029 A 
ATOM     48  N   UNL A   1      41.678  29.696  30.497  1.00  0.00    -0.354 N 
ATOM     49  C   UNL A   1      42.325  24.599  28.292  1.00  0.00     0.074 A 
ATOM     50  C   UNL A   1      41.013  24.518  27.696  1.00  0.00     0.031 C 
ATOM     51  C   UNL A   1      43.870  29.159  30.477  1.00  0.00     0.029 A 
ATOM     52  C   UNL A   1      42.835  29.742  31.310  1.00  0.00     0.049 A 
ATOM     53  H   UNL A   1      40.927  30.334  30.500  1.00  0.00     0.167 HD
ATOM     54  C   UNL A   1      43.490  23.898  28.182  1.00  0.00     0.037 A 
ATOM     55  C   UNL A   1      42.720  29.540  32.659  1.00  0.00     0.037 A 
ATOM     56  C   UNL A   1      44.499  24.416  29.107  1.00  0.00     0.049 A 
ATOM     57  C   UNL A   1      43.367  28.260  33.163  1.00  0.00     0.074 A 
ATOM     58  C   UNL A   1      45.558  25.303  29.004  1.00  0.00     0.029 A 
ATOM     59  N   UNL A   1      44.283  24.239  30.461  1.00  0.00    -0.354 N 
ATOM     60  N   UNL A   1      44.017  27.405  32.422  1.00  0.00    -0.248 NA
ATOM     61  C   UNL A   1      43.252  27.812  34.554  1.00  0.00     0.031 C 
ATOM     62  C   UNL A   1      45.907  25.727  30.323  1.00  0.00     0.029 A 
ATOM     63  C   UNL A   1      45.071  25.084  31.219  1.00  0.00     0.049 A 
ATOM     64  H   UNL A   1      43.645  23.591  30.839  1.00  0.00     0.167 HD
ATOM     65  C   UNL A   1      44.302  26.291  33.164  1.00  0.00     0.074 A 
ATOM     66  C   UNL A   1      43.838  26.605  34.503  1.00  0.00     0.031 C 
ATOM     67  C   UNL A   1      44.839  25.150  32.649  1.00  0.00     0.037 A 
BRANCH  54  68
ATOM     68  C   UNL A   1      43.774  22.857  27.118  1.00  0.00     0.058 A 
ATOM     69  C   UNL A   1      43.023  21.663  27.071  1.00  0.00     0.135 A 
ATOM     70  C   UNL A   1      44.795  22.941  26.149  1.00  0.00     0.135 A 
ATOM     71  F   UNL A   1      41.968  21.469  27.874  1.00  0.00    -0.206 F 
ATOM     72  C   UNL A   1      43.324  20.606  26.207  1.00  0.00     0.059 A 
ATOM     73  C   UNL A   1      45.160  21.875  25.323  1.00  0.00     0.059 A 
ATOM     74  F   UNL A   1      45.445  24.086  25.911  1.00  0.00    -0.206 F 
ATOM     75  C   UNL A   1      44.419  20.706  25.359  1.00  0.00     0.060 A 
BRANCH  75  76
ATOM     76  S   UNL A   1      44.847  19.306  24.308  1.00  0.00     0.124 S 
ATOM     77  O   UNL A   1      44.428  19.771  22.989  1.00  0.00    -0.237 OA
ATOM     78  O   UNL A   1      46.287  19.202  24.518  1.00  0.00    -0.237 OA
ATOM     79  O   UNL A   1      44.052  18.212  24.859  1.00  0.00    -0.744 OA
ENDBRANCH  75  76
ENDBRANCH  54  68
BRANCH  55  80
ATOM     80  C   UNL A   1      41.470  30.146  33.204  1.00  0.00     0.058 A 
ATOM     81  C   UNL A   1      41.460  31.542  33.408  1.00  0.00     0.135 A 
ATOM     82  C   UNL A   1      40.233  29.499  33.076  1.00  0.00     0.135 A 
ATOM     83  F   UNL A   1      42.617  32.209  33.556  1.00  0.00    -0.206 F 
ATOM     84  C   UNL A   1      40.294  32.286  33.283  1.00  0.00     0.059 A 
ATOM     85  C   UNL A   1      39.047  30.225  32.979  1.00  0.00     0.059 A 
ATOM     86  F   UNL A   1      40.177  28.172  32.888  1.00  0.00    -0.206 F 
ATOM     87  C   UNL A   1      39.106  31.619  32.995  1.00  0.00     0.060 A 
BRANCH  87  88
ATOM     88  S   UNL A   1      37.699  32.605  32.434  1.00  0.00     0.124 S 
ATOM     89  O   UNL A   1      38.146  33.061  31.122  1.00  0.00    -0.237 OA
ATOM     90  O   UNL A   1      36.634  31.606  32.423  1.00  0.00    -0.237 OA
ATOM     91  O   UNL A   1      37.584  33.638  33.458  1.00  0.00    -0.744 OA
ENDBRANCH  87  88
ENDBRANCH  55  80
BRANCH  67  92
ATOM     92  C   UNL A   1      45.161  23.980  33.522  1.00  0.00     0.058 A 
ATOM     93  C   UNL A   1      46.451  23.810  34.050  1.00  0.00     0.135 A 
ATOM     94  C   UNL A   1      44.232  22.952  33.762  1.00  0.00     0.135 A 
ATOM     95  F   UNL A   1      47.397  24.741  33.848  1.00  0.00    -0.206 F 
ATOM     96  C   UNL A   1      46.798  22.686  34.794  1.00  0.00     0.059 A 
ATOM     97  C   UNL A   1      44.567  21.801  34.468  1.00  0.00     0.059 A 
ATOM     98  F   UNL A   1      42.965  23.052  33.329  1.00  0.00    -0.206 F 
ATOM     99  C   UNL A   1      45.849  21.685  34.996  1.00  0.00     0.060 A 
BRANCH  99 100
ATOM    100  S   UNL A   1      46.300  20.208  35.927  1.00  0.00     0.124 S 
ATOM    101  O   UNL A   1      45.676  20.440  37.227  1.00  0.00    -0.237 OA
ATOM    102  O   UNL A   1      45.691  19.158  35.116  1.00  0.00    -0.237 OA
ATOM    103  O   UNL A   1      47.758  20.246  35.924  1.00  0.00    -0.744 OA
ENDBRANCH  99 100
ENDBRANCH  67  92
ENDBRANCH  41  42
ENDBRANCH  33  36
ENDBRANCH  31  32
ENDBRANCH  30  31
ENDBRANCH  29  30
ENDBRANCH   1  29
TORSDOF 20
ENDMDL
MODEL 2
REMARK VINA RESULT:     -12.9      4.209     10.599
REMARK SMILES Cc1ccc([C@@H](CC(=O)NCCCCNC(=O)c2ccc(-c3c4nc(c(-c5c(F)cc(S(=O)(=O)[O-])cc5F)c5ccc([nH]5)c(-c5c(F)cc(S(=O)(=O)[O-])cc5F)c5nc(c(-c6c(F)cc(S(=O)(=O)[O-])cc6F)c6ccc3[nH]6)C=C5)C=C4)cc2)NC(=O)c2ccc(OC(F)F)cc2)cc1
REMARK SMILES IDX 11 1 10 2 8 3 9 4 7 6 6 7 5 8 1 9 2 10 3 11 98 12 4 13 97 14
REMARK SMILES IDX 84 15 85 16 86 18 87 19 88 20 96 21 89 22 95 23 90 24 91 25
REMARK SMILES IDX 92 26 93 27 94 28 12 29 13 30 14 31 15 32 16 33 17 35 18 36
REMARK SMILES IDX 19 37 83 38 20 39 82 40 21 41 22 42 23 43 76 44 24 45 81 46
REMARK SMILES IDX 75 47 77 48 25 49 80 50 74 51 73 52 26 54 60 55 39 56 59 57
REMARK SMILES IDX 40 58 43 59 58 60 78 61 41 62 42 63 57 65 79 66 44 67 27 68
REMARK SMILES IDX 28 69 37 70 29 71 30 72 36 73 38 74 31 75 32 76 33 77 34 78
REMARK SMILES IDX 35 79 61 80 62 81 71 82 63 83 64 84 70 85 72 86 65 87 66 88
REMARK SMILES IDX 67 89 68 90 69 91 45 92 46 93 55 94 47 95 48 96 54 97 56 98
REMARK SMILES IDX 49 99 50 100 51 101 52 102 53 103
REMARK H PARENT 10 5 84 17 15 34 77 53 43 64
REMARK Flexibility Score: inf
ROOT
ATOM      1  C   UNL A   1      35.130  22.954  23.475  1.00  0.00     0.116 C 
ENDROOT
BRANCH   1   2
ATOM      2  N   UNL A   1      35.074  24.320  23.970  1.00  0.00    -0.356 N 
ATOM      3  C   UNL A   1      34.083  25.247  23.863  1.00  0.00     0.222 C 
ATOM      4  O   UNL A   1      34.274  26.367  24.346  1.00  0.00    -0.275 OA
ATOM      5  H   UNL A   1      35.876  24.622  24.455  1.00  0.00     0.163 HD
BRANCH   3   6
ATOM      6  C   UNL A   1      32.763  24.914  23.203  1.00  0.00     0.129 C 
BRANCH   6   7
ATOM      7  C   UNL A   1      31.696  24.250  24.104  1.00  0.00     0.122 C 
BRANCH   7   8
ATOM      8  C   UNL A   1      31.741  22.730  23.976  1.00  0.00    -0.025 A 
ATOM      9  C   UNL A   1      32.757  18.535  23.802  1.00  0.00     0.044 C 
ATOM     10  C   UNL A   1      32.288  19.960  23.857  1.00  0.00    -0.051 A 
ATOM     11  C   UNL A   1      32.062  20.689  22.689  1.00  0.00     0.004 A 
ATOM     12  C   UNL A   1      32.122  20.592  25.090  1.00  0.00     0.004 A 
ATOM     13  C   UNL A   1      31.771  22.057  22.750  1.00  0.00     0.006 A 
ATOM     14  C   UNL A   1      31.853  21.961  25.150  1.00  0.00     0.006 A 
ENDBRANCH   7   8
BRANCH   7  15
ATOM     15  N   UNL A   1      30.350  24.796  23.939  1.00  0.00    -0.345 N 
ATOM     16  C   UNL A   1      29.779  25.904  24.506  1.00  0.00     0.251 C 
ATOM     17  H   UNL A   1      29.765  24.290  23.329  1.00  0.00     0.164 HD
ATOM     18  O   UNL A   1      28.559  26.050  24.489  1.00  0.00    -0.269 OA
BRANCH  16  19
ATOM     19  C   UNL A   1      30.619  26.938  25.144  1.00  0.00     0.040 A 
ATOM     20  C   UNL A   1      30.931  26.819  26.499  1.00  0.00     0.017 A 
ATOM     21  C   UNL A   1      31.016  28.076  24.436  1.00  0.00     0.017 A 
ATOM     22  C   UNL A   1      31.683  27.815  27.127  1.00  0.00     0.047 A 
ATOM     23  C   UNL A   1      31.781  29.063  25.065  1.00  0.00     0.047 A 
ATOM     24  C   UNL A   1      32.124  28.936  26.413  1.00  0.00     0.126 A 
BRANCH  24  25
ATOM     25  O   UNL A   1      32.850  29.829  27.148  1.00  0.00    -0.435 OA
BRANCH  25  26
ATOM     26  C   UNL A   1      34.252  29.902  26.919  1.00  0.00     0.542 C 
ATOM     27  F   UNL A   1      34.734  31.089  27.360  1.00  0.00    -0.167 F 
ATOM     28  F   UNL A   1      34.887  28.906  27.582  1.00  0.00    -0.167 F 
ENDBRANCH  25  26
ENDBRANCH  24  25
ENDBRANCH  16  19
ENDBRANCH   7  15
ENDBRANCH   6   7
ENDBRANCH   3   6
ENDBRANCH   1   2
BRANCH   1  29
ATOM     29  C   UNL A   1      35.683  22.000  24.539  1.00  0.00     0.023 C 
BRANCH  29  30
ATOM     30  C   UNL A   1      37.197  21.838  24.559  1.00  0.00     0.023 C 
BRANCH  30  31
ATOM     31  C   UNL A   1      37.891  22.855  25.451  1.00  0.00     0.116 C 
BRANCH  31  32
ATOM     32  N   UNL A   1      39.001  22.353  26.245  1.00  0.00    -0.352 N 
ATOM     33  C   UNL A   1      40.061  23.083  26.767  1.00  0.00     0.251 C 
ATOM     34  H   UNL A   1      39.002  21.387  26.433  1.00  0.00     0.163 HD
ATOM     35  O   UNL A   1      41.104  22.527  27.104  1.00  0.00    -0.269 OA
BRANCH  33  36
ATOM     36  C   UNL A   1      39.855  24.529  27.025  1.00  0.00     0.039 A 
ATOM     37  C   UNL A   1      40.656  25.446  26.333  1.00  0.00     0.014 A 
ATOM     38  C   UNL A   1      39.111  24.942  28.122  1.00  0.00     0.014 A 
ATOM     39  C   UNL A   1      40.874  26.719  26.867  1.00  0.00     0.010 A 
ATOM     40  C   UNL A   1      39.446  26.131  28.729  1.00  0.00     0.010 A 
ATOM     41  C   UNL A   1      40.342  27.020  28.117  1.00  0.00    -0.014 A 
BRANCH  41  42
ATOM     42  C   UNL A   1      40.621  28.216  28.909  1.00  0.00     0.031 A 
ATOM     43  C   UNL A   1      39.654  29.342  28.867  1.00  0.00     0.074 A 
ATOM     44  C   UNL A   1      41.578  28.176  29.860  1.00  0.00     0.049 A 
ATOM     45  N   UNL A   1      39.784  30.463  29.488  1.00  0.00    -0.248 NA
ATOM     46  C   UNL A   1      38.421  29.264  28.091  1.00  0.00     0.031 C 
ATOM     47  C   UNL A   1      41.692  29.028  31.042  1.00  0.00     0.029 A 
ATOM     48  N   UNL A   1      42.782  27.469  29.831  1.00  0.00    -0.354 N 
ATOM     49  C   UNL A   1      38.586  31.140  29.409  1.00  0.00     0.074 A 
ATOM     50  C   UNL A   1      37.766  30.341  28.529  1.00  0.00     0.031 C 
ATOM     51  C   UNL A   1      42.962  29.008  31.471  1.00  0.00     0.029 A 
ATOM     52  C   UNL A   1      43.737  28.286  30.479  1.00  0.00     0.049 A 
ATOM     53  H   UNL A   1      42.935  26.579  29.436  1.00  0.00     0.167 HD
ATOM     54  C   UNL A   1      38.397  32.257  30.170  1.00  0.00     0.037 A 
ATOM     55  C   UNL A   1      44.764  28.828  29.754  1.00  0.00     0.037 A 
ATOM     56  C   UNL A   1      39.644  32.659  30.821  1.00  0.00     0.049 A 
ATOM     57  C   UNL A   1      44.712  30.341  29.618  1.00  0.00     0.074 A 
ATOM     58  C   UNL A   1      40.204  32.460  32.073  1.00  0.00     0.029 A 
ATOM     59  N   UNL A   1      40.667  33.131  30.019  1.00  0.00    -0.354 N 
ATOM     60  N   UNL A   1      43.805  31.112  30.153  1.00  0.00    -0.248 NA
ATOM     61  C   UNL A   1      45.657  31.092  28.786  1.00  0.00     0.031 C 
ATOM     62  C   UNL A   1      41.603  32.729  31.977  1.00  0.00     0.029 A 
ATOM     63  C   UNL A   1      41.883  33.107  30.676  1.00  0.00     0.049 A 
ATOM     64  H   UNL A   1      40.544  33.445  29.094  1.00  0.00     0.167 HD
ATOM     65  C   UNL A   1      43.960  32.386  29.677  1.00  0.00     0.074 A 
ATOM     66  C   UNL A   1      45.155  32.335  28.854  1.00  0.00     0.031 C 
ATOM     67  C   UNL A   1      43.084  33.401  29.918  1.00  0.00     0.037 A 
BRANCH  54  68
ATOM     68  C   UNL A   1      37.049  32.884  30.463  1.00  0.00     0.058 A 
ATOM     69  C   UNL A   1      36.310  33.500  29.430  1.00  0.00     0.135 A 
ATOM     70  C   UNL A   1      36.447  32.962  31.735  1.00  0.00     0.135 A 
ATOM     71  F   UNL A   1      36.712  33.441  28.152  1.00  0.00    -0.206 F 
ATOM     72  C   UNL A   1      35.131  34.216  29.657  1.00  0.00     0.059 A 
ATOM     73  C   UNL A   1      35.308  33.728  32.000  1.00  0.00     0.059 A 
ATOM     74  F   UNL A   1      36.897  32.244  32.771  1.00  0.00    -0.206 F 
ATOM     75  C   UNL A   1      34.655  34.356  30.953  1.00  0.00     0.060 A 
BRANCH  75  76
ATOM     76  S   UNL A   1      33.180  35.349  31.246  1.00  0.00     0.124 S 
ATOM     77  O   UNL A   1      32.592  34.692  32.410  1.00  0.00    -0.237 OA
ATOM     78  O   UNL A   1      33.750  36.672  31.482  1.00  0.00    -0.237 OA
ATOM     79  O   UNL A   1      32.422  35.204  30.006  1.00  0.00    -0.744 OA
ENDBRANCH  75  76
ENDBRANCH  54  68
BRANCH  55  80
ATOM     80  C   UNL A   1      45.260  27.885  28.709  1.00  0.00     0.058 A 
ATOM     81  C   UNL A   1      46.138  26.861  29.122  1.00  0.00     0.135 A 
ATOM     82  C   UNL A   1      44.559  27.697  27.510  1.00  0.00     0.135 A 
ATOM     83  F   UNL A   1      46.849  26.999  30.254  1.00  0.00    -0.206 F 
ATOM     84  C   UNL A   1      46.163  25.626  28.486  1.00  0.00     0.059 A 
ATOM     85  C   UNL A   1      44.595  26.475  26.839  1.00  0.00     0.059 A 
ATOM     86  F   UNL A   1      43.716  28.638  27.061  1.00  0.00    -0.206 F 
ATOM     87  C   UNL A   1      45.329  25.425  27.389  1.00  0.00     0.060 A 
BRANCH  87  88
ATOM     88  S   UNL A   1      45.063  23.725  26.833  1.00  0.00     0.124 S 
ATOM     89  O   UNL A   1      46.427  23.260  26.603  1.00  0.00    -0.237 OA
ATOM     90  O   UNL A   1      44.388  23.147  27.991  1.00  0.00    -0.237 OA
ATOM     91  O   UNL A   1      44.241  23.888  25.640  1.00  0.00    -0.744 OA
ENDBRANCH  87  88
ENDBRANCH  55  80
BRANCH  67  92
ATOM     92  C   UNL A   1      43.332  34.781  29.400  1.00  0.00     0.058 A 
ATOM     93  C   UNL A   1      43.560  35.850  30.280  1.00  0.00     0.135 A 
ATOM     94  C   UNL A   1      43.239  35.089  28.030  1.00  0.00     0.135 A 
ATOM     95  F   UNL A   1      43.643  35.637  31.603  1.00  0.00    -0.206 F 
ATOM     96  C   UNL A   1      43.708  37.158  29.826  1.00  0.00     0.059 A 
ATOM     97  C   UNL A   1      43.344  36.394  27.557  1.00  0.00     0.059 A 
ATOM     98  F   UNL A   1      43.064  34.123  27.116  1.00  0.00    -0.206 F 
ATOM     99  C   UNL A   1      43.595  37.420  28.461  1.00  0.00     0.060 A 
BRANCH  99 100
ATOM    100  S   UNL A   1      43.749  39.115  27.866  1.00  0.00     0.124 S 
ATOM    101  O   UNL A   1      44.093  39.855  29.077  1.00  0.00    -0.237 OA
ATOM    102  O   UNL A   1      44.820  38.981  26.884  1.00  0.00    -0.237 OA
ATOM    103  O   UNL A   1      42.424  39.398  27.324  1.00  0.00    -0.744 OA
ENDBRANCH  99 100
ENDBRANCH  67  92
ENDBRANCH  41  42
ENDBRANCH  33  36
ENDBRANCH  31  32
ENDBRANCH  30  31
ENDBRANCH  29  30
ENDBRANCH   1  29
TORSDOF 20
ENDMDL
MODEL 3
REMARK VINA RESULT:     -12.7      1.607      2.389
REMARK SMILES Cc1ccc([C@@H](CC(=O)NCCCCNC(=O)c2ccc(-c3c4nc(c(-c5c(F)cc(S(=O)(=O)[O-])cc5F)c5ccc([nH]5)c(-c5c(F)cc(S(=O)(=O)[O-])cc5F)c5nc(c(-c6c(F)cc(S(=O)(=O)[O-])cc6F)c6ccc3[nH]6)C=C5)C=C4)cc2)NC(=O)c2ccc(OC(F)F)cc2)cc1
REMARK SMILES IDX 11 1 10 2 8 3 9 4 7 6 6 7 5 8 1 9 2 10 3 11 98 12 4 13 97 14
REMARK SMILES IDX 84 15 85 16 86 18 87 19 88 20 96 21 89 22 95 23 90 24 91 25
REMARK SMILES IDX 92 26 93 27 94 28 12 29 13 30 14 31 15 32 16 33 17 35 18 36
REMARK SMILES IDX 19 37 83 38 20 39 82 40 21 41 22 42 23 43 76 44 24 45 81 46
REMARK SMILES IDX 75 47 77 48 25 49 80 50 74 51 73 52 26 54 60 55 39 56 59 57
REMARK SMILES IDX 40 58 43 59 58 60 78 61 41 62 42 63 57 65 79 66 44 67 27 68
REMARK SMILES IDX 28 69 37 70 29 71 30 72 36 73 38 74 31 75 32 76 33 77 34 78
REMARK SMILES IDX 35 79 61 80 62 81 71 82 63 83 64 84 70 85 72 86 65 87 66 88
REMARK SMILES IDX 67 89 68 90 69 91 45 92 46 93 55 94 47 95 48 96 54 97 56 98
REMARK SMILES IDX 49 99 50 100 51 101 52 102 53 103
REMARK H PARENT 10 5 84 17 15 34 77 53 43 64
REMARK Flexibility Score: inf
ROOT
ATOM      1  C   UNL A   1      31.460  28.792  24.706  1.00  0.00     0.116 C 
ENDROOT
BRANCH   1   2
ATOM      2  N   UNL A   1      31.368  28.413  23.305  1.00  0.00    -0.356 N 
ATOM      3  C   UNL A   1      30.945  27.247  22.742  1.00  0.00     0.222 C 
ATOM      4  O   UNL A   1      30.981  27.144  21.513  1.00  0.00    -0.275 OA
ATOM      5  H   UNL A   1      31.655  29.104  22.666  1.00  0.00     0.163 HD
BRANCH   3   6
ATOM      6  C   UNL A   1      30.411  26.113  23.590  1.00  0.00     0.129 C 
BRANCH   6   7
ATOM      7  C   UNL A   1      31.174  24.771  23.495  1.00  0.00     0.122 C 
BRANCH   7   8
ATOM      8  C   UNL A   1      31.519  24.239  24.884  1.00  0.00    -0.025 A 
ATOM      9  C   UNL A   1      33.172  22.307  28.375  1.00  0.00     0.044 C 
ATOM     10  C   UNL A   1      32.528  23.042  27.236  1.00  0.00    -0.051 A 
ATOM     11  C   UNL A   1      31.351  22.574  26.650  1.00  0.00     0.004 A 
ATOM     12  C   UNL A   1      33.133  24.185  26.713  1.00  0.00     0.004 A 
ATOM     13  C   UNL A   1      30.840  23.180  25.498  1.00  0.00     0.006 A 
ATOM     14  C   UNL A   1      32.636  24.777  25.549  1.00  0.00     0.006 A 
ENDBRANCH   7   8
BRANCH   7  15
ATOM     15  N   UNL A   1      32.323  24.798  22.593  1.00  0.00    -0.345 N 
ATOM     16  C   UNL A   1      33.319  23.875  22.414  1.00  0.00     0.251 C 
ATOM     17  H   UNL A   1      32.392  25.603  22.028  1.00  0.00     0.164 HD
ATOM     18  O   UNL A   1      34.357  24.187  21.835  1.00  0.00    -0.269 OA
BRANCH  16  19
ATOM     19  C   UNL A   1      33.160  22.495  22.915  1.00  0.00     0.040 A 
ATOM     20  C   UNL A   1      32.139  21.697  22.395  1.00  0.00     0.017 A 
ATOM     21  C   UNL A   1      33.948  22.018  23.965  1.00  0.00     0.017 A 
ATOM     22  C   UNL A   1      31.946  20.407  22.895  1.00  0.00     0.047 A 
ATOM     23  C   UNL A   1      33.762  20.720  24.452  1.00  0.00     0.047 A 
ATOM     24  C   UNL A   1      32.762  19.905  23.916  1.00  0.00     0.126 A 
BRANCH  24  25
ATOM     25  O   UNL A   1      32.466  18.630  24.307  1.00  0.00    -0.435 OA
BRANCH  25  26
ATOM     26  C   UNL A   1      32.920  17.557  23.494  1.00  0.00     0.542 C 
ATOM     27  F   UNL A   1      32.333  17.616  22.274  1.00  0.00    -0.167 F 
ATOM     28  F   UNL A   1      34.262  17.628  23.330  1.00  0.00    -0.167 F 
ENDBRANCH  25  26
ENDBRANCH  24  25
ENDBRANCH  16  19
ENDBRANCH   7  15
ENDBRANCH   6   7
ENDBRANCH   3   6
ENDBRANCH   1   2
BRANCH   1  29
ATOM     29  C   UNL A   1      32.638  28.094  25.394  1.00  0.00     0.023 C 
BRANCH  29  30
ATOM     30  C   UNL A   1      33.881  28.948  25.605  1.00  0.00     0.023 C 
BRANCH  30  31
ATOM     31  C   UNL A   1      34.001  29.483  27.023  1.00  0.00     0.116 C 
BRANCH  31  32
ATOM     32  N   UNL A   1      34.711  30.744  27.169  1.00  0.00    -0.352 N 
ATOM     33  C   UNL A   1      35.884  30.973  27.876  1.00  0.00     0.251 C 
ATOM     34  H   UNL A   1      34.313  31.523  26.718  1.00  0.00     0.163 HD
ATOM     35  O   UNL A   1      36.196  32.108  28.229  1.00  0.00    -0.269 OA
BRANCH  33  36
ATOM     36  C   UNL A   1      36.811  29.834  28.081  1.00  0.00     0.039 A 
ATOM     37  C   UNL A   1      36.885  29.263  29.358  1.00  0.00     0.014 A 
ATOM     38  C   UNL A   1      37.778  29.541  27.130  1.00  0.00     0.014 A 
ATOM     39  C   UNL A   1      38.038  28.573  29.744  1.00  0.00     0.010 A 
ATOM     40  C   UNL A   1      38.970  29.003  27.554  1.00  0.00     0.010 A 
ATOM     41  C   UNL A   1      39.117  28.531  28.867  1.00  0.00    -0.014 A 
BRANCH  41  42
ATOM     42  C   UNL A   1      40.456  28.027  29.168  1.00  0.00     0.031 A 
ATOM     43  C   UNL A   1      40.787  26.625  28.812  1.00  0.00     0.074 A 
ATOM     44  C   UNL A   1      41.435  28.896  29.497  1.00  0.00     0.049 A 
ATOM     45  N   UNL A   1      41.912  26.040  29.042  1.00  0.00    -0.248 NA
ATOM     46  C   UNL A   1      39.827  25.758  28.135  1.00  0.00     0.031 C 
ATOM     47  C   UNL A   1      42.877  28.701  29.360  1.00  0.00     0.029 A 
ATOM     48  N   UNL A   1      41.317  30.078  30.230  1.00  0.00    -0.354 N 
ATOM     49  C   UNL A   1      41.926  24.847  28.352  1.00  0.00     0.074 A 
ATOM     50  C   UNL A   1      40.600  24.724  27.797  1.00  0.00     0.031 C 
ATOM     51  C   UNL A   1      43.510  29.545  30.189  1.00  0.00     0.029 A 
ATOM     52  C   UNL A   1      42.494  30.181  31.007  1.00  0.00     0.049 A 
ATOM     53  H   UNL A   1      40.564  30.713  30.210  1.00  0.00     0.167 HD
ATOM     54  C   UNL A   1      43.091  24.143  28.258  1.00  0.00     0.037 A 
ATOM     55  C   UNL A   1      42.415  30.068  32.369  1.00  0.00     0.037 A 
ATOM     56  C   UNL A   1      44.121  24.724  29.120  1.00  0.00     0.049 A 
ATOM     57  C   UNL A   1      43.080  28.826  32.940  1.00  0.00     0.074 A 
ATOM     58  C   UNL A   1      45.174  25.604  28.931  1.00  0.00     0.029 A 
ATOM     59  N   UNL A   1      43.941  24.636  30.488  1.00  0.00    -0.354 N 
ATOM     60  N   UNL A   1      43.714  27.925  32.240  1.00  0.00    -0.248 NA
ATOM     61  C   UNL A   1      43.003  28.471  34.360  1.00  0.00     0.031 C 
ATOM     62  C   UNL A   1      45.556  26.115  30.209  1.00  0.00     0.029 A 
ATOM     63  C   UNL A   1      44.746  25.531  31.167  1.00  0.00     0.049 A 
ATOM     64  H   UNL A   1      43.316  24.013  30.924  1.00  0.00     0.167 HD
ATOM     65  C   UNL A   1      44.023  26.864  33.048  1.00  0.00     0.074 A 
ATOM     66  C   UNL A   1      43.592  27.265  34.374  1.00  0.00     0.031 C 
ATOM     67  C   UNL A   1      44.551  25.691  32.596  1.00  0.00     0.037 A 
BRANCH  54  68
ATOM     68  C   UNL A   1      43.352  23.034  27.258  1.00  0.00     0.058 A 
ATOM     69  C   UNL A   1      42.636  21.820  27.338  1.00  0.00     0.135 A 
ATOM     70  C   UNL A   1      44.318  23.074  26.233  1.00  0.00     0.135 A 
ATOM     71  F   UNL A   1      41.631  21.657  28.210  1.00  0.00    -0.206 F 
ATOM     72  C   UNL A   1      42.924  20.710  26.538  1.00  0.00     0.059 A 
ATOM     73  C   UNL A   1      44.672  21.959  25.467  1.00  0.00     0.059 A 
ATOM     74  F   UNL A   1      44.919  24.215  25.877  1.00  0.00    -0.206 F 
ATOM     75  C   UNL A   1      43.970  20.776  25.628  1.00  0.00     0.060 A 
BRANCH  75  76
ATOM     76  S   UNL A   1      44.386  19.315  24.660  1.00  0.00     0.124 S 
ATOM     77  O   UNL A   1      44.377  19.836  23.296  1.00  0.00    -0.237 OA
ATOM     78  O   UNL A   1      45.696  18.961  25.197  1.00  0.00    -0.237 OA
ATOM     79  O   UNL A   1      43.307  18.382  24.971  1.00  0.00    -0.744 OA
ENDBRANCH  75  76
ENDBRANCH  54  68
BRANCH  55  80
ATOM     80  C   UNL A   1      41.177  30.706  32.905  1.00  0.00     0.058 A 
ATOM     81  C   UNL A   1      40.083  29.863  33.193  1.00  0.00     0.135 A 
ATOM     82  C   UNL A   1      41.222  31.953  33.543  1.00  0.00     0.135 A 
ATOM     83  F   UNL A   1      39.982  28.664  32.594  1.00  0.00    -0.206 F 
ATOM     84  C   UNL A   1      39.190  30.156  34.215  1.00  0.00     0.059 A 
ATOM     85  C   UNL A   1      40.316  32.280  34.551  1.00  0.00     0.059 A 
ATOM     86  F   UNL A   1      42.232  32.802  33.305  1.00  0.00    -0.206 F 
ATOM     87  C   UNL A   1      39.364  31.335  34.935  1.00  0.00     0.060 A 
BRANCH  87  88
ATOM     88  S   UNL A   1      38.474  31.509  36.498  1.00  0.00     0.124 S 
ATOM     89  O   UNL A   1      39.489  32.097  37.367  1.00  0.00    -0.237 OA
ATOM     90  O   UNL A   1      37.385  32.402  36.110  1.00  0.00    -0.237 OA
ATOM     91  O   UNL A   1      38.084  30.140  36.816  1.00  0.00    -0.744 OA
ENDBRANCH  87  88
ENDBRANCH  55  80
BRANCH  67  92
ATOM     92  C   UNL A   1      44.900  24.583  33.535  1.00  0.00     0.058 A 
ATOM     93  C   UNL A   1      46.239  24.229  33.765  1.00  0.00     0.135 A 
ATOM     94  C   UNL A   1      43.914  23.782  34.140  1.00  0.00     0.135 A 
ATOM     95  F   UNL A   1      47.234  24.937  33.207  1.00  0.00    -0.206 F 
ATOM     96  C   UNL A   1      46.585  23.147  34.569  1.00  0.00     0.059 A 
ATOM     97  C   UNL A   1      44.236  22.671  34.915  1.00  0.00     0.059 A 
ATOM     98  F   UNL A   1      42.611  24.074  34.008  1.00  0.00    -0.206 F 
ATOM     99  C   UNL A   1      45.576  22.372  35.137  1.00  0.00     0.060 A 
BRANCH  99 100
ATOM    100  S   UNL A   1      46.015  20.945  36.150  1.00  0.00     0.124 S 
ATOM    101  O   UNL A   1      45.270  19.858  35.520  1.00  0.00    -0.237 OA
ATOM    102  O   UNL A   1      47.463  20.901  35.974  1.00  0.00    -0.237 OA
ATOM    103  O   UNL A   1      45.549  21.326  37.479  1.00  0.00    -0.744 OA
ENDBRANCH  99 100
ENDBRANCH  67  92
ENDBRANCH  41  42
ENDBRANCH  33  36
ENDBRANCH  31  32
ENDBRANCH  30  31
ENDBRANCH  29  30
ENDBRANCH   1  29
TORSDOF 20
ENDMDL
