MODEL 1
REMARK VINA RESULT:     -12.1      0.000      0.000
REMARK SMILES CC1=C(C)C[C@@H](C(=O)NCCCCNC(=O)c2ccc(-c3c4nc(c(-c5c(F)cc(S(=O)(=O)[O-])cc5F)c5ccc([nH]5)c(-c5c(F)cc(S(=O)(=O)[O-])cc5F)c5nc(c(-c6c(F)cc(S(=O)(=O)[O-])cc6F)c6ccc3[nH]6)C=C5)C=C4)cc2)[C@@H](C(=O)NCC[NH+]2CCOCC2)C1
REMARK SMILES IDX 11 1 10 2 9 3 7 4 8 5 6 7 1 8 2 9 3 10 95 11 4 12 5 13 83 14
REMARK SMILES IDX 84 15 85 16 86 17 87 19 88 20 89 21 90 22 94 23 91 25 93 26
REMARK SMILES IDX 92 27 12 28 13 29 14 30 15 31 16 33 17 34 18 35 82 36 19 37
REMARK SMILES IDX 81 38 20 39 21 40 22 41 75 42 23 43 80 44 74 45 76 46 24 47
REMARK SMILES IDX 79 48 73 49 72 50 25 52 59 53 38 54 58 55 39 56 42 57 57 58
REMARK SMILES IDX 77 59 40 60 41 61 56 63 78 64 43 65 26 66 27 67 36 68 28 69
REMARK SMILES IDX 29 70 35 71 37 72 30 73 31 74 32 75 33 76 34 77 60 78 61 79
REMARK SMILES IDX 70 80 62 81 63 82 69 83 71 84 64 85 65 86 66 87 67 88 68 89
REMARK SMILES IDX 44 90 45 91 54 92 46 93 47 94 53 95 55 96 48 97 49 98 50 99
REMARK SMILES IDX 51 100 52 101
REMARK H PARENT 9 6 86 18 89 24 14 32 76 51 42 62
REMARK Flexibility Score: inf
ROOT
ATOM      1  C   UNL A   1      32.954  27.986  24.803  1.00  0.00     0.023 C 
ENDROOT
BRANCH   1   2
ATOM      2  C   UNL A   1      31.880  27.028  25.279  1.00  0.00     0.116 C 
BRANCH   2   3
ATOM      3  N   UNL A   1      31.771  25.861  24.438  1.00  0.00    -0.356 N 
ATOM      4  C   UNL A   1      32.510  24.721  24.417  1.00  0.00     0.224 C 
ATOM      5  O   UNL A   1      32.119  23.812  23.678  1.00  0.00    -0.275 OA
ATOM      6  H   UNL A   1      31.046  25.897  23.773  1.00  0.00     0.163 HD
BRANCH   4   7
ATOM      7  C   UNL A   1      33.736  24.506  25.315  1.00  0.00     0.095 C 
ATOM      8  C   UNL A   1      36.222  20.855  25.359  1.00  0.00     0.039 C 
ATOM      9  C   UNL A   1      35.604  22.224  25.387  1.00  0.00    -0.074 C 
ATOM     10  C   UNL A   1      35.734  23.133  24.397  1.00  0.00    -0.074 C 
ATOM     11  C   UNL A   1      34.873  22.605  26.650  1.00  0.00     0.045 C 
ATOM     12  C   UNL A   1      36.551  22.942  23.146  1.00  0.00     0.039 C 
ATOM     13  C   UNL A   1      35.037  24.473  24.487  1.00  0.00     0.045 C 
ATOM     14  C   UNL A   1      33.622  23.461  26.459  1.00  0.00     0.095 C 
BRANCH  14  15
ATOM     15  C   UNL A   1      32.224  22.860  26.649  1.00  0.00     0.224 C 
ATOM     16  O   UNL A   1      31.449  23.418  27.439  1.00  0.00    -0.275 OA
ATOM     17  N   UNL A   1      31.737  21.723  26.115  1.00  0.00    -0.350 N 
ATOM     18  H   UNL A   1      30.896  21.454  26.552  1.00  0.00     0.163 HD
BRANCH  17  19
ATOM     19  C   UNL A   1      32.114  20.787  25.069  1.00  0.00     0.177 C 
BRANCH  19  20
ATOM     20  C   UNL A   1      32.887  19.562  25.621  1.00  0.00     0.283 C 
BRANCH  20  21
ATOM     21  N   UNL A   1      32.674  18.270  25.000  1.00  0.00    -0.330 N 
ATOM     22  C   UNL A   1      32.644  17.023  25.746  1.00  0.00     0.291 C 
ATOM     23  C   UNL A   1      32.801  18.106  23.559  1.00  0.00     0.291 C 
ATOM     24  H   UNL A   1      31.736  18.615  25.208  1.00  0.00     0.348 HD
ATOM     25  C   UNL A   1      33.746  16.045  25.287  1.00  0.00     0.221 C 
ATOM     26  C   UNL A   1      33.936  17.138  23.200  1.00  0.00     0.221 C 
ATOM     27  O   UNL A   1      33.766  15.881  23.864  1.00  0.00    -0.370 OA
ENDBRANCH  20  21
ENDBRANCH  19  20
ENDBRANCH  17  19
ENDBRANCH  14  15
ENDBRANCH   4   7
ENDBRANCH   2   3
ENDBRANCH   1   2
BRANCH   1  28
ATOM     28  C   UNL A   1      34.053  28.273  25.807  1.00  0.00     0.023 C 
BRANCH  28  29
ATOM     29  C   UNL A   1      33.532  28.458  27.221  1.00  0.00     0.116 C 
BRANCH  29  30
ATOM     30  N   UNL A   1      33.538  29.855  27.649  1.00  0.00    -0.352 N 
ATOM     31  C   UNL A   1      34.526  30.611  28.245  1.00  0.00     0.251 C 
ATOM     32  H   UNL A   1      32.696  30.339  27.482  1.00  0.00     0.163 HD
ATOM     33  O   UNL A   1      34.257  31.719  28.689  1.00  0.00    -0.269 OA
BRANCH  31  34
ATOM     34  C   UNL A   1      35.893  30.061  28.372  1.00  0.00     0.039 A 
ATOM     35  C   UNL A   1      36.788  30.163  27.304  1.00  0.00     0.014 A 
ATOM     36  C   UNL A   1      36.302  29.473  29.565  1.00  0.00     0.014 A 
ATOM     37  C   UNL A   1      38.118  29.766  27.480  1.00  0.00     0.010 A 
ATOM     38  C   UNL A   1      37.648  29.241  29.789  1.00  0.00     0.010 A 
ATOM     39  C   UNL A   1      38.572  29.354  28.744  1.00  0.00    -0.014 A 
BRANCH  39  40
ATOM     40  C   UNL A   1      39.988  28.990  29.011  1.00  0.00     0.031 A 
ATOM     41  C   UNL A   1      40.911  30.010  29.635  1.00  0.00     0.074 A 
ATOM     42  C   UNL A   1      40.473  27.802  28.598  1.00  0.00     0.049 A 
ATOM     43  N   UNL A   1      42.206  29.965  29.803  1.00  0.00    -0.248 NA
ATOM     44  C   UNL A   1      40.299  31.278  30.069  1.00  0.00     0.031 C 
ATOM     45  C   UNL A   1      39.702  26.756  27.921  1.00  0.00     0.029 A 
ATOM     46  N   UNL A   1      41.737  27.276  28.683  1.00  0.00    -0.354 N 
ATOM     47  C   UNL A   1      42.565  31.212  30.303  1.00  0.00     0.074 A 
ATOM     48  C   UNL A   1      41.365  32.015  30.338  1.00  0.00     0.031 C 
ATOM     49  C   UNL A   1      40.495  25.694  27.705  1.00  0.00     0.029 A 
ATOM     50  C   UNL A   1      41.840  26.001  28.181  1.00  0.00     0.049 A 
ATOM     51  H   UNL A   1      42.499  27.767  29.068  1.00  0.00     0.167 HD
ATOM     52  C   UNL A   1      43.775  31.641  30.734  1.00  0.00     0.037 A 
ATOM     53  C   UNL A   1      42.898  25.171  28.120  1.00  0.00     0.037 A 
ATOM     54  C   UNL A   1      44.945  30.806  30.769  1.00  0.00     0.049 A 
ATOM     55  C   UNL A   1      44.224  25.644  28.650  1.00  0.00     0.074 A 
ATOM     56  C   UNL A   1      46.198  31.098  31.275  1.00  0.00     0.029 A 
ATOM     57  N   UNL A   1      44.997  29.505  30.289  1.00  0.00    -0.354 N 
ATOM     58  N   UNL A   1      44.535  26.805  29.177  1.00  0.00    -0.248 NA
ATOM     59  C   UNL A   1      45.342  24.695  28.578  1.00  0.00     0.031 C 
ATOM     60  C   UNL A   1      47.018  29.982  31.072  1.00  0.00     0.029 A 
ATOM     61  C   UNL A   1      46.265  28.983  30.474  1.00  0.00     0.049 A 
ATOM     62  H   UNL A   1      44.244  29.024  29.877  1.00  0.00     0.167 HD
ATOM     63  C   UNL A   1      45.878  26.717  29.525  1.00  0.00     0.074 A 
ATOM     64  C   UNL A   1      46.316  25.386  29.154  1.00  0.00     0.031 C 
ATOM     65  C   UNL A   1      46.675  27.650  30.102  1.00  0.00     0.037 A 
BRANCH  52  66
ATOM     66  C   UNL A   1      43.873  33.069  31.203  1.00  0.00     0.058 A 
ATOM     67  C   UNL A   1      44.179  34.120  30.322  1.00  0.00     0.135 A 
ATOM     68  C   UNL A   1      43.698  33.387  32.559  1.00  0.00     0.135 A 
ATOM     69  F   UNL A   1      44.370  33.874  29.015  1.00  0.00    -0.206 F 
ATOM     70  C   UNL A   1      44.378  35.419  30.776  1.00  0.00     0.059 A 
ATOM     71  C   UNL A   1      43.857  34.688  33.031  1.00  0.00     0.059 A 
ATOM     72  F   UNL A   1      43.397  32.427  33.448  1.00  0.00    -0.206 F 
ATOM     73  C   UNL A   1      44.227  35.690  32.137  1.00  0.00     0.060 A 
BRANCH  73  74
ATOM     74  S   UNL A   1      44.542  37.368  32.724  1.00  0.00     0.124 S 
ATOM     75  O   UNL A   1      44.456  38.129  31.481  1.00  0.00    -0.237 OA
ATOM     76  O   UNL A   1      43.452  37.580  33.671  1.00  0.00    -0.237 OA
ATOM     77  O   UNL A   1      45.874  37.277  33.314  1.00  0.00    -0.744 OA
ENDBRANCH  73  74
ENDBRANCH  52  66
BRANCH  53  78
ATOM     78  C   UNL A   1      42.722  23.787  27.608  1.00  0.00     0.058 A 
ATOM     79  C   UNL A   1      42.515  22.725  28.500  1.00  0.00     0.135 A 
ATOM     80  C   UNL A   1      42.699  23.500  26.235  1.00  0.00     0.135 A 
ATOM     81  F   UNL A   1      42.532  22.948  29.823  1.00  0.00    -0.206 F 
ATOM     82  C   UNL A   1      42.293  21.428  28.052  1.00  0.00     0.059 A 
ATOM     83  C   UNL A   1      42.458  22.213  25.760  1.00  0.00     0.059 A 
ATOM     84  F   UNL A   1      42.876  24.485  25.340  1.00  0.00    -0.206 F 
ATOM     85  C   UNL A   1      42.259  21.183  26.679  1.00  0.00     0.060 A 
BRANCH  85  86
ATOM     86  S   UNL A   1      41.890  19.507  26.113  1.00  0.00     0.124 S 
ATOM     87  O   UNL A   1      42.270  18.714  27.276  1.00  0.00    -0.237 OA
ATOM     88  O   UNL A   1      40.460  19.586  25.834  1.00  0.00    -0.237 OA
ATOM     89  O   UNL A   1      42.743  19.354  24.938  1.00  0.00    -0.744 OA
ENDBRANCH  85  86
ENDBRANCH  53  78
BRANCH  65  90
ATOM     90  C   UNL A   1      48.093  27.256  30.398  1.00  0.00     0.058 A 
ATOM     91  C   UNL A   1      49.127  27.480  29.477  1.00  0.00     0.135 A 
ATOM     92  C   UNL A   1      48.428  26.701  31.644  1.00  0.00     0.135 A 
ATOM     93  F   UNL A   1      48.855  28.003  28.271  1.00  0.00    -0.206 F 
ATOM     94  C   UNL A   1      50.445  27.149  29.772  1.00  0.00     0.059 A 
ATOM     95  C   UNL A   1      49.743  26.385  31.970  1.00  0.00     0.059 A 
ATOM     96  F   UNL A   1      47.476  26.477  32.563  1.00  0.00    -0.206 F 
ATOM     97  C   UNL A   1      50.743  26.603  31.024  1.00  0.00     0.060 A 
BRANCH  97  98
ATOM     98  S   UNL A   1      52.462  26.216  31.411  1.00  0.00     0.124 S 
ATOM     99  O   UNL A   1      53.078  26.259  30.089  1.00  0.00    -0.237 OA
ATOM    100  O   UNL A   1      52.832  27.298  32.318  1.00  0.00    -0.237 OA
ATOM    101  O   UNL A   1      52.382  24.893  32.025  1.00  0.00    -0.744 OA
ENDBRANCH  97  98
ENDBRANCH  65  90
ENDBRANCH  39  40
ENDBRANCH  31  34
ENDBRANCH  29  30
ENDBRANCH  28  29
ENDBRANCH   1  28
TORSDOF 18
ENDMDL
MODEL 2
REMARK VINA RESULT:     -11.9      3.284      5.606
REMARK SMILES CC1=C(C)C[C@@H](C(=O)NCCCCNC(=O)c2ccc(-c3c4nc(c(-c5c(F)cc(S(=O)(=O)[O-])cc5F)c5ccc([nH]5)c(-c5c(F)cc(S(=O)(=O)[O-])cc5F)c5nc(c(-c6c(F)cc(S(=O)(=O)[O-])cc6F)c6ccc3[nH]6)C=C5)C=C4)cc2)[C@@H](C(=O)NCC[NH+]2CCOCC2)C1
REMARK SMILES IDX 11 1 10 2 9 3 7 4 8 5 6 7 1 8 2 9 3 10 95 11 4 12 5 13 83 14
REMARK SMILES IDX 84 15 85 16 86 17 87 19 88 20 89 21 90 22 94 23 91 25 93 26
REMARK SMILES IDX 92 27 12 28 13 29 14 30 15 31 16 33 17 34 18 35 82 36 19 37
REMARK SMILES IDX 81 38 20 39 21 40 22 41 75 42 23 43 80 44 74 45 76 46 24 47
REMARK SMILES IDX 79 48 73 49 72 50 25 52 59 53 38 54 58 55 39 56 42 57 57 58
REMARK SMILES IDX 77 59 40 60 41 61 56 63 78 64 43 65 26 66 27 67 36 68 28 69
REMARK SMILES IDX 29 70 35 71 37 72 30 73 31 74 32 75 33 76 34 77 60 78 61 79
REMARK SMILES IDX 70 80 62 81 63 82 69 83 71 84 64 85 65 86 66 87 67 88 68 89
REMARK SMILES IDX 44 90 45 91 54 92 46 93 47 94 53 95 55 96 48 97 49 98 50 99
REMARK SMILES IDX 51 100 52 101
REMARK H PARENT 9 6 86 18 89 24 14 32 76 51 42 62
REMARK Flexibility Score: inf
ROOT
ATOM      1  C   UNL A   1      33.343  30.194  26.645  1.00  0.00     0.023 C 
ENDROOT
BRANCH   1   2
ATOM      2  C   UNL A   1      32.512  29.713  25.473  1.00  0.00     0.116 C 
BRANCH   2   3
ATOM      3  N   UNL A   1      33.324  29.237  24.380  1.00  0.00    -0.356 N 
ATOM      4  C   UNL A   1      33.503  27.978  23.901  1.00  0.00     0.224 C 
ATOM      5  O   UNL A   1      34.157  27.861  22.860  1.00  0.00    -0.275 OA
ATOM      6  H   UNL A   1      33.831  29.936  23.907  1.00  0.00     0.163 HD
BRANCH   4   7
ATOM      7  C   UNL A   1      32.869  26.741  24.552  1.00  0.00     0.095 C 
ATOM      8  C   UNL A   1      33.898  22.562  23.559  1.00  0.00     0.039 C 
ATOM      9  C   UNL A   1      33.520  23.893  24.143  1.00  0.00    -0.074 C 
ATOM     10  C   UNL A   1      34.334  24.635  24.924  1.00  0.00    -0.074 C 
ATOM     11  C   UNL A   1      32.107  24.359  23.895  1.00  0.00     0.045 C 
ATOM     12  C   UNL A   1      35.714  24.229  25.370  1.00  0.00     0.039 C 
ATOM     13  C   UNL A   1      33.889  25.989  25.432  1.00  0.00     0.045 C 
ATOM     14  C   UNL A   1      31.933  25.862  23.679  1.00  0.00     0.095 C 
BRANCH  14  15
ATOM     15  C   UNL A   1      31.633  26.423  22.284  1.00  0.00     0.224 C 
ATOM     16  O   UNL A   1      32.140  25.859  21.304  1.00  0.00    -0.275 OA
ATOM     17  N   UNL A   1      30.933  27.532  21.976  1.00  0.00    -0.350 N 
ATOM     18  H   UNL A   1      31.059  27.785  21.032  1.00  0.00     0.163 HD
BRANCH  17  19
ATOM     19  C   UNL A   1      30.041  28.456  22.656  1.00  0.00     0.177 C 
BRANCH  19  20
ATOM     20  C   UNL A   1      30.141  29.898  22.096  1.00  0.00     0.283 C 
BRANCH  20  21
ATOM     21  N   UNL A   1      28.977  30.757  22.180  1.00  0.00    -0.330 N 
ATOM     22  C   UNL A   1      28.072  30.984  21.066  1.00  0.00     0.291 C 
ATOM     23  C   UNL A   1      28.825  31.699  23.280  1.00  0.00     0.291 C 
ATOM     24  H   UNL A   1      28.645  29.842  22.485  1.00  0.00     0.348 HD
ATOM     25  C   UNL A   1      28.012  32.471  20.659  1.00  0.00     0.221 C 
ATOM     26  C   UNL A   1      28.802  33.150  22.781  1.00  0.00     0.221 C 
ATOM     27  O   UNL A   1      27.791  33.331  21.784  1.00  0.00    -0.370 OA
ENDBRANCH  20  21
ENDBRANCH  19  20
ENDBRANCH  17  19
ENDBRANCH  14  15
ENDBRANCH   4   7
ENDBRANCH   2   3
ENDBRANCH   1   2
BRANCH   1  28
ATOM     28  C   UNL A   1      34.145  29.120  27.352  1.00  0.00     0.023 C 
BRANCH  28  29
ATOM     29  C   UNL A   1      35.468  29.629  27.896  1.00  0.00     0.116 C 
BRANCH  29  30
ATOM     30  N   UNL A   1      35.336  30.263  29.206  1.00  0.00    -0.352 N 
ATOM     31  C   UNL A   1      36.267  30.486  30.199  1.00  0.00     0.251 C 
ATOM     32  H   UNL A   1      34.429  30.588  29.414  1.00  0.00     0.163 HD
ATOM     33  O   UNL A   1      35.900  30.873  31.299  1.00  0.00    -0.269 OA
BRANCH  31  34
ATOM     34  C   UNL A   1      37.698  30.222  29.932  1.00  0.00     0.039 A 
ATOM     35  C   UNL A   1      38.499  29.652  30.925  1.00  0.00     0.014 A 
ATOM     36  C   UNL A   1      38.240  30.507  28.683  1.00  0.00     0.014 A 
ATOM     37  C   UNL A   1      39.812  29.279  30.620  1.00  0.00     0.010 A 
ATOM     38  C   UNL A   1      39.474  29.986  28.336  1.00  0.00     0.010 A 
ATOM     39  C   UNL A   1      40.292  29.392  29.304  1.00  0.00    -0.014 A 
BRANCH  39  40
ATOM     40  C   UNL A   1      41.652  28.946  28.903  1.00  0.00     0.031 A 
ATOM     41  C   UNL A   1      42.785  29.944  28.891  1.00  0.00     0.074 A 
ATOM     42  C   UNL A   1      41.849  27.694  28.446  1.00  0.00     0.049 A 
ATOM     43  N   UNL A   1      44.000  29.816  28.424  1.00  0.00    -0.248 NA
ATOM     44  C   UNL A   1      42.489  31.288  29.416  1.00  0.00     0.031 C 
ATOM     45  C   UNL A   1      40.823  26.653  28.343  1.00  0.00     0.029 A 
ATOM     46  N   UNL A   1      42.984  27.083  27.977  1.00  0.00    -0.354 N 
ATOM     47  C   UNL A   1      44.585  31.072  28.548  1.00  0.00     0.074 A 
ATOM     48  C   UNL A   1      43.570  31.964  29.059  1.00  0.00     0.031 C 
ATOM     49  C   UNL A   1      41.388  25.519  27.897  1.00  0.00     0.029 A 
ATOM     50  C   UNL A   1      42.802  25.765  27.635  1.00  0.00     0.049 A 
ATOM     51  H   UNL A   1      43.849  27.547  27.894  1.00  0.00     0.167 HD
ATOM     52  C   UNL A   1      45.863  31.445  28.297  1.00  0.00     0.037 A 
ATOM     53  C   UNL A   1      43.680  24.855  27.172  1.00  0.00     0.037 A 
ATOM     54  C   UNL A   1      46.884  30.530  27.866  1.00  0.00     0.049 A 
ATOM     55  C   UNL A   1      45.108  25.271  26.948  1.00  0.00     0.074 A 
ATOM     56  C   UNL A   1      48.233  30.770  27.676  1.00  0.00     0.029 A 
ATOM     57  N   UNL A   1      46.667  29.192  27.569  1.00  0.00    -0.354 N 
ATOM     58  N   UNL A   1      45.662  26.447  27.128  1.00  0.00    -0.248 NA
ATOM     59  C   UNL A   1      46.030  24.238  26.460  1.00  0.00     0.031 C 
ATOM     60  C   UNL A   1      48.826  29.582  27.234  1.00  0.00     0.029 A 
ATOM     61  C   UNL A   1      47.854  28.594  27.186  1.00  0.00     0.049 A 
ATOM     62  H   UNL A   1      45.797  28.735  27.624  1.00  0.00     0.167 HD
ATOM     63  C   UNL A   1      47.003  26.289  26.800  1.00  0.00     0.074 A 
ATOM     64  C   UNL A   1      47.177  24.901  26.419  1.00  0.00     0.031 C 
ATOM     65  C   UNL A   1      48.002  27.207  26.817  1.00  0.00     0.037 A 
BRANCH  52  66
ATOM     66  C   UNL A   1      46.209  32.897  28.498  1.00  0.00     0.058 A 
ATOM     67  C   UNL A   1      46.130  33.830  27.450  1.00  0.00     0.135 A 
ATOM     68  C   UNL A   1      46.664  33.356  29.744  1.00  0.00     0.135 A 
ATOM     69  F   UNL A   1      45.713  33.445  26.232  1.00  0.00    -0.206 F 
ATOM     70  C   UNL A   1      46.555  35.144  27.609  1.00  0.00     0.059 A 
ATOM     71  C   UNL A   1      47.061  34.677  29.936  1.00  0.00     0.059 A 
ATOM     72  F   UNL A   1      46.754  32.513  30.785  1.00  0.00    -0.206 F 
ATOM     73  C   UNL A   1      47.033  35.555  28.854  1.00  0.00     0.060 A 
BRANCH  73  74
ATOM     74  S   UNL A   1      47.634  37.247  29.034  1.00  0.00     0.124 S 
ATOM     75  O   UNL A   1      46.827  37.947  28.038  1.00  0.00    -0.237 OA
ATOM     76  O   UNL A   1      47.318  37.547  30.427  1.00  0.00    -0.237 OA
ATOM     77  O   UNL A   1      49.056  37.137  28.725  1.00  0.00    -0.744 OA
ENDBRANCH  73  74
ENDBRANCH  52  66
BRANCH  53  78
ATOM     78  C   UNL A   1      43.245  23.448  26.967  1.00  0.00     0.058 A 
ATOM     79  C   UNL A   1      43.037  22.956  25.670  1.00  0.00     0.135 A 
ATOM     80  C   UNL A   1      43.084  22.557  28.038  1.00  0.00     0.135 A 
ATOM     81  F   UNL A   1      43.176  23.771  24.613  1.00  0.00    -0.206 F 
ATOM     82  C   UNL A   1      42.684  21.631  25.440  1.00  0.00     0.059 A 
ATOM     83  C   UNL A   1      42.750  21.220  27.833  1.00  0.00     0.059 A 
ATOM     84  F   UNL A   1      43.287  22.975  29.297  1.00  0.00    -0.206 F 
ATOM     85  C   UNL A   1      42.549  20.768  26.529  1.00  0.00     0.060 A 
BRANCH  85  86
ATOM     86  S   UNL A   1      42.167  19.032  26.207  1.00  0.00     0.124 S 
ATOM     87  O   UNL A   1      42.435  18.426  27.506  1.00  0.00    -0.237 OA
ATOM     88  O   UNL A   1      40.765  19.096  25.810  1.00  0.00    -0.237 OA
ATOM     89  O   UNL A   1      43.098  18.675  25.140  1.00  0.00    -0.744 OA
ENDBRANCH  85  86
ENDBRANCH  53  78
BRANCH  65  90
ATOM     90  C   UNL A   1      49.378  26.733  26.443  1.00  0.00     0.058 A 
ATOM     91  C   UNL A   1      50.248  26.178  27.393  1.00  0.00     0.135 A 
ATOM     92  C   UNL A   1      49.804  26.783  25.106  1.00  0.00     0.135 A 
ATOM     93  F   UNL A   1      49.887  26.116  28.685  1.00  0.00    -0.206 F 
ATOM     94  C   UNL A   1      51.506  25.705  27.034  1.00  0.00     0.059 A 
ATOM     95  C   UNL A   1      51.047  26.293  24.721  1.00  0.00     0.059 A 
ATOM     96  F   UNL A   1      49.003  27.295  24.159  1.00  0.00    -0.206 F 
ATOM     97  C   UNL A   1      51.895  25.765  25.693  1.00  0.00     0.060 A 
BRANCH  97  98
ATOM     98  S   UNL A   1      53.512  25.111  25.233  1.00  0.00     0.124 S 
ATOM     99  O   UNL A   1      53.705  25.705  23.915  1.00  0.00    -0.237 OA
ATOM    100  O   UNL A   1      54.374  25.626  26.293  1.00  0.00    -0.237 OA
ATOM    101  O   UNL A   1      53.309  23.665  25.247  1.00  0.00    -0.744 OA
ENDBRANCH  97  98
ENDBRANCH  65  90
ENDBRANCH  39  40
ENDBRANCH  31  34
ENDBRANCH  29  30
ENDBRANCH  28  29
ENDBRANCH   1  28
TORSDOF 18
ENDMDL
MODEL 3
REMARK VINA RESULT:     -11.8      2.461      3.137
REMARK SMILES CC1=C(C)C[C@@H](C(=O)NCCCCNC(=O)c2ccc(-c3c4nc(c(-c5c(F)cc(S(=O)(=O)[O-])cc5F)c5ccc([nH]5)c(-c5c(F)cc(S(=O)(=O)[O-])cc5F)c5nc(c(-c6c(F)cc(S(=O)(=O)[O-])cc6F)c6ccc3[nH]6)C=C5)C=C4)cc2)[C@@H](C(=O)NCC[NH+]2CCOCC2)C1
REMARK SMILES IDX 11 1 10 2 9 3 7 4 8 5 6 7 1 8 2 9 3 10 95 11 4 12 5 13 83 14
REMARK SMILES IDX 84 15 85 16 86 17 87 19 88 20 89 21 90 22 94 23 91 25 93 26
REMARK SMILES IDX 92 27 12 28 13 29 14 30 15 31 16 33 17 34 18 35 82 36 19 37
REMARK SMILES IDX 81 38 20 39 21 40 22 41 75 42 23 43 80 44 74 45 76 46 24 47
REMARK SMILES IDX 79 48 73 49 72 50 25 52 59 53 38 54 58 55 39 56 42 57 57 58
REMARK SMILES IDX 77 59 40 60 41 61 56 63 78 64 43 65 26 66 27 67 36 68 28 69
REMARK SMILES IDX 29 70 35 71 37 72 30 73 31 74 32 75 33 76 34 77 60 78 61 79
REMARK SMILES IDX 70 80 62 81 63 82 69 83 71 84 64 85 65 86 66 87 67 88 68 89
REMARK SMILES IDX 44 90 45 91 54 92 46 93 47 94 53 95 55 96 48 97 49 98 50 99
REMARK SMILES IDX 51 100 52 101
REMARK H PARENT 9 6 86 18 89 24 14 32 76 51 42 62
REMARK Flexibility Score: inf
ROOT
ATOM      1  C   UNL A   1      33.408  28.112  26.048  1.00  0.00     0.023 C 
ENDROOT
BRANCH   1   2
ATOM      2  C   UNL A   1      32.365  27.056  26.355  1.00  0.00     0.116 C 
BRANCH   2   3
ATOM      3  N   UNL A   1      32.194  26.120  25.271  1.00  0.00    -0.356 N 
ATOM      4  C   UNL A   1      32.857  24.966  24.993  1.00  0.00     0.224 C 
ATOM      5  O   UNL A   1      32.419  24.277  24.066  1.00  0.00    -0.275 OA
ATOM      6  H   UNL A   1      31.485  26.355  24.630  1.00  0.00     0.163 HD
BRANCH   4   7
ATOM      7  C   UNL A   1      34.049  24.470  25.821  1.00  0.00     0.095 C 
ATOM      8  C   UNL A   1      36.151  20.639  25.172  1.00  0.00     0.039 C 
ATOM      9  C   UNL A   1      35.675  22.035  25.455  1.00  0.00    -0.074 C 
ATOM     10  C   UNL A   1      35.902  23.091  24.643  1.00  0.00    -0.074 C 
ATOM     11  C   UNL A   1      34.981  22.255  26.776  1.00  0.00     0.045 C 
ATOM     12  C   UNL A   1      36.701  23.047  23.367  1.00  0.00     0.039 C 
ATOM     13  C   UNL A   1      35.345  24.456  24.982  1.00  0.00     0.045 C 
ATOM     14  C   UNL A   1      33.825  23.253  26.759  1.00  0.00     0.095 C 
BRANCH  14  15
ATOM     15  C   UNL A   1      32.372  22.772  26.857  1.00  0.00     0.224 C 
ATOM     16  O   UNL A   1      31.624  23.330  27.672  1.00  0.00    -0.275 OA
ATOM     17  N   UNL A   1      31.802  21.736  26.211  1.00  0.00    -0.350 N 
ATOM     18  H   UNL A   1      30.926  21.511  26.599  1.00  0.00     0.163 HD
BRANCH  17  19
ATOM     19  C   UNL A   1      32.128  20.862  25.096  1.00  0.00     0.177 C 
BRANCH  19  20
ATOM     20  C   UNL A   1      32.950  19.624  25.534  1.00  0.00     0.283 C 
BRANCH  20  21
ATOM     21  N   UNL A   1      32.676  18.350  24.901  1.00  0.00    -0.330 N 
ATOM     22  C   UNL A   1      32.474  17.118  25.645  1.00  0.00     0.291 C 
ATOM     23  C   UNL A   1      32.910  18.161  23.476  1.00  0.00     0.291 C 
ATOM     24  H   UNL A   1      31.759  18.778  25.028  1.00  0.00     0.348 HD
ATOM     25  C   UNL A   1      33.519  16.042  25.283  1.00  0.00     0.221 C 
ATOM     26  C   UNL A   1      33.981  17.093  23.217  1.00  0.00     0.221 C 
ATOM     27  O   UNL A   1      33.644  15.863  23.867  1.00  0.00    -0.370 OA
ENDBRANCH  20  21
ENDBRANCH  19  20
ENDBRANCH  17  19
ENDBRANCH  14  15
ENDBRANCH   4   7
ENDBRANCH   2   3
ENDBRANCH   1   2
BRANCH   1  28
ATOM     28  C   UNL A   1      33.615  29.150  27.133  1.00  0.00     0.023 C 
BRANCH  28  29
ATOM     29  C   UNL A   1      35.067  29.286  27.554  1.00  0.00     0.116 C 
BRANCH  29  30
ATOM     30  N   UNL A   1      35.228  30.026  28.804  1.00  0.00    -0.352 N 
ATOM     31  C   UNL A   1      36.310  30.142  29.652  1.00  0.00     0.251 C 
ATOM     32  H   UNL A   1      34.430  30.529  29.088  1.00  0.00     0.163 HD
ATOM     33  O   UNL A   1      36.170  30.669  30.746  1.00  0.00    -0.269 OA
BRANCH  31  34
ATOM     34  C   UNL A   1      37.622  29.597  29.241  1.00  0.00     0.039 A 
ATOM     35  C   UNL A   1      38.075  29.779  27.932  1.00  0.00     0.014 A 
ATOM     36  C   UNL A   1      38.423  28.934  30.166  1.00  0.00     0.014 A 
ATOM     37  C   UNL A   1      39.373  29.383  27.591  1.00  0.00     0.010 A 
ATOM     38  C   UNL A   1      39.756  28.700  29.875  1.00  0.00     0.010 A 
ATOM     39  C   UNL A   1      40.245  28.891  28.578  1.00  0.00    -0.014 A 
BRANCH  39  40
ATOM     40  C   UNL A   1      41.656  28.522  28.292  1.00  0.00     0.031 A 
ATOM     41  C   UNL A   1      42.725  29.588  28.345  1.00  0.00     0.074 A 
ATOM     42  C   UNL A   1      41.963  27.276  27.882  1.00  0.00     0.049 A 
ATOM     43  N   UNL A   1      43.978  29.526  27.976  1.00  0.00    -0.248 NA
ATOM     44  C   UNL A   1      42.310  30.920  28.814  1.00  0.00     0.031 C 
ATOM     45  C   UNL A   1      41.012  26.173  27.724  1.00  0.00     0.029 A 
ATOM     46  N   UNL A   1      43.165  26.728  27.516  1.00  0.00    -0.354 N 
ATOM     47  C   UNL A   1      44.476  30.817  28.114  1.00  0.00     0.074 A 
ATOM     48  C   UNL A   1      43.372  31.654  28.526  1.00  0.00     0.031 C 
ATOM     49  C   UNL A   1      41.676  25.068  27.349  1.00  0.00     0.029 A 
ATOM     50  C   UNL A   1      43.089  25.395  27.192  1.00  0.00     0.049 A 
ATOM     51  H   UNL A   1      44.005  27.242  27.488  1.00  0.00     0.167 HD
ATOM     52  C   UNL A   1      45.745  31.263  27.955  1.00  0.00     0.037 A 
ATOM     53  C   UNL A   1      44.054  24.532  26.819  1.00  0.00     0.037 A 
ATOM     54  C   UNL A   1      46.850  30.405  27.624  1.00  0.00     0.049 A 
ATOM     55  C   UNL A   1      45.467  25.030  26.695  1.00  0.00     0.074 A 
ATOM     56  C   UNL A   1      48.192  30.723  27.533  1.00  0.00     0.029 A 
ATOM     57  N   UNL A   1      46.736  29.051  27.343  1.00  0.00    -0.354 N 
ATOM     58  N   UNL A   1      45.934  26.241  26.889  1.00  0.00    -0.248 NA
ATOM     59  C   UNL A   1      46.485  24.047  26.304  1.00  0.00     0.031 C 
ATOM     60  C   UNL A   1      48.888  29.565  27.165  1.00  0.00     0.029 A 
ATOM     61  C   UNL A   1      47.984  28.519  27.066  1.00  0.00     0.049 A 
ATOM     62  H   UNL A   1      45.894  28.542  27.342  1.00  0.00     0.167 HD
ATOM     63  C   UNL A   1      47.304  26.160  26.670  1.00  0.00     0.074 A 
ATOM     64  C   UNL A   1      47.590  24.778  26.335  1.00  0.00     0.031 C 
ATOM     65  C   UNL A   1      48.242  27.137  26.742  1.00  0.00     0.037 A 
BRANCH  52  66
ATOM     66  C   UNL A   1      45.987  32.737  28.147  1.00  0.00     0.058 A 
ATOM     67  C   UNL A   1      45.840  33.657  27.094  1.00  0.00     0.135 A 
ATOM     68  C   UNL A   1      46.409  33.233  29.390  1.00  0.00     0.135 A 
ATOM     69  F   UNL A   1      45.450  33.237  25.879  1.00  0.00    -0.206 F 
ATOM     70  C   UNL A   1      46.171  34.999  27.246  1.00  0.00     0.059 A 
ATOM     71  C   UNL A   1      46.712  34.580  29.575  1.00  0.00     0.059 A 
ATOM     72  F   UNL A   1      46.560  32.405  30.436  1.00  0.00    -0.206 F 
ATOM     73  C   UNL A   1      46.620  35.448  28.488  1.00  0.00     0.060 A 
BRANCH  73  74
ATOM     74  S   UNL A   1      47.099  37.180  28.659  1.00  0.00     0.124 S 
ATOM     75  O   UNL A   1      47.839  37.151  29.917  1.00  0.00    -0.237 OA
ATOM     76  O   UNL A   1      47.901  37.405  27.459  1.00  0.00    -0.237 OA
ATOM     77  O   UNL A   1      45.822  37.884  28.697  1.00  0.00    -0.744 OA
ENDBRANCH  73  74
ENDBRANCH  52  66
BRANCH  53  78
ATOM     78  C   UNL A   1      43.721  23.097  26.613  1.00  0.00     0.058 A 
ATOM     79  C   UNL A   1      43.381  22.288  27.706  1.00  0.00     0.135 A 
ATOM     80  C   UNL A   1      43.680  22.520  25.335  1.00  0.00     0.135 A 
ATOM     81  F   UNL A   1      43.410  22.794  28.949  1.00  0.00    -0.206 F 
ATOM     82  C   UNL A   1      43.013  20.957  27.543  1.00  0.00     0.059 A 
ATOM     83  C   UNL A   1      43.294  21.196  25.143  1.00  0.00     0.059 A 
ATOM     84  F   UNL A   1      43.981  23.257  24.255  1.00  0.00    -0.206 F 
ATOM     85  C   UNL A   1      42.965  20.422  26.256  1.00  0.00     0.060 A 
BRANCH  85  86
ATOM     86  S   UNL A   1      42.407  18.715  26.055  1.00  0.00     0.124 S 
ATOM     87  O   UNL A   1      41.019  18.904  25.653  1.00  0.00    -0.237 OA
ATOM     88  O   UNL A   1      43.309  18.219  25.021  1.00  0.00    -0.237 OA
ATOM     89  O   UNL A   1      42.608  18.138  27.381  1.00  0.00    -0.744 OA
ENDBRANCH  85  86
ENDBRANCH  53  78
BRANCH  65  90
ATOM     90  C   UNL A   1      49.669  26.742  26.486  1.00  0.00     0.058 A 
ATOM     91  C   UNL A   1      50.466  26.175  27.491  1.00  0.00     0.135 A 
ATOM     92  C   UNL A   1      50.222  26.880  25.203  1.00  0.00     0.135 A 
ATOM     93  F   UNL A   1      49.984  26.029  28.735  1.00  0.00    -0.206 F 
ATOM     94  C   UNL A   1      51.774  25.774  27.238  1.00  0.00     0.059 A 
ATOM     95  C   UNL A   1      51.518  26.463  24.922  1.00  0.00     0.059 A 
ATOM     96  F   UNL A   1      49.494  27.407  24.206  1.00  0.00    -0.206 F 
ATOM     97  C   UNL A   1      52.290  25.921  25.948  1.00  0.00     0.060 A 
BRANCH  97  98
ATOM     98  S   UNL A   1      53.974  25.360  25.621  1.00  0.00     0.124 S 
ATOM     99  O   UNL A   1      54.485  26.438  24.782  1.00  0.00    -0.237 OA
ATOM    100  O   UNL A   1      54.543  25.276  26.963  1.00  0.00    -0.237 OA
ATOM    101  O   UNL A   1      53.780  24.078  24.949  1.00  0.00    -0.744 OA
ENDBRANCH  97  98
ENDBRANCH  65  90
ENDBRANCH  39  40
ENDBRANCH  31  34
ENDBRANCH  29  30
ENDBRANCH  28  29
ENDBRANCH   1  28
TORSDOF 18
ENDMDL
