MODEL 1
REMARK VINA RESULT:     -11.1      0.000      0.000
REMARK SMILES CCC(CC)(CC(=O)Nc1ccc(NC(C)=O)cc1)C(=O)NCCCCNC(=O)c1ccc(-c2c3nc(c(-c4c(F)cc(S(=O)(=O)[O-])cc4F)c4ccc([nH]4)c(-c4c(F)cc(S(=O)(=O)[O-])cc4F)c4nc(c(-c5c(F)cc(S(=O)(=O)[O-])cc5F)c5ccc2[nH]5)C=C4)C=C3)cc1
REMARK SMILES IDX 24 1 23 2 22 3 20 4 21 5 3 7 2 8 1 9 4 10 5 11 6 12 7 13
REMARK SMILES IDX 8 14 9 15 10 17 11 18 19 19 12 20 18 21 13 22 14 23 15 24
REMARK SMILES IDX 16 26 17 27 25 28 26 29 27 30 28 31 29 33 30 34 31 35 95 36
REMARK SMILES IDX 32 37 94 38 33 39 34 40 35 41 88 42 36 43 93 44 87 45 89 46
REMARK SMILES IDX 37 47 92 48 86 49 85 50 38 52 72 53 51 54 71 55 52 56 55 57
REMARK SMILES IDX 70 58 90 59 53 60 54 61 69 63 91 64 56 65 39 66 40 67 49 68
REMARK SMILES IDX 41 69 42 70 48 71 50 72 43 73 44 74 45 75 46 76 47 77 73 78
REMARK SMILES IDX 74 79 83 80 75 81 76 82 82 83 84 84 77 85 78 86 79 87 80 88
REMARK SMILES IDX 81 89 57 90 58 91 67 92 59 93 60 94 66 95 68 96 61 97 62 98
REMARK SMILES IDX 63 99 64 100 65 101
REMARK H PARENT 22 6 9 16 14 25 27 32 89 51 55 62
REMARK Flexibility Score: inf
ROOT
ATOM      1  C   UNL A   1      33.699  26.718  25.346  1.00  0.00     0.023 C 
ENDROOT
BRANCH   1   2
ATOM      2  C   UNL A   1      32.836  25.686  26.057  1.00  0.00     0.116 C 
BRANCH   2   3
ATOM      3  N   UNL A   1      33.606  24.506  26.389  1.00  0.00    -0.356 N 
ATOM      4  C   UNL A   1      33.673  23.269  25.850  1.00  0.00     0.226 C 
ATOM      5  O   UNL A   1      34.265  22.425  26.531  1.00  0.00    -0.274 OA
ATOM      6  H   UNL A   1      34.202  24.630  27.164  1.00  0.00     0.163 HD
BRANCH   4   7
ATOM      7  C   UNL A   1      33.032  22.909  24.496  1.00  0.00     0.057 C 
BRANCH   7   8
ATOM      8  C   UNL A   1      31.472  23.052  24.706  1.00  0.00     0.014 C 
ATOM      9  C   UNL A   1      30.852  22.499  25.999  1.00  0.00     0.005 C 
ENDBRANCH   7   8
BRANCH   7  10
ATOM     10  C   UNL A   1      33.288  21.404  24.103  1.00  0.00     0.014 C 
ATOM     11  C   UNL A   1      32.259  20.764  23.170  1.00  0.00     0.005 C 
ENDBRANCH   7  10
BRANCH   7  12
ATOM     12  C   UNL A   1      33.673  23.883  23.421  1.00  0.00     0.117 C 
BRANCH  12  13
ATOM     13  C   UNL A   1      33.058  24.089  22.029  1.00  0.00     0.225 C 
ATOM     14  O   UNL A   1      33.381  23.325  21.111  1.00  0.00    -0.275 OA
ATOM     15  N   UNL A   1      32.029  24.975  21.782  1.00  0.00    -0.326 N 
ATOM     16  H   UNL A   1      31.490  24.754  20.987  1.00  0.00     0.169 HD
BRANCH  15  17
ATOM     17  C   UNL A   1      31.608  26.138  22.458  1.00  0.00     0.041 A 
ATOM     18  C   UNL A   1      30.479  26.153  23.287  1.00  0.00     0.028 A 
ATOM     19  C   UNL A   1      32.218  27.346  22.232  1.00  0.00     0.028 A 
ATOM     20  C   UNL A   1      29.945  27.383  23.759  1.00  0.00     0.028 A 
ATOM     21  C   UNL A   1      31.642  28.551  22.558  1.00  0.00     0.028 A 
ATOM     22  C   UNL A   1      30.499  28.588  23.327  1.00  0.00     0.041 A 
BRANCH  22  23
ATOM     23  N   UNL A   1      30.077  29.892  23.589  1.00  0.00    -0.326 N 
ATOM     24  C   UNL A   1      29.046  30.611  23.042  1.00  0.00     0.221 C 
ATOM     25  H   UNL A   1      30.602  30.369  24.271  1.00  0.00     0.169 HD
ATOM     26  C   UNL A   1      28.871  31.927  23.778  1.00  0.00     0.114 C 
ATOM     27  O   UNL A   1      28.306  30.260  22.140  1.00  0.00    -0.275 OA
ENDBRANCH  22  23
ENDBRANCH  15  17
ENDBRANCH  12  13
ENDBRANCH   7  12
ENDBRANCH   4   7
ENDBRANCH   2   3
ENDBRANCH   1   2
BRANCH   1  28
ATOM     28  C   UNL A   1      33.450  28.157  25.798  1.00  0.00     0.023 C 
BRANCH  28  29
ATOM     29  C   UNL A   1      33.613  28.390  27.294  1.00  0.00     0.116 C 
BRANCH  29  30
ATOM     30  N   UNL A   1      33.520  29.798  27.652  1.00  0.00    -0.352 N 
ATOM     31  C   UNL A   1      34.476  30.597  28.227  1.00  0.00     0.251 C 
ATOM     32  H   UNL A   1      32.658  30.234  27.456  1.00  0.00     0.163 HD
ATOM     33  O   UNL A   1      34.194  31.728  28.605  1.00  0.00    -0.269 OA
BRANCH  31  34
ATOM     34  C   UNL A   1      35.834  30.053  28.410  1.00  0.00     0.039 A 
ATOM     35  C   UNL A   1      36.721  30.077  27.334  1.00  0.00     0.014 A 
ATOM     36  C   UNL A   1      36.243  29.590  29.664  1.00  0.00     0.014 A 
ATOM     37  C   UNL A   1      38.046  29.690  27.534  1.00  0.00     0.010 A 
ATOM     38  C   UNL A   1      37.581  29.287  29.879  1.00  0.00     0.010 A 
ATOM     39  C   UNL A   1      38.495  29.329  28.815  1.00  0.00    -0.014 A 
BRANCH  39  40
ATOM     40  C   UNL A   1      39.920  28.990  29.062  1.00  0.00     0.031 A 
ATOM     41  C   UNL A   1      40.849  30.025  29.635  1.00  0.00     0.074 A 
ATOM     42  C   UNL A   1      40.385  27.772  28.717  1.00  0.00     0.049 A 
ATOM     43  N   UNL A   1      42.132  29.939  29.875  1.00  0.00    -0.248 NA
ATOM     44  C   UNL A   1      40.267  31.339  29.953  1.00  0.00     0.031 C 
ATOM     45  C   UNL A   1      39.590  26.703  28.107  1.00  0.00     0.029 A 
ATOM     46  N   UNL A   1      41.640  27.229  28.824  1.00  0.00    -0.354 N 
ATOM     47  C   UNL A   1      42.510  31.186  30.356  1.00  0.00     0.074 A 
ATOM     48  C   UNL A   1      41.336  32.029  30.319  1.00  0.00     0.031 C 
ATOM     49  C   UNL A   1      40.368  25.626  27.922  1.00  0.00     0.029 A 
ATOM     50  C   UNL A   1      41.726  25.937  28.359  1.00  0.00     0.049 A 
ATOM     51  H   UNL A   1      42.408  27.719  29.198  1.00  0.00     0.167 HD
ATOM     52  C   UNL A   1      43.722  31.586  30.811  1.00  0.00     0.037 A 
ATOM     53  C   UNL A   1      42.781  25.102  28.286  1.00  0.00     0.037 A 
ATOM     54  C   UNL A   1      44.879  30.730  30.865  1.00  0.00     0.049 A 
ATOM     55  C   UNL A   1      44.119  25.572  28.790  1.00  0.00     0.074 A 
ATOM     56  C   UNL A   1      46.135  31.018  31.368  1.00  0.00     0.029 A 
ATOM     57  N   UNL A   1      44.924  29.425  30.396  1.00  0.00    -0.354 N 
ATOM     58  N   UNL A   1      44.443  26.732  29.313  1.00  0.00    -0.248 NA
ATOM     59  C   UNL A   1      45.235  24.620  28.702  1.00  0.00     0.031 C 
ATOM     60  C   UNL A   1      46.956  29.906  31.152  1.00  0.00     0.029 A 
ATOM     61  C   UNL A   1      46.194  28.904  30.571  1.00  0.00     0.049 A 
ATOM     62  H   UNL A   1      44.165  28.943  29.996  1.00  0.00     0.167 HD
ATOM     63  C   UNL A   1      45.791  26.637  29.644  1.00  0.00     0.074 A 
ATOM     64  C   UNL A   1      46.217  25.304  29.273  1.00  0.00     0.031 C 
ATOM     65  C   UNL A   1      46.601  27.570  30.204  1.00  0.00     0.037 A 
BRANCH  52  66
ATOM     66  C   UNL A   1      43.857  33.008  31.285  1.00  0.00     0.058 A 
ATOM     67  C   UNL A   1      44.210  34.050  30.412  1.00  0.00     0.135 A 
ATOM     68  C   UNL A   1      43.596  33.340  32.625  1.00  0.00     0.135 A 
ATOM     69  F   UNL A   1      44.487  33.789  29.124  1.00  0.00    -0.206 F 
ATOM     70  C   UNL A   1      44.327  35.363  30.855  1.00  0.00     0.059 A 
ATOM     71  C   UNL A   1      43.676  34.651  33.082  1.00  0.00     0.059 A 
ATOM     72  F   UNL A   1      43.257  32.384  33.504  1.00  0.00    -0.206 F 
ATOM     73  C   UNL A   1      44.057  35.654  32.192  1.00  0.00     0.060 A 
BRANCH  73  74
ATOM     74  S   UNL A   1      44.206  37.365  32.747  1.00  0.00     0.124 S 
ATOM     75  O   UNL A   1      45.538  37.363  33.343  1.00  0.00    -0.237 OA
ATOM     76  O   UNL A   1      44.071  38.110  31.500  1.00  0.00    -0.237 OA
ATOM     77  O   UNL A   1      43.100  37.517  33.687  1.00  0.00    -0.744 OA
ENDBRANCH  73  74
ENDBRANCH  52  66
BRANCH  53  78
ATOM     78  C   UNL A   1      42.610  23.729  27.738  1.00  0.00     0.058 A 
ATOM     79  C   UNL A   1      42.639  23.496  26.355  1.00  0.00     0.135 A 
ATOM     80  C   UNL A   1      42.420  22.623  28.582  1.00  0.00     0.135 A 
ATOM     81  F   UNL A   1      42.811  24.521  25.506  1.00  0.00    -0.206 F 
ATOM     82  C   UNL A   1      42.466  22.221  25.826  1.00  0.00     0.059 A 
ATOM     83  C   UNL A   1      42.275  21.334  28.077  1.00  0.00     0.059 A 
ATOM     84  F   UNL A   1      42.401  22.788  29.914  1.00  0.00    -0.206 F 
ATOM     85  C   UNL A   1      42.288  21.144  26.696  1.00  0.00     0.060 A 
BRANCH  85  86
ATOM     86  S   UNL A   1      42.107  19.489  25.998  1.00  0.00     0.124 S 
ATOM     87  O   UNL A   1      42.619  18.657  27.080  1.00  0.00    -0.237 OA
ATOM     88  O   UNL A   1      40.669  19.415  25.759  1.00  0.00    -0.237 OA
ATOM     89  O   UNL A   1      42.933  19.540  24.796  1.00  0.00    -0.744 OA
ENDBRANCH  85  86
ENDBRANCH  53  78
BRANCH  65  90
ATOM     90  C   UNL A   1      48.023  27.170  30.492  1.00  0.00     0.058 A 
ATOM     91  C   UNL A   1      49.075  27.490  29.621  1.00  0.00     0.135 A 
ATOM     92  C   UNL A   1      48.343  26.506  31.689  1.00  0.00     0.135 A 
ATOM     93  F   UNL A   1      48.824  28.118  28.461  1.00  0.00    -0.206 F 
ATOM     94  C   UNL A   1      50.391  27.144  29.912  1.00  0.00     0.059 A 
ATOM     95  C   UNL A   1      49.655  26.180  32.016  1.00  0.00     0.059 A 
ATOM     96  F   UNL A   1      47.376  26.187  32.565  1.00  0.00    -0.206 F 
ATOM     97  C   UNL A   1      50.671  26.492  31.114  1.00  0.00     0.060 A 
BRANCH  97  98
ATOM     98  S   UNL A   1      52.387  26.082  31.495  1.00  0.00     0.124 S 
ATOM     99  O   UNL A   1      52.765  27.183  32.374  1.00  0.00    -0.237 OA
ATOM    100  O   UNL A   1      52.260  24.775  32.134  1.00  0.00    -0.237 OA
ATOM    101  O   UNL A   1      53.034  26.073  30.186  1.00  0.00    -0.744 OA
ENDBRANCH  97  98
ENDBRANCH  65  90
ENDBRANCH  39  40
ENDBRANCH  31  34
ENDBRANCH  29  30
ENDBRANCH  28  29
ENDBRANCH   1  28
TORSDOF 20
ENDMDL
MODEL 2
REMARK VINA RESULT:     -11.1      2.803      3.450
REMARK SMILES CCC(CC)(CC(=O)Nc1ccc(NC(C)=O)cc1)C(=O)NCCCCNC(=O)c1ccc(-c2c3nc(c(-c4c(F)cc(S(=O)(=O)[O-])cc4F)c4ccc([nH]4)c(-c4c(F)cc(S(=O)(=O)[O-])cc4F)c4nc(c(-c5c(F)cc(S(=O)(=O)[O-])cc5F)c5ccc2[nH]5)C=C4)C=C3)cc1
REMARK SMILES IDX 24 1 23 2 22 3 20 4 21 5 3 7 2 8 1 9 4 10 5 11 6 12 7 13
REMARK SMILES IDX 8 14 9 15 10 17 11 18 19 19 12 20 18 21 13 22 14 23 15 24
REMARK SMILES IDX 16 26 17 27 25 28 26 29 27 30 28 31 29 33 30 34 31 35 95 36
REMARK SMILES IDX 32 37 94 38 33 39 34 40 35 41 88 42 36 43 93 44 87 45 89 46
REMARK SMILES IDX 37 47 92 48 86 49 85 50 38 52 72 53 51 54 71 55 52 56 55 57
REMARK SMILES IDX 70 58 90 59 53 60 54 61 69 63 91 64 56 65 39 66 40 67 49 68
REMARK SMILES IDX 41 69 42 70 48 71 50 72 43 73 44 74 45 75 46 76 47 77 73 78
REMARK SMILES IDX 74 79 83 80 75 81 76 82 82 83 84 84 77 85 78 86 79 87 80 88
REMARK SMILES IDX 81 89 57 90 58 91 67 92 59 93 60 94 66 95 68 96 61 97 62 98
REMARK SMILES IDX 63 99 64 100 65 101
REMARK H PARENT 22 6 9 16 14 25 27 32 89 51 55 62
REMARK Flexibility Score: inf
ROOT
ATOM      1  C   UNL A   1      31.447  27.754  26.298  1.00  0.00     0.023 C 
ENDROOT
BRANCH   1   2
ATOM      2  C   UNL A   1      31.041  26.388  25.767  1.00  0.00     0.116 C 
BRANCH   2   3
ATOM      3  N   UNL A   1      31.312  25.351  26.740  1.00  0.00    -0.356 N 
ATOM      4  C   UNL A   1      31.838  24.110  26.642  1.00  0.00     0.226 C 
ATOM      5  O   UNL A   1      31.708  23.398  27.642  1.00  0.00    -0.274 OA
ATOM      6  H   UNL A   1      31.063  25.600  27.660  1.00  0.00     0.163 HD
BRANCH   4   7
ATOM      7  C   UNL A   1      32.526  23.592  25.365  1.00  0.00     0.057 C 
BRANCH   7   8
ATOM      8  C   UNL A   1      31.360  23.219  24.366  1.00  0.00     0.014 C 
ATOM      9  C   UNL A   1      31.683  22.314  23.166  1.00  0.00     0.005 C 
ENDBRANCH   7   8
BRANCH   7  10
ATOM     10  C   UNL A   1      33.326  22.258  25.625  1.00  0.00     0.014 C 
ATOM     11  C   UNL A   1      34.670  22.404  26.340  1.00  0.00     0.005 C 
ENDBRANCH   7  10
BRANCH   7  12
ATOM     12  C   UNL A   1      33.504  24.742  24.881  1.00  0.00     0.117 C 
BRANCH  12  13
ATOM     13  C   UNL A   1      34.139  24.747  23.482  1.00  0.00     0.225 C 
ATOM     14  O   UNL A   1      35.033  23.931  23.226  1.00  0.00    -0.275 OA
ATOM     15  N   UNL A   1      33.648  25.498  22.432  1.00  0.00    -0.326 N 
ATOM     16  H   UNL A   1      33.882  25.147  21.542  1.00  0.00     0.169 HD
BRANCH  15  17
ATOM     17  C   UNL A   1      32.872  26.675  22.402  1.00  0.00     0.041 A 
ATOM     18  C   UNL A   1      33.409  27.931  22.709  1.00  0.00     0.028 A 
ATOM     19  C   UNL A   1      31.517  26.622  22.191  1.00  0.00     0.028 A 
ATOM     20  C   UNL A   1      32.558  29.053  22.903  1.00  0.00     0.028 A 
ATOM     21  C   UNL A   1      30.667  27.654  22.509  1.00  0.00     0.028 A 
ATOM     22  C   UNL A   1      31.173  28.884  22.868  1.00  0.00     0.041 A 
BRANCH  22  23
ATOM     23  N   UNL A   1      30.168  29.818  23.121  1.00  0.00    -0.326 N 
ATOM     24  C   UNL A   1      29.235  30.360  22.277  1.00  0.00     0.221 C 
ATOM     25  H   UNL A   1      30.123  30.137  24.052  1.00  0.00     0.169 HD
ATOM     26  C   UNL A   1      28.240  31.200  23.057  1.00  0.00     0.114 C 
ATOM     27  O   UNL A   1      29.136  30.172  21.077  1.00  0.00    -0.275 OA
ENDBRANCH  22  23
ENDBRANCH  15  17
ENDBRANCH  12  13
ENDBRANCH   7  12
ENDBRANCH   4   7
ENDBRANCH   2   3
ENDBRANCH   1   2
BRANCH   1  28
ATOM     28  C   UNL A   1      32.805  27.773  26.999  1.00  0.00     0.023 C 
BRANCH  28  29
ATOM     29  C   UNL A   1      33.875  28.591  26.289  1.00  0.00     0.116 C 
BRANCH  29  30
ATOM     30  N   UNL A   1      33.744  30.019  26.542  1.00  0.00    -0.352 N 
ATOM     31  C   UNL A   1      34.522  30.818  27.341  1.00  0.00     0.251 C 
ATOM     32  H   UNL A   1      33.001  30.470  26.079  1.00  0.00     0.163 HD
ATOM     33  O   UNL A   1      34.193  31.977  27.569  1.00  0.00    -0.269 OA
BRANCH  31  34
ATOM     34  C   UNL A   1      35.739  30.244  27.944  1.00  0.00     0.039 A 
ATOM     35  C   UNL A   1      36.952  30.371  27.268  1.00  0.00     0.014 A 
ATOM     36  C   UNL A   1      35.682  29.646  29.207  1.00  0.00     0.014 A 
ATOM     37  C   UNL A   1      38.127  29.951  27.891  1.00  0.00     0.010 A 
ATOM     38  C   UNL A   1      36.862  29.309  29.857  1.00  0.00     0.010 A 
ATOM     39  C   UNL A   1      38.096  29.453  29.204  1.00  0.00    -0.014 A 
BRANCH  39  40
ATOM     40  C   UNL A   1      39.346  29.073  29.911  1.00  0.00     0.031 A 
ATOM     41  C   UNL A   1      39.755  29.810  31.157  1.00  0.00     0.074 A 
ATOM     42  C   UNL A   1      40.136  28.109  29.399  1.00  0.00     0.049 A 
ATOM     43  N   UNL A   1      40.830  29.663  31.887  1.00  0.00    -0.248 NA
ATOM     44  C   UNL A   1      38.851  30.871  31.630  1.00  0.00     0.031 C 
ATOM     45  C   UNL A   1      39.869  27.359  28.169  1.00  0.00     0.029 A 
ATOM     46  N   UNL A   1      41.328  27.596  29.845  1.00  0.00    -0.354 N 
ATOM     47  C   UNL A   1      40.739  30.618  32.891  1.00  0.00     0.074 A 
ATOM     48  C   UNL A   1      39.534  31.379  32.645  1.00  0.00     0.031 C 
ATOM     49  C   UNL A   1      40.850  26.465  27.976  1.00  0.00     0.029 A 
ATOM     50  C   UNL A   1      41.838  26.603  29.041  1.00  0.00     0.049 A 
ATOM     51  H   UNL A   1      41.776  27.910  30.663  1.00  0.00     0.167 HD
ATOM     52  C   UNL A   1      41.572  30.827  33.939  1.00  0.00     0.037 A 
ATOM     53  C   UNL A   1      42.978  25.891  29.147  1.00  0.00     0.037 A 
ATOM     54  C   UNL A   1      42.757  30.048  34.188  1.00  0.00     0.049 A 
ATOM     55  C   UNL A   1      43.892  26.148  30.316  1.00  0.00     0.074 A 
ATOM     56  C   UNL A   1      43.633  30.135  35.254  1.00  0.00     0.029 A 
ATOM     57  N   UNL A   1      43.236  29.044  33.357  1.00  0.00    -0.354 N 
ATOM     58  N   UNL A   1      43.752  27.005  31.300  1.00  0.00    -0.248 NA
ATOM     59  C   UNL A   1      45.114  25.337  30.394  1.00  0.00     0.031 C 
ATOM     60  C   UNL A   1      44.672  29.224  35.042  1.00  0.00     0.029 A 
ATOM     61  C   UNL A   1      44.410  28.524  33.874  1.00  0.00     0.049 A 
ATOM     62  H   UNL A   1      42.803  28.747  32.525  1.00  0.00     0.167 HD
ATOM     63  C   UNL A   1      44.852  26.815  32.129  1.00  0.00     0.074 A 
ATOM     64  C   UNL A   1      45.640  25.754  31.537  1.00  0.00     0.031 C 
ATOM     65  C   UNL A   1      45.179  27.460  33.277  1.00  0.00     0.037 A 
BRANCH  52  66
ATOM     66  C   UNL A   1      41.231  31.939  34.893  1.00  0.00     0.058 A 
ATOM     67  C   UNL A   1      40.341  31.751  35.963  1.00  0.00     0.135 A 
ATOM     68  C   UNL A   1      41.831  33.202  34.759  1.00  0.00     0.135 A 
ATOM     69  F   UNL A   1      39.725  30.570  36.131  1.00  0.00    -0.206 F 
ATOM     70  C   UNL A   1      40.035  32.781  36.846  1.00  0.00     0.059 A 
ATOM     71  C   UNL A   1      41.564  34.238  35.650  1.00  0.00     0.059 A 
ATOM     72  F   UNL A   1      42.689  33.440  33.754  1.00  0.00    -0.206 F 
ATOM     73  C   UNL A   1      40.653  34.021  36.681  1.00  0.00     0.060 A 
BRANCH  73  74
ATOM     74  S   UNL A   1      40.251  35.344  37.842  1.00  0.00     0.124 S 
ATOM     75  O   UNL A   1      39.141  34.753  38.584  1.00  0.00    -0.237 OA
ATOM     76  O   UNL A   1      41.498  35.497  38.584  1.00  0.00    -0.237 OA
ATOM     77  O   UNL A   1      39.899  36.464  36.975  1.00  0.00    -0.744 OA
ENDBRANCH  73  74
ENDBRANCH  52  66
BRANCH  53  78
ATOM     78  C   UNL A   1      43.306  24.852  28.133  1.00  0.00     0.058 A 
ATOM     79  C   UNL A   1      44.170  25.135  27.065  1.00  0.00     0.135 A 
ATOM     80  C   UNL A   1      42.770  23.558  28.214  1.00  0.00     0.135 A 
ATOM     81  F   UNL A   1      44.703  26.360  26.939  1.00  0.00    -0.206 F 
ATOM     82  C   UNL A   1      44.476  24.180  26.101  1.00  0.00     0.059 A 
ATOM     83  C   UNL A   1      43.085  22.576  27.278  1.00  0.00     0.059 A 
ATOM     84  F   UNL A   1      41.952  23.229  29.226  1.00  0.00    -0.206 F 
ATOM     85  C   UNL A   1      43.930  22.900  26.218  1.00  0.00     0.060 A 
BRANCH  85  86
ATOM     86  S   UNL A   1      44.368  21.657  24.984  1.00  0.00     0.124 S 
ATOM     87  O   UNL A   1      45.776  21.428  25.284  1.00  0.00    -0.237 OA
ATOM     88  O   UNL A   1      43.458  20.565  25.315  1.00  0.00    -0.237 OA
ATOM     89  O   UNL A   1      44.094  22.329  23.718  1.00  0.00    -0.744 OA
ENDBRANCH  85  86
ENDBRANCH  53  78
BRANCH  65  90
ATOM     90  C   UNL A   1      46.422  27.009  33.996  1.00  0.00     0.058 A 
ATOM     91  C   UNL A   1      47.670  27.606  33.765  1.00  0.00     0.135 A 
ATOM     92  C   UNL A   1      46.348  26.002  34.973  1.00  0.00     0.135 A 
ATOM     93  F   UNL A   1      47.798  28.568  32.838  1.00  0.00    -0.206 F 
ATOM     94  C   UNL A   1      48.808  27.204  34.458  1.00  0.00     0.059 A 
ATOM     95  C   UNL A   1      47.466  25.607  35.701  1.00  0.00     0.059 A 
ATOM     96  F   UNL A   1      45.176  25.405  35.243  1.00  0.00    -0.206 F 
ATOM     97  C   UNL A   1      48.694  26.206  35.428  1.00  0.00     0.060 A 
BRANCH  97  98
ATOM     98  S   UNL A   1      50.170  25.719  36.345  1.00  0.00     0.124 S 
ATOM     99  O   UNL A   1      51.168  26.638  35.807  1.00  0.00    -0.237 OA
ATOM    100  O   UNL A   1      49.769  25.956  37.728  1.00  0.00    -0.237 OA
ATOM    101  O   UNL A   1      50.350  24.316  35.982  1.00  0.00    -0.744 OA
ENDBRANCH  97  98
ENDBRANCH  65  90
ENDBRANCH  39  40
ENDBRANCH  31  34
ENDBRANCH  29  30
ENDBRANCH  28  29
ENDBRANCH   1  28
TORSDOF 20
ENDMDL
MODEL 3
REMARK VINA RESULT:     -10.7      3.325      8.806
REMARK SMILES CCC(CC)(CC(=O)Nc1ccc(NC(C)=O)cc1)C(=O)NCCCCNC(=O)c1ccc(-c2c3nc(c(-c4c(F)cc(S(=O)(=O)[O-])cc4F)c4ccc([nH]4)c(-c4c(F)cc(S(=O)(=O)[O-])cc4F)c4nc(c(-c5c(F)cc(S(=O)(=O)[O-])cc5F)c5ccc2[nH]5)C=C4)C=C3)cc1
REMARK SMILES IDX 24 1 23 2 22 3 20 4 21 5 3 7 2 8 1 9 4 10 5 11 6 12 7 13
REMARK SMILES IDX 8 14 9 15 10 17 11 18 19 19 12 20 18 21 13 22 14 23 15 24
REMARK SMILES IDX 16 26 17 27 25 28 26 29 27 30 28 31 29 33 30 34 31 35 95 36
REMARK SMILES IDX 32 37 94 38 33 39 34 40 35 41 88 42 36 43 93 44 87 45 89 46
REMARK SMILES IDX 37 47 92 48 86 49 85 50 38 52 72 53 51 54 71 55 52 56 55 57
REMARK SMILES IDX 70 58 90 59 53 60 54 61 69 63 91 64 56 65 39 66 40 67 49 68
REMARK SMILES IDX 41 69 42 70 48 71 50 72 43 73 44 74 45 75 46 76 47 77 73 78
REMARK SMILES IDX 74 79 83 80 75 81 76 82 82 83 84 84 77 85 78 86 79 87 80 88
REMARK SMILES IDX 81 89 57 90 58 91 67 92 59 93 60 94 66 95 68 96 61 97 62 98
REMARK SMILES IDX 63 99 64 100 65 101
REMARK H PARENT 22 6 9 16 14 25 27 32 89 51 55 62
REMARK Flexibility Score: inf
ROOT
ATOM      1  C   UNL A   1      37.405  21.356  24.691  1.00  0.00     0.023 C 
ENDROOT
BRANCH   1   2
ATOM      2  C   UNL A   1      35.900  21.132  24.716  1.00  0.00     0.116 C 
BRANCH   2   3
ATOM      3  N   UNL A   1      35.343  21.496  26.002  1.00  0.00    -0.356 N 
ATOM      4  C   UNL A   1      34.507  22.481  26.397  1.00  0.00     0.226 C 
ATOM      5  O   UNL A   1      34.423  22.647  27.618  1.00  0.00    -0.274 OA
ATOM      6  H   UNL A   1      35.632  20.907  26.737  1.00  0.00     0.163 HD
BRANCH   4   7
ATOM      7  C   UNL A   1      33.731  23.369  25.406  1.00  0.00     0.057 C 
BRANCH   7   8
ATOM      8  C   UNL A   1      32.729  22.404  24.655  1.00  0.00     0.014 C 
ATOM      9  C   UNL A   1      32.283  21.115  25.364  1.00  0.00     0.005 C 
ENDBRANCH   7   8
BRANCH   7  10
ATOM     10  C   UNL A   1      34.672  23.977  24.297  1.00  0.00     0.014 C 
ATOM     11  C   UNL A   1      34.171  25.245  23.606  1.00  0.00     0.005 C 
ENDBRANCH   7  10
BRANCH   7  12
ATOM     12  C   UNL A   1      33.061  24.523  26.263  1.00  0.00     0.117 C 
BRANCH  12  13
ATOM     13  C   UNL A   1      31.608  24.443  26.755  1.00  0.00     0.225 C 
ATOM     14  O   UNL A   1      31.310  23.604  27.614  1.00  0.00    -0.275 OA
ATOM     15  N   UNL A   1      30.645  25.374  26.419  1.00  0.00    -0.326 N 
ATOM     16  H   UNL A   1      29.901  25.433  27.063  1.00  0.00     0.169 HD
BRANCH  15  17
ATOM     17  C   UNL A   1      30.531  26.254  25.324  1.00  0.00     0.041 A 
ATOM     18  C   UNL A   1      31.282  27.433  25.233  1.00  0.00     0.028 A 
ATOM     19  C   UNL A   1      29.580  26.056  24.355  1.00  0.00     0.028 A 
ATOM     20  C   UNL A   1      30.975  28.411  24.248  1.00  0.00     0.028 A 
ATOM     21  C   UNL A   1      29.175  27.044  23.488  1.00  0.00     0.028 A 
ATOM     22  C   UNL A   1      29.866  28.233  23.421  1.00  0.00     0.041 A 
BRANCH  22  23
ATOM     23  N   UNL A   1      29.336  29.101  22.464  1.00  0.00    -0.326 N 
ATOM     24  C   UNL A   1      28.099  29.687  22.394  1.00  0.00     0.221 C 
ATOM     25  H   UNL A   1      29.946  29.326  21.725  1.00  0.00     0.169 HD
ATOM     26  C   UNL A   1      28.054  30.693  21.259  1.00  0.00     0.114 C 
ATOM     27  O   UNL A   1      27.161  29.508  23.150  1.00  0.00    -0.275 OA
ENDBRANCH  22  23
ENDBRANCH  15  17
ENDBRANCH  12  13
ENDBRANCH   7  12
ENDBRANCH   4   7
ENDBRANCH   2   3
ENDBRANCH   1   2
BRANCH   1  28
ATOM     28  C   UNL A   1      38.220  20.179  25.223  1.00  0.00     0.023 C 
BRANCH  28  29
ATOM     29  C   UNL A   1      39.508  20.569  25.935  1.00  0.00     0.116 C 
BRANCH  29  30
ATOM     30  N   UNL A   1      40.427  19.449  26.077  1.00  0.00    -0.352 N 
ATOM     31  C   UNL A   1      41.787  19.479  26.259  1.00  0.00     0.251 C 
ATOM     32  H   UNL A   1      40.021  18.552  26.039  1.00  0.00     0.163 HD
ATOM     33  O   UNL A   1      42.444  18.445  26.212  1.00  0.00    -0.269 OA
BRANCH  31  34
ATOM     34  C   UNL A   1      42.442  20.782  26.476  1.00  0.00     0.039 A 
ATOM     35  C   UNL A   1      42.848  21.526  25.368  1.00  0.00     0.014 A 
ATOM     36  C   UNL A   1      42.586  21.290  27.770  1.00  0.00     0.014 A 
ATOM     37  C   UNL A   1      43.345  22.815  25.557  1.00  0.00     0.010 A 
ATOM     38  C   UNL A   1      43.000  22.604  27.948  1.00  0.00     0.010 A 
ATOM     39  C   UNL A   1      43.389  23.378  26.844  1.00  0.00    -0.014 A 
BRANCH  39  40
ATOM     40  C   UNL A   1      43.842  24.777  27.056  1.00  0.00     0.031 A 
ATOM     41  C   UNL A   1      45.291  25.132  26.869  1.00  0.00     0.074 A 
ATOM     42  C   UNL A   1      42.959  25.708  27.470  1.00  0.00     0.049 A 
ATOM     43  N   UNL A   1      45.890  26.280  27.055  1.00  0.00    -0.248 NA
ATOM     44  C   UNL A   1      46.193  24.048  26.447  1.00  0.00     0.031 C 
ATOM     45  C   UNL A   1      41.537  25.471  27.733  1.00  0.00     0.029 A 
ATOM     46  N   UNL A   1      43.128  27.041  27.749  1.00  0.00    -0.354 N 
ATOM     47  C   UNL A   1      47.234  26.052  26.787  1.00  0.00     0.074 A 
ATOM     48  C   UNL A   1      47.374  24.646  26.484  1.00  0.00     0.031 C 
ATOM     49  C   UNL A   1      40.960  26.623  28.105  1.00  0.00     0.029 A 
ATOM     50  C   UNL A   1      41.973  27.673  28.150  1.00  0.00     0.049 A 
ATOM     51  H   UNL A   1      43.994  27.502  27.670  1.00  0.00     0.167 HD
ATOM     52  C   UNL A   1      48.255  26.942  26.771  1.00  0.00     0.037 A 
ATOM     53  C   UNL A   1      41.758  28.951  28.518  1.00  0.00     0.037 A 
ATOM     54  C   UNL A   1      48.100  28.346  27.052  1.00  0.00     0.049 A 
ATOM     55  C   UNL A   1      42.912  29.918  28.500  1.00  0.00     0.074 A 
ATOM     56  C   UNL A   1      49.058  29.342  27.000  1.00  0.00     0.029 A 
ATOM     57  N   UNL A   1      46.914  28.950  27.443  1.00  0.00    -0.354 N 
ATOM     58  N   UNL A   1      44.164  29.704  28.171  1.00  0.00    -0.248 NA
ATOM     59  C   UNL A   1      42.624  31.303  28.898  1.00  0.00     0.031 C 
ATOM     60  C   UNL A   1      48.465  30.539  27.414  1.00  0.00     0.029 A 
ATOM     61  C   UNL A   1      47.122  30.301  27.663  1.00  0.00     0.049 A 
ATOM     62  H   UNL A   1      46.052  28.486  27.549  1.00  0.00     0.167 HD
ATOM     63  C   UNL A   1      44.806  30.931  28.292  1.00  0.00     0.074 A 
ATOM     64  C   UNL A   1      43.800  31.886  28.713  1.00  0.00     0.031 C 
ATOM     65  C   UNL A   1      46.108  31.241  28.073  1.00  0.00     0.037 A 
BRANCH  52  66
ATOM     66  C   UNL A   1      49.629  26.424  26.440  1.00  0.00     0.058 A 
ATOM     67  C   UNL A   1      50.504  25.955  27.434  1.00  0.00     0.135 A 
ATOM     68  C   UNL A   1      50.064  26.361  25.106  1.00  0.00     0.135 A 
ATOM     69  F   UNL A   1      50.148  26.007  28.728  1.00  0.00    -0.206 F 
ATOM     70  C   UNL A   1      51.770  25.472  27.122  1.00  0.00     0.059 A 
ATOM     71  C   UNL A   1      51.314  25.852  24.768  1.00  0.00     0.059 A 
ATOM     72  F   UNL A   1      49.271  26.797  24.115  1.00  0.00    -0.206 F 
ATOM     73  C   UNL A   1      52.165  25.423  25.785  1.00  0.00     0.060 A 
BRANCH  73  74
ATOM     74  S   UNL A   1      53.809  24.784  25.397  1.00  0.00     0.124 S 
ATOM     75  O   UNL A   1      54.496  24.954  26.673  1.00  0.00    -0.237 OA
ATOM     76  O   UNL A   1      53.523  23.406  25.009  1.00  0.00    -0.237 OA
ATOM     77  O   UNL A   1      54.267  25.653  24.318  1.00  0.00    -0.744 OA
ENDBRANCH  73  74
ENDBRANCH  52  66
BRANCH  53  78
ATOM     78  C   UNL A   1      40.393  29.396  28.910  1.00  0.00     0.058 A 
ATOM     79  C   UNL A   1      40.056  29.584  30.258  1.00  0.00     0.135 A 
ATOM     80  C   UNL A   1      39.402  29.647  27.948  1.00  0.00     0.135 A 
ATOM     81  F   UNL A   1      40.966  29.351  31.216  1.00  0.00    -0.206 F 
ATOM     82  C   UNL A   1      38.780  29.986  30.642  1.00  0.00     0.059 A 
ATOM     83  C   UNL A   1      38.128  30.078  28.306  1.00  0.00     0.059 A 
ATOM     84  F   UNL A   1      39.677  29.499  26.642  1.00  0.00    -0.206 F 
ATOM     85  C   UNL A   1      37.823  30.234  29.657  1.00  0.00     0.060 A 
BRANCH  85  86
ATOM     86  S   UNL A   1      36.184  30.795  30.166  1.00  0.00     0.124 S 
ATOM     87  O   UNL A   1      36.412  32.220  30.373  1.00  0.00    -0.237 OA
ATOM     88  O   UNL A   1      35.367  30.440  29.009  1.00  0.00    -0.237 OA
ATOM     89  O   UNL A   1      35.921  30.016  31.372  1.00  0.00    -0.744 OA
ENDBRANCH  85  86
ENDBRANCH  53  78
BRANCH  65  90
ATOM     90  C   UNL A   1      46.517  32.679  28.243  1.00  0.00     0.058 A 
ATOM     91  C   UNL A   1      46.397  33.612  27.202  1.00  0.00     0.135 A 
ATOM     92  C   UNL A   1      46.982  33.141  29.485  1.00  0.00     0.135 A 
ATOM     93  F   UNL A   1      45.964  33.223  25.992  1.00  0.00    -0.206 F 
ATOM     94  C   UNL A   1      46.747  34.947  27.378  1.00  0.00     0.059 A 
ATOM     95  C   UNL A   1      47.307  34.478  29.694  1.00  0.00     0.059 A 
ATOM     96  F   UNL A   1      47.105  32.293  30.520  1.00  0.00    -0.206 F 
ATOM     97  C   UNL A   1      47.198  35.371  28.629  1.00  0.00     0.060 A 
BRANCH  97  98
ATOM     98  S   UNL A   1      47.614  37.113  28.854  1.00  0.00     0.124 S 
ATOM     99  O   UNL A   1      46.486  37.772  28.205  1.00  0.00    -0.237 OA
ATOM    100  O   UNL A   1      47.670  37.234  30.308  1.00  0.00    -0.237 OA
ATOM    101  O   UNL A   1      48.898  37.247  28.170  1.00  0.00    -0.744 OA
ENDBRANCH  97  98
ENDBRANCH  65  90
ENDBRANCH  39  40
ENDBRANCH  31  34
ENDBRANCH  29  30
ENDBRANCH  28  29
ENDBRANCH   1  28
TORSDOF 20
ENDMDL
