MODEL 1
REMARK VINA RESULT:     -11.8      0.000      0.000
REMARK SMILES COCc1nc2ccccc2n1CC(=O)NCCCCNC(=O)c1ccc(-c2c3nc(c(-c4c(F)cc(S(=O)(=O)[O-])cc4F)c4ccc([nH]4)c(-c4c(F)cc(S(=O)(=O)[O-])cc4F)c4nc(c(-c5c(F)cc(S(=O)(=O)[O-])cc5F)c5ccc2[nH]5)C=C4)C=C3)cc1
REMARK SMILES IDX 18 1 17 2 16 3 14 4 15 5 13 7 12 8 4 9 5 10 6 11 11 12 7 13
REMARK SMILES IDX 10 14 8 15 9 16 3 17 2 18 1 19 19 20 20 21 21 22 22 23 23 25
REMARK SMILES IDX 24 26 25 27 89 28 26 29 88 30 27 31 28 32 29 33 82 34 30 35
REMARK SMILES IDX 87 36 81 37 83 38 31 39 86 40 80 41 79 42 32 44 66 45 45 46
REMARK SMILES IDX 65 47 46 48 49 49 64 50 84 51 47 52 48 53 63 55 85 56 50 57
REMARK SMILES IDX 33 58 34 59 43 60 35 61 36 62 42 63 44 64 37 65 38 66 39 67
REMARK SMILES IDX 40 68 41 69 67 70 68 71 77 72 69 73 70 74 76 75 78 76 71 77
REMARK SMILES IDX 72 78 73 79 74 80 75 81 51 82 52 83 61 84 53 85 54 86 60 87
REMARK SMILES IDX 62 88 55 89 56 90 57 91 58 92 59 93
REMARK H PARENT 16 6 21 24 83 43 49 54
REMARK Flexibility Score: inf
ROOT
ATOM      1  C   UNL A   1      33.403  26.691  26.134  1.00  0.00     0.023 C 
ENDROOT
BRANCH   1   2
ATOM      2  C   UNL A   1      32.215  25.821  25.750  1.00  0.00     0.116 C 
BRANCH   2   3
ATOM      3  N   UNL A   1      31.930  24.801  26.736  1.00  0.00    -0.355 N 
ATOM      4  C   UNL A   1      32.045  23.447  26.619  1.00  0.00     0.240 C 
ATOM      5  O   UNL A   1      32.026  22.786  27.660  1.00  0.00    -0.273 OA
ATOM      6  H   UNL A   1      31.612  25.128  27.609  1.00  0.00     0.163 HD
BRANCH   4   7
ATOM      7  C   UNL A   1      32.342  22.807  25.276  1.00  0.00     0.223 C 
BRANCH   7   8
ATOM      8  N   UNL A   1      33.512  21.936  25.232  1.00  0.00    -0.316 N 
ATOM      9  C   UNL A   1      33.565  20.571  25.006  1.00  0.00     0.136 A 
ATOM     10  N   UNL A   1      34.824  20.175  24.914  1.00  0.00    -0.231 NA
ATOM     11  C   UNL A   1      35.600  21.276  25.136  1.00  0.00     0.089 A 
ATOM     12  C   UNL A   1      34.811  22.382  25.426  1.00  0.00     0.069 A 
ATOM     13  C   UNL A   1      36.996  21.404  25.108  1.00  0.00     0.030 A 
ATOM     14  C   UNL A   1      35.369  23.628  25.754  1.00  0.00     0.028 A 
ATOM     15  C   UNL A   1      37.567  22.650  25.391  1.00  0.00     0.002 A 
ATOM     16  C   UNL A   1      36.764  23.740  25.721  1.00  0.00     0.002 A 
BRANCH   9  17
ATOM     17  C   UNL A   1      32.420  19.617  24.839  1.00  0.00     0.235 C 
BRANCH  17  18
ATOM     18  O   UNL A   1      32.484  18.560  25.785  1.00  0.00    -0.377 OA
ATOM     19  C   UNL A   1      32.474  17.268  25.199  1.00  0.00     0.195 C 
ENDBRANCH  17  18
ENDBRANCH   9  17
ENDBRANCH   7   8
ENDBRANCH   4   7
ENDBRANCH   2   3
ENDBRANCH   1   2
BRANCH   1  20
ATOM     20  C   UNL A   1      33.023  28.066  26.696  1.00  0.00     0.023 C 
BRANCH  20  21
ATOM     21  C   UNL A   1      33.938  29.210  26.252  1.00  0.00     0.116 C 
BRANCH  21  22
ATOM     22  N   UNL A   1      33.763  30.433  27.010  1.00  0.00    -0.352 N 
ATOM     23  C   UNL A   1      34.573  31.196  27.801  1.00  0.00     0.251 C 
ATOM     24  H   UNL A   1      32.850  30.797  26.939  1.00  0.00     0.163 HD
ATOM     25  O   UNL A   1      34.085  32.254  28.210  1.00  0.00    -0.269 OA
BRANCH  23  26
ATOM     26  C   UNL A   1      35.942  30.814  28.233  1.00  0.00     0.039 A 
ATOM     27  C   UNL A   1      36.919  31.693  28.704  1.00  0.00     0.014 A 
ATOM     28  C   UNL A   1      36.264  29.450  28.111  1.00  0.00     0.014 A 
ATOM     29  C   UNL A   1      38.211  31.250  28.947  1.00  0.00     0.010 A 
ATOM     30  C   UNL A   1      37.548  28.995  28.378  1.00  0.00     0.010 A 
ATOM     31  C   UNL A   1      38.531  29.909  28.750  1.00  0.00    -0.014 A 
BRANCH  31  32
ATOM     32  C   UNL A   1      39.895  29.486  29.041  1.00  0.00     0.031 A 
ATOM     33  C   UNL A   1      40.259  29.467  30.490  1.00  0.00     0.074 A 
ATOM     34  C   UNL A   1      40.710  29.019  28.074  1.00  0.00     0.049 A 
ATOM     35  N   UNL A   1      41.248  30.054  31.084  1.00  0.00    -0.248 NA
ATOM     36  C   UNL A   1      39.331  28.794  31.417  1.00  0.00     0.031 C 
ATOM     37  C   UNL A   1      40.381  28.767  26.668  1.00  0.00     0.029 A 
ATOM     38  N   UNL A   1      41.983  28.550  28.175  1.00  0.00    -0.354 N 
ATOM     39  C   UNL A   1      41.178  29.675  32.425  1.00  0.00     0.074 A 
ATOM     40  C   UNL A   1      39.910  29.016  32.597  1.00  0.00     0.031 C 
ATOM     41  C   UNL A   1      41.329  27.973  26.126  1.00  0.00     0.029 A 
ATOM     42  C   UNL A   1      42.382  27.759  27.104  1.00  0.00     0.049 A 
ATOM     43  H   UNL A   1      42.571  28.753  28.938  1.00  0.00     0.167 HD
ATOM     44  C   UNL A   1      42.245  29.766  33.267  1.00  0.00     0.037 A 
ATOM     45  C   UNL A   1      43.453  26.926  27.060  1.00  0.00     0.037 A 
ATOM     46  C   UNL A   1      43.254  30.650  32.753  1.00  0.00     0.049 A 
ATOM     47  C   UNL A   1      44.381  27.345  28.143  1.00  0.00     0.074 A 
ATOM     48  C   UNL A   1      43.294  31.999  32.457  1.00  0.00     0.029 A 
ATOM     49  N   UNL A   1      44.350  30.096  32.140  1.00  0.00    -0.354 N 
ATOM     50  N   UNL A   1      45.042  28.471  28.138  1.00  0.00    -0.248 NA
ATOM     51  C   UNL A   1      44.222  26.726  29.452  1.00  0.00     0.031 C 
ATOM     52  C   UNL A   1      44.119  32.097  31.301  1.00  0.00     0.029 A 
ATOM     53  C   UNL A   1      44.572  30.813  30.993  1.00  0.00     0.049 A 
ATOM     54  H   UNL A   1      44.877  29.329  32.463  1.00  0.00     0.167 HD
ATOM     55  C   UNL A   1      45.010  28.909  29.455  1.00  0.00     0.074 A 
ATOM     56  C   UNL A   1      44.574  27.752  30.233  1.00  0.00     0.031 C 
ATOM     57  C   UNL A   1      45.068  30.239  29.761  1.00  0.00     0.037 A 
BRANCH  44  58
ATOM     58  C   UNL A   1      42.518  28.814  34.405  1.00  0.00     0.058 A 
ATOM     59  C   UNL A   1      42.704  29.313  35.710  1.00  0.00     0.135 A 
ATOM     60  C   UNL A   1      42.892  27.466  34.207  1.00  0.00     0.135 A 
ATOM     61  F   UNL A   1      42.386  30.583  36.009  1.00  0.00    -0.206 F 
ATOM     62  C   UNL A   1      43.293  28.552  36.723  1.00  0.00     0.059 A 
ATOM     63  C   UNL A   1      43.430  26.675  35.214  1.00  0.00     0.059 A 
ATOM     64  F   UNL A   1      42.846  26.886  33.000  1.00  0.00    -0.206 F 
ATOM     65  C   UNL A   1      43.671  27.240  36.456  1.00  0.00     0.060 A 
BRANCH  65  66
ATOM     66  S   UNL A   1      44.556  26.301  37.714  1.00  0.00     0.124 S 
ATOM     67  O   UNL A   1      45.888  26.889  37.632  1.00  0.00    -0.237 OA
ATOM     68  O   UNL A   1      43.793  26.612  38.918  1.00  0.00    -0.237 OA
ATOM     69  O   UNL A   1      44.445  24.923  37.246  1.00  0.00    -0.744 OA
ENDBRANCH  65  66
ENDBRANCH  44  58
BRANCH  45  70
ATOM     70  C   UNL A   1      43.571  25.629  26.341  1.00  0.00     0.058 A 
ATOM     71  C   UNL A   1      44.576  25.403  25.384  1.00  0.00     0.135 A 
ATOM     72  C   UNL A   1      42.848  24.489  26.753  1.00  0.00     0.135 A 
ATOM     73  F   UNL A   1      45.340  26.419  24.954  1.00  0.00    -0.206 F 
ATOM     74  C   UNL A   1      44.865  24.124  24.888  1.00  0.00     0.059 A 
ATOM     75  C   UNL A   1      43.106  23.210  26.263  1.00  0.00     0.059 A 
ATOM     76  F   UNL A   1      41.921  24.567  27.719  1.00  0.00    -0.206 F 
ATOM     77  C   UNL A   1      44.133  23.029  25.347  1.00  0.00     0.060 A 
BRANCH  77  78
ATOM     78  S   UNL A   1      44.598  21.361  24.830  1.00  0.00     0.124 S 
ATOM     79  O   UNL A   1      44.624  21.488  23.377  1.00  0.00    -0.237 OA
ATOM     80  O   UNL A   1      45.893  21.189  25.479  1.00  0.00    -0.237 OA
ATOM     81  O   UNL A   1      43.523  20.527  25.363  1.00  0.00    -0.744 OA
ENDBRANCH  77  78
ENDBRANCH  45  70
BRANCH  57  82
ATOM     82  C   UNL A   1      45.418  31.211  28.665  1.00  0.00     0.058 A 
ATOM     83  C   UNL A   1      44.480  31.749  27.766  1.00  0.00     0.135 A 
ATOM     84  C   UNL A   1      46.709  31.756  28.643  1.00  0.00     0.135 A 
ATOM     85  F   UNL A   1      43.197  31.364  27.796  1.00  0.00    -0.206 F 
ATOM     86  C   UNL A   1      44.820  32.756  26.862  1.00  0.00     0.059 A 
ATOM     87  C   UNL A   1      47.063  32.784  27.772  1.00  0.00     0.059 A 
ATOM     88  F   UNL A   1      47.633  31.334  29.523  1.00  0.00    -0.206 F 
ATOM     89  C   UNL A   1      46.114  33.272  26.876  1.00  0.00     0.060 A 
BRANCH  89  90
ATOM     90  S   UNL A   1      46.526  34.642  25.776  1.00  0.00     0.124 S 
ATOM     91  O   UNL A   1      46.276  35.804  26.627  1.00  0.00    -0.237 OA
ATOM     92  O   UNL A   1      47.931  34.383  25.461  1.00  0.00    -0.237 OA
ATOM     93  O   UNL A   1      45.608  34.477  24.659  1.00  0.00    -0.744 OA
ENDBRANCH  89  90
ENDBRANCH  57  82
ENDBRANCH  31  32
ENDBRANCH  23  26
ENDBRANCH  21  22
ENDBRANCH  20  21
ENDBRANCH   1  20
TORSDOF 17
ENDMDL
MODEL 2
REMARK VINA RESULT:     -11.5      1.187      2.060
REMARK SMILES COCc1nc2ccccc2n1CC(=O)NCCCCNC(=O)c1ccc(-c2c3nc(c(-c4c(F)cc(S(=O)(=O)[O-])cc4F)c4ccc([nH]4)c(-c4c(F)cc(S(=O)(=O)[O-])cc4F)c4nc(c(-c5c(F)cc(S(=O)(=O)[O-])cc5F)c5ccc2[nH]5)C=C4)C=C3)cc1
REMARK SMILES IDX 18 1 17 2 16 3 14 4 15 5 13 7 12 8 4 9 5 10 6 11 11 12 7 13
REMARK SMILES IDX 10 14 8 15 9 16 3 17 2 18 1 19 19 20 20 21 21 22 22 23 23 25
REMARK SMILES IDX 24 26 25 27 89 28 26 29 88 30 27 31 28 32 29 33 82 34 30 35
REMARK SMILES IDX 87 36 81 37 83 38 31 39 86 40 80 41 79 42 32 44 66 45 45 46
REMARK SMILES IDX 65 47 46 48 49 49 64 50 84 51 47 52 48 53 63 55 85 56 50 57
REMARK SMILES IDX 33 58 34 59 43 60 35 61 36 62 42 63 44 64 37 65 38 66 39 67
REMARK SMILES IDX 40 68 41 69 67 70 68 71 77 72 69 73 70 74 76 75 78 76 71 77
REMARK SMILES IDX 72 78 73 79 74 80 75 81 51 82 52 83 61 84 53 85 54 86 60 87
REMARK SMILES IDX 62 88 55 89 56 90 57 91 58 92 59 93
REMARK H PARENT 16 6 21 24 83 43 49 54
REMARK Flexibility Score: inf
ROOT
ATOM      1  C   UNL A   1      32.190  26.983  26.537  1.00  0.00     0.023 C 
ENDROOT
BRANCH   1   2
ATOM      2  C   UNL A   1      30.919  26.471  25.876  1.00  0.00     0.116 C 
BRANCH   2   3
ATOM      3  N   UNL A   1      30.551  25.147  26.329  1.00  0.00    -0.355 N 
ATOM      4  C   UNL A   1      30.739  23.950  25.701  1.00  0.00     0.240 C 
ATOM      5  O   UNL A   1      30.611  22.929  26.383  1.00  0.00    -0.273 OA
ATOM      6  H   UNL A   1      30.107  25.104  27.206  1.00  0.00     0.163 HD
BRANCH   4   7
ATOM      7  C   UNL A   1      31.237  23.894  24.270  1.00  0.00     0.223 C 
BRANCH   7   8
ATOM      8  N   UNL A   1      32.665  23.644  24.103  1.00  0.00    -0.316 N 
ATOM      9  C   UNL A   1      33.656  24.526  23.708  1.00  0.00     0.136 A 
ATOM     10  N   UNL A   1      34.842  23.949  23.806  1.00  0.00    -0.231 NA
ATOM     11  C   UNL A   1      34.623  22.665  24.214  1.00  0.00     0.089 A 
ATOM     12  C   UNL A   1      33.262  22.412  24.326  1.00  0.00     0.069 A 
ATOM     13  C   UNL A   1      35.546  21.651  24.508  1.00  0.00     0.030 A 
ATOM     14  C   UNL A   1      32.766  21.144  24.671  1.00  0.00     0.028 A 
ATOM     15  C   UNL A   1      35.070  20.393  24.894  1.00  0.00     0.002 A 
ATOM     16  C   UNL A   1      33.700  20.143  24.962  1.00  0.00     0.002 A 
BRANCH   9  17
ATOM     17  C   UNL A   1      33.503  25.949  23.260  1.00  0.00     0.235 C 
BRANCH  17  18
ATOM     18  O   UNL A   1      33.734  26.082  21.866  1.00  0.00    -0.377 OA
ATOM     19  C   UNL A   1      32.629  25.695  21.065  1.00  0.00     0.195 C 
ENDBRANCH  17  18
ENDBRANCH   9  17
ENDBRANCH   7   8
ENDBRANCH   4   7
ENDBRANCH   2   3
ENDBRANCH   1   2
BRANCH   1  20
ATOM     20  C   UNL A   1      32.187  28.489  26.830  1.00  0.00     0.023 C 
BRANCH  20  21
ATOM     21  C   UNL A   1      33.563  29.080  27.144  1.00  0.00     0.116 C 
BRANCH  21  22
ATOM     22  N   UNL A   1      33.523  30.445  27.630  1.00  0.00    -0.352 N 
ATOM     23  C   UNL A   1      34.444  31.304  28.156  1.00  0.00     0.251 C 
ATOM     24  H   UNL A   1      32.624  30.844  27.566  1.00  0.00     0.163 HD
ATOM     25  O   UNL A   1      34.049  32.454  28.367  1.00  0.00    -0.269 OA
BRANCH  23  26
ATOM     26  C   UNL A   1      35.833  30.934  28.531  1.00  0.00     0.039 A 
ATOM     27  C   UNL A   1      36.872  31.832  28.784  1.00  0.00     0.014 A 
ATOM     28  C   UNL A   1      36.104  29.555  28.593  1.00  0.00     0.014 A 
ATOM     29  C   UNL A   1      38.165  31.376  28.988  1.00  0.00     0.010 A 
ATOM     30  C   UNL A   1      37.391  29.092  28.824  1.00  0.00     0.010 A 
ATOM     31  C   UNL A   1      38.429  30.009  28.972  1.00  0.00    -0.014 A 
BRANCH  31  32
ATOM     32  C   UNL A   1      39.800  29.578  29.216  1.00  0.00     0.031 A 
ATOM     33  C   UNL A   1      40.217  29.567  30.651  1.00  0.00     0.074 A 
ATOM     34  C   UNL A   1      40.574  29.097  28.222  1.00  0.00     0.049 A 
ATOM     35  N   UNL A   1      41.232  30.151  31.202  1.00  0.00    -0.248 NA
ATOM     36  C   UNL A   1      39.319  28.908  31.616  1.00  0.00     0.031 C 
ATOM     37  C   UNL A   1      40.191  28.838  26.832  1.00  0.00     0.029 A 
ATOM     38  N   UNL A   1      41.847  28.620  28.279  1.00  0.00    -0.354 N 
ATOM     39  C   UNL A   1      41.209  29.782  32.548  1.00  0.00     0.074 A 
ATOM     40  C   UNL A   1      39.944  29.133  32.772  1.00  0.00     0.031 C 
ATOM     41  C   UNL A   1      41.112  28.033  26.261  1.00  0.00     0.029 A 
ATOM     42  C   UNL A   1      42.200  27.818  27.200  1.00  0.00     0.049 A 
ATOM     43  H   UNL A   1      42.464  28.823  29.019  1.00  0.00     0.167 HD
ATOM     44  C   UNL A   1      42.308  29.870  33.349  1.00  0.00     0.037 A 
ATOM     45  C   UNL A   1      43.262  26.977  27.122  1.00  0.00     0.037 A 
ATOM     46  C   UNL A   1      43.303  30.743  32.791  1.00  0.00     0.049 A 
ATOM     47  C   UNL A   1      44.233  27.397  28.167  1.00  0.00     0.074 A 
ATOM     48  C   UNL A   1      43.342  32.089  32.484  1.00  0.00     0.029 A 
ATOM     49  N   UNL A   1      44.372  30.176  32.141  1.00  0.00    -0.354 N 
ATOM     50  N   UNL A   1      44.901  28.517  28.129  1.00  0.00    -0.248 NA
ATOM     51  C   UNL A   1      44.119  26.788  29.486  1.00  0.00     0.031 C 
ATOM     52  C   UNL A   1      44.124  32.173  31.297  1.00  0.00     0.029 A 
ATOM     53  C   UNL A   1      44.556  30.884  30.982  1.00  0.00     0.049 A 
ATOM     54  H   UNL A   1      44.905  29.408  32.451  1.00  0.00     0.167 HD
ATOM     55  C   UNL A   1      44.922  28.965  29.443  1.00  0.00     0.074 A 
ATOM     56  C   UNL A   1      44.507  27.817  30.245  1.00  0.00     0.031 C 
ATOM     57  C   UNL A   1      45.001  30.297  29.737  1.00  0.00     0.037 A 
BRANCH  44  58
ATOM     58  C   UNL A   1      42.616  28.924  34.483  1.00  0.00     0.058 A 
ATOM     59  C   UNL A   1      42.880  29.433  35.771  1.00  0.00     0.135 A 
ATOM     60  C   UNL A   1      42.949  27.566  34.282  1.00  0.00     0.135 A 
ATOM     61  F   UNL A   1      42.606  30.713  36.071  1.00  0.00    -0.206 F 
ATOM     62  C   UNL A   1      43.501  28.670  36.762  1.00  0.00     0.059 A 
ATOM     63  C   UNL A   1      43.519  26.774  35.271  1.00  0.00     0.059 A 
ATOM     64  F   UNL A   1      42.829  26.975  33.086  1.00  0.00    -0.206 F 
ATOM     65  C   UNL A   1      43.835  27.346  36.492  1.00  0.00     0.060 A 
BRANCH  65  66
ATOM     66  S   UNL A   1      44.761  26.401  37.715  1.00  0.00     0.124 S 
ATOM     67  O   UNL A   1      43.974  26.635  38.921  1.00  0.00    -0.237 OA
ATOM     68  O   UNL A   1      44.702  25.051  37.164  1.00  0.00    -0.237 OA
ATOM     69  O   UNL A   1      46.081  27.024  37.694  1.00  0.00    -0.744 OA
ENDBRANCH  65  66
ENDBRANCH  44  58
BRANCH  45  70
ATOM     70  C   UNL A   1      43.344  25.674  26.409  1.00  0.00     0.058 A 
ATOM     71  C   UNL A   1      44.267  25.455  25.372  1.00  0.00     0.135 A 
ATOM     72  C   UNL A   1      42.681  24.526  26.894  1.00  0.00     0.135 A 
ATOM     73  F   UNL A   1      44.971  26.480  24.868  1.00  0.00    -0.206 F 
ATOM     74  C   UNL A   1      44.538  24.176  24.867  1.00  0.00     0.059 A 
ATOM     75  C   UNL A   1      42.921  23.245  26.397  1.00  0.00     0.059 A 
ATOM     76  F   UNL A   1      41.838  24.597  27.935  1.00  0.00    -0.206 F 
ATOM     77  C   UNL A   1      43.870  23.073  25.398  1.00  0.00     0.060 A 
BRANCH  77  78
ATOM     78  S   UNL A   1      44.321  21.408  24.859  1.00  0.00     0.124 S 
ATOM     79  O   UNL A   1      43.160  20.628  25.272  1.00  0.00    -0.237 OA
ATOM     80  O   UNL A   1      44.493  21.587  23.422  1.00  0.00    -0.237 OA
ATOM     81  O   UNL A   1      45.551  21.132  25.600  1.00  0.00    -0.744 OA
ENDBRANCH  77  78
ENDBRANCH  45  70
BRANCH  57  82
ATOM     82  C   UNL A   1      45.317  31.258  28.620  1.00  0.00     0.058 A 
ATOM     83  C   UNL A   1      44.346  31.816  27.770  1.00  0.00     0.135 A 
ATOM     84  C   UNL A   1      46.618  31.773  28.531  1.00  0.00     0.135 A 
ATOM     85  F   UNL A   1      43.058  31.462  27.867  1.00  0.00    -0.206 F 
ATOM     86  C   UNL A   1      44.663  32.813  26.847  1.00  0.00     0.059 A 
ATOM     87  C   UNL A   1      46.950  32.790  27.640  1.00  0.00     0.059 A 
ATOM     88  F   UNL A   1      47.575  31.330  29.364  1.00  0.00    -0.206 F 
ATOM     89  C   UNL A   1      45.968  33.299  26.792  1.00  0.00     0.060 A 
BRANCH  89  90
ATOM     90  S   UNL A   1      46.355  34.657  25.668  1.00  0.00     0.124 S 
ATOM     91  O   UNL A   1      45.423  34.417  24.567  1.00  0.00    -0.237 OA
ATOM     92  O   UNL A   1      46.071  35.836  26.487  1.00  0.00    -0.237 OA
ATOM     93  O   UNL A   1      47.760  34.454  25.352  1.00  0.00    -0.744 OA
ENDBRANCH  89  90
ENDBRANCH  57  82
ENDBRANCH  31  32
ENDBRANCH  23  26
ENDBRANCH  21  22
ENDBRANCH  20  21
ENDBRANCH   1  20
TORSDOF 17
ENDMDL
MODEL 3
REMARK VINA RESULT:     -11.4      2.646      9.074
REMARK SMILES COCc1nc2ccccc2n1CC(=O)NCCCCNC(=O)c1ccc(-c2c3nc(c(-c4c(F)cc(S(=O)(=O)[O-])cc4F)c4ccc([nH]4)c(-c4c(F)cc(S(=O)(=O)[O-])cc4F)c4nc(c(-c5c(F)cc(S(=O)(=O)[O-])cc5F)c5ccc2[nH]5)C=C4)C=C3)cc1
REMARK SMILES IDX 18 1 17 2 16 3 14 4 15 5 13 7 12 8 4 9 5 10 6 11 11 12 7 13
REMARK SMILES IDX 10 14 8 15 9 16 3 17 2 18 1 19 19 20 20 21 21 22 22 23 23 25
REMARK SMILES IDX 24 26 25 27 89 28 26 29 88 30 27 31 28 32 29 33 82 34 30 35
REMARK SMILES IDX 87 36 81 37 83 38 31 39 86 40 80 41 79 42 32 44 66 45 45 46
REMARK SMILES IDX 65 47 46 48 49 49 64 50 84 51 47 52 48 53 63 55 85 56 50 57
REMARK SMILES IDX 33 58 34 59 43 60 35 61 36 62 42 63 44 64 37 65 38 66 39 67
REMARK SMILES IDX 40 68 41 69 67 70 68 71 77 72 69 73 70 74 76 75 78 76 71 77
REMARK SMILES IDX 72 78 73 79 74 80 75 81 51 82 52 83 61 84 53 85 54 86 60 87
REMARK SMILES IDX 62 88 55 89 56 90 57 91 58 92 59 93
REMARK H PARENT 16 6 21 24 83 43 49 54
REMARK Flexibility Score: inf
ROOT
ATOM      1  C   UNL A   1      39.670  21.814  26.374  1.00  0.00     0.023 C 
ENDROOT
BRANCH   1   2
ATOM      2  C   UNL A   1      38.408  21.755  25.526  1.00  0.00     0.116 C 
BRANCH   2   3
ATOM      3  N   UNL A   1      37.301  22.468  26.126  1.00  0.00    -0.355 N 
ATOM      4  C   UNL A   1      35.974  22.398  25.814  1.00  0.00     0.240 C 
ATOM      5  O   UNL A   1      35.177  22.868  26.630  1.00  0.00    -0.273 OA
ATOM      6  H   UNL A   1      37.536  23.084  26.857  1.00  0.00     0.163 HD
BRANCH   4   7
ATOM      7  C   UNL A   1      35.504  21.634  24.592  1.00  0.00     0.223 C 
BRANCH   7   8
ATOM      8  N   UNL A   1      34.075  21.709  24.306  1.00  0.00    -0.316 N 
ATOM      9  C   UNL A   1      33.092  20.767  24.558  1.00  0.00     0.136 A 
ATOM     10  N   UNL A   1      31.901  21.265  24.270  1.00  0.00    -0.231 NA
ATOM     11  C   UNL A   1      32.109  22.520  23.774  1.00  0.00     0.089 A 
ATOM     12  C   UNL A   1      33.468  22.800  23.700  1.00  0.00     0.069 A 
ATOM     13  C   UNL A   1      31.177  23.483  23.362  1.00  0.00     0.030 A 
ATOM     14  C   UNL A   1      33.952  24.004  23.166  1.00  0.00     0.028 A 
ATOM     15  C   UNL A   1      31.641  24.706  22.866  1.00  0.00     0.002 A 
ATOM     16  C   UNL A   1      33.009  24.955  22.759  1.00  0.00     0.002 A 
BRANCH   9  17
ATOM     17  C   UNL A   1      33.258  19.383  25.111  1.00  0.00     0.235 C 
BRANCH  17  18
ATOM     18  O   UNL A   1      33.408  18.425  24.074  1.00  0.00    -0.377 OA
ATOM     19  C   UNL A   1      34.511  17.553  24.257  1.00  0.00     0.195 C 
ENDBRANCH  17  18
ENDBRANCH   9  17
ENDBRANCH   7   8
ENDBRANCH   4   7
ENDBRANCH   2   3
ENDBRANCH   1   2
BRANCH   1  20
ATOM     20  C   UNL A   1      40.515  20.534  26.339  1.00  0.00     0.023 C 
BRANCH  20  21
ATOM     21  C   UNL A   1      42.016  20.757  26.537  1.00  0.00     0.116 C 
BRANCH  21  22
ATOM     22  N   UNL A   1      42.676  21.372  25.402  1.00  0.00    -0.352 N 
ATOM     23  C   UNL A   1      43.105  22.634  25.110  1.00  0.00     0.251 C 
ATOM     24  H   UNL A   1      42.854  20.731  24.675  1.00  0.00     0.163 HD
ATOM     25  O   UNL A   1      43.731  22.759  24.053  1.00  0.00    -0.269 OA
BRANCH  23  26
ATOM     26  C   UNL A   1      42.822  23.838  25.932  1.00  0.00     0.039 A 
ATOM     27  C   UNL A   1      42.058  24.935  25.529  1.00  0.00     0.014 A 
ATOM     28  C   UNL A   1      43.420  23.865  27.205  1.00  0.00     0.014 A 
ATOM     29  C   UNL A   1      41.975  26.069  26.322  1.00  0.00     0.010 A 
ATOM     30  C   UNL A   1      43.318  24.986  28.016  1.00  0.00     0.010 A 
ATOM     31  C   UNL A   1      42.634  26.105  27.549  1.00  0.00    -0.014 A 
BRANCH  31  32
ATOM     32  C   UNL A   1      42.497  27.310  28.359  1.00  0.00     0.031 A 
ATOM     33  C   UNL A   1      43.659  28.248  28.305  1.00  0.00     0.074 A 
ATOM     34  C   UNL A   1      41.345  27.604  28.995  1.00  0.00     0.049 A 
ATOM     35  N   UNL A   1      44.358  28.727  29.283  1.00  0.00    -0.248 NA
ATOM     36  C   UNL A   1      44.179  28.611  26.974  1.00  0.00     0.031 C 
ATOM     37  C   UNL A   1      40.071  26.884  28.921  1.00  0.00     0.029 A 
ATOM     38  N   UNL A   1      41.035  28.691  29.751  1.00  0.00    -0.354 N 
ATOM     39  C   UNL A   1      45.286  29.597  28.708  1.00  0.00     0.074 A 
ATOM     40  C   UNL A   1      45.220  29.383  27.287  1.00  0.00     0.031 C 
ATOM     41  C   UNL A   1      39.085  27.678  29.390  1.00  0.00     0.029 A 
ATOM     42  C   UNL A   1      39.670  28.906  29.900  1.00  0.00     0.049 A 
ATOM     43  H   UNL A   1      41.715  29.274  30.157  1.00  0.00     0.167 HD
ATOM     44  C   UNL A   1      45.918  30.568  29.425  1.00  0.00     0.037 A 
ATOM     45  C   UNL A   1      39.065  30.043  30.331  1.00  0.00     0.037 A 
ATOM     46  C   UNL A   1      45.847  30.317  30.838  1.00  0.00     0.049 A 
ATOM     47  C   UNL A   1      40.092  30.839  31.054  1.00  0.00     0.074 A 
ATOM     48  C   UNL A   1      46.317  29.315  31.664  1.00  0.00     0.029 A 
ATOM     49  N   UNL A   1      44.913  31.006  31.572  1.00  0.00    -0.354 N 
ATOM     50  N   UNL A   1      40.615  30.483  32.195  1.00  0.00    -0.248 NA
ATOM     51  C   UNL A   1      40.874  31.800  30.286  1.00  0.00     0.031 C 
ATOM     52  C   UNL A   1      45.308  29.153  32.655  1.00  0.00     0.029 A 
ATOM     53  C   UNL A   1      44.312  30.098  32.405  1.00  0.00     0.049 A 
ATOM     54  H   UNL A   1      44.714  31.968  31.511  1.00  0.00     0.167 HD
ATOM     55  C   UNL A   1      41.956  30.831  32.097  1.00  0.00     0.074 A 
ATOM     56  C   UNL A   1      42.037  31.719  30.940  1.00  0.00     0.031 C 
ATOM     57  C   UNL A   1      42.918  30.148  32.786  1.00  0.00     0.037 A 
BRANCH  44  58
ATOM     58  C   UNL A   1      46.330  31.908  28.868  1.00  0.00     0.058 A 
ATOM     59  C   UNL A   1      45.369  32.743  28.262  1.00  0.00     0.135 A 
ATOM     60  C   UNL A   1      47.678  32.268  28.647  1.00  0.00     0.135 A 
ATOM     61  F   UNL A   1      44.057  32.492  28.404  1.00  0.00    -0.206 F 
ATOM     62  C   UNL A   1      45.724  33.810  27.434  1.00  0.00     0.059 A 
ATOM     63  C   UNL A   1      48.052  33.356  27.868  1.00  0.00     0.059 A 
ATOM     64  F   UNL A   1      48.695  31.518  29.092  1.00  0.00    -0.206 F 
ATOM     65  C   UNL A   1      47.070  34.094  27.228  1.00  0.00     0.060 A 
BRANCH  65  66
ATOM     66  S   UNL A   1      47.534  35.378  26.052  1.00  0.00     0.124 S 
ATOM     67  O   UNL A   1      48.059  34.584  24.946  1.00  0.00    -0.237 OA
ATOM     68  O   UNL A   1      46.259  36.045  25.812  1.00  0.00    -0.237 OA
ATOM     69  O   UNL A   1      48.520  36.166  26.785  1.00  0.00    -0.744 OA
ENDBRANCH  65  66
ENDBRANCH  44  58
BRANCH  45  70
ATOM     70  C   UNL A   1      37.756  30.601  29.898  1.00  0.00     0.058 A 
ATOM     71  C   UNL A   1      36.894  31.250  30.799  1.00  0.00     0.135 A 
ATOM     72  C   UNL A   1      37.424  30.728  28.532  1.00  0.00     0.135 A 
ATOM     73  F   UNL A   1      37.146  31.215  32.116  1.00  0.00    -0.206 F 
ATOM     74  C   UNL A   1      35.790  32.001  30.372  1.00  0.00     0.059 A 
ATOM     75  C   UNL A   1      36.323  31.455  28.083  1.00  0.00     0.059 A 
ATOM     76  F   UNL A   1      38.215  30.220  27.575  1.00  0.00    -0.206 F 
ATOM     77  C   UNL A   1      35.522  32.110  29.008  1.00  0.00     0.060 A 
BRANCH  77  78
ATOM     78  S   UNL A   1      34.193  33.198  28.442  1.00  0.00     0.124 S 
ATOM     79  O   UNL A   1      33.687  33.740  29.698  1.00  0.00    -0.237 OA
ATOM     80  O   UNL A   1      34.910  34.135  27.584  1.00  0.00    -0.237 OA
ATOM     81  O   UNL A   1      33.284  32.291  27.745  1.00  0.00    -0.744 OA
ENDBRANCH  77  78
ENDBRANCH  45  70
BRANCH  57  82
ATOM     82  C   UNL A   1      42.480  29.174  33.849  1.00  0.00     0.058 A 
ATOM     83  C   UNL A   1      42.103  27.845  33.585  1.00  0.00     0.135 A 
ATOM     84  C   UNL A   1      42.628  29.542  35.194  1.00  0.00     0.135 A 
ATOM     85  F   UNL A   1      42.049  27.380  32.330  1.00  0.00    -0.206 F 
ATOM     86  C   UNL A   1      41.848  26.935  34.611  1.00  0.00     0.059 A 
ATOM     87  C   UNL A   1      42.409  28.642  36.234  1.00  0.00     0.059 A 
ATOM     88  F   UNL A   1      43.052  30.777  35.511  1.00  0.00    -0.206 F 
ATOM     89  C   UNL A   1      42.009  27.341  35.935  1.00  0.00     0.060 A 
BRANCH  89  90
ATOM     90  S   UNL A   1      41.775  26.137  37.259  1.00  0.00     0.124 S 
ATOM     91  O   UNL A   1      42.887  26.447  38.155  1.00  0.00    -0.237 OA
ATOM     92  O   UNL A   1      40.445  26.479  37.765  1.00  0.00    -0.237 OA
ATOM     93  O   UNL A   1      41.860  24.854  36.578  1.00  0.00    -0.744 OA
ENDBRANCH  89  90
ENDBRANCH  57  82
ENDBRANCH  31  32
ENDBRANCH  23  26
ENDBRANCH  21  22
ENDBRANCH  20  21
ENDBRANCH   1  20
TORSDOF 17
ENDMDL
