MODEL 1
REMARK VINA RESULT:     -10.9      0.000      0.000
REMARK SMILES COCC[NH2+][C@]1(C(=O)NCCCCNC(=O)c2ccc(-c3c4nc(c(-c5c(F)cc(S(=O)(=O)[O-])cc5F)c5ccc([nH]5)c(-c5c(F)cc(S(=O)(=O)[O-])cc5F)c5nc(c(-c6c(F)cc(S(=O)(=O)[O-])cc6F)c6ccc3[nH]6)C=C5)C=C4)cc2)CCCS[C@H]1C
REMARK SMILES IDX 11 1 10 2 9 3 7 4 8 5 6 7 83 8 87 9 84 10 86 11 88 12 85 13
REMARK SMILES IDX 5 14 4 17 3 18 2 19 1 20 12 21 13 22 14 23 15 24 16 26 17 27
REMARK SMILES IDX 18 28 82 29 19 30 81 31 20 32 21 33 22 34 75 35 23 36 80 37
REMARK SMILES IDX 74 38 76 39 24 40 79 41 73 42 72 43 25 45 59 46 38 47 58 48
REMARK SMILES IDX 39 49 42 50 57 51 77 52 40 53 41 54 56 56 78 57 43 58 26 59
REMARK SMILES IDX 27 60 36 61 28 62 29 63 35 64 37 65 30 66 31 67 32 68 33 69
REMARK SMILES IDX 34 70 60 71 61 72 70 73 62 74 63 75 69 76 71 77 64 78 65 79
REMARK SMILES IDX 66 80 67 81 68 82 44 83 45 84 54 85 46 86 47 87 53 88 55 89
REMARK SMILES IDX 48 90 49 91 50 92 51 93 52 94
REMARK H PARENT 9 6 5 15 5 16 14 25 76 44 42 55
REMARK Flexibility Score: inf
ROOT
ATOM      1  C   UNL A   1      38.557  22.952  26.203  1.00  0.00     0.023 C 
ENDROOT
BRANCH   1   2
ATOM      2  C   UNL A   1      37.694  22.007  25.366  1.00  0.00     0.116 C 
BRANCH   2   3
ATOM      3  N   UNL A   1      37.087  22.688  24.241  1.00  0.00    -0.351 N 
ATOM      4  C   UNL A   1      35.841  22.834  23.747  1.00  0.00     0.282 C 
ATOM      5  O   UNL A   1      35.851  23.297  22.591  1.00  0.00    -0.268 OA
ATOM      6  H   UNL A   1      37.755  23.166  23.699  1.00  0.00     0.163 HD
BRANCH   4   7
ATOM      7  C   UNL A   1      34.448  22.541  24.443  1.00  0.00     0.187 C 
ATOM      8  C   UNL A   1      34.488  23.250  25.834  1.00  0.00     0.081 C 
ATOM      9  C   UNL A   1      33.095  22.946  23.771  1.00  0.00     0.115 C 
ATOM     10  C   UNL A   1      34.527  24.775  25.738  1.00  0.00     0.018 C 
ATOM     11  S   UNL A   1      32.821  24.751  23.522  1.00  0.00    -0.152 SA
ATOM     12  C   UNL A   1      32.724  22.138  22.511  1.00  0.00     0.027 C 
ATOM     13  C   UNL A   1      33.260  25.382  25.162  1.00  0.00     0.070 C 
BRANCH   7  14
ATOM     14  N   UNL A   1      34.321  21.059  24.710  1.00  0.00    -0.331 N 
ATOM     15  H   UNL A   1      34.180  20.600  23.809  1.00  0.00     0.347 HD
ATOM     16  H   UNL A   1      35.179  20.815  25.202  1.00  0.00     0.347 HD
BRANCH  14  17
ATOM     17  C   UNL A   1      33.246  20.605  25.602  1.00  0.00     0.290 C 
BRANCH  17  18
ATOM     18  C   UNL A   1      32.552  19.330  25.086  1.00  0.00     0.221 C 
BRANCH  18  19
ATOM     19  O   UNL A   1      32.542  18.245  26.019  1.00  0.00    -0.379 OA
ATOM     20  C   UNL A   1      32.582  16.967  25.394  1.00  0.00     0.195 C 
ENDBRANCH  18  19
ENDBRANCH  17  18
ENDBRANCH  14  17
ENDBRANCH   7  14
ENDBRANCH   4   7
ENDBRANCH   2   3
ENDBRANCH   1   2
BRANCH   1  21
ATOM     21  C   UNL A   1      39.776  22.293  26.848  1.00  0.00     0.023 C 
BRANCH  21  22
ATOM     22  C   UNL A   1      40.899  23.250  27.228  1.00  0.00     0.116 C 
BRANCH  22  23
ATOM     23  N   UNL A   1      41.397  24.030  26.105  1.00  0.00    -0.352 N 
ATOM     24  C   UNL A   1      41.629  25.386  26.041  1.00  0.00     0.251 C 
ATOM     25  H   UNL A   1      41.595  23.522  25.286  1.00  0.00     0.163 HD
ATOM     26  O   UNL A   1      41.940  25.910  24.983  1.00  0.00    -0.269 OA
BRANCH  24  27
ATOM     27  C   UNL A   1      41.459  26.199  27.265  1.00  0.00     0.039 A 
ATOM     28  C   UNL A   1      42.396  27.195  27.546  1.00  0.00     0.014 A 
ATOM     29  C   UNL A   1      40.362  26.001  28.106  1.00  0.00     0.014 A 
ATOM     30  C   UNL A   1      42.198  28.032  28.646  1.00  0.00     0.010 A 
ATOM     31  C   UNL A   1      40.124  26.888  29.151  1.00  0.00     0.010 A 
ATOM     32  C   UNL A   1      41.047  27.903  29.442  1.00  0.00    -0.014 A 
BRANCH  32  33
ATOM     33  C   UNL A   1      40.811  28.807  30.596  1.00  0.00     0.031 A 
ATOM     34  C   UNL A   1      41.636  28.658  31.847  1.00  0.00     0.074 A 
ATOM     35  C   UNL A   1      39.827  29.726  30.537  1.00  0.00     0.049 A 
ATOM     36  N   UNL A   1      41.571  29.334  32.965  1.00  0.00    -0.248 NA
ATOM     37  C   UNL A   1      42.645  27.585  31.858  1.00  0.00     0.031 C 
ATOM     38  C   UNL A   1      38.910  29.916  29.410  1.00  0.00     0.029 A 
ATOM     39  N   UNL A   1      39.431  30.673  31.447  1.00  0.00    -0.354 N 
ATOM     40  C   UNL A   1      42.511  28.761  33.812  1.00  0.00     0.074 A 
ATOM     41  C   UNL A   1      43.092  27.642  33.103  1.00  0.00     0.031 C 
ATOM     42  C   UNL A   1      38.079  30.935  29.685  1.00  0.00     0.029 A 
ATOM     43  C   UNL A   1      38.386  31.456  31.013  1.00  0.00     0.049 A 
ATOM     44  H   UNL A   1      39.854  30.782  32.330  1.00  0.00     0.167 HD
ATOM     45  C   UNL A   1      42.882  29.148  35.055  1.00  0.00     0.037 A 
ATOM     46  C   UNL A   1      37.755  32.482  31.614  1.00  0.00     0.037 A 
ATOM     47  C   UNL A   1      42.331  30.289  35.738  1.00  0.00     0.049 A 
ATOM     48  C   UNL A   1      38.225  32.932  32.973  1.00  0.00     0.074 A 
ATOM     49  C   UNL A   1      42.686  30.810  36.970  1.00  0.00     0.029 A 
ATOM     50  N   UNL A   1      41.314  31.091  35.242  1.00  0.00    -0.354 N 
ATOM     51  N   UNL A   1      39.172  32.424  33.728  1.00  0.00    -0.248 NA
ATOM     52  C   UNL A   1      37.558  34.105  33.550  1.00  0.00     0.031 C 
ATOM     53  C   UNL A   1      41.859  31.908  37.234  1.00  0.00     0.029 A 
ATOM     54  C   UNL A   1      41.021  32.098  36.147  1.00  0.00     0.049 A 
ATOM     55  H   UNL A   1      40.865  30.963  34.375  1.00  0.00     0.167 HD
ATOM     56  C   UNL A   1      39.231  33.233  34.857  1.00  0.00     0.074 A 
ATOM     57  C   UNL A   1      38.238  34.273  34.676  1.00  0.00     0.031 C 
ATOM     58  C   UNL A   1      40.033  33.128  35.946  1.00  0.00     0.037 A 
BRANCH  45  59
ATOM     59  C   UNL A   1      43.945  28.341  35.749  1.00  0.00     0.058 A 
ATOM     60  C   UNL A   1      45.311  28.618  35.576  1.00  0.00     0.135 A 
ATOM     61  C   UNL A   1      43.596  27.300  36.625  1.00  0.00     0.135 A 
ATOM     62  F   UNL A   1      45.703  29.590  34.736  1.00  0.00    -0.206 F 
ATOM     63  C   UNL A   1      46.293  27.876  36.222  1.00  0.00     0.059 A 
ATOM     64  C   UNL A   1      44.561  26.563  37.305  1.00  0.00     0.059 A 
ATOM     65  F   UNL A   1      42.305  26.991  36.826  1.00  0.00    -0.206 F 
ATOM     66  C   UNL A   1      45.908  26.849  37.086  1.00  0.00     0.060 A 
BRANCH  66  67
ATOM     67  S   UNL A   1      47.193  25.905  37.931  1.00  0.00     0.124 S 
ATOM     68  O   UNL A   1      47.876  25.273  36.806  1.00  0.00    -0.237 OA
ATOM     69  O   UNL A   1      47.945  26.949  38.623  1.00  0.00    -0.237 OA
ATOM     70  O   UNL A   1      46.440  25.003  38.795  1.00  0.00    -0.744 OA
ENDBRANCH  66  67
ENDBRANCH  45  59
BRANCH  46  71
ATOM     71  C   UNL A   1      36.641  33.184  30.924  1.00  0.00     0.058 A 
ATOM     72  C   UNL A   1      35.320  33.074  31.384  1.00  0.00     0.135 A 
ATOM     73  C   UNL A   1      36.873  33.980  29.790  1.00  0.00     0.135 A 
ATOM     74  F   UNL A   1      35.047  32.324  32.462  1.00  0.00    -0.206 F 
ATOM     75  C   UNL A   1      34.264  33.702  30.732  1.00  0.00     0.059 A 
ATOM     76  C   UNL A   1      35.837  34.639  29.135  1.00  0.00     0.059 A 
ATOM     77  F   UNL A   1      38.121  34.135  29.323  1.00  0.00    -0.206 F 
ATOM     78  C   UNL A   1      34.533  34.482  29.606  1.00  0.00     0.060 A 
BRANCH  78  79
ATOM     79  S   UNL A   1      33.162  35.324  28.785  1.00  0.00     0.124 S 
ATOM     80  O   UNL A   1      33.865  36.334  28.002  1.00  0.00    -0.237 OA
ATOM     81  O   UNL A   1      32.546  34.240  28.025  1.00  0.00    -0.237 OA
ATOM     82  O   UNL A   1      32.365  35.829  29.899  1.00  0.00    -0.744 OA
ENDBRANCH  78  79
ENDBRANCH  46  71
BRANCH  58  83
ATOM     83  C   UNL A   1      39.896  34.187  37.004  1.00  0.00     0.058 A 
ATOM     84  C   UNL A   1      39.087  34.002  38.134  1.00  0.00     0.135 A 
ATOM     85  C   UNL A   1      40.597  35.398  36.888  1.00  0.00     0.135 A 
ATOM     86  F   UNL A   1      38.394  32.863  38.292  1.00  0.00    -0.206 F 
ATOM     87  C   UNL A   1      38.942  35.000  39.093  1.00  0.00     0.059 A 
ATOM     88  C   UNL A   1      40.490  36.397  37.849  1.00  0.00     0.059 A 
ATOM     89  F   UNL A   1      41.398  35.620  35.833  1.00  0.00    -0.206 F 
ATOM     90  C   UNL A   1      39.643  36.197  38.938  1.00  0.00     0.060 A 
BRANCH  90  91
ATOM     91  S   UNL A   1      39.443  37.488  40.183  1.00  0.00     0.124 S 
ATOM     92  O   UNL A   1      38.461  38.359  39.546  1.00  0.00    -0.237 OA
ATOM     93  O   UNL A   1      38.969  36.737  41.342  1.00  0.00    -0.237 OA
ATOM     94  O   UNL A   1      40.787  38.043  40.314  1.00  0.00    -0.744 OA
ENDBRANCH  90  91
ENDBRANCH  58  83
ENDBRANCH  32  33
ENDBRANCH  24  27
ENDBRANCH  22  23
ENDBRANCH  21  22
ENDBRANCH   1  21
TORSDOF 18
ENDMDL
MODEL 2
REMARK VINA RESULT:     -10.7      4.924     10.590
REMARK SMILES COCC[NH2+][C@]1(C(=O)NCCCCNC(=O)c2ccc(-c3c4nc(c(-c5c(F)cc(S(=O)(=O)[O-])cc5F)c5ccc([nH]5)c(-c5c(F)cc(S(=O)(=O)[O-])cc5F)c5nc(c(-c6c(F)cc(S(=O)(=O)[O-])cc6F)c6ccc3[nH]6)C=C5)C=C4)cc2)CCCS[C@H]1C
REMARK SMILES IDX 11 1 10 2 9 3 7 4 8 5 6 7 83 8 87 9 84 10 86 11 88 12 85 13
REMARK SMILES IDX 5 14 4 17 3 18 2 19 1 20 12 21 13 22 14 23 15 24 16 26 17 27
REMARK SMILES IDX 18 28 82 29 19 30 81 31 20 32 21 33 22 34 75 35 23 36 80 37
REMARK SMILES IDX 74 38 76 39 24 40 79 41 73 42 72 43 25 45 59 46 38 47 58 48
REMARK SMILES IDX 39 49 42 50 57 51 77 52 40 53 41 54 56 56 78 57 43 58 26 59
REMARK SMILES IDX 27 60 36 61 28 62 29 63 35 64 37 65 30 66 31 67 32 68 33 69
REMARK SMILES IDX 34 70 60 71 61 72 70 73 62 74 63 75 69 76 71 77 64 78 65 79
REMARK SMILES IDX 66 80 67 81 68 82 44 83 45 84 54 85 46 86 47 87 53 88 55 89
REMARK SMILES IDX 48 90 49 91 50 92 51 93 52 94
REMARK H PARENT 9 6 5 15 5 16 14 25 76 44 42 55
REMARK Flexibility Score: inf
ROOT
ATOM      1  C   UNL A   1      31.497  26.938  26.787  1.00  0.00     0.023 C 
ENDROOT
BRANCH   1   2
ATOM      2  C   UNL A   1      30.676  26.102  25.804  1.00  0.00     0.116 C 
BRANCH   2   3
ATOM      3  N   UNL A   1      30.619  24.710  26.200  1.00  0.00    -0.351 N 
ATOM      4  C   UNL A   1      31.246  23.569  25.846  1.00  0.00     0.282 C 
ATOM      5  O   UNL A   1      30.660  22.562  26.286  1.00  0.00    -0.268 OA
ATOM      6  H   UNL A   1      29.952  24.558  26.908  1.00  0.00     0.163 HD
BRANCH   4   7
ATOM      7  C   UNL A   1      32.585  23.378  25.021  1.00  0.00     0.187 C 
ATOM      8  C   UNL A   1      33.738  23.946  25.906  1.00  0.00     0.081 C 
ATOM      9  C   UNL A   1      33.049  21.968  24.529  1.00  0.00     0.115 C 
ATOM     10  C   UNL A   1      33.983  23.136  27.180  1.00  0.00     0.018 C 
ATOM     11  S   UNL A   1      33.444  20.740  25.843  1.00  0.00    -0.152 SA
ATOM     12  C   UNL A   1      32.181  21.346  23.415  1.00  0.00     0.027 C 
ATOM     13  C   UNL A   1      34.508  21.735  26.918  1.00  0.00     0.070 C 
BRANCH   7  14
ATOM     14  N   UNL A   1      32.531  24.227  23.772  1.00  0.00    -0.331 N 
ATOM     15  H   UNL A   1      32.200  23.630  23.013  1.00  0.00     0.347 HD
ATOM     16  H   UNL A   1      31.923  25.006  24.021  1.00  0.00     0.347 HD
BRANCH  14  17
ATOM     17  C   UNL A   1      33.773  24.864  23.313  1.00  0.00     0.290 C 
BRANCH  17  18
ATOM     18  C   UNL A   1      33.535  26.278  22.749  1.00  0.00     0.221 C 
BRANCH  18  19
ATOM     19  O   UNL A   1      33.617  26.365  21.322  1.00  0.00    -0.379 OA
ATOM     20  C   UNL A   1      32.589  25.643  20.655  1.00  0.00     0.195 C 
ENDBRANCH  18  19
ENDBRANCH  17  18
ENDBRANCH  14  17
ENDBRANCH   7  14
ENDBRANCH   4   7
ENDBRANCH   2   3
ENDBRANCH   1   2
BRANCH   1  21
ATOM     21  C   UNL A   1      32.668  27.691  26.155  1.00  0.00     0.023 C 
BRANCH  21  22
ATOM     22  C   UNL A   1      33.714  28.197  27.140  1.00  0.00     0.116 C 
BRANCH  22  23
ATOM     23  N   UNL A   1      33.529  29.591  27.513  1.00  0.00    -0.352 N 
ATOM     24  C   UNL A   1      34.436  30.451  28.093  1.00  0.00     0.251 C 
ATOM     25  H   UNL A   1      32.639  29.969  27.327  1.00  0.00     0.163 HD
ATOM     26  O   UNL A   1      34.089  31.564  28.453  1.00  0.00    -0.269 OA
BRANCH  24  27
ATOM     27  C   UNL A   1      35.825  29.987  28.303  1.00  0.00     0.039 A 
ATOM     28  C   UNL A   1      36.730  30.072  27.243  1.00  0.00     0.014 A 
ATOM     29  C   UNL A   1      36.237  29.510  29.549  1.00  0.00     0.014 A 
ATOM     30  C   UNL A   1      38.066  29.727  27.453  1.00  0.00     0.010 A 
ATOM     31  C   UNL A   1      37.583  29.247  29.777  1.00  0.00     0.010 A 
ATOM     32  C   UNL A   1      38.510  29.339  28.729  1.00  0.00    -0.014 A 
BRANCH  32  33
ATOM     33  C   UNL A   1      39.935  28.999  28.971  1.00  0.00     0.031 A 
ATOM     34  C   UNL A   1      40.864  30.030  29.558  1.00  0.00     0.074 A 
ATOM     35  C   UNL A   1      40.403  27.784  28.622  1.00  0.00     0.049 A 
ATOM     36  N   UNL A   1      42.141  29.934  29.826  1.00  0.00    -0.248 NA
ATOM     37  C   UNL A   1      40.292  31.355  29.848  1.00  0.00     0.031 C 
ATOM     38  C   UNL A   1      39.620  26.728  27.977  1.00  0.00     0.029 A 
ATOM     39  N   UNL A   1      41.652  27.233  28.759  1.00  0.00    -0.354 N 
ATOM     40  C   UNL A   1      42.525  31.184  30.298  1.00  0.00     0.074 A 
ATOM     41  C   UNL A   1      41.362  32.040  30.222  1.00  0.00     0.031 C 
ATOM     42  C   UNL A   1      40.399  25.647  27.799  1.00  0.00     0.029 A 
ATOM     43  C   UNL A   1      41.739  25.939  28.297  1.00  0.00     0.049 A 
ATOM     44  H   UNL A   1      42.415  27.717  29.150  1.00  0.00     0.167 HD
ATOM     45  C   UNL A   1      43.727  31.575  30.781  1.00  0.00     0.037 A 
ATOM     46  C   UNL A   1      42.781  25.085  28.285  1.00  0.00     0.037 A 
ATOM     47  C   UNL A   1      44.869  30.705  30.895  1.00  0.00     0.049 A 
ATOM     48  C   UNL A   1      44.092  25.526  28.882  1.00  0.00     0.074 A 
ATOM     49  C   UNL A   1      46.112  30.982  31.435  1.00  0.00     0.029 A 
ATOM     50  N   UNL A   1      44.902  29.386  30.468  1.00  0.00    -0.354 N 
ATOM     51  N   UNL A   1      44.415  26.690  29.395  1.00  0.00    -0.248 NA
ATOM     52  C   UNL A   1      45.171  24.531  28.916  1.00  0.00     0.031 C 
ATOM     53  C   UNL A   1      46.909  29.839  31.304  1.00  0.00     0.029 A 
ATOM     54  C   UNL A   1      46.147  28.837  30.724  1.00  0.00     0.049 A 
ATOM     55  H   UNL A   1      44.151  28.910  30.045  1.00  0.00     0.167 HD
ATOM     56  C   UNL A   1      45.725  26.557  29.840  1.00  0.00     0.074 A 
ATOM     57  C   UNL A   1      46.127  25.196  29.550  1.00  0.00     0.031 C 
ATOM     58  C   UNL A   1      46.526  27.477  30.434  1.00  0.00     0.037 A 
BRANCH  45  59
ATOM     59  C   UNL A   1      43.864  33.001  31.238  1.00  0.00     0.058 A 
ATOM     60  C   UNL A   1      43.628  33.374  32.572  1.00  0.00     0.135 A 
ATOM     61  C   UNL A   1      44.270  34.004  30.343  1.00  0.00     0.135 A 
ATOM     62  F   UNL A   1      43.221  32.460  33.468  1.00  0.00    -0.206 F 
ATOM     63  C   UNL A   1      43.761  34.691  32.995  1.00  0.00     0.059 A 
ATOM     64  C   UNL A   1      44.436  35.325  30.750  1.00  0.00     0.059 A 
ATOM     65  F   UNL A   1      44.506  33.706  29.055  1.00  0.00    -0.206 F 
ATOM     66  C   UNL A   1      44.166  35.661  32.077  1.00  0.00     0.060 A 
BRANCH  66  67
ATOM     67  S   UNL A   1      44.349  37.365  32.644  1.00  0.00     0.124 S 
ATOM     68  O   UNL A   1      45.664  37.321  33.277  1.00  0.00    -0.237 OA
ATOM     69  O   UNL A   1      44.271  38.120  31.397  1.00  0.00    -0.237 OA
ATOM     70  O   UNL A   1      43.221  37.543  33.552  1.00  0.00    -0.744 OA
ENDBRANCH  66  67
ENDBRANCH  45  59
BRANCH  46  71
ATOM     71  C   UNL A   1      42.619  23.716  27.728  1.00  0.00     0.058 A 
ATOM     72  C   UNL A   1      42.656  23.488  26.345  1.00  0.00     0.135 A 
ATOM     73  C   UNL A   1      42.425  22.608  28.568  1.00  0.00     0.135 A 
ATOM     74  F   UNL A   1      42.836  24.515  25.501  1.00  0.00    -0.206 F 
ATOM     75  C   UNL A   1      42.478  22.216  25.809  1.00  0.00     0.059 A 
ATOM     76  C   UNL A   1      42.270  21.322  28.058  1.00  0.00     0.059 A 
ATOM     77  F   UNL A   1      42.403  22.769  29.900  1.00  0.00    -0.206 F 
ATOM     78  C   UNL A   1      42.284  21.139  26.675  1.00  0.00     0.060 A 
BRANCH  78  79
ATOM     79  S   UNL A   1      42.090  19.485  25.974  1.00  0.00     0.124 S 
ATOM     80  O   UNL A   1      40.652  19.435  25.737  1.00  0.00    -0.237 OA
ATOM     81  O   UNL A   1      42.932  19.555  24.783  1.00  0.00    -0.237 OA
ATOM     82  O   UNL A   1      42.588  18.613  27.033  1.00  0.00    -0.744 OA
ENDBRANCH  78  79
ENDBRANCH  46  71
BRANCH  58  83
ATOM     83  C   UNL A   1      47.900  27.027  30.845  1.00  0.00     0.058 A 
ATOM     84  C   UNL A   1      49.022  27.236  30.030  1.00  0.00     0.135 A 
ATOM     85  C   UNL A   1      48.096  26.389  32.081  1.00  0.00     0.135 A 
ATOM     86  F   UNL A   1      48.889  27.839  28.838  1.00  0.00    -0.206 F 
ATOM     87  C   UNL A   1      50.285  26.789  30.404  1.00  0.00     0.059 A 
ATOM     88  C   UNL A   1      49.354  25.960  32.489  1.00  0.00     0.059 A 
ATOM     89  F   UNL A   1      47.058  26.178  32.907  1.00  0.00    -0.206 F 
ATOM     90  C   UNL A   1      50.439  26.146  31.634  1.00  0.00     0.060 A 
BRANCH  90  91
ATOM     91  S   UNL A   1      52.080  25.563  32.109  1.00  0.00     0.124 S 
ATOM     92  O   UNL A   1      52.847  25.828  30.896  1.00  0.00    -0.237 OA
ATOM     93  O   UNL A   1      52.395  26.407  33.257  1.00  0.00    -0.237 OA
ATOM     94  O   UNL A   1      51.861  24.153  32.420  1.00  0.00    -0.744 OA
ENDBRANCH  90  91
ENDBRANCH  58  83
ENDBRANCH  32  33
ENDBRANCH  24  27
ENDBRANCH  22  23
ENDBRANCH  21  22
ENDBRANCH   1  21
TORSDOF 18
ENDMDL
MODEL 3
REMARK VINA RESULT:     -10.5      6.755     12.501
REMARK SMILES COCC[NH2+][C@]1(C(=O)NCCCCNC(=O)c2ccc(-c3c4nc(c(-c5c(F)cc(S(=O)(=O)[O-])cc5F)c5ccc([nH]5)c(-c5c(F)cc(S(=O)(=O)[O-])cc5F)c5nc(c(-c6c(F)cc(S(=O)(=O)[O-])cc6F)c6ccc3[nH]6)C=C5)C=C4)cc2)CCCS[C@H]1C
REMARK SMILES IDX 11 1 10 2 9 3 7 4 8 5 6 7 83 8 87 9 84 10 86 11 88 12 85 13
REMARK SMILES IDX 5 14 4 17 3 18 2 19 1 20 12 21 13 22 14 23 15 24 16 26 17 27
REMARK SMILES IDX 18 28 82 29 19 30 81 31 20 32 21 33 22 34 75 35 23 36 80 37
REMARK SMILES IDX 74 38 76 39 24 40 79 41 73 42 72 43 25 45 59 46 38 47 58 48
REMARK SMILES IDX 39 49 42 50 57 51 77 52 40 53 41 54 56 56 78 57 43 58 26 59
REMARK SMILES IDX 27 60 36 61 28 62 29 63 35 64 37 65 30 66 31 67 32 68 33 69
REMARK SMILES IDX 34 70 60 71 61 72 70 73 62 74 63 75 69 76 71 77 64 78 65 79
REMARK SMILES IDX 66 80 67 81 68 82 44 83 45 84 54 85 46 86 47 87 53 88 55 89
REMARK SMILES IDX 48 90 49 91 50 92 51 93 52 94
REMARK H PARENT 9 6 5 15 5 16 14 25 76 44 42 55
REMARK Flexibility Score: inf
ROOT
ATOM      1  C   UNL A   1      34.469  30.469  27.471  1.00  0.00     0.023 C 
ENDROOT
BRANCH   1   2
ATOM      2  C   UNL A   1      33.024  30.359  26.983  1.00  0.00     0.116 C 
BRANCH   2   3
ATOM      3  N   UNL A   1      32.390  29.142  27.449  1.00  0.00    -0.351 N 
ATOM      4  C   UNL A   1      31.777  28.084  26.883  1.00  0.00     0.282 C 
ATOM      5  O   UNL A   1      31.149  27.408  27.719  1.00  0.00    -0.268 OA
ATOM      6  H   UNL A   1      32.414  29.071  28.431  1.00  0.00     0.163 HD
BRANCH   4   7
ATOM      7  C   UNL A   1      31.797  27.607  25.371  1.00  0.00     0.187 C 
ATOM      8  C   UNL A   1      33.292  27.620  24.921  1.00  0.00     0.081 C 
ATOM      9  C   UNL A   1      31.211  26.222  24.942  1.00  0.00     0.115 C 
ATOM     10  C   UNL A   1      34.153  26.580  25.637  1.00  0.00     0.018 C 
ATOM     11  S   UNL A   1      32.050  24.736  25.635  1.00  0.00    -0.152 SA
ATOM     12  C   UNL A   1      29.676  26.103  25.041  1.00  0.00     0.027 C 
ATOM     13  C   UNL A   1      33.782  25.146  25.300  1.00  0.00     0.070 C 
BRANCH   7  14
ATOM     14  N   UNL A   1      31.071  28.618  24.515  1.00  0.00    -0.331 N 
ATOM     15  H   UNL A   1      30.072  28.506  24.695  1.00  0.00     0.347 HD
ATOM     16  H   UNL A   1      31.473  29.515  24.786  1.00  0.00     0.347 HD
BRANCH  14  17
ATOM     17  C   UNL A   1      31.260  28.556  23.059  1.00  0.00     0.290 C 
BRANCH  17  18
ATOM     18  C   UNL A   1      29.978  28.915  22.284  1.00  0.00     0.221 C 
BRANCH  18  19
ATOM     19  O   UNL A   1      28.834  29.150  23.111  1.00  0.00    -0.379 OA
ATOM     20  C   UNL A   1      28.036  30.241  22.669  1.00  0.00     0.195 C 
ENDBRANCH  18  19
ENDBRANCH  17  18
ENDBRANCH  14  17
ENDBRANCH   7  14
ENDBRANCH   4   7
ENDBRANCH   2   3
ENDBRANCH   1   2
BRANCH   1  21
ATOM     21  C   UNL A   1      34.852  31.847  28.010  1.00  0.00     0.023 C 
BRANCH  21  22
ATOM     22  C   UNL A   1      36.095  31.870  28.892  1.00  0.00     0.116 C 
BRANCH  22  23
ATOM     23  N   UNL A   1      35.844  31.430  30.255  1.00  0.00    -0.352 N 
ATOM     24  C   UNL A   1      36.589  30.566  31.027  1.00  0.00     0.251 C 
ATOM     25  H   UNL A   1      35.037  31.798  30.682  1.00  0.00     0.163 HD
ATOM     26  O   UNL A   1      36.181  30.205  32.120  1.00  0.00    -0.269 OA
BRANCH  24  27
ATOM     27  C   UNL A   1      37.873  30.059  30.495  1.00  0.00     0.039 A 
ATOM     28  C   UNL A   1      38.055  30.009  29.112  1.00  0.00     0.014 A 
ATOM     29  C   UNL A   1      38.900  29.672  31.358  1.00  0.00     0.014 A 
ATOM     30  C   UNL A   1      39.293  29.621  28.596  1.00  0.00     0.010 A 
ATOM     31  C   UNL A   1      40.156  29.368  30.845  1.00  0.00     0.010 A 
ATOM     32  C   UNL A   1      40.363  29.325  29.458  1.00  0.00    -0.014 A 
BRANCH  32  33
ATOM     33  C   UNL A   1      41.693  28.941  28.921  1.00  0.00     0.031 A 
ATOM     34  C   UNL A   1      42.782  29.975  28.802  1.00  0.00     0.074 A 
ATOM     35  C   UNL A   1      41.906  27.679  28.499  1.00  0.00     0.049 A 
ATOM     36  N   UNL A   1      43.999  29.844  28.343  1.00  0.00    -0.248 NA
ATOM     37  C   UNL A   1      42.448  31.347  29.221  1.00  0.00     0.031 C 
ATOM     38  C   UNL A   1      40.908  26.607  28.493  1.00  0.00     0.029 A 
ATOM     39  N   UNL A   1      43.033  27.084  27.991  1.00  0.00    -0.354 N 
ATOM     40  C   UNL A   1      44.567  31.111  28.401  1.00  0.00     0.074 A 
ATOM     41  C   UNL A   1      43.542  32.011  28.883  1.00  0.00     0.031 C 
ATOM     42  C   UNL A   1      41.475  25.479  28.032  1.00  0.00     0.029 A 
ATOM     43  C   UNL A   1      42.867  25.751  27.689  1.00  0.00     0.049 A 
ATOM     44  H   UNL A   1      43.881  27.564  27.854  1.00  0.00     0.167 HD
ATOM     45  C   UNL A   1      45.834  31.487  28.112  1.00  0.00     0.037 A 
ATOM     46  C   UNL A   1      43.741  24.851  27.200  1.00  0.00     0.037 A 
ATOM     47  C   UNL A   1      46.862  30.578  27.675  1.00  0.00     0.049 A 
ATOM     48  C   UNL A   1      45.162  25.281  26.942  1.00  0.00     0.074 A 
ATOM     49  C   UNL A   1      48.196  30.842  27.423  1.00  0.00     0.029 A 
ATOM     50  N   UNL A   1      46.670  29.225  27.435  1.00  0.00    -0.354 N 
ATOM     51  N   UNL A   1      45.702  26.470  27.078  1.00  0.00    -0.248 NA
ATOM     52  C   UNL A   1      46.095  24.243  26.486  1.00  0.00     0.031 C 
ATOM     53  C   UNL A   1      48.804  29.656  26.997  1.00  0.00     0.029 A 
ATOM     54  C   UNL A   1      47.859  28.644  27.028  1.00  0.00     0.049 A 
ATOM     55  H   UNL A   1      45.814  28.750  27.538  1.00  0.00     0.167 HD
ATOM     56  C   UNL A   1      47.044  26.315  26.750  1.00  0.00     0.074 A 
ATOM     57  C   UNL A   1      47.236  24.916  26.428  1.00  0.00     0.031 C 
ATOM     58  C   UNL A   1      48.031  27.247  26.719  1.00  0.00     0.037 A 
BRANCH  45  59
ATOM     59  C   UNL A   1      46.185  32.940  28.275  1.00  0.00     0.058 A 
ATOM     60  C   UNL A   1      46.674  33.450  29.490  1.00  0.00     0.135 A 
ATOM     61  C   UNL A   1      46.066  33.831  27.195  1.00  0.00     0.135 A 
ATOM     62  F   UNL A   1      46.791  32.648  30.561  1.00  0.00    -0.206 F 
ATOM     63  C   UNL A   1      47.003  34.792  29.637  1.00  0.00     0.059 A 
ATOM     64  C   UNL A   1      46.416  35.173  27.312  1.00  0.00     0.059 A 
ATOM     65  F   UNL A   1      45.602  33.399  26.012  1.00  0.00    -0.206 F 
ATOM     66  C   UNL A   1      46.872  35.647  28.542  1.00  0.00     0.060 A 
BRANCH  66  67
ATOM     67  S   UNL A   1      47.319  37.384  28.745  1.00  0.00     0.124 S 
ATOM     68  O   UNL A   1      47.349  37.508  30.198  1.00  0.00    -0.237 OA
ATOM     69  O   UNL A   1      48.615  37.453  28.075  1.00  0.00    -0.237 OA
ATOM     70  O   UNL A   1      46.234  38.094  28.076  1.00  0.00    -0.744 OA
ENDBRANCH  66  67
ENDBRANCH  45  59
BRANCH  46  71
ATOM     71  C   UNL A   1      43.316  23.447  26.963  1.00  0.00     0.058 A 
ATOM     72  C   UNL A   1      43.033  22.985  25.669  1.00  0.00     0.135 A 
ATOM     73  C   UNL A   1      43.183  22.537  28.024  1.00  0.00     0.135 A 
ATOM     74  F   UNL A   1      43.142  23.817  24.622  1.00  0.00    -0.206 F 
ATOM     75  C   UNL A   1      42.606  21.682  25.435  1.00  0.00     0.059 A 
ATOM     76  C   UNL A   1      42.783  21.221  27.813  1.00  0.00     0.059 A 
ATOM     77  F   UNL A   1      43.462  22.923  29.278  1.00  0.00    -0.206 F 
ATOM     78  C   UNL A   1      42.483  20.806  26.515  1.00  0.00     0.060 A 
BRANCH  78  79
ATOM     79  S   UNL A   1      41.964  19.105  26.200  1.00  0.00     0.124 S 
ATOM     80  O   UNL A   1      42.890  18.707  25.146  1.00  0.00    -0.237 OA
ATOM     81  O   UNL A   1      42.168  18.475  27.502  1.00  0.00    -0.237 OA
ATOM     82  O   UNL A   1      40.568  19.251  25.796  1.00  0.00    -0.744 OA
ENDBRANCH  78  79
ENDBRANCH  46  71
BRANCH  58  83
ATOM     83  C   UNL A   1      49.411  26.770  26.361  1.00  0.00     0.058 A 
ATOM     84  C   UNL A   1      49.919  26.885  25.059  1.00  0.00     0.135 A 
ATOM     85  C   UNL A   1      50.241  26.204  27.343  1.00  0.00     0.135 A 
ATOM     86  F   UNL A   1      49.166  27.417  24.083  1.00  0.00    -0.206 F 
ATOM     87  C   UNL A   1      51.186  26.414  24.730  1.00  0.00     0.059 A 
ATOM     88  C   UNL A   1      51.522  25.754  27.043  1.00  0.00     0.059 A 
ATOM     89  F   UNL A   1      49.809  26.085  28.609  1.00  0.00    -0.206 F 
ATOM     90  C   UNL A   1      51.978  25.844  25.729  1.00  0.00     0.060 A 
BRANCH  90  91
ATOM     91  S   UNL A   1      53.617  25.229  25.292  1.00  0.00     0.124 S 
ATOM     92  O   UNL A   1      53.734  25.666  23.904  1.00  0.00    -0.237 OA
ATOM     93  O   UNL A   1      54.478  25.918  26.248  1.00  0.00    -0.237 OA
ATOM     94  O   UNL A   1      53.502  23.787  25.490  1.00  0.00    -0.744 OA
ENDBRANCH  90  91
ENDBRANCH  58  83
ENDBRANCH  32  33
ENDBRANCH  24  27
ENDBRANCH  22  23
ENDBRANCH  21  22
ENDBRANCH   1  21
TORSDOF 18
ENDMDL
