MODEL 1
REMARK VINA RESULT:     -13.0      0.000      0.000
REMARK SMILES CC(C)C(=O)Nc1ccc(NC(=O)[C@@H]2[C@@H](C(=O)NCCCCNC(=O)c3ccc(-c4c5nc(c(-c6c(F)cc(S(=O)(=O)[O-])cc6F)c6ccc([nH]6)c(-c6c(F)cc(S(=O)(=O)[O-])cc6F)c6nc(c(-c7c(F)cc(S(=O)(=O)[O-])cc7F)c7ccc4[nH]7)C=C6)C=C5)cc3)C2(C)C)cc1Cl
REMARK SMILES IDX 20 1 19 2 18 3 16 4 17 5 15 7 14 8 92 9 93 10 94 11 12 12
REMARK SMILES IDX 11 13 13 15 10 16 7 17 8 18 96 19 9 20 95 21 97 22 6 23 4 24
REMARK SMILES IDX 5 25 2 27 1 28 3 29 21 30 22 31 23 32 24 33 25 35 26 36
REMARK SMILES IDX 27 37 91 38 28 39 90 40 29 41 30 42 31 43 84 44 32 45 89 46
REMARK SMILES IDX 83 47 85 48 33 49 88 50 82 51 81 52 34 54 68 55 47 56 67 57
REMARK SMILES IDX 48 58 51 59 66 60 86 61 49 62 50 63 65 65 87 66 52 67 35 68
REMARK SMILES IDX 36 69 45 70 37 71 38 72 44 73 46 74 39 75 40 76 41 77 42 78
REMARK SMILES IDX 43 79 69 80 70 81 79 82 71 83 72 84 78 85 80 86 73 87 74 88
REMARK SMILES IDX 75 89 76 90 77 91 53 92 54 93 63 94 55 95 56 96 62 97 64 98
REMARK SMILES IDX 57 99 58 100 59 101 60 102 61 103
REMARK H PARENT 18 6 11 14 6 26 23 34 85 53 51 64
REMARK Flexibility Score: inf
ROOT
ATOM      1  C   UNL A   1      38.671  23.042  26.449  1.00  0.00     0.023 C 
ENDROOT
BRANCH   1   2
ATOM      2  C   UNL A   1      37.678  22.155  25.701  1.00  0.00     0.116 C 
BRANCH   2   3
ATOM      3  N   UNL A   1      37.498  22.537  24.307  1.00  0.00    -0.356 N 
ATOM      4  C   UNL A   1      36.416  22.712  23.475  1.00  0.00     0.224 C 
ATOM      5  O   UNL A   1      36.661  22.970  22.297  1.00  0.00    -0.275 OA
ATOM      6  H   UNL A   1      38.354  22.711  23.852  1.00  0.00     0.163 HD
BRANCH   4   7
ATOM      7  C   UNL A   1      34.973  22.635  23.876  1.00  0.00     0.098 C 
ATOM      8  C   UNL A   1      33.909  23.513  23.287  1.00  0.00     0.098 C 
ATOM      9  C   UNL A   1      34.284  23.641  24.790  1.00  0.00    -0.011 C 
ATOM     10  C   UNL A   1      35.072  24.805  25.350  1.00  0.00     0.013 C 
ATOM     11  C   UNL A   1      33.266  23.124  25.789  1.00  0.00     0.013 C 
BRANCH   8  12
ATOM     12  C   UNL A   1      32.553  23.049  22.902  1.00  0.00     0.228 C 
ATOM     13  N   UNL A   1      31.517  23.962  22.846  1.00  0.00    -0.326 N 
ATOM     14  H   UNL A   1      30.692  23.599  22.452  1.00  0.00     0.169 HD
ATOM     15  O   UNL A   1      32.357  21.880  22.595  1.00  0.00    -0.274 OA
BRANCH  13  16
ATOM     16  C   UNL A   1      31.408  25.313  23.243  1.00  0.00     0.042 A 
ATOM     17  C   UNL A   1      31.081  28.077  23.710  1.00  0.00     0.060 A 
ATOM     18  C   UNL A   1      30.322  27.157  24.416  1.00  0.00     0.030 A 
ATOM     19  C   UNL A   1      32.131  27.614  22.910  1.00  0.00     0.066 A 
ATOM     20  C   UNL A   1      30.486  25.796  24.166  1.00  0.00     0.028 A 
ATOM     21  C   UNL A   1      32.267  26.241  22.647  1.00  0.00     0.048 A 
ATOM     22  Cl  UNL A   1      33.364  28.676  22.330  1.00  0.00    -0.082 Cl
BRANCH  17  23
ATOM     23  N   UNL A   1      30.736  29.423  23.872  1.00  0.00    -0.325 N 
ATOM     24  C   UNL A   1      29.588  30.040  23.458  1.00  0.00     0.226 C 
ATOM     25  O   UNL A   1      29.333  31.139  23.968  1.00  0.00    -0.274 OA
ATOM     26  H   UNL A   1      31.394  29.990  24.338  1.00  0.00     0.169 HD
BRANCH  24  27
ATOM     27  C   UNL A   1      28.591  29.436  22.460  1.00  0.00     0.072 C 
ATOM     28  C   UNL A   1      27.357  28.824  23.104  1.00  0.00     0.018 C 
ATOM     29  C   UNL A   1      28.236  30.339  21.284  1.00  0.00     0.018 C 
ENDBRANCH  24  27
ENDBRANCH  17  23
ENDBRANCH  13  16
ENDBRANCH   8  12
ENDBRANCH   4   7
ENDBRANCH   2   3
ENDBRANCH   1   2
BRANCH   1  30
ATOM     30  C   UNL A   1      39.899  22.326  26.985  1.00  0.00     0.023 C 
BRANCH  30  31
ATOM     31  C   UNL A   1      41.069  23.235  27.323  1.00  0.00     0.116 C 
BRANCH  31  32
ATOM     32  N   UNL A   1      41.585  23.959  26.170  1.00  0.00    -0.352 N 
ATOM     33  C   UNL A   1      41.694  25.316  25.981  1.00  0.00     0.251 C 
ATOM     34  H   UNL A   1      41.900  23.400  25.424  1.00  0.00     0.163 HD
ATOM     35  O   UNL A   1      42.018  25.754  24.882  1.00  0.00    -0.269 OA
BRANCH  33  36
ATOM     36  C   UNL A   1      41.394  26.235  27.100  1.00  0.00     0.039 A 
ATOM     37  C   UNL A   1      40.324  25.950  27.950  1.00  0.00     0.014 A 
ATOM     38  C   UNL A   1      42.186  27.366  27.323  1.00  0.00     0.014 A 
ATOM     39  C   UNL A   1      40.081  26.777  29.048  1.00  0.00     0.010 A 
ATOM     40  C   UNL A   1      42.013  28.118  28.477  1.00  0.00     0.010 A 
ATOM     41  C   UNL A   1      40.938  27.852  29.336  1.00  0.00    -0.014 A 
BRANCH  41  42
ATOM     42  C   UNL A   1      40.685  28.748  30.492  1.00  0.00     0.031 A 
ATOM     43  C   UNL A   1      41.535  28.624  31.733  1.00  0.00     0.074 A 
ATOM     44  C   UNL A   1      39.689  29.655  30.436  1.00  0.00     0.049 A 
ATOM     45  N   UNL A   1      41.471  29.304  32.849  1.00  0.00    -0.248 NA
ATOM     46  C   UNL A   1      42.574  27.578  31.732  1.00  0.00     0.031 C 
ATOM     47  C   UNL A   1      38.764  29.833  29.313  1.00  0.00     0.029 A 
ATOM     48  N   UNL A   1      39.293  30.606  31.342  1.00  0.00    -0.354 N 
ATOM     49  C   UNL A   1      42.460  28.775  33.670  1.00  0.00     0.074 A 
ATOM     50  C   UNL A   1      43.046  27.658  32.966  1.00  0.00     0.031 C 
ATOM     51  C   UNL A   1      37.940  30.860  29.578  1.00  0.00     0.029 A 
ATOM     52  C   UNL A   1      38.251  31.391  30.901  1.00  0.00     0.049 A 
ATOM     53  H   UNL A   1      39.714  30.717  32.224  1.00  0.00     0.167 HD
ATOM     54  C   UNL A   1      42.879  29.206  34.883  1.00  0.00     0.037 A 
ATOM     55  C   UNL A   1      37.628  32.424  31.497  1.00  0.00     0.037 A 
ATOM     56  C   UNL A   1      42.310  30.334  35.572  1.00  0.00     0.049 A 
ATOM     57  C   UNL A   1      38.097  32.869  32.859  1.00  0.00     0.074 A 
ATOM     58  C   UNL A   1      42.674  30.871  36.793  1.00  0.00     0.029 A 
ATOM     59  N   UNL A   1      41.260  31.103  35.092  1.00  0.00    -0.354 N 
ATOM     60  N   UNL A   1      39.075  32.391  33.595  1.00  0.00    -0.248 NA
ATOM     61  C   UNL A   1      37.387  34.001  33.467  1.00  0.00     0.031 C 
ATOM     62  C   UNL A   1      41.818  31.941  37.072  1.00  0.00     0.029 A 
ATOM     63  C   UNL A   1      40.955  32.103  35.999  1.00  0.00     0.049 A 
ATOM     64  H   UNL A   1      40.800  30.959  34.234  1.00  0.00     0.167 HD
ATOM     65  C   UNL A   1      39.118  33.189  34.733  1.00  0.00     0.074 A 
ATOM     66  C   UNL A   1      38.085  34.192  34.576  1.00  0.00     0.031 C 
ATOM     67  C   UNL A   1      39.931  33.101  35.816  1.00  0.00     0.037 A 
BRANCH  54  68
ATOM     68  C   UNL A   1      44.031  28.479  35.523  1.00  0.00     0.058 A 
ATOM     69  C   UNL A   1      45.362  28.851  35.269  1.00  0.00     0.135 A 
ATOM     70  C   UNL A   1      43.809  27.428  36.426  1.00  0.00     0.135 A 
ATOM     71  F   UNL A   1      45.636  29.835  34.396  1.00  0.00    -0.206 F 
ATOM     72  C   UNL A   1      46.430  28.195  35.871  1.00  0.00     0.059 A 
ATOM     73  C   UNL A   1      44.862  26.778  37.065  1.00  0.00     0.059 A 
ATOM     74  F   UNL A   1      42.558  27.025  36.701  1.00  0.00    -0.206 F 
ATOM     75  C   UNL A   1      46.170  27.163  36.772  1.00  0.00     0.060 A 
BRANCH  75  76
ATOM     76  S   UNL A   1      47.569  26.344  37.564  1.00  0.00     0.124 S 
ATOM     77  O   UNL A   1      47.939  27.321  38.585  1.00  0.00    -0.237 OA
ATOM     78  O   UNL A   1      46.967  25.109  38.057  1.00  0.00    -0.237 OA
ATOM     79  O   UNL A   1      48.529  26.181  36.477  1.00  0.00    -0.744 OA
ENDBRANCH  75  76
ENDBRANCH  54  68
BRANCH  55  80
ATOM     80  C   UNL A   1      36.512  33.136  30.814  1.00  0.00     0.058 A 
ATOM     81  C   UNL A   1      36.762  34.035  29.766  1.00  0.00     0.135 A 
ATOM     82  C   UNL A   1      35.179  32.970  31.225  1.00  0.00     0.135 A 
ATOM     83  F   UNL A   1      38.017  34.232  29.336  1.00  0.00    -0.206 F 
ATOM     84  C   UNL A   1      35.742  34.779  29.181  1.00  0.00     0.059 A 
ATOM     85  C   UNL A   1      34.138  33.678  30.633  1.00  0.00     0.059 A 
ATOM     86  F   UNL A   1      34.880  32.107  32.207  1.00  0.00    -0.206 F 
ATOM     87  C   UNL A   1      34.432  34.598  29.628  1.00  0.00     0.060 A 
BRANCH  87  88
ATOM     88  S   UNL A   1      33.115  35.574  28.870  1.00  0.00     0.124 S 
ATOM     89  O   UNL A   1      33.879  36.563  28.119  1.00  0.00    -0.237 OA
ATOM     90  O   UNL A   1      32.410  34.573  28.075  1.00  0.00    -0.237 OA
ATOM     91  O   UNL A   1      32.375  36.086  30.019  1.00  0.00    -0.744 OA
ENDBRANCH  87  88
ENDBRANCH  55  80
BRANCH  67  92
ATOM     92  C   UNL A   1      39.765  34.145  36.887  1.00  0.00     0.058 A 
ATOM     93  C   UNL A   1      40.368  35.409  36.788  1.00  0.00     0.135 A 
ATOM     94  C   UNL A   1      38.977  33.881  38.019  1.00  0.00     0.135 A 
ATOM     95  F   UNL A   1      41.133  35.712  35.727  1.00  0.00    -0.206 F 
ATOM     96  C   UNL A   1      40.235  36.357  37.797  1.00  0.00     0.059 A 
ATOM     97  C   UNL A   1      38.801  34.827  39.022  1.00  0.00     0.059 A 
ATOM     98  F   UNL A   1      38.363  32.694  38.156  1.00  0.00    -0.206 F 
ATOM     99  C   UNL A   1      39.452  36.055  38.913  1.00  0.00     0.060 A 
BRANCH  99 100
ATOM    100  S   UNL A   1      39.288  37.294  40.214  1.00  0.00     0.124 S 
ATOM    101  O   UNL A   1      38.623  36.530  41.264  1.00  0.00    -0.237 OA
ATOM    102  O   UNL A   1      40.678  37.657  40.476  1.00  0.00    -0.237 OA
ATOM    103  O   UNL A   1      38.480  38.338  39.590  1.00  0.00    -0.744 OA
ENDBRANCH  99 100
ENDBRANCH  67  92
ENDBRANCH  41  42
ENDBRANCH  33  36
ENDBRANCH  31  32
ENDBRANCH  30  31
ENDBRANCH   1  30
TORSDOF 18
ENDMDL
MODEL 2
REMARK VINA RESULT:     -12.8      1.027      1.994
REMARK SMILES CC(C)C(=O)Nc1ccc(NC(=O)[C@@H]2[C@@H](C(=O)NCCCCNC(=O)c3ccc(-c4c5nc(c(-c6c(F)cc(S(=O)(=O)[O-])cc6F)c6ccc([nH]6)c(-c6c(F)cc(S(=O)(=O)[O-])cc6F)c6nc(c(-c7c(F)cc(S(=O)(=O)[O-])cc7F)c7ccc4[nH]7)C=C6)C=C5)cc3)C2(C)C)cc1Cl
REMARK SMILES IDX 20 1 19 2 18 3 16 4 17 5 15 7 14 8 92 9 93 10 94 11 12 12
REMARK SMILES IDX 11 13 13 15 10 16 7 17 8 18 96 19 9 20 95 21 97 22 6 23 4 24
REMARK SMILES IDX 5 25 2 27 1 28 3 29 21 30 22 31 23 32 24 33 25 35 26 36
REMARK SMILES IDX 27 37 91 38 28 39 90 40 29 41 30 42 31 43 84 44 32 45 89 46
REMARK SMILES IDX 83 47 85 48 33 49 88 50 82 51 81 52 34 54 68 55 47 56 67 57
REMARK SMILES IDX 48 58 51 59 66 60 86 61 49 62 50 63 65 65 87 66 52 67 35 68
REMARK SMILES IDX 36 69 45 70 37 71 38 72 44 73 46 74 39 75 40 76 41 77 42 78
REMARK SMILES IDX 43 79 69 80 70 81 79 82 71 83 72 84 78 85 80 86 73 87 74 88
REMARK SMILES IDX 75 89 76 90 77 91 53 92 54 93 63 94 55 95 56 96 62 97 64 98
REMARK SMILES IDX 57 99 58 100 59 101 60 102 61 103
REMARK H PARENT 18 6 11 14 6 26 23 34 85 53 51 64
REMARK Flexibility Score: inf
ROOT
ATOM      1  C   UNL A   1      38.851  22.942  26.500  1.00  0.00     0.023 C 
ENDROOT
BRANCH   1   2
ATOM      2  C   UNL A   1      37.861  22.052  25.751  1.00  0.00     0.116 C 
BRANCH   2   3
ATOM      3  N   UNL A   1      37.618  22.483  24.381  1.00  0.00    -0.356 N 
ATOM      4  C   UNL A   1      36.508  22.602  23.577  1.00  0.00     0.224 C 
ATOM      5  O   UNL A   1      36.703  22.936  22.410  1.00  0.00    -0.275 OA
ATOM      6  H   UNL A   1      38.446  22.753  23.921  1.00  0.00     0.163 HD
BRANCH   4   7
ATOM      7  C   UNL A   1      35.086  22.378  23.999  1.00  0.00     0.098 C 
ATOM      8  C   UNL A   1      33.921  23.073  23.359  1.00  0.00     0.098 C 
ATOM      9  C   UNL A   1      34.279  23.357  24.844  1.00  0.00    -0.011 C 
ATOM     10  C   UNL A   1      34.919  24.647  25.308  1.00  0.00     0.013 C 
ATOM     11  C   UNL A   1      33.334  22.794  25.889  1.00  0.00     0.013 C 
BRANCH   8  12
ATOM     12  C   UNL A   1      32.631  22.419  23.024  1.00  0.00     0.228 C 
ATOM     13  N   UNL A   1      31.514  23.201  22.802  1.00  0.00    -0.326 N 
ATOM     14  H   UNL A   1      30.743  22.699  22.453  1.00  0.00     0.169 HD
ATOM     15  O   UNL A   1      32.562  21.201  22.903  1.00  0.00    -0.274 OA
BRANCH  13  16
ATOM     16  C   UNL A   1      31.260  24.579  22.976  1.00  0.00     0.042 A 
ATOM     17  C   UNL A   1      30.742  27.266  23.665  1.00  0.00     0.060 A 
ATOM     18  C   UNL A   1      31.927  26.926  23.033  1.00  0.00     0.030 A 
ATOM     19  C   UNL A   1      29.739  26.299  23.786  1.00  0.00     0.066 A 
ATOM     20  C   UNL A   1      32.174  25.594  22.708  1.00  0.00     0.028 A 
ATOM     21  C   UNL A   1      30.012  24.956  23.479  1.00  0.00     0.048 A 
ATOM     22  Cl  UNL A   1      28.111  26.726  24.178  1.00  0.00    -0.082 Cl
BRANCH  17  23
ATOM     23  N   UNL A   1      30.640  28.583  24.129  1.00  0.00    -0.325 N 
ATOM     24  C   UNL A   1      31.372  29.171  25.122  1.00  0.00     0.226 C 
ATOM     25  O   UNL A   1      31.357  30.407  25.166  1.00  0.00    -0.274 OA
ATOM     26  H   UNL A   1      29.964  29.149  23.689  1.00  0.00     0.169 HD
BRANCH  24  27
ATOM     27  C   UNL A   1      32.238  28.403  26.131  1.00  0.00     0.072 C 
ATOM     28  C   UNL A   1      33.586  29.045  26.411  1.00  0.00     0.018 C 
ATOM     29  C   UNL A   1      31.518  27.996  27.413  1.00  0.00     0.018 C 
ENDBRANCH  24  27
ENDBRANCH  17  23
ENDBRANCH  13  16
ENDBRANCH   8  12
ENDBRANCH   4   7
ENDBRANCH   2   3
ENDBRANCH   1   2
BRANCH   1  30
ATOM     30  C   UNL A   1      40.086  22.231  27.026  1.00  0.00     0.023 C 
BRANCH  30  31
ATOM     31  C   UNL A   1      41.252  23.147  27.361  1.00  0.00     0.116 C 
BRANCH  31  32
ATOM     32  N   UNL A   1      41.758  23.878  26.208  1.00  0.00    -0.352 N 
ATOM     33  C   UNL A   1      41.849  25.237  26.020  1.00  0.00     0.251 C 
ATOM     34  H   UNL A   1      42.078  23.324  25.460  1.00  0.00     0.163 HD
ATOM     35  O   UNL A   1      42.166  25.680  24.920  1.00  0.00    -0.269 OA
BRANCH  33  36
ATOM     36  C   UNL A   1      41.540  26.151  27.140  1.00  0.00     0.039 A 
ATOM     37  C   UNL A   1      40.462  25.864  27.978  1.00  0.00     0.014 A 
ATOM     38  C   UNL A   1      42.331  27.280  27.376  1.00  0.00     0.014 A 
ATOM     39  C   UNL A   1      40.208  26.686  29.077  1.00  0.00     0.010 A 
ATOM     40  C   UNL A   1      42.148  28.027  28.532  1.00  0.00     0.010 A 
ATOM     41  C   UNL A   1      41.064  27.759  29.379  1.00  0.00    -0.014 A 
BRANCH  41  42
ATOM     42  C   UNL A   1      40.801  28.649  30.537  1.00  0.00     0.031 A 
ATOM     43  C   UNL A   1      41.647  28.526  31.781  1.00  0.00     0.074 A 
ATOM     44  C   UNL A   1      39.800  29.551  30.479  1.00  0.00     0.049 A 
ATOM     45  N   UNL A   1      41.574  29.202  32.899  1.00  0.00    -0.248 NA
ATOM     46  C   UNL A   1      42.691  27.486  31.781  1.00  0.00     0.031 C 
ATOM     47  C   UNL A   1      38.880  29.727  29.353  1.00  0.00     0.029 A 
ATOM     48  N   UNL A   1      39.395  30.497  31.386  1.00  0.00    -0.354 N 
ATOM     49  C   UNL A   1      42.563  28.676  33.723  1.00  0.00     0.074 A 
ATOM     50  C   UNL A   1      43.158  27.564  33.017  1.00  0.00     0.031 C 
ATOM     51  C   UNL A   1      38.049  30.749  29.617  1.00  0.00     0.029 A 
ATOM     52  C   UNL A   1      38.352  31.277  30.943  1.00  0.00     0.049 A 
ATOM     53  H   UNL A   1      39.812  30.607  32.271  1.00  0.00     0.167 HD
ATOM     54  C   UNL A   1      42.974  29.106  34.939  1.00  0.00     0.037 A 
ATOM     55  C   UNL A   1      37.719  32.305  31.540  1.00  0.00     0.037 A 
ATOM     56  C   UNL A   1      42.395  30.228  35.628  1.00  0.00     0.049 A 
ATOM     57  C   UNL A   1      38.181  32.748  32.905  1.00  0.00     0.074 A 
ATOM     58  C   UNL A   1      42.751  30.764  36.853  1.00  0.00     0.029 A 
ATOM     59  N   UNL A   1      41.343  30.993  35.146  1.00  0.00    -0.354 N 
ATOM     60  N   UNL A   1      39.158  32.274  33.644  1.00  0.00    -0.248 NA
ATOM     61  C   UNL A   1      37.461  33.875  33.513  1.00  0.00     0.031 C 
ATOM     62  C   UNL A   1      41.888  31.827  37.131  1.00  0.00     0.029 A 
ATOM     63  C   UNL A   1      41.029  31.988  36.055  1.00  0.00     0.049 A 
ATOM     64  H   UNL A   1      40.887  30.849  34.286  1.00  0.00     0.167 HD
ATOM     65  C   UNL A   1      39.191  33.069  34.785  1.00  0.00     0.074 A 
ATOM     66  C   UNL A   1      38.154  34.066  34.626  1.00  0.00     0.031 C 
ATOM     67  C   UNL A   1      40.000  32.982  35.870  1.00  0.00     0.037 A 
BRANCH  54  68
ATOM     68  C   UNL A   1      44.127  28.383  35.581  1.00  0.00     0.058 A 
ATOM     69  C   UNL A   1      43.925  27.230  36.359  1.00  0.00     0.135 A 
ATOM     70  C   UNL A   1      45.448  28.816  35.389  1.00  0.00     0.135 A 
ATOM     71  F   UNL A   1      42.681  26.782  36.596  1.00  0.00    -0.206 F 
ATOM     72  C   UNL A   1      44.988  26.546  36.940  1.00  0.00     0.059 A 
ATOM     73  C   UNL A   1      46.529  28.129  35.934  1.00  0.00     0.059 A 
ATOM     74  F   UNL A   1      45.700  29.915  34.660  1.00  0.00    -0.206 F 
ATOM     75  C   UNL A   1      46.287  27.001  36.717  1.00  0.00     0.060 A 
BRANCH  75  76
ATOM     76  S   UNL A   1      47.654  26.083  37.456  1.00  0.00     0.124 S 
ATOM     77  O   UNL A   1      47.797  26.759  38.742  1.00  0.00    -0.237 OA
ATOM     78  O   UNL A   1      47.122  24.725  37.510  1.00  0.00    -0.237 OA
ATOM     79  O   UNL A   1      48.751  26.288  36.515  1.00  0.00    -0.744 OA
ENDBRANCH  75  76
ENDBRANCH  54  68
BRANCH  55  80
ATOM     80  C   UNL A   1      36.603  33.014  30.854  1.00  0.00     0.058 A 
ATOM     81  C   UNL A   1      36.855  33.948  29.837  1.00  0.00     0.135 A 
ATOM     82  C   UNL A   1      35.266  32.807  31.231  1.00  0.00     0.135 A 
ATOM     83  F   UNL A   1      38.114  34.183  29.440  1.00  0.00    -0.206 F 
ATOM     84  C   UNL A   1      35.831  34.687  29.253  1.00  0.00     0.059 A 
ATOM     85  C   UNL A   1      34.222  33.510  30.638  1.00  0.00     0.059 A 
ATOM     86  F   UNL A   1      34.965  31.910  32.182  1.00  0.00    -0.206 F 
ATOM     87  C   UNL A   1      34.517  34.465  29.667  1.00  0.00     0.060 A 
BRANCH  87  88
ATOM     88  S   UNL A   1      33.195  35.435  28.909  1.00  0.00     0.124 S 
ATOM     89  O   UNL A   1      32.489  34.417  28.141  1.00  0.00    -0.237 OA
ATOM     90  O   UNL A   1      32.491  35.959  30.076  1.00  0.00    -0.237 OA
ATOM     91  O   UNL A   1      33.918  36.430  28.124  1.00  0.00    -0.744 OA
ENDBRANCH  87  88
ENDBRANCH  55  80
BRANCH  67  92
ATOM     92  C   UNL A   1      39.824  34.021  36.944  1.00  0.00     0.058 A 
ATOM     93  C   UNL A   1      39.010  33.795  38.065  1.00  0.00     0.135 A 
ATOM     94  C   UNL A   1      40.494  35.252  36.858  1.00  0.00     0.135 A 
ATOM     95  F   UNL A   1      38.345  32.636  38.196  1.00  0.00    -0.206 F 
ATOM     96  C   UNL A   1      38.827  34.772  39.038  1.00  0.00     0.059 A 
ATOM     97  C   UNL A   1      40.355  36.229  37.837  1.00  0.00     0.059 A 
ATOM     98  F   UNL A   1      41.299  35.513  35.815  1.00  0.00    -0.206 F 
ATOM     99  C   UNL A   1      39.502  35.988  38.913  1.00  0.00     0.060 A 
BRANCH  99 100
ATOM    100  S   UNL A   1      39.256  37.247  40.183  1.00  0.00     0.124 S 
ATOM    101  O   UNL A   1      38.487  38.251  39.454  1.00  0.00    -0.237 OA
ATOM    102  O   UNL A   1      38.528  36.513  41.212  1.00  0.00    -0.237 OA
ATOM    103  O   UNL A   1      40.616  37.637  40.542  1.00  0.00    -0.744 OA
ENDBRANCH  99 100
ENDBRANCH  67  92
ENDBRANCH  41  42
ENDBRANCH  33  36
ENDBRANCH  31  32
ENDBRANCH  30  31
ENDBRANCH   1  30
TORSDOF 18
ENDMDL
MODEL 3
REMARK VINA RESULT:     -12.6      6.456     12.052
REMARK SMILES CC(C)C(=O)Nc1ccc(NC(=O)[C@@H]2[C@@H](C(=O)NCCCCNC(=O)c3ccc(-c4c5nc(c(-c6c(F)cc(S(=O)(=O)[O-])cc6F)c6ccc([nH]6)c(-c6c(F)cc(S(=O)(=O)[O-])cc6F)c6nc(c(-c7c(F)cc(S(=O)(=O)[O-])cc7F)c7ccc4[nH]7)C=C6)C=C5)cc3)C2(C)C)cc1Cl
REMARK SMILES IDX 20 1 19 2 18 3 16 4 17 5 15 7 14 8 92 9 93 10 94 11 12 12
REMARK SMILES IDX 11 13 13 15 10 16 7 17 8 18 96 19 9 20 95 21 97 22 6 23 4 24
REMARK SMILES IDX 5 25 2 27 1 28 3 29 21 30 22 31 23 32 24 33 25 35 26 36
REMARK SMILES IDX 27 37 91 38 28 39 90 40 29 41 30 42 31 43 84 44 32 45 89 46
REMARK SMILES IDX 83 47 85 48 33 49 88 50 82 51 81 52 34 54 68 55 47 56 67 57
REMARK SMILES IDX 48 58 51 59 66 60 86 61 49 62 50 63 65 65 87 66 52 67 35 68
REMARK SMILES IDX 36 69 45 70 37 71 38 72 44 73 46 74 39 75 40 76 41 77 42 78
REMARK SMILES IDX 43 79 69 80 70 81 79 82 71 83 72 84 78 85 80 86 73 87 74 88
REMARK SMILES IDX 75 89 76 90 77 91 53 92 54 93 63 94 55 95 56 96 62 97 64 98
REMARK SMILES IDX 57 99 58 100 59 101 60 102 61 103
REMARK H PARENT 18 6 11 14 6 26 23 34 85 53 51 64
REMARK Flexibility Score: inf
ROOT
ATOM      1  C   UNL A   1      32.837  29.905  27.234  1.00  0.00     0.023 C 
ENDROOT
BRANCH   1   2
ATOM      2  C   UNL A   1      32.064  29.739  25.927  1.00  0.00     0.116 C 
BRANCH   2   3
ATOM      3  N   UNL A   1      32.912  29.791  24.744  1.00  0.00    -0.356 N 
ATOM      4  C   UNL A   1      32.962  29.113  23.548  1.00  0.00     0.224 C 
ATOM      5  O   UNL A   1      33.898  29.384  22.797  1.00  0.00    -0.275 OA
ATOM      6  H   UNL A   1      33.619  30.473  24.819  1.00  0.00     0.163 HD
BRANCH   4   7
ATOM      7  C   UNL A   1      31.971  28.093  23.071  1.00  0.00     0.098 C 
ATOM      8  C   UNL A   1      31.529  26.927  23.905  1.00  0.00     0.098 C 
ATOM      9  C   UNL A   1      32.344  26.691  22.604  1.00  0.00    -0.011 C 
ATOM     10  C   UNL A   1      33.796  26.265  22.602  1.00  0.00     0.013 C 
ATOM     11  C   UNL A   1      31.588  26.102  21.427  1.00  0.00     0.013 C 
BRANCH   8  12
ATOM     12  C   UNL A   1      30.129  26.441  23.996  1.00  0.00     0.228 C 
ATOM     13  N   UNL A   1      29.892  25.131  24.366  1.00  0.00    -0.326 N 
ATOM     14  H   UNL A   1      28.942  24.934  24.534  1.00  0.00     0.169 HD
ATOM     15  O   UNL A   1      29.190  27.200  23.789  1.00  0.00    -0.274 OA
BRANCH  13  16
ATOM     16  C   UNL A   1      30.741  24.019  24.550  1.00  0.00     0.042 A 
ATOM     17  C   UNL A   1      32.671  21.966  24.721  1.00  0.00     0.060 A 
ATOM     18  C   UNL A   1      32.261  22.633  25.864  1.00  0.00     0.030 A 
ATOM     19  C   UNL A   1      31.985  22.194  23.523  1.00  0.00     0.066 A 
ATOM     20  C   UNL A   1      31.316  23.652  25.763  1.00  0.00     0.028 A 
ATOM     21  C   UNL A   1      31.054  23.242  23.430  1.00  0.00     0.048 A 
ATOM     22  Cl  UNL A   1      32.148  21.132  22.170  1.00  0.00    -0.082 Cl
BRANCH  17  23
ATOM     23  N   UNL A   1      33.752  21.089  24.866  1.00  0.00    -0.325 N 
ATOM     24  C   UNL A   1      35.082  21.407  24.873  1.00  0.00     0.226 C 
ATOM     25  O   UNL A   1      35.855  20.553  25.326  1.00  0.00    -0.274 OA
ATOM     26  H   UNL A   1      33.529  20.136  24.976  1.00  0.00     0.169 HD
BRANCH  24  27
ATOM     27  C   UNL A   1      35.653  22.755  24.412  1.00  0.00     0.072 C 
ATOM     28  C   UNL A   1      36.089  23.668  25.546  1.00  0.00     0.018 C 
ATOM     29  C   UNL A   1      36.706  22.662  23.314  1.00  0.00     0.018 C 
ENDBRANCH  24  27
ENDBRANCH  17  23
ENDBRANCH  13  16
ENDBRANCH   8  12
ENDBRANCH   4   7
ENDBRANCH   2   3
ENDBRANCH   1   2
BRANCH   1  30
ATOM     30  C   UNL A   1      34.291  30.316  27.077  1.00  0.00     0.023 C 
BRANCH  30  31
ATOM     31  C   UNL A   1      35.256  29.613  28.016  1.00  0.00     0.116 C 
BRANCH  31  32
ATOM     32  N   UNL A   1      35.354  30.250  29.322  1.00  0.00    -0.352 N 
ATOM     33  C   UNL A   1      36.442  30.345  30.156  1.00  0.00     0.251 C 
ATOM     34  H   UNL A   1      34.528  30.671  29.652  1.00  0.00     0.163 HD
ATOM     35  O   UNL A   1      36.304  30.792  31.291  1.00  0.00    -0.269 OA
BRANCH  33  36
ATOM     36  C   UNL A   1      37.766  29.882  29.686  1.00  0.00     0.039 A 
ATOM     37  C   UNL A   1      38.097  30.020  28.337  1.00  0.00     0.014 A 
ATOM     38  C   UNL A   1      38.687  29.334  30.583  1.00  0.00     0.014 A 
ATOM     39  C   UNL A   1      39.370  29.649  27.902  1.00  0.00     0.010 A 
ATOM     40  C   UNL A   1      39.988  29.074  30.170  1.00  0.00     0.010 A 
ATOM     41  C   UNL A   1      40.335  29.197  28.818  1.00  0.00    -0.014 A 
BRANCH  41  42
ATOM     42  C   UNL A   1      41.689  28.787  28.369  1.00  0.00     0.031 A 
ATOM     43  C   UNL A   1      42.801  29.806  28.324  1.00  0.00     0.074 A 
ATOM     44  C   UNL A   1      41.915  27.513  27.988  1.00  0.00     0.049 A 
ATOM     45  N   UNL A   1      44.048  29.652  27.957  1.00  0.00    -0.248 NA
ATOM     46  C   UNL A   1      42.462  31.186  28.714  1.00  0.00     0.031 C 
ATOM     47  C   UNL A   1      40.906  26.451  27.936  1.00  0.00     0.029 A 
ATOM     48  N   UNL A   1      43.068  26.892  27.582  1.00  0.00    -0.354 N 
ATOM     49  C   UNL A   1      44.635  30.906  28.080  1.00  0.00     0.074 A 
ATOM     50  C   UNL A   1      43.592  31.829  28.463  1.00  0.00     0.031 C 
ATOM     51  C   UNL A   1      41.495  25.302  27.565  1.00  0.00     0.029 A 
ATOM     52  C   UNL A   1      42.911  25.550  27.319  1.00  0.00     0.049 A 
ATOM     53  H   UNL A   1      43.927  27.363  27.486  1.00  0.00     0.167 HD
ATOM     54  C   UNL A   1      45.936  31.254  27.935  1.00  0.00     0.037 A 
ATOM     55  C   UNL A   1      43.813  24.629  26.932  1.00  0.00     0.037 A 
ATOM     56  C   UNL A   1      46.976  30.327  27.577  1.00  0.00     0.049 A 
ATOM     57  C   UNL A   1      45.251  25.048  26.753  1.00  0.00     0.074 A 
ATOM     58  C   UNL A   1      48.330  30.568  27.427  1.00  0.00     0.029 A 
ATOM     59  N   UNL A   1      46.779  28.978  27.323  1.00  0.00    -0.354 N 
ATOM     60  N   UNL A   1      45.797  26.229  26.931  1.00  0.00    -0.248 NA
ATOM     61  C   UNL A   1      46.196  24.006  26.331  1.00  0.00     0.031 C 
ATOM     62  C   UNL A   1      48.945  29.374  27.041  1.00  0.00     0.029 A 
ATOM     63  C   UNL A   1      47.983  28.376  27.004  1.00  0.00     0.049 A 
ATOM     64  H   UNL A   1      45.910  28.516  27.363  1.00  0.00     0.167 HD
ATOM     65  C   UNL A   1      47.155  26.060  26.680  1.00  0.00     0.074 A 
ATOM     66  C   UNL A   1      47.347  24.661  26.361  1.00  0.00     0.031 C 
ATOM     67  C   UNL A   1      48.155  26.977  26.703  1.00  0.00     0.037 A 
BRANCH  54  68
ATOM     68  C   UNL A   1      46.308  32.687  28.200  1.00  0.00     0.058 A 
ATOM     69  C   UNL A   1      46.277  33.652  27.179  1.00  0.00     0.135 A 
ATOM     70  C   UNL A   1      46.660  33.115  29.490  1.00  0.00     0.135 A 
ATOM     71  F   UNL A   1      45.969  33.296  25.921  1.00  0.00    -0.206 F 
ATOM     72  C   UNL A   1      46.601  34.982  27.422  1.00  0.00     0.059 A 
ATOM     73  C   UNL A   1      46.957  34.447  29.763  1.00  0.00     0.059 A 
ATOM     74  F   UNL A   1      46.712  32.236  30.503  1.00  0.00    -0.206 F 
ATOM     75  C   UNL A   1      46.935  35.371  28.719  1.00  0.00     0.060 A 
BRANCH  75  76
ATOM     76  S   UNL A   1      47.326  37.108  29.018  1.00  0.00     0.124 S 
ATOM     77  O   UNL A   1      46.748  37.744  27.837  1.00  0.00    -0.237 OA
ATOM     78  O   UNL A   1      46.637  37.367  30.278  1.00  0.00    -0.237 OA
ATOM     79  O   UNL A   1      48.783  37.123  29.087  1.00  0.00    -0.744 OA
ENDBRANCH  75  76
ENDBRANCH  54  68
BRANCH  55  80
ATOM     80  C   UNL A   1      43.407  23.213  26.710  1.00  0.00     0.058 A 
ATOM     81  C   UNL A   1      43.102  22.371  27.791  1.00  0.00     0.135 A 
ATOM     82  C   UNL A   1      43.361  22.659  25.421  1.00  0.00     0.135 A 
ATOM     83  F   UNL A   1      43.132  22.850  29.044  1.00  0.00    -0.206 F 
ATOM     84  C   UNL A   1      42.813  21.022  27.609  1.00  0.00     0.059 A 
ATOM     85  C   UNL A   1      43.042  21.321  25.211  1.00  0.00     0.059 A 
ATOM     86  F   UNL A   1      43.622  23.423  24.350  1.00  0.00    -0.206 F 
ATOM     87  C   UNL A   1      42.793  20.505  26.313  1.00  0.00     0.060 A 
BRANCH  87  88
ATOM     88  S   UNL A   1      42.427  18.751  26.085  1.00  0.00     0.124 S 
ATOM     89  O   UNL A   1      41.026  18.795  25.684  1.00  0.00    -0.237 OA
ATOM     90  O   UNL A   1      43.378  18.370  25.046  1.00  0.00    -0.237 OA
ATOM     91  O   UNL A   1      42.689  18.181  27.403  1.00  0.00    -0.744 OA
ENDBRANCH  87  88
ENDBRANCH  55  80
BRANCH  67  92
ATOM     92  C   UNL A   1      49.547  26.482  26.421  1.00  0.00     0.058 A 
ATOM     93  C   UNL A   1      50.105  26.535  25.134  1.00  0.00     0.135 A 
ATOM     94  C   UNL A   1      50.341  25.965  27.459  1.00  0.00     0.135 A 
ATOM     95  F   UNL A   1      49.389  27.019  24.106  1.00  0.00    -0.206 F 
ATOM     96  C   UNL A   1      51.382  26.048  24.876  1.00  0.00     0.059 A 
ATOM     97  C   UNL A   1      51.633  25.506  27.229  1.00  0.00     0.059 A 
ATOM     98  F   UNL A   1      49.863  25.908  28.712  1.00  0.00    -0.206 F 
ATOM     99  C   UNL A   1      52.137  25.532  25.930  1.00  0.00     0.060 A 
BRANCH  99 100
ATOM    100  S   UNL A   1      53.792  24.903  25.581  1.00  0.00     0.124 S 
ATOM    101  O   UNL A   1      54.163  25.693  24.411  1.00  0.00    -0.237 OA
ATOM    102  O   UNL A   1      54.511  25.216  26.812  1.00  0.00    -0.237 OA
ATOM    103  O   UNL A   1      53.571  23.481  25.334  1.00  0.00    -0.744 OA
ENDBRANCH  99 100
ENDBRANCH  67  92
ENDBRANCH  41  42
ENDBRANCH  33  36
ENDBRANCH  31  32
ENDBRANCH  30  31
ENDBRANCH   1  30
TORSDOF 18
ENDMDL
