MODEL 1
REMARK VINA RESULT:     -12.0      0.000      0.000
REMARK SMILES O=C(NCCCCNC(=O)[C@@H]1CCn2c(C(=O)c3ccccc3)ccc21)c1ccc(-c2c3nc(c(-c4c(F)cc(S(=O)(=O)[O-])cc4F)c4ccc([nH]4)c(-c4c(F)cc(S(=O)(=O)[O-])cc4F)c4nc(c(-c5c(F)cc(S(=O)(=O)[O-])cc5F)c5ccc2[nH]5)C=C4)C=C3)cc1
REMARK SMILES IDX 5 1 4 2 3 3 1 4 2 5 27 7 28 8 92 9 29 10 91 11 30 12 31 13
REMARK SMILES IDX 32 14 85 15 33 16 90 17 84 18 86 19 34 20 89 21 83 22 82 23
REMARK SMILES IDX 35 25 69 26 48 27 68 28 49 29 52 30 67 31 87 32 50 33 51 34
REMARK SMILES IDX 66 36 88 37 53 38 36 39 37 40 46 41 38 42 39 43 45 44 47 45
REMARK SMILES IDX 40 46 41 47 42 48 43 49 44 50 70 51 71 52 80 53 72 54 73 55
REMARK SMILES IDX 79 56 81 57 74 58 75 59 76 60 77 61 78 62 54 63 55 64 64 65
REMARK SMILES IDX 56 66 57 67 63 68 65 69 58 70 59 71 60 72 61 73 62 74 6 75
REMARK SMILES IDX 7 76 8 77 9 78 10 80 11 81 12 82 26 83 13 84 14 85 25 86
REMARK SMILES IDX 15 87 24 88 16 89 17 90 18 91 19 92 23 93 20 94 22 95 21 96
REMARK H PARENT 3 6 86 24 52 35 8 79
REMARK Flexibility Score: inf
ROOT
ATOM      1  C   UNL A   1      33.623  28.309  25.718  1.00  0.00     0.023 C 
ENDROOT
BRANCH   1   2
ATOM      2  C   UNL A   1      33.628  28.462  27.229  1.00  0.00     0.116 C 
BRANCH   2   3
ATOM      3  N   UNL A   1      33.535  29.845  27.681  1.00  0.00    -0.352 N 
ATOM      4  O   UNL A   1      34.281  31.751  28.643  1.00  0.00    -0.269 OA
ATOM      5  C   UNL A   1      34.528  30.621  28.235  1.00  0.00     0.251 C 
ATOM      6  H   UNL A   1      32.656  30.276  27.578  1.00  0.00     0.163 HD
BRANCH   5   7
ATOM      7  C   UNL A   1      35.881  30.044  28.374  1.00  0.00     0.039 A 
ATOM      8  C   UNL A   1      36.297  29.528  29.603  1.00  0.00     0.014 A 
ATOM      9  C   UNL A   1      36.766  30.111  27.295  1.00  0.00     0.014 A 
ATOM     10  C   UNL A   1      37.641  29.249  29.805  1.00  0.00     0.010 A 
ATOM     11  C   UNL A   1      38.101  29.741  27.478  1.00  0.00     0.010 A 
ATOM     12  C   UNL A   1      38.560  29.357  28.748  1.00  0.00    -0.014 A 
BRANCH  12  13
ATOM     13  C   UNL A   1      39.990  29.053  29.005  1.00  0.00     0.031 A 
ATOM     14  C   UNL A   1      40.592  27.736  28.595  1.00  0.00     0.074 A 
ATOM     15  C   UNL A   1      40.761  30.010  29.558  1.00  0.00     0.049 A 
ATOM     16  N   UNL A   1      41.832  27.332  28.699  1.00  0.00    -0.248 NA
ATOM     17  C   UNL A   1      39.687  26.739  28.001  1.00  0.00     0.031 C 
ATOM     18  C   UNL A   1      40.283  31.322  30.003  1.00  0.00     0.029 A 
ATOM     19  N   UNL A   1      42.106  30.044  29.810  1.00  0.00    -0.354 N 
ATOM     20  C   UNL A   1      41.853  26.028  28.219  1.00  0.00     0.074 A 
ATOM     21  C   UNL A   1      40.497  25.702  27.831  1.00  0.00     0.031 C 
ATOM     22  C   UNL A   1      41.328  32.054  30.412  1.00  0.00     0.029 A 
ATOM     23  C   UNL A   1      42.539  31.247  30.311  1.00  0.00     0.049 A 
ATOM     24  H   UNL A   1      42.707  29.280  29.647  1.00  0.00     0.167 HD
ATOM     25  C   UNL A   1      42.907  25.183  28.110  1.00  0.00     0.037 A 
ATOM     26  C   UNL A   1      43.774  31.659  30.653  1.00  0.00     0.037 A 
ATOM     27  C   UNL A   1      44.261  25.527  28.462  1.00  0.00     0.049 A 
ATOM     28  C   UNL A   1      44.929  30.717  30.486  1.00  0.00     0.074 A 
ATOM     29  C   UNL A   1      45.403  24.751  28.359  1.00  0.00     0.029 A 
ATOM     30  N   UNL A   1      44.658  26.754  28.976  1.00  0.00    -0.354 N 
ATOM     31  N   UNL A   1      44.928  29.490  30.023  1.00  0.00    -0.248 NA
ATOM     32  C   UNL A   1      46.250  31.212  30.892  1.00  0.00     0.031 C 
ATOM     33  C   UNL A   1      46.487  25.501  28.835  1.00  0.00     0.029 A 
ATOM     34  C   UNL A   1      46.024  26.753  29.203  1.00  0.00     0.049 A 
ATOM     35  H   UNL A   1      44.056  27.512  29.154  1.00  0.00     0.167 HD
ATOM     36  C   UNL A   1      46.250  29.069  30.071  1.00  0.00     0.074 A 
ATOM     37  C   UNL A   1      47.024  30.178  30.590  1.00  0.00     0.031 C 
ATOM     38  C   UNL A   1      46.776  27.870  29.719  1.00  0.00     0.037 A 
BRANCH  25  39
ATOM     39  C   UNL A   1      42.636  23.790  27.609  1.00  0.00     0.058 A 
ATOM     40  C   UNL A   1      42.556  23.499  26.239  1.00  0.00     0.135 A 
ATOM     41  C   UNL A   1      42.488  22.728  28.515  1.00  0.00     0.135 A 
ATOM     42  F   UNL A   1      42.674  24.480  25.331  1.00  0.00    -0.206 F 
ATOM     43  C   UNL A   1      42.313  22.205  25.784  1.00  0.00     0.059 A 
ATOM     44  C   UNL A   1      42.265  21.424  28.083  1.00  0.00     0.059 A 
ATOM     45  F   UNL A   1      42.556  22.953  29.837  1.00  0.00    -0.206 F 
ATOM     46  C   UNL A   1      42.163  21.175  26.715  1.00  0.00     0.060 A 
BRANCH  46  47
ATOM     47  S   UNL A   1      41.842  19.502  26.116  1.00  0.00     0.124 S 
ATOM     48  O   UNL A   1      42.703  19.446  24.939  1.00  0.00    -0.237 OA
ATOM     49  O   UNL A   1      42.258  18.676  27.244  1.00  0.00    -0.237 OA
ATOM     50  O   UNL A   1      40.407  19.509  25.845  1.00  0.00    -0.744 OA
ENDBRANCH  46  47
ENDBRANCH  25  39
BRANCH  26  51
ATOM     51  C   UNL A   1      43.969  33.037  31.168  1.00  0.00     0.058 A 
ATOM     52  C   UNL A   1      43.945  33.299  32.545  1.00  0.00     0.135 A 
ATOM     53  C   UNL A   1      44.233  34.107  30.300  1.00  0.00     0.135 A 
ATOM     54  F   UNL A   1      43.698  32.307  33.414  1.00  0.00    -0.206 F 
ATOM     55  C   UNL A   1      44.169  34.578  33.045  1.00  0.00     0.059 A 
ATOM     56  C   UNL A   1      44.482  35.388  30.776  1.00  0.00     0.059 A 
ATOM     57  F   UNL A   1      44.286  33.899  28.974  1.00  0.00    -0.206 F 
ATOM     58  C   UNL A   1      44.441  35.615  32.151  1.00  0.00     0.060 A 
BRANCH  58  59
ATOM     59  S   UNL A   1      44.804  37.259  32.806  1.00  0.00     0.124 S 
ATOM     60  O   UNL A   1      45.933  36.980  33.686  1.00  0.00    -0.237 OA
ATOM     61  O   UNL A   1      45.109  38.015  31.596  1.00  0.00    -0.237 OA
ATOM     62  O   UNL A   1      43.559  37.633  33.470  1.00  0.00    -0.744 OA
ENDBRANCH  58  59
ENDBRANCH  26  51
BRANCH  38  63
ATOM     63  C   UNL A   1      48.260  27.712  29.865  1.00  0.00     0.058 A 
ATOM     64  C   UNL A   1      48.831  27.218  31.047  1.00  0.00     0.135 A 
ATOM     65  C   UNL A   1      49.119  28.048  28.806  1.00  0.00     0.135 A 
ATOM     66  F   UNL A   1      48.052  26.892  32.090  1.00  0.00    -0.206 F 
ATOM     67  C   UNL A   1      50.209  27.088  31.187  1.00  0.00     0.059 A 
ATOM     68  C   UNL A   1      50.498  27.907  28.917  1.00  0.00     0.059 A 
ATOM     69  F   UNL A   1      48.618  28.517  27.653  1.00  0.00    -0.206 F 
ATOM     70  C   UNL A   1      51.035  27.441  30.117  1.00  0.00     0.060 A 
BRANCH  70  71
ATOM     71  S   UNL A   1      52.821  27.263  30.300  1.00  0.00     0.124 S 
ATOM     72  O   UNL A   1      53.142  28.398  31.160  1.00  0.00    -0.237 OA
ATOM     73  O   UNL A   1      52.948  25.946  30.916  1.00  0.00    -0.237 OA
ATOM     74  O   UNL A   1      53.310  27.355  28.927  1.00  0.00    -0.744 OA
ENDBRANCH  70  71
ENDBRANCH  38  63
ENDBRANCH  12  13
ENDBRANCH   5   7
ENDBRANCH   2   3
ENDBRANCH   1   2
BRANCH   1  75
ATOM     75  C   UNL A   1      32.954  29.447  24.954  1.00  0.00     0.023 C 
BRANCH  75  76
ATOM     76  C   UNL A   1      31.426  29.377  24.883  1.00  0.00     0.116 C 
BRANCH  76  77
ATOM     77  N   UNL A   1      30.926  29.808  23.593  1.00  0.00    -0.356 N 
ATOM     78  C   UNL A   1      30.432  29.119  22.525  1.00  0.00     0.229 C 
ATOM     79  H   UNL A   1      30.945  30.783  23.463  1.00  0.00     0.163 HD
ATOM     80  O   UNL A   1      30.020  29.822  21.595  1.00  0.00    -0.274 OA
BRANCH  78  81
ATOM     81  C   UNL A   1      30.278  27.583  22.510  1.00  0.00     0.127 C 
ATOM     82  C   UNL A   1      29.559  26.912  23.703  1.00  0.00     0.042 C 
ATOM     83  C   UNL A   1      31.615  26.902  22.591  1.00  0.00     0.031 A 
ATOM     84  C   UNL A   1      30.285  25.604  24.003  1.00  0.00     0.124 C 
ATOM     85  N   UNL A   1      31.600  25.834  23.445  1.00  0.00    -0.341 N 
ATOM     86  C   UNL A   1      32.882  27.011  22.081  1.00  0.00     0.025 A 
ATOM     87  C   UNL A   1      32.833  25.275  23.595  1.00  0.00     0.090 A 
ATOM     88  C   UNL A   1      33.647  25.994  22.716  1.00  0.00     0.032 A 
BRANCH  87  89
ATOM     89  C   UNL A   1      33.268  24.204  24.479  1.00  0.00     0.209 C 
ATOM     90  O   UNL A   1      32.504  23.560  25.195  1.00  0.00    -0.287 OA
BRANCH  89  91
ATOM     91  C   UNL A   1      34.689  23.803  24.514  1.00  0.00     0.024 A 
ATOM     92  C   UNL A   1      35.474  24.196  25.603  1.00  0.00     0.012 A 
ATOM     93  C   UNL A   1      35.235  23.034  23.481  1.00  0.00     0.012 A 
ATOM     94  C   UNL A   1      36.801  23.774  25.682  1.00  0.00     0.001 A 
ATOM     95  C   UNL A   1      36.560  22.604  23.572  1.00  0.00     0.001 A 
ATOM     96  C   UNL A   1      37.337  22.969  24.675  1.00  0.00     0.000 A 
ENDBRANCH  89  91
ENDBRANCH  87  89
ENDBRANCH  78  81
ENDBRANCH  76  77
ENDBRANCH  75  76
ENDBRANCH   1  75
TORSDOF 16
ENDMDL
MODEL 2
REMARK VINA RESULT:     -11.9      0.303      1.438
REMARK SMILES O=C(NCCCCNC(=O)[C@@H]1CCn2c(C(=O)c3ccccc3)ccc21)c1ccc(-c2c3nc(c(-c4c(F)cc(S(=O)(=O)[O-])cc4F)c4ccc([nH]4)c(-c4c(F)cc(S(=O)(=O)[O-])cc4F)c4nc(c(-c5c(F)cc(S(=O)(=O)[O-])cc5F)c5ccc2[nH]5)C=C4)C=C3)cc1
REMARK SMILES IDX 5 1 4 2 3 3 1 4 2 5 27 7 28 8 92 9 29 10 91 11 30 12 31 13
REMARK SMILES IDX 32 14 85 15 33 16 90 17 84 18 86 19 34 20 89 21 83 22 82 23
REMARK SMILES IDX 35 25 69 26 48 27 68 28 49 29 52 30 67 31 87 32 50 33 51 34
REMARK SMILES IDX 66 36 88 37 53 38 36 39 37 40 46 41 38 42 39 43 45 44 47 45
REMARK SMILES IDX 40 46 41 47 42 48 43 49 44 50 70 51 71 52 80 53 72 54 73 55
REMARK SMILES IDX 79 56 81 57 74 58 75 59 76 60 77 61 78 62 54 63 55 64 64 65
REMARK SMILES IDX 56 66 57 67 63 68 65 69 58 70 59 71 60 72 61 73 62 74 6 75
REMARK SMILES IDX 7 76 8 77 9 78 10 80 11 81 12 82 26 83 13 84 14 85 25 86
REMARK SMILES IDX 15 87 24 88 16 89 17 90 18 91 19 92 23 93 20 94 22 95 21 96
REMARK H PARENT 3 6 86 24 52 35 8 79
REMARK Flexibility Score: inf
ROOT
ATOM      1  C   UNL A   1      33.778  28.154  25.735  1.00  0.00     0.023 C 
ENDROOT
BRANCH   1   2
ATOM      2  C   UNL A   1      33.634  28.365  27.233  1.00  0.00     0.116 C 
BRANCH   2   3
ATOM      3  N   UNL A   1      33.543  29.766  27.624  1.00  0.00    -0.352 N 
ATOM      4  O   UNL A   1      34.294  31.713  28.496  1.00  0.00    -0.269 OA
ATOM      5  C   UNL A   1      34.539  30.565  28.136  1.00  0.00     0.251 C 
ATOM      6  H   UNL A   1      32.664  30.192  27.506  1.00  0.00     0.163 HD
BRANCH   5   7
ATOM      7  C   UNL A   1      35.893  29.995  28.293  1.00  0.00     0.039 A 
ATOM      8  C   UNL A   1      36.295  29.480  29.527  1.00  0.00     0.014 A 
ATOM      9  C   UNL A   1      36.792  30.068  27.227  1.00  0.00     0.014 A 
ATOM     10  C   UNL A   1      37.638  29.208  29.747  1.00  0.00     0.010 A 
ATOM     11  C   UNL A   1      38.126  29.705  27.426  1.00  0.00     0.010 A 
ATOM     12  C   UNL A   1      38.570  29.321  28.702  1.00  0.00    -0.014 A 
BRANCH  12  13
ATOM     13  C   UNL A   1      39.998  29.024  28.978  1.00  0.00     0.031 A 
ATOM     14  C   UNL A   1      40.609  27.707  28.585  1.00  0.00     0.074 A 
ATOM     15  C   UNL A   1      40.759  29.988  29.533  1.00  0.00     0.049 A 
ATOM     16  N   UNL A   1      41.850  27.308  28.706  1.00  0.00    -0.248 NA
ATOM     17  C   UNL A   1      39.715  26.702  27.988  1.00  0.00     0.031 C 
ATOM     18  C   UNL A   1      40.272  31.302  29.962  1.00  0.00     0.029 A 
ATOM     19  N   UNL A   1      42.102  30.029  29.799  1.00  0.00    -0.354 N 
ATOM     20  C   UNL A   1      41.881  26.000  28.237  1.00  0.00     0.074 A 
ATOM     21  C   UNL A   1      40.530  25.666  27.835  1.00  0.00     0.031 C 
ATOM     22  C   UNL A   1      41.310  32.041  30.377  1.00  0.00     0.029 A 
ATOM     23  C   UNL A   1      42.525  31.238  30.296  1.00  0.00     0.049 A 
ATOM     24  H   UNL A   1      42.707  29.266  29.649  1.00  0.00     0.167 HD
ATOM     25  C   UNL A   1      42.938  25.158  28.146  1.00  0.00     0.037 A 
ATOM     26  C   UNL A   1      43.754  31.656  30.649  1.00  0.00     0.037 A 
ATOM     27  C   UNL A   1      44.287  25.509  28.511  1.00  0.00     0.049 A 
ATOM     28  C   UNL A   1      44.914  30.717  30.503  1.00  0.00     0.074 A 
ATOM     29  C   UNL A   1      45.433  24.737  28.427  1.00  0.00     0.029 A 
ATOM     30  N   UNL A   1      44.674  26.742  29.020  1.00  0.00    -0.354 N 
ATOM     31  N   UNL A   1      44.923  29.486  30.049  1.00  0.00    -0.248 NA
ATOM     32  C   UNL A   1      46.229  31.220  30.920  1.00  0.00     0.031 C 
ATOM     33  C   UNL A   1      46.509  25.494  28.910  1.00  0.00     0.029 A 
ATOM     34  C   UNL A   1      46.037  26.748  29.263  1.00  0.00     0.049 A 
ATOM     35  H   UNL A   1      44.067  27.499  29.185  1.00  0.00     0.167 HD
ATOM     36  C   UNL A   1      46.245  29.070  30.115  1.00  0.00     0.074 A 
ATOM     37  C   UNL A   1      47.010  30.186  30.635  1.00  0.00     0.031 C 
ATOM     38  C   UNL A   1      46.779  27.870  29.779  1.00  0.00     0.037 A 
BRANCH  25  39
ATOM     39  C   UNL A   1      42.678  23.761  27.653  1.00  0.00     0.058 A 
ATOM     40  C   UNL A   1      42.469  22.691  28.537  1.00  0.00     0.135 A 
ATOM     41  C   UNL A   1      42.605  23.498  26.276  1.00  0.00     0.135 A 
ATOM     42  F   UNL A   1      42.544  22.885  29.862  1.00  0.00    -0.206 F 
ATOM     43  C   UNL A   1      42.220  21.402  28.071  1.00  0.00     0.059 A 
ATOM     44  C   UNL A   1      42.337  22.222  25.789  1.00  0.00     0.059 A 
ATOM     45  F   UNL A   1      42.797  24.486  25.388  1.00  0.00    -0.206 F 
ATOM     46  C   UNL A   1      42.162  21.176  26.695  1.00  0.00     0.060 A 
BRANCH  46  47
ATOM     47  S   UNL A   1      41.845  19.500  26.101  1.00  0.00     0.124 S 
ATOM     48  O   UNL A   1      42.713  19.440  24.930  1.00  0.00    -0.237 OA
ATOM     49  O   UNL A   1      42.255  18.680  27.236  1.00  0.00    -0.237 OA
ATOM     50  O   UNL A   1      40.412  19.506  25.821  1.00  0.00    -0.744 OA
ENDBRANCH  46  47
ENDBRANCH  25  39
BRANCH  26  51
ATOM     51  C   UNL A   1      43.939  33.039  31.156  1.00  0.00     0.058 A 
ATOM     52  C   UNL A   1      43.852  33.319  32.527  1.00  0.00     0.135 A 
ATOM     53  C   UNL A   1      44.254  34.095  30.288  1.00  0.00     0.135 A 
ATOM     54  F   UNL A   1      43.553  32.341  33.395  1.00  0.00    -0.206 F 
ATOM     55  C   UNL A   1      44.065  34.602  33.021  1.00  0.00     0.059 A 
ATOM     56  C   UNL A   1      44.494  35.380  30.760  1.00  0.00     0.059 A 
ATOM     57  F   UNL A   1      44.369  33.869  28.969  1.00  0.00    -0.206 F 
ATOM     58  C   UNL A   1      44.389  35.624  32.129  1.00  0.00     0.060 A 
BRANCH  58  59
ATOM     59  S   UNL A   1      44.738  37.273  32.780  1.00  0.00     0.124 S 
ATOM     60  O   UNL A   1      46.136  37.445  32.405  1.00  0.00    -0.237 OA
ATOM     61  O   UNL A   1      43.777  38.102  32.058  1.00  0.00    -0.237 OA
ATOM     62  O   UNL A   1      44.477  37.127  34.208  1.00  0.00    -0.744 OA
ENDBRANCH  58  59
ENDBRANCH  26  51
BRANCH  38  63
ATOM     63  C   UNL A   1      48.262  27.719  29.943  1.00  0.00     0.058 A 
ATOM     64  C   UNL A   1      49.152  28.048  28.910  1.00  0.00     0.135 A 
ATOM     65  C   UNL A   1      48.800  27.251  31.153  1.00  0.00     0.135 A 
ATOM     66  F   UNL A   1      48.685  28.492  27.733  1.00  0.00    -0.206 F 
ATOM     67  C   UNL A   1      50.526  27.891  29.058  1.00  0.00     0.059 A 
ATOM     68  C   UNL A   1      50.171  27.105  31.331  1.00  0.00     0.059 A 
ATOM     69  F   UNL A   1      47.988  26.930  32.173  1.00  0.00    -0.206 F 
ATOM     70  C   UNL A   1      51.026  27.413  30.272  1.00  0.00     0.060 A 
BRANCH  70  71
ATOM     71  S   UNL A   1      52.810  27.218  30.463  1.00  0.00     0.124 S 
ATOM     72  O   UNL A   1      53.172  26.583  29.201  1.00  0.00    -0.237 OA
ATOM     73  O   UNL A   1      53.263  28.596  30.633  1.00  0.00    -0.237 OA
ATOM     74  O   UNL A   1      52.930  26.375  31.649  1.00  0.00    -0.744 OA
ENDBRANCH  70  71
ENDBRANCH  38  63
ENDBRANCH  12  13
ENDBRANCH   5   7
ENDBRANCH   2   3
ENDBRANCH   1   2
BRANCH   1  75
ATOM     75  C   UNL A   1      33.156  29.241  24.865  1.00  0.00     0.023 C 
BRANCH  75  76
ATOM     76  C   UNL A   1      31.625  29.279  24.861  1.00  0.00     0.116 C 
BRANCH  76  77
ATOM     77  N   UNL A   1      31.100  29.749  23.596  1.00  0.00    -0.356 N 
ATOM     78  C   UNL A   1      30.531  29.099  22.541  1.00  0.00     0.229 C 
ATOM     79  H   UNL A   1      31.167  30.723  23.474  1.00  0.00     0.163 HD
ATOM     80  O   UNL A   1      30.121  29.833  21.634  1.00  0.00    -0.274 OA
BRANCH  78  81
ATOM     81  C   UNL A   1      30.294  27.573  22.519  1.00  0.00     0.127 C 
ATOM     82  C   UNL A   1      29.588  26.929  23.733  1.00  0.00     0.042 C 
ATOM     83  C   UNL A   1      31.596  26.822  22.542  1.00  0.00     0.031 A 
ATOM     84  C   UNL A   1      30.254  25.581  23.993  1.00  0.00     0.124 C 
ATOM     85  N   UNL A   1      31.557  25.747  23.387  1.00  0.00    -0.341 N 
ATOM     86  C   UNL A   1      32.846  26.870  21.983  1.00  0.00     0.025 A 
ATOM     87  C   UNL A   1      32.763  25.123  23.483  1.00  0.00     0.090 A 
ATOM     88  C   UNL A   1      33.580  25.806  22.579  1.00  0.00     0.032 A 
BRANCH  87  89
ATOM     89  C   UNL A   1      33.174  24.020  24.341  1.00  0.00     0.209 C 
ATOM     90  O   UNL A   1      32.385  23.286  24.931  1.00  0.00    -0.287 OA
BRANCH  89  91
ATOM     91  C   UNL A   1      34.607  23.700  24.499  1.00  0.00     0.024 A 
ATOM     92  C   UNL A   1      35.249  22.967  23.495  1.00  0.00     0.012 A 
ATOM     93  C   UNL A   1      35.310  24.132  25.628  1.00  0.00     0.012 A 
ATOM     94  C   UNL A   1      36.615  22.708  23.600  1.00  0.00     0.001 A 
ATOM     95  C   UNL A   1      36.680  23.881  25.720  1.00  0.00     0.001 A 
ATOM     96  C   UNL A   1      37.331  23.176  24.704  1.00  0.00     0.000 A 
ENDBRANCH  89  91
ENDBRANCH  87  89
ENDBRANCH  78  81
ENDBRANCH  76  77
ENDBRANCH  75  76
ENDBRANCH   1  75
TORSDOF 16
ENDMDL
MODEL 3
REMARK VINA RESULT:     -11.6      0.821      8.357
REMARK SMILES O=C(NCCCCNC(=O)[C@@H]1CCn2c(C(=O)c3ccccc3)ccc21)c1ccc(-c2c3nc(c(-c4c(F)cc(S(=O)(=O)[O-])cc4F)c4ccc([nH]4)c(-c4c(F)cc(S(=O)(=O)[O-])cc4F)c4nc(c(-c5c(F)cc(S(=O)(=O)[O-])cc5F)c5ccc2[nH]5)C=C4)C=C3)cc1
REMARK SMILES IDX 5 1 4 2 3 3 1 4 2 5 27 7 28 8 92 9 29 10 91 11 30 12 31 13
REMARK SMILES IDX 32 14 85 15 33 16 90 17 84 18 86 19 34 20 89 21 83 22 82 23
REMARK SMILES IDX 35 25 69 26 48 27 68 28 49 29 52 30 67 31 87 32 50 33 51 34
REMARK SMILES IDX 66 36 88 37 53 38 36 39 37 40 46 41 38 42 39 43 45 44 47 45
REMARK SMILES IDX 40 46 41 47 42 48 43 49 44 50 70 51 71 52 80 53 72 54 73 55
REMARK SMILES IDX 79 56 81 57 74 58 75 59 76 60 77 61 78 62 54 63 55 64 64 65
REMARK SMILES IDX 56 66 57 67 63 68 65 69 58 70 59 71 60 72 61 73 62 74 6 75
REMARK SMILES IDX 7 76 8 77 9 78 10 80 11 81 12 82 26 83 13 84 14 85 25 86
REMARK SMILES IDX 15 87 24 88 16 89 17 90 18 91 19 92 23 93 20 94 22 95 21 96
REMARK H PARENT 3 6 86 24 52 35 8 79
REMARK Flexibility Score: inf
ROOT
ATOM      1  C   UNL A   1      32.977  28.039  25.854  1.00  0.00     0.023 C 
ENDROOT
BRANCH   1   2
ATOM      2  C   UNL A   1      33.530  28.338  27.237  1.00  0.00     0.116 C 
BRANCH   2   3
ATOM      3  N   UNL A   1      33.442  29.742  27.616  1.00  0.00    -0.352 N 
ATOM      4  O   UNL A   1      34.203  31.701  28.451  1.00  0.00    -0.269 OA
ATOM      5  C   UNL A   1      34.445  30.551  28.098  1.00  0.00     0.251 C 
ATOM      6  H   UNL A   1      32.558  30.164  27.514  1.00  0.00     0.163 HD
BRANCH   5   7
ATOM      7  C   UNL A   1      35.805  29.989  28.230  1.00  0.00     0.039 A 
ATOM      8  C   UNL A   1      36.230  29.468  29.454  1.00  0.00     0.014 A 
ATOM      9  C   UNL A   1      36.686  30.074  27.150  1.00  0.00     0.014 A 
ATOM     10  C   UNL A   1      37.577  29.203  29.651  1.00  0.00     0.010 A 
ATOM     11  C   UNL A   1      38.026  29.718  27.326  1.00  0.00     0.010 A 
ATOM     12  C   UNL A   1      38.492  29.329  28.592  1.00  0.00    -0.014 A 
BRANCH  12  13
ATOM     13  C   UNL A   1      39.926  29.039  28.844  1.00  0.00     0.031 A 
ATOM     14  C   UNL A   1      40.807  30.028  29.559  1.00  0.00     0.074 A 
ATOM     15  C   UNL A   1      40.413  27.838  28.475  1.00  0.00     0.049 A 
ATOM     16  N   UNL A   1      42.063  29.910  29.904  1.00  0.00    -0.248 NA
ATOM     17  C   UNL A   1      40.206  31.319  29.927  1.00  0.00     0.031 C 
ATOM     18  C   UNL A   1      39.653  26.804  27.767  1.00  0.00     0.029 A 
ATOM     19  N   UNL A   1      41.644  27.270  28.670  1.00  0.00    -0.354 N 
ATOM     20  C   UNL A   1      42.415  31.117  30.496  1.00  0.00     0.074 A 
ATOM     21  C   UNL A   1      41.240  31.962  30.456  1.00  0.00     0.031 C 
ATOM     22  C   UNL A   1      40.413  25.706  27.646  1.00  0.00     0.029 A 
ATOM     23  C   UNL A   1      41.729  25.977  28.215  1.00  0.00     0.049 A 
ATOM     24  H   UNL A   1      42.396  27.743  29.096  1.00  0.00     0.167 HD
ATOM     25  C   UNL A   1      43.606  31.485  31.026  1.00  0.00     0.037 A 
ATOM     26  C   UNL A   1      42.751  25.103  28.252  1.00  0.00     0.037 A 
ATOM     27  C   UNL A   1      44.761  30.625  31.098  1.00  0.00     0.049 A 
ATOM     28  C   UNL A   1      44.047  25.522  28.878  1.00  0.00     0.074 A 
ATOM     29  C   UNL A   1      46.005  30.894  31.643  1.00  0.00     0.029 A 
ATOM     30  N   UNL A   1      44.810  29.324  30.617  1.00  0.00    -0.354 N 
ATOM     31  N   UNL A   1      44.356  26.667  29.439  1.00  0.00    -0.248 NA
ATOM     32  C   UNL A   1      45.134  24.535  28.874  1.00  0.00     0.031 C 
ATOM     33  C   UNL A   1      46.814  29.764  31.470  1.00  0.00     0.029 A 
ATOM     34  C   UNL A   1      46.063  28.781  30.846  1.00  0.00     0.049 A 
ATOM     35  H   UNL A   1      44.063  28.856  30.177  1.00  0.00     0.167 HD
ATOM     36  C   UNL A   1      45.671  26.534  29.865  1.00  0.00     0.074 A 
ATOM     37  C   UNL A   1      46.092  25.192  29.514  1.00  0.00     0.031 C 
ATOM     38  C   UNL A   1      46.461  27.442  30.489  1.00  0.00     0.037 A 
BRANCH  25  39
ATOM     39  C   UNL A   1      43.733  32.888  31.551  1.00  0.00     0.058 A 
ATOM     40  C   UNL A   1      43.459  33.205  32.891  1.00  0.00     0.135 A 
ATOM     41  C   UNL A   1      44.167  33.924  30.708  1.00  0.00     0.135 A 
ATOM     42  F   UNL A   1      43.026  32.256  33.734  1.00  0.00    -0.206 F 
ATOM     43  C   UNL A   1      43.588  34.506  33.371  1.00  0.00     0.059 A 
ATOM     44  C   UNL A   1      44.322  35.227  31.172  1.00  0.00     0.059 A 
ATOM     45  F   UNL A   1      44.443  33.675  29.419  1.00  0.00    -0.206 F 
ATOM     46  C   UNL A   1      44.014  35.512  32.502  1.00  0.00     0.060 A 
BRANCH  46  47
ATOM     47  S   UNL A   1      44.171  37.197  33.132  1.00  0.00     0.124 S 
ATOM     48  O   UNL A   1      42.979  37.305  33.966  1.00  0.00    -0.237 OA
ATOM     49  O   UNL A   1      45.442  37.151  33.847  1.00  0.00    -0.237 OA
ATOM     50  O   UNL A   1      44.167  38.013  31.921  1.00  0.00    -0.744 OA
ENDBRANCH  46  47
ENDBRANCH  25  39
BRANCH  26  51
ATOM     51  C   UNL A   1      42.570  23.741  27.689  1.00  0.00     0.058 A 
ATOM     52  C   UNL A   1      42.699  23.510  26.312  1.00  0.00     0.135 A 
ATOM     53  C   UNL A   1      42.314  22.640  28.520  1.00  0.00     0.135 A 
ATOM     54  F   UNL A   1      42.944  24.532  25.479  1.00  0.00    -0.206 F 
ATOM     55  C   UNL A   1      42.574  22.233  25.776  1.00  0.00     0.059 A 
ATOM     56  C   UNL A   1      42.208  21.352  28.010  1.00  0.00     0.059 A 
ATOM     57  F   UNL A   1      42.204  22.811  29.847  1.00  0.00    -0.206 F 
ATOM     58  C   UNL A   1      42.332  21.159  26.635  1.00  0.00     0.060 A 
BRANCH  58  59
ATOM     59  S   UNL A   1      42.244  19.492  25.945  1.00  0.00     0.124 S 
ATOM     60  O   UNL A   1      40.821  19.373  25.652  1.00  0.00    -0.237 OA
ATOM     61  O   UNL A   1      43.128  19.586  24.788  1.00  0.00    -0.237 OA
ATOM     62  O   UNL A   1      42.740  18.657  27.034  1.00  0.00    -0.744 OA
ENDBRANCH  58  59
ENDBRANCH  26  51
BRANCH  38  63
ATOM     63  C   UNL A   1      47.848  27.001  30.848  1.00  0.00     0.058 A 
ATOM     64  C   UNL A   1      48.937  27.239  29.995  1.00  0.00     0.135 A 
ATOM     65  C   UNL A   1      48.093  26.342  32.063  1.00  0.00     0.135 A 
ATOM     66  F   UNL A   1      48.751  27.857  28.819  1.00  0.00    -0.206 F 
ATOM     67  C   UNL A   1      50.220  26.814  30.322  1.00  0.00     0.059 A 
ATOM     68  C   UNL A   1      49.372  25.926  32.420  1.00  0.00     0.059 A 
ATOM     69  F   UNL A   1      47.085  26.098  32.914  1.00  0.00    -0.206 F 
ATOM     70  C   UNL A   1      50.426  26.152  31.535  1.00  0.00     0.060 A 
BRANCH  70  71
ATOM     71  S   UNL A   1      52.094  25.610  31.958  1.00  0.00     0.124 S 
ATOM     72  O   UNL A   1      51.883  24.191  32.223  1.00  0.00    -0.237 OA
ATOM     73  O   UNL A   1      52.847  25.923  30.748  1.00  0.00    -0.237 OA
ATOM     74  O   UNL A   1      52.427  26.424  33.124  1.00  0.00    -0.744 OA
ENDBRANCH  70  71
ENDBRANCH  38  63
ENDBRANCH  12  13
ENDBRANCH   5   7
ENDBRANCH   2   3
ENDBRANCH   1   2
BRANCH   1  75
ATOM     75  C   UNL A   1      32.979  29.218  24.887  1.00  0.00     0.023 C 
BRANCH  75  76
ATOM     76  C   UNL A   1      33.066  28.847  23.404  1.00  0.00     0.116 C 
BRANCH  76  77
ATOM     77  N   UNL A   1      31.978  29.422  22.639  1.00  0.00    -0.356 N 
ATOM     78  C   UNL A   1      30.770  28.925  22.248  1.00  0.00     0.229 C 
ATOM     79  H   UNL A   1      32.142  30.347  22.347  1.00  0.00     0.163 HD
ATOM     80  O   UNL A   1      30.041  29.730  21.656  1.00  0.00    -0.274 OA
BRANCH  78  81
ATOM     81  C   UNL A   1      30.282  27.507  22.615  1.00  0.00     0.127 C 
ATOM     82  C   UNL A   1      30.076  27.172  24.109  1.00  0.00     0.042 C 
ATOM     83  C   UNL A   1      31.307  26.469  22.251  1.00  0.00     0.031 A 
ATOM     84  C   UNL A   1      30.539  25.735  24.329  1.00  0.00     0.124 C 
ATOM     85  N   UNL A   1      31.452  25.523  23.227  1.00  0.00    -0.341 N 
ATOM     86  C   UNL A   1      32.174  26.160  21.237  1.00  0.00     0.025 A 
ATOM     87  C   UNL A   1      32.447  24.637  22.944  1.00  0.00     0.090 A 
ATOM     88  C   UNL A   1      32.894  25.013  21.675  1.00  0.00     0.032 A 
BRANCH  87  89
ATOM     89  C   UNL A   1      32.990  23.556  23.755  1.00  0.00     0.209 C 
ATOM     90  O   UNL A   1      32.325  22.600  24.148  1.00  0.00    -0.287 OA
BRANCH  89  91
ATOM     91  C   UNL A   1      34.424  23.543  24.107  1.00  0.00     0.024 A 
ATOM     92  C   UNL A   1      34.831  24.151  25.299  1.00  0.00     0.012 A 
ATOM     93  C   UNL A   1      35.355  22.922  23.269  1.00  0.00     0.012 A 
ATOM     94  C   UNL A   1      36.172  24.094  25.677  1.00  0.00     0.001 A 
ATOM     95  C   UNL A   1      36.694  22.857  23.660  1.00  0.00     0.001 A 
ATOM     96  C   UNL A   1      37.098  23.436  24.865  1.00  0.00     0.000 A 
ENDBRANCH  89  91
ENDBRANCH  87  89
ENDBRANCH  78  81
ENDBRANCH  76  77
ENDBRANCH  75  76
ENDBRANCH   1  75
TORSDOF 16
ENDMDL
