MODEL 1
REMARK VINA RESULT:     -11.6      0.000      0.000
REMARK SMILES CC1(C)CSC[C@](Nc2ccccc2Cl)(C(=O)NCCCCNC(=O)c2ccc(-c3c4nc(c(-c5c(F)cc(S(=O)(=O)[O-])cc5F)c5ccc([nH]5)c(-c5c(F)cc(S(=O)(=O)[O-])cc5F)c5nc(c(-c6c(F)cc(S(=O)(=O)[O-])cc6F)c6ccc3[nH]6)C=C5)C=C4)cc2)C1
REMARK SMILES IDX 21 1 20 2 19 3 18 4 16 5 17 6 7 8 1 9 2 10 3 11 4 12 92 13
REMARK SMILES IDX 5 14 6 15 8 16 9 18 10 19 14 20 11 21 13 22 15 23 12 24
REMARK SMILES IDX 22 25 23 26 24 27 25 29 26 30 27 31 91 32 28 33 90 34 29 35
REMARK SMILES IDX 30 36 31 37 84 38 32 39 89 40 83 41 85 42 33 43 88 44 82 45
REMARK SMILES IDX 81 46 34 48 68 49 47 50 67 51 48 52 51 53 66 54 86 55 49 56
REMARK SMILES IDX 50 57 65 59 87 60 52 61 35 62 36 63 45 64 37 65 38 66 44 67
REMARK SMILES IDX 46 68 39 69 40 70 41 71 42 72 43 73 69 74 70 75 79 76 71 77
REMARK SMILES IDX 72 78 78 79 80 80 73 81 74 82 75 83 76 84 77 85 53 86 54 87
REMARK SMILES IDX 63 88 55 89 56 90 62 91 64 92 57 93 58 94 59 95 60 96 61 97
REMARK H PARENT 18 7 8 17 23 28 85 47 51 58
REMARK Flexibility Score: inf
ROOT
ATOM      1  C   UNL A   1      38.056  20.395  25.327  1.00  0.00     0.023 C 
ENDROOT
BRANCH   1   2
ATOM      2  C   UNL A   1      37.431  21.575  24.582  1.00  0.00     0.023 C 
BRANCH   2   3
ATOM      3  C   UNL A   1      36.936  22.689  25.495  1.00  0.00     0.116 C 
BRANCH   3   4
ATOM      4  N   UNL A   1      36.098  22.185  26.567  1.00  0.00    -0.354 N 
ATOM      5  C   UNL A   1      34.736  22.109  26.677  1.00  0.00     0.246 C 
ATOM      6  O   UNL A   1      34.303  21.595  27.716  1.00  0.00    -0.272 OA
ATOM      7  H   UNL A   1      36.592  21.840  27.346  1.00  0.00     0.163 HD
BRANCH   5   8
ATOM      8  C   UNL A   1      33.768  22.693  25.588  1.00  0.00     0.126 C 
ATOM      9  C   UNL A   1      33.363  24.836  23.089  1.00  0.00     0.012 C 
ATOM     10  C   UNL A   1      33.181  25.123  24.594  1.00  0.00    -0.024 C 
ATOM     11  C   UNL A   1      33.645  26.582  24.829  1.00  0.00     0.012 C 
ATOM     12  C   UNL A   1      31.705  25.022  25.012  1.00  0.00     0.076 C 
ATOM     13  C   UNL A   1      34.091  24.215  25.461  1.00  0.00     0.046 C 
ATOM     14  S   UNL A   1      31.061  23.325  25.018  1.00  0.00    -0.158 SA
ATOM     15  C   UNL A   1      32.313  22.579  26.129  1.00  0.00     0.108 C 
BRANCH   8  16
ATOM     16  N   UNL A   1      33.860  21.995  24.265  1.00  0.00    -0.369 N 
ATOM     17  H   UNL A   1      34.201  22.514  23.500  1.00  0.00     0.161 HD
BRANCH  16  18
ATOM     18  C   UNL A   1      33.500  20.668  24.031  1.00  0.00     0.054 A 
ATOM     19  C   UNL A   1      34.240  19.681  24.709  1.00  0.00     0.027 A 
ATOM     20  C   UNL A   1      32.528  20.216  23.120  1.00  0.00     0.064 A 
ATOM     21  C   UNL A   1      33.901  18.326  24.636  1.00  0.00     0.002 A 
ATOM     22  C   UNL A   1      32.186  18.859  23.043  1.00  0.00     0.023 A 
ATOM     23  Cl  UNL A   1      31.738  21.264  22.000  1.00  0.00    -0.082 Cl
ATOM     24  C   UNL A   1      32.851  17.918  23.823  1.00  0.00     0.002 A 
ENDBRANCH  16  18
ENDBRANCH   8  16
ENDBRANCH   5   8
ENDBRANCH   3   4
ENDBRANCH   2   3
ENDBRANCH   1   2
BRANCH   1  25
ATOM     25  C   UNL A   1      39.383  20.695  26.018  1.00  0.00     0.116 C 
BRANCH  25  26
ATOM     26  N   UNL A   1      40.289  19.556  26.049  1.00  0.00    -0.352 N 
ATOM     27  C   UNL A   1      41.659  19.563  26.172  1.00  0.00     0.251 C 
ATOM     28  H   UNL A   1      39.869  18.669  25.972  1.00  0.00     0.163 HD
ATOM     29  O   UNL A   1      42.300  18.523  26.070  1.00  0.00    -0.269 OA
BRANCH  27  30
ATOM     30  C   UNL A   1      42.346  20.852  26.396  1.00  0.00     0.039 A 
ATOM     31  C   UNL A   1      42.689  21.637  25.294  1.00  0.00     0.014 A 
ATOM     32  C   UNL A   1      42.585  21.304  27.697  1.00  0.00     0.014 A 
ATOM     33  C   UNL A   1      43.212  22.915  25.500  1.00  0.00     0.010 A 
ATOM     34  C   UNL A   1      43.041  22.602  27.898  1.00  0.00     0.010 A 
ATOM     35  C   UNL A   1      43.356  23.422  26.803  1.00  0.00    -0.014 A 
BRANCH  35  36
ATOM     36  C   UNL A   1      43.829  24.808  27.042  1.00  0.00     0.031 A 
ATOM     37  C   UNL A   1      45.282  25.148  26.859  1.00  0.00     0.074 A 
ATOM     38  C   UNL A   1      42.966  25.741  27.493  1.00  0.00     0.049 A 
ATOM     39  N   UNL A   1      45.903  26.275  27.094  1.00  0.00    -0.248 NA
ATOM     40  C   UNL A   1      46.160  24.068  26.378  1.00  0.00     0.031 C 
ATOM     41  C   UNL A   1      41.542  25.519  27.760  1.00  0.00     0.029 A 
ATOM     42  N   UNL A   1      43.162  27.059  27.818  1.00  0.00    -0.354 N 
ATOM     43  C   UNL A   1      47.241  26.038  26.804  1.00  0.00     0.074 A 
ATOM     44  C   UNL A   1      47.352  24.645  26.427  1.00  0.00     0.031 C 
ATOM     45  C   UNL A   1      40.991  26.666  28.190  1.00  0.00     0.029 A 
ATOM     46  C   UNL A   1      42.025  27.694  28.261  1.00  0.00     0.049 A 
ATOM     47  H   UNL A   1      44.033  27.510  27.741  1.00  0.00     0.167 HD
ATOM     48  C   UNL A   1      48.279  26.907  26.828  1.00  0.00     0.037 A 
ATOM     49  C   UNL A   1      41.838  28.960  28.685  1.00  0.00     0.037 A 
ATOM     50  C   UNL A   1      48.157  28.298  27.175  1.00  0.00     0.049 A 
ATOM     51  C   UNL A   1      43.005  29.911  28.690  1.00  0.00     0.074 A 
ATOM     52  C   UNL A   1      49.137  29.275  27.170  1.00  0.00     0.029 A 
ATOM     53  N   UNL A   1      46.984  28.912  27.588  1.00  0.00    -0.354 N 
ATOM     54  N   UNL A   1      44.252  29.686  28.351  1.00  0.00    -0.248 NA
ATOM     55  C   UNL A   1      42.739  31.288  29.127  1.00  0.00     0.031 C 
ATOM     56  C   UNL A   1      48.564  30.472  27.614  1.00  0.00     0.029 A 
ATOM     57  C   UNL A   1      47.218  30.250  27.855  1.00  0.00     0.049 A 
ATOM     58  H   UNL A   1      46.113  28.462  27.677  1.00  0.00     0.167 HD
ATOM     59  C   UNL A   1      44.914  30.898  28.509  1.00  0.00     0.074 A 
ATOM     60  C   UNL A   1      43.925  31.856  28.963  1.00  0.00     0.031 C 
ATOM     61  C   UNL A   1      46.220  31.192  28.297  1.00  0.00     0.037 A 
BRANCH  48  62
ATOM     62  C   UNL A   1      49.637  26.378  26.459  1.00  0.00     0.058 A 
ATOM     63  C   UNL A   1      50.131  26.471  25.147  1.00  0.00     0.135 A 
ATOM     64  C   UNL A   1      50.468  25.798  27.431  1.00  0.00     0.135 A 
ATOM     65  F   UNL A   1      49.371  27.001  24.175  1.00  0.00    -0.206 F 
ATOM     66  C   UNL A   1      51.387  25.981  24.806  1.00  0.00     0.059 A 
ATOM     67  C   UNL A   1      51.739  25.326  27.118  1.00  0.00     0.059 A 
ATOM     68  F   UNL A   1      50.046  25.683  28.700  1.00  0.00    -0.206 F 
ATOM     69  C   UNL A   1      52.183  25.409  25.798  1.00  0.00     0.060 A 
BRANCH  69  70
ATOM     70  S   UNL A   1      53.812  24.780  25.340  1.00  0.00     0.124 S 
ATOM     71  O   UNL A   1      54.568  25.010  26.568  1.00  0.00    -0.237 OA
ATOM     72  O   UNL A   1      53.531  23.383  25.021  1.00  0.00    -0.237 OA
ATOM     73  O   UNL A   1      54.191  25.615  24.204  1.00  0.00    -0.744 OA
ENDBRANCH  69  70
ENDBRANCH  48  62
BRANCH  49  74
ATOM     74  C   UNL A   1      40.487  29.410  29.113  1.00  0.00     0.058 A 
ATOM     75  C   UNL A   1      40.198  29.632  30.468  1.00  0.00     0.135 A 
ATOM     76  C   UNL A   1      39.464  29.637  28.180  1.00  0.00     0.135 A 
ATOM     77  F   UNL A   1      41.142  29.422  31.397  1.00  0.00    -0.206 F 
ATOM     78  C   UNL A   1      38.937  30.047  30.886  1.00  0.00     0.059 A 
ATOM     79  C   UNL A   1      38.202  30.076  28.571  1.00  0.00     0.059 A 
ATOM     80  F   UNL A   1      39.695  29.457  26.870  1.00  0.00    -0.206 F 
ATOM     81  C   UNL A   1      37.946  30.267  29.929  1.00  0.00     0.060 A 
BRANCH  81  82
ATOM     82  S   UNL A   1      36.327  30.853  30.476  1.00  0.00     0.124 S 
ATOM     83  O   UNL A   1      35.590  30.894  29.218  1.00  0.00    -0.237 OA
ATOM     84  O   UNL A   1      35.926  29.811  31.417  1.00  0.00    -0.237 OA
ATOM     85  O   UNL A   1      36.626  32.148  31.078  1.00  0.00    -0.744 OA
ENDBRANCH  81  82
ENDBRANCH  49  74
BRANCH  61  86
ATOM     86  C   UNL A   1      46.653  32.615  28.518  1.00  0.00     0.058 A 
ATOM     87  C   UNL A   1      47.165  33.047  29.751  1.00  0.00     0.135 A 
ATOM     88  C   UNL A   1      46.607  33.542  27.464  1.00  0.00     0.135 A 
ATOM     89  F   UNL A   1      47.225  32.200  30.791  1.00  0.00    -0.206 F 
ATOM     90  C   UNL A   1      47.597  34.355  29.938  1.00  0.00     0.059 A 
ATOM     91  C   UNL A   1      47.058  34.849  27.621  1.00  0.00     0.059 A 
ATOM     92  F   UNL A   1      46.136  33.176  26.261  1.00  0.00    -0.206 F 
ATOM     93  C   UNL A   1      47.542  35.249  28.866  1.00  0.00     0.060 A 
BRANCH  93  94
ATOM     94  S   UNL A   1      48.140  36.935  29.111  1.00  0.00     0.124 S 
ATOM     95  O   UNL A   1      49.523  36.824  28.663  1.00  0.00    -0.237 OA
ATOM     96  O   UNL A   1      47.254  37.710  28.247  1.00  0.00    -0.237 OA
ATOM     97  O   UNL A   1      47.957  37.154  30.543  1.00  0.00    -0.744 OA
ENDBRANCH  93  94
ENDBRANCH  61  86
ENDBRANCH  35  36
ENDBRANCH  27  30
ENDBRANCH  25  26
ENDBRANCH   1  25
TORSDOF 16
ENDMDL
MODEL 2
REMARK VINA RESULT:     -11.6      6.580     12.100
REMARK SMILES CC1(C)CSC[C@](Nc2ccccc2Cl)(C(=O)NCCCCNC(=O)c2ccc(-c3c4nc(c(-c5c(F)cc(S(=O)(=O)[O-])cc5F)c5ccc([nH]5)c(-c5c(F)cc(S(=O)(=O)[O-])cc5F)c5nc(c(-c6c(F)cc(S(=O)(=O)[O-])cc6F)c6ccc3[nH]6)C=C5)C=C4)cc2)C1
REMARK SMILES IDX 21 1 20 2 19 3 18 4 16 5 17 6 7 8 1 9 2 10 3 11 4 12 92 13
REMARK SMILES IDX 5 14 6 15 8 16 9 18 10 19 14 20 11 21 13 22 15 23 12 24
REMARK SMILES IDX 22 25 23 26 24 27 25 29 26 30 27 31 91 32 28 33 90 34 29 35
REMARK SMILES IDX 30 36 31 37 84 38 32 39 89 40 83 41 85 42 33 43 88 44 82 45
REMARK SMILES IDX 81 46 34 48 68 49 47 50 67 51 48 52 51 53 66 54 86 55 49 56
REMARK SMILES IDX 50 57 65 59 87 60 52 61 35 62 36 63 45 64 37 65 38 66 44 67
REMARK SMILES IDX 46 68 39 69 40 70 41 71 42 72 43 73 69 74 70 75 79 76 71 77
REMARK SMILES IDX 72 78 78 79 80 80 73 81 74 82 75 83 76 84 77 85 53 86 54 87
REMARK SMILES IDX 63 88 55 89 56 90 62 91 64 92 57 93 58 94 59 95 60 96 61 97
REMARK H PARENT 18 7 8 17 23 28 85 47 51 58
REMARK Flexibility Score: inf
ROOT
ATOM      1  C   UNL A   1      32.035  31.802  26.666  1.00  0.00     0.023 C 
ENDROOT
BRANCH   1   2
ATOM      2  C   UNL A   1      31.962  30.292  26.890  1.00  0.00     0.023 C 
BRANCH   2   3
ATOM      3  C   UNL A   1      33.239  29.550  26.515  1.00  0.00     0.116 C 
BRANCH   3   4
ATOM      4  N   UNL A   1      33.569  29.706  25.110  1.00  0.00    -0.354 N 
ATOM      5  C   UNL A   1      33.233  28.945  24.023  1.00  0.00     0.246 C 
ATOM      6  O   UNL A   1      33.643  29.350  22.929  1.00  0.00    -0.272 OA
ATOM      7  H   UNL A   1      34.128  30.490  24.905  1.00  0.00     0.163 HD
BRANCH   5   8
ATOM      8  C   UNL A   1      32.430  27.602  24.150  1.00  0.00     0.126 C 
ATOM      9  C   UNL A   1      31.539  25.066  26.094  1.00  0.00     0.012 C 
ATOM     10  C   UNL A   1      32.829  25.182  25.254  1.00  0.00    -0.024 C 
ATOM     11  C   UNL A   1      33.950  24.477  26.059  1.00  0.00     0.012 C 
ATOM     12  C   UNL A   1      32.687  24.458  23.905  1.00  0.00     0.076 C 
ATOM     13  C   UNL A   1      33.261  26.659  25.075  1.00  0.00     0.046 C 
ATOM     14  S   UNL A   1      31.574  25.293  22.740  1.00  0.00    -0.158 SA
ATOM     15  C   UNL A   1      32.384  26.937  22.744  1.00  0.00     0.108 C 
BRANCH   8  16
ATOM     16  N   UNL A   1      31.031  27.782  24.657  1.00  0.00    -0.369 N 
ATOM     17  H   UNL A   1      30.817  27.408  25.543  1.00  0.00     0.161 HD
BRANCH  16  18
ATOM     18  C   UNL A   1      30.008  28.439  23.973  1.00  0.00     0.054 A 
ATOM     19  C   UNL A   1      30.167  29.821  23.768  1.00  0.00     0.027 A 
ATOM     20  C   UNL A   1      28.794  27.871  23.545  1.00  0.00     0.064 A 
ATOM     21  C   UNL A   1      29.259  30.563  23.003  1.00  0.00     0.002 A 
ATOM     22  C   UNL A   1      27.882  28.610  22.778  1.00  0.00     0.023 A 
ATOM     23  Cl  UNL A   1      28.309  26.271  23.970  1.00  0.00    -0.082 Cl
ATOM     24  C   UNL A   1      28.129  29.947  22.482  1.00  0.00     0.002 A 
ENDBRANCH  16  18
ENDBRANCH   8  16
ENDBRANCH   5   8
ENDBRANCH   3   4
ENDBRANCH   2   3
ENDBRANCH   1   2
BRANCH   1  25
ATOM     25  C   UNL A   1      33.064  32.535  27.522  1.00  0.00     0.116 C 
BRANCH  25  26
ATOM     26  N   UNL A   1      32.725  33.930  27.764  1.00  0.00    -0.352 N 
ATOM     27  C   UNL A   1      33.258  34.783  28.702  1.00  0.00     0.251 C 
ATOM     28  H   UNL A   1      32.028  34.312  27.183  1.00  0.00     0.163 HD
ATOM     29  O   UNL A   1      32.792  35.906  28.861  1.00  0.00    -0.269 OA
BRANCH  27  30
ATOM     30  C   UNL A   1      34.381  34.309  29.537  1.00  0.00     0.039 A 
ATOM     31  C   UNL A   1      34.103  33.632  30.725  1.00  0.00     0.014 A 
ATOM     32  C   UNL A   1      35.699  34.481  29.105  1.00  0.00     0.014 A 
ATOM     33  C   UNL A   1      35.151  33.061  31.450  1.00  0.00     0.010 A 
ATOM     34  C   UNL A   1      36.733  33.853  29.792  1.00  0.00     0.010 A 
ATOM     35  C   UNL A   1      36.469  33.134  30.969  1.00  0.00    -0.014 A 
BRANCH  35  36
ATOM     36  C   UNL A   1      37.587  32.462  31.678  1.00  0.00     0.031 A 
ATOM     37  C   UNL A   1      38.067  32.995  32.998  1.00  0.00     0.074 A 
ATOM     38  C   UNL A   1      38.214  31.418  31.098  1.00  0.00     0.049 A 
ATOM     39  N   UNL A   1      39.076  32.599  33.731  1.00  0.00    -0.248 NA
ATOM     40  C   UNL A   1      37.336  34.146  33.554  1.00  0.00     0.031 C 
ATOM     41  C   UNL A   1      37.874  30.843  29.794  1.00  0.00     0.029 A 
ATOM     42  N   UNL A   1      39.277  30.663  31.526  1.00  0.00    -0.354 N 
ATOM     43  C   UNL A   1      39.109  33.458  34.824  1.00  0.00     0.074 A 
ATOM     44  C   UNL A   1      38.053  34.428  34.632  1.00  0.00     0.031 C 
ATOM     45  C   UNL A   1      38.700  29.815  29.538  1.00  0.00     0.029 A 
ATOM     46  C   UNL A   1      39.648  29.678  30.640  1.00  0.00     0.049 A 
ATOM     47  H   UNL A   1      39.732  30.811  32.386  1.00  0.00     0.167 HD
ATOM     48  C   UNL A   1      39.931  33.425  35.900  1.00  0.00     0.037 A 
ATOM     49  C   UNL A   1      40.643  28.773  30.705  1.00  0.00     0.037 A 
ATOM     50  C   UNL A   1      40.959  32.439  36.100  1.00  0.00     0.049 A 
ATOM     51  C   UNL A   1      41.534  28.749  31.918  1.00  0.00     0.074 A 
ATOM     52  C   UNL A   1      41.802  32.283  37.186  1.00  0.00     0.029 A 
ATOM     53  N   UNL A   1      41.283  31.439  35.195  1.00  0.00    -0.354 N 
ATOM     54  N   UNL A   1      41.512  29.529  32.972  1.00  0.00    -0.248 NA
ATOM     55  C   UNL A   1      42.582  27.719  31.954  1.00  0.00     0.031 C 
ATOM     56  C   UNL A   1      42.661  31.211  36.922  1.00  0.00     0.029 A 
ATOM     57  C   UNL A   1      42.324  30.671  35.691  1.00  0.00     0.049 A 
ATOM     58  H   UNL A   1      40.838  31.295  34.329  1.00  0.00     0.167 HD
ATOM     59  C   UNL A   1      42.522  29.068  33.808  1.00  0.00     0.074 A 
ATOM     60  C   UNL A   1      43.129  27.934  33.142  1.00  0.00     0.031 C 
ATOM     61  C   UNL A   1      42.911  29.540  35.019  1.00  0.00     0.037 A 
BRANCH  48  62
ATOM     62  C   UNL A   1      39.742  34.485  36.950  1.00  0.00     0.058 A 
ATOM     63  C   UNL A   1      38.983  34.247  38.108  1.00  0.00     0.135 A 
ATOM     64  C   UNL A   1      40.349  35.744  36.814  1.00  0.00     0.135 A 
ATOM     65  F   UNL A   1      38.366  33.066  38.280  1.00  0.00    -0.206 F 
ATOM     66  C   UNL A   1      38.808  35.227  39.078  1.00  0.00     0.059 A 
ATOM     67  C   UNL A   1      40.211  36.730  37.786  1.00  0.00     0.059 A 
ATOM     68  F   UNL A   1      41.085  36.026  35.726  1.00  0.00    -0.206 F 
ATOM     69  C   UNL A   1      39.425  36.467  38.907  1.00  0.00     0.060 A 
BRANCH  69  70
ATOM     70  S   UNL A   1      39.191  37.728  40.177  1.00  0.00     0.124 S 
ATOM     71  O   UNL A   1      38.112  38.525  39.599  1.00  0.00    -0.237 OA
ATOM     72  O   UNL A   1      38.834  36.932  41.347  1.00  0.00    -0.237 OA
ATOM     73  O   UNL A   1      40.490  38.388  40.244  1.00  0.00    -0.744 OA
ENDBRANCH  69  70
ENDBRANCH  48  62
BRANCH  49  74
ATOM     74  C   UNL A   1      40.834  27.796  29.600  1.00  0.00     0.058 A 
ATOM     75  C   UNL A   1      41.903  27.923  28.702  1.00  0.00     0.135 A 
ATOM     76  C   UNL A   1      39.961  26.711  29.427  1.00  0.00     0.135 A 
ATOM     77  F   UNL A   1      42.761  28.948  28.823  1.00  0.00    -0.206 F 
ATOM     78  C   UNL A   1      42.092  27.022  27.659  1.00  0.00     0.059 A 
ATOM     79  C   UNL A   1      40.143  25.782  28.407  1.00  0.00     0.059 A 
ATOM     80  F   UNL A   1      38.933  26.533  30.272  1.00  0.00    -0.206 F 
ATOM     81  C   UNL A   1      41.206  25.952  27.521  1.00  0.00     0.060 A 
BRANCH  81  82
ATOM     82  S   UNL A   1      41.487  24.759  26.195  1.00  0.00     0.124 S 
ATOM     83  O   UNL A   1      41.593  25.633  25.032  1.00  0.00    -0.237 OA
ATOM     84  O   UNL A   1      42.724  24.111  26.622  1.00  0.00    -0.237 OA
ATOM     85  O   UNL A   1      40.297  23.915  26.247  1.00  0.00    -0.744 OA
ENDBRANCH  81  82
ENDBRANCH  49  74
BRANCH  61  86
ATOM     86  C   UNL A   1      44.023  28.811  35.720  1.00  0.00     0.058 A 
ATOM     87  C   UNL A   1      43.768  27.748  36.600  1.00  0.00     0.135 A 
ATOM     88  C   UNL A   1      45.363  29.145  35.463  1.00  0.00     0.135 A 
ATOM     89  F   UNL A   1      42.505  27.394  36.883  1.00  0.00    -0.206 F 
ATOM     90  C   UNL A   1      44.803  27.054  37.218  1.00  0.00     0.059 A 
ATOM     91  C   UNL A   1      46.414  28.448  36.050  1.00  0.00     0.059 A 
ATOM     92  F   UNL A   1      45.660  30.147  34.621  1.00  0.00    -0.206 F 
ATOM     93  C   UNL A   1      46.123  27.411  36.935  1.00  0.00     0.060 A 
BRANCH  93  94
ATOM     94  S   UNL A   1      47.459  26.479  37.715  1.00  0.00     0.124 S 
ATOM     95  O   UNL A   1      47.197  26.719  39.129  1.00  0.00    -0.237 OA
ATOM     96  O   UNL A   1      47.208  25.120  37.246  1.00  0.00    -0.237 OA
ATOM     97  O   UNL A   1      48.665  27.106  37.183  1.00  0.00    -0.744 OA
ENDBRANCH  93  94
ENDBRANCH  61  86
ENDBRANCH  35  36
ENDBRANCH  27  30
ENDBRANCH  25  26
ENDBRANCH   1  25
TORSDOF 16
ENDMDL
MODEL 3
REMARK VINA RESULT:     -11.5      0.432      8.217
REMARK SMILES CC1(C)CSC[C@](Nc2ccccc2Cl)(C(=O)NCCCCNC(=O)c2ccc(-c3c4nc(c(-c5c(F)cc(S(=O)(=O)[O-])cc5F)c5ccc([nH]5)c(-c5c(F)cc(S(=O)(=O)[O-])cc5F)c5nc(c(-c6c(F)cc(S(=O)(=O)[O-])cc6F)c6ccc3[nH]6)C=C5)C=C4)cc2)C1
REMARK SMILES IDX 21 1 20 2 19 3 18 4 16 5 17 6 7 8 1 9 2 10 3 11 4 12 92 13
REMARK SMILES IDX 5 14 6 15 8 16 9 18 10 19 14 20 11 21 13 22 15 23 12 24
REMARK SMILES IDX 22 25 23 26 24 27 25 29 26 30 27 31 91 32 28 33 90 34 29 35
REMARK SMILES IDX 30 36 31 37 84 38 32 39 89 40 83 41 85 42 33 43 88 44 82 45
REMARK SMILES IDX 81 46 34 48 68 49 47 50 67 51 48 52 51 53 66 54 86 55 49 56
REMARK SMILES IDX 50 57 65 59 87 60 52 61 35 62 36 63 45 64 37 65 38 66 44 67
REMARK SMILES IDX 46 68 39 69 40 70 41 71 42 72 43 73 69 74 70 75 79 76 71 77
REMARK SMILES IDX 72 78 78 79 80 80 73 81 74 82 75 83 76 84 77 85 53 86 54 87
REMARK SMILES IDX 63 88 55 89 56 90 62 91 64 92 57 93 58 94 59 95 60 96 61 97
REMARK H PARENT 18 7 8 17 23 28 85 47 51 58
REMARK Flexibility Score: inf
ROOT
ATOM      1  C   UNL A   1      38.121  20.468  25.371  1.00  0.00     0.023 C 
ENDROOT
BRANCH   1   2
ATOM      2  C   UNL A   1      37.597  21.679  24.598  1.00  0.00     0.023 C 
BRANCH   2   3
ATOM      3  C   UNL A   1      36.982  22.756  25.483  1.00  0.00     0.116 C 
BRANCH   3   4
ATOM      4  N   UNL A   1      36.166  22.193  26.542  1.00  0.00    -0.354 N 
ATOM      5  C   UNL A   1      34.807  22.080  26.660  1.00  0.00     0.246 C 
ATOM      6  O   UNL A   1      34.394  21.517  27.681  1.00  0.00    -0.272 OA
ATOM      7  H   UNL A   1      36.674  21.830  27.303  1.00  0.00     0.163 HD
BRANCH   5   8
ATOM      8  C   UNL A   1      33.816  22.682  25.601  1.00  0.00     0.126 C 
ATOM      9  C   UNL A   1      33.357  24.867  23.148  1.00  0.00     0.012 C 
ATOM     10  C   UNL A   1      33.206  25.128  24.662  1.00  0.00    -0.024 C 
ATOM     11  C   UNL A   1      33.674  26.583  24.912  1.00  0.00     0.012 C 
ATOM     12  C   UNL A   1      31.739  25.018  25.108  1.00  0.00     0.076 C 
ATOM     13  C   UNL A   1      34.134  24.206  25.493  1.00  0.00     0.046 C 
ATOM     14  S   UNL A   1      31.097  23.320  25.098  1.00  0.00    -0.158 SA
ATOM     15  C   UNL A   1      32.372  22.557  26.170  1.00  0.00     0.108 C 
BRANCH   8  16
ATOM     16  N   UNL A   1      33.881  22.007  24.264  1.00  0.00    -0.369 N 
ATOM     17  H   UNL A   1      34.200  22.541  23.501  1.00  0.00     0.161 HD
BRANCH  16  18
ATOM     18  C   UNL A   1      33.524  20.682  24.017  1.00  0.00     0.054 A 
ATOM     19  C   UNL A   1      34.278  19.689  24.668  1.00  0.00     0.027 A 
ATOM     20  C   UNL A   1      32.540  20.239  23.113  1.00  0.00     0.064 A 
ATOM     21  C   UNL A   1      33.944  18.333  24.580  1.00  0.00     0.002 A 
ATOM     22  C   UNL A   1      32.203  18.881  23.022  1.00  0.00     0.023 A 
ATOM     23  Cl  UNL A   1      31.729  21.299  22.020  1.00  0.00    -0.082 Cl
ATOM     24  C   UNL A   1      32.884  17.932  23.778  1.00  0.00     0.002 A 
ENDBRANCH  16  18
ENDBRANCH   8  16
ENDBRANCH   5   8
ENDBRANCH   3   4
ENDBRANCH   2   3
ENDBRANCH   1   2
BRANCH   1  25
ATOM     25  C   UNL A   1      39.457  20.678  26.076  1.00  0.00     0.116 C 
BRANCH  25  26
ATOM     26  N   UNL A   1      40.327  19.512  26.027  1.00  0.00    -0.352 N 
ATOM     27  C   UNL A   1      41.699  19.471  26.110  1.00  0.00     0.251 C 
ATOM     28  H   UNL A   1      39.877  18.643  25.922  1.00  0.00     0.163 HD
ATOM     29  O   UNL A   1      42.304  18.418  25.941  1.00  0.00    -0.269 OA
BRANCH  27  30
ATOM     30  C   UNL A   1      42.433  20.726  26.373  1.00  0.00     0.039 A 
ATOM     31  C   UNL A   1      42.884  21.486  25.293  1.00  0.00     0.014 A 
ATOM     32  C   UNL A   1      42.611  21.174  27.685  1.00  0.00     0.014 A 
ATOM     33  C   UNL A   1      43.456  22.738  25.527  1.00  0.00     0.010 A 
ATOM     34  C   UNL A   1      43.117  22.450  27.911  1.00  0.00     0.010 A 
ATOM     35  C   UNL A   1      43.541  23.246  26.835  1.00  0.00    -0.014 A 
BRANCH  35  36
ATOM     36  C   UNL A   1      44.066  24.609  27.100  1.00  0.00     0.031 A 
ATOM     37  C   UNL A   1      43.129  25.703  27.530  1.00  0.00     0.074 A 
ATOM     38  C   UNL A   1      45.369  24.878  26.883  1.00  0.00     0.049 A 
ATOM     39  N   UNL A   1      43.378  26.971  27.732  1.00  0.00    -0.248 NA
ATOM     40  C   UNL A   1      41.720  25.328  27.731  1.00  0.00     0.031 C 
ATOM     41  C   UNL A   1      46.366  23.913  26.414  1.00  0.00     0.029 A 
ATOM     42  N   UNL A   1      46.076  26.046  27.016  1.00  0.00    -0.354 N 
ATOM     43  C   UNL A   1      42.158  27.547  28.068  1.00  0.00     0.074 A 
ATOM     44  C   UNL A   1      41.161  26.501  27.992  1.00  0.00     0.031 C 
ATOM     45  C   UNL A   1      47.559  24.524  26.316  1.00  0.00     0.029 A 
ATOM     46  C   UNL A   1      47.406  25.928  26.684  1.00  0.00     0.049 A 
ATOM     47  H   UNL A   1      45.672  26.889  27.322  1.00  0.00     0.167 HD
ATOM     48  C   UNL A   1      41.897  28.826  28.430  1.00  0.00     0.037 A 
ATOM     49  C   UNL A   1      48.388  26.850  26.668  1.00  0.00     0.037 A 
ATOM     50  C   UNL A   1      42.898  29.854  28.533  1.00  0.00     0.049 A 
ATOM     51  C   UNL A   1      48.076  28.262  27.087  1.00  0.00     0.074 A 
ATOM     52  C   UNL A   1      42.746  31.164  28.950  1.00  0.00     0.029 A 
ATOM     53  N   UNL A   1      44.239  29.689  28.218  1.00  0.00    -0.354 N 
ATOM     54  N   UNL A   1      46.929  28.775  27.463  1.00  0.00    -0.248 NA
ATOM     55  C   UNL A   1      49.192  29.218  27.086  1.00  0.00     0.031 C 
ATOM     56  C   UNL A   1      43.988  31.802  28.853  1.00  0.00     0.029 A 
ATOM     57  C   UNL A   1      44.922  30.877  28.417  1.00  0.00     0.049 A 
ATOM     58  H   UNL A   1      44.645  28.850  27.901  1.00  0.00     0.167 HD
ATOM     59  C   UNL A   1      47.189  30.105  27.768  1.00  0.00     0.074 A 
ATOM     60  C   UNL A   1      48.605  30.315  27.544  1.00  0.00     0.031 C 
ATOM     61  C   UNL A   1      46.334  31.066  28.197  1.00  0.00     0.037 A 
BRANCH  48  62
ATOM     62  C   UNL A   1      40.471  29.180  28.749  1.00  0.00     0.058 A 
ATOM     63  C   UNL A   1      40.024  29.301  30.075  1.00  0.00     0.135 A 
ATOM     64  C   UNL A   1      39.548  29.432  27.722  1.00  0.00     0.135 A 
ATOM     65  F   UNL A   1      40.860  29.055  31.096  1.00  0.00    -0.206 F 
ATOM     66  C   UNL A   1      38.705  29.628  30.371  1.00  0.00     0.059 A 
ATOM     67  C   UNL A   1      38.231  29.788  27.994  1.00  0.00     0.059 A 
ATOM     68  F   UNL A   1      39.923  29.330  26.437  1.00  0.00    -0.206 F 
ATOM     69  C   UNL A   1      37.815  29.868  29.323  1.00  0.00     0.060 A 
BRANCH  69  70
ATOM     70  S   UNL A   1      36.107  30.295  29.723  1.00  0.00     0.124 S 
ATOM     71  O   UNL A   1      36.166  31.754  29.726  1.00  0.00    -0.237 OA
ATOM     72  O   UNL A   1      35.367  29.693  28.619  1.00  0.00    -0.237 OA
ATOM     73  O   UNL A   1      35.898  29.673  31.027  1.00  0.00    -0.744 OA
ENDBRANCH  69  70
ENDBRANCH  48  62
BRANCH  49  74
ATOM     74  C   UNL A   1      49.767  26.462  26.268  1.00  0.00     0.058 A 
ATOM     75  C   UNL A   1      50.642  25.863  27.186  1.00  0.00     0.135 A 
ATOM     76  C   UNL A   1      50.233  26.670  24.961  1.00  0.00     0.135 A 
ATOM     77  F   UNL A   1      50.244  25.649  28.449  1.00  0.00    -0.206 F 
ATOM     78  C   UNL A   1      51.937  25.500  26.830  1.00  0.00     0.059 A 
ATOM     79  C   UNL A   1      51.516  26.293  24.573  1.00  0.00     0.059 A 
ATOM     80  F   UNL A   1      49.429  27.222  24.039  1.00  0.00    -0.206 F 
ATOM     81  C   UNL A   1      52.364  25.717  25.519  1.00  0.00     0.060 A 
BRANCH  81  82
ATOM     82  S   UNL A   1      54.030  25.198  25.052  1.00  0.00     0.124 S 
ATOM     83  O   UNL A   1      53.857  23.757  24.905  1.00  0.00    -0.237 OA
ATOM     84  O   UNL A   1      54.249  25.945  23.817  1.00  0.00    -0.237 OA
ATOM     85  O   UNL A   1      54.843  25.625  26.186  1.00  0.00    -0.744 OA
ENDBRANCH  81  82
ENDBRANCH  49  74
BRANCH  61  86
ATOM     86  C   UNL A   1      46.909  32.425  28.487  1.00  0.00     0.058 A 
ATOM     87  C   UNL A   1      47.439  32.748  29.746  1.00  0.00     0.135 A 
ATOM     88  C   UNL A   1      46.982  33.395  27.474  1.00  0.00     0.135 A 
ATOM     89  F   UNL A   1      47.388  31.857  30.748  1.00  0.00    -0.206 F 
ATOM     90  C   UNL A   1      48.002  33.995  29.997  1.00  0.00     0.059 A 
ATOM     91  C   UNL A   1      47.564  34.639  27.696  1.00  0.00     0.059 A 
ATOM     92  F   UNL A   1      46.499  33.132  26.250  1.00  0.00    -0.206 F 
ATOM     93  C   UNL A   1      48.062  34.933  28.964  1.00  0.00     0.060 A 
BRANCH  93  94
ATOM     94  S   UNL A   1      48.829  36.534  29.292  1.00  0.00     0.124 S 
ATOM     95  O   UNL A   1      50.231  36.164  29.441  1.00  0.00    -0.237 OA
ATOM     96  O   UNL A   1      48.498  37.292  28.089  1.00  0.00    -0.237 OA
ATOM     97  O   UNL A   1      48.163  36.985  30.511  1.00  0.00    -0.744 OA
ENDBRANCH  93  94
ENDBRANCH  61  86
ENDBRANCH  35  36
ENDBRANCH  27  30
ENDBRANCH  25  26
ENDBRANCH   1  25
TORSDOF 16
ENDMDL
