MODEL 1
REMARK VINA RESULT:     -12.3      0.000      0.000
REMARK SMILES Cc1ccc(NC(=O)C[N@H+]2CCC[C@@H](C(=O)NCCCCNC(=O)c3ccc(-c4c5nc(c(-c6c(F)cc(S(=O)(=O)[O-])cc6F)c6ccc([nH]6)c(-c6c(F)cc(S(=O)(=O)[O-])cc6F)c6nc(c(-c7c(F)cc(S(=O)(=O)[O-])cc7F)c7ccc4[nH]7)C=C6)C=C5)cc3)C2)cc1Cl
REMARK SMILES IDX 19 1 18 2 17 3 15 4 16 5 14 7 10 8 11 9 91 10 12 12 13 13
REMARK SMILES IDX 9 14 7 15 6 16 8 18 5 19 1 20 2 21 3 22 93 23 4 24 92 25
REMARK SMILES IDX 94 26 20 27 21 28 22 29 23 30 24 32 25 33 26 34 90 35 27 36
REMARK SMILES IDX 89 37 28 38 29 39 30 40 83 41 31 42 88 43 82 44 84 45 32 46
REMARK SMILES IDX 87 47 81 48 80 49 33 51 67 52 46 53 66 54 47 55 50 56 65 57
REMARK SMILES IDX 85 58 48 59 49 60 64 62 86 63 51 64 34 65 35 66 44 67 36 68
REMARK SMILES IDX 37 69 43 70 45 71 38 72 39 73 40 74 41 75 42 76 68 77 69 78
REMARK SMILES IDX 78 79 70 80 71 81 77 82 79 83 72 84 73 85 74 86 75 87 76 88
REMARK SMILES IDX 52 89 53 90 62 91 54 92 55 93 61 94 63 95 56 96 57 97 58 98
REMARK SMILES IDX 59 99 60 100
REMARK H PARENT 17 6 10 11 6 17 22 31 84 50 50 61
REMARK Flexibility Score: inf
ROOT
ATOM      1  C   UNL A   1      38.875  22.787  26.425  1.00  0.00     0.023 C 
ENDROOT
BRANCH   1   2
ATOM      2  C   UNL A   1      38.097  21.808  25.548  1.00  0.00     0.116 C 
BRANCH   2   3
ATOM      3  N   UNL A   1      37.420  22.514  24.475  1.00  0.00    -0.356 N 
ATOM      4  C   UNL A   1      36.114  22.480  24.092  1.00  0.00     0.228 C 
ATOM      5  O   UNL A   1      35.820  23.013  23.021  1.00  0.00    -0.275 OA
ATOM      6  H   UNL A   1      37.995  23.110  23.944  1.00  0.00     0.163 HD
BRANCH   4   7
ATOM      7  C   UNL A   1      35.052  21.932  25.039  1.00  0.00     0.133 C 
ATOM      8  N   UNL A   1      32.588  22.411  25.469  1.00  0.00    -0.326 N 
ATOM      9  C   UNL A   1      32.254  21.024  25.130  1.00  0.00     0.262 C 
ATOM     10  C   UNL A   1      33.838  22.844  24.839  1.00  0.00     0.276 C 
ATOM     11  H   UNL A   1      32.742  22.434  26.477  1.00  0.00     0.348 HD
ATOM     12  C   UNL A   1      33.421  20.085  25.461  1.00  0.00     0.062 C 
ATOM     13  C   UNL A   1      34.684  20.489  24.702  1.00  0.00     0.025 C 
BRANCH   8  14
ATOM     14  C   UNL A   1      31.464  23.352  25.199  1.00  0.00     0.363 C 
BRANCH  14  15
ATOM     15  C   UNL A   1      30.725  23.896  26.437  1.00  0.00     0.279 C 
ATOM     16  N   UNL A   1      30.248  25.179  26.543  1.00  0.00    -0.321 N 
ATOM     17  H   UNL A   1      29.792  25.365  27.395  1.00  0.00     0.170 HD
ATOM     18  O   UNL A   1      30.474  23.135  27.384  1.00  0.00    -0.268 OA
BRANCH  16  19
ATOM     19  C   UNL A   1      30.285  26.278  25.667  1.00  0.00     0.042 A 
ATOM     20  C   UNL A   1      30.679  29.005  22.337  1.00  0.00     0.046 C 
ATOM     21  C   UNL A   1      30.495  28.147  23.555  1.00  0.00    -0.032 A 
ATOM     22  C   UNL A   1      29.474  27.188  23.565  1.00  0.00     0.007 A 
ATOM     23  C   UNL A   1      31.360  28.201  24.657  1.00  0.00     0.046 A 
ATOM     24  C   UNL A   1      29.357  26.277  24.619  1.00  0.00     0.026 A 
ATOM     25  C   UNL A   1      31.230  27.297  25.721  1.00  0.00     0.047 A 
ATOM     26  Cl  UNL A   1      32.680  29.315  24.717  1.00  0.00    -0.084 Cl
ENDBRANCH  16  19
ENDBRANCH  14  15
ENDBRANCH   8  14
ENDBRANCH   4   7
ENDBRANCH   2   3
ENDBRANCH   1   2
BRANCH   1  27
ATOM     27  C   UNL A   1      40.169  22.217  27.021  1.00  0.00     0.023 C 
BRANCH  27  28
ATOM     28  C   UNL A   1      41.290  23.228  27.248  1.00  0.00     0.116 C 
BRANCH  28  29
ATOM     29  N   UNL A   1      41.450  24.156  26.140  1.00  0.00    -0.352 N 
ATOM     30  C   UNL A   1      41.391  25.528  26.134  1.00  0.00     0.251 C 
ATOM     31  H   UNL A   1      41.626  23.739  25.266  1.00  0.00     0.163 HD
ATOM     32  O   UNL A   1      41.409  26.133  25.065  1.00  0.00    -0.269 OA
BRANCH  30  33
ATOM     33  C   UNL A   1      41.277  26.272  27.407  1.00  0.00     0.039 A 
ATOM     34  C   UNL A   1      42.289  27.172  27.754  1.00  0.00     0.014 A 
ATOM     35  C   UNL A   1      40.180  26.093  28.254  1.00  0.00     0.014 A 
ATOM     36  C   UNL A   1      42.165  27.942  28.913  1.00  0.00     0.010 A 
ATOM     37  C   UNL A   1      40.025  26.913  29.371  1.00  0.00     0.010 A 
ATOM     38  C   UNL A   1      41.013  27.849  29.711  1.00  0.00    -0.014 A 
BRANCH  38  39
ATOM     39  C   UNL A   1      40.823  28.734  30.891  1.00  0.00     0.031 A 
ATOM     40  C   UNL A   1      39.762  29.802  30.881  1.00  0.00     0.074 A 
ATOM     41  C   UNL A   1      41.647  28.614  31.952  1.00  0.00     0.049 A 
ATOM     42  N   UNL A   1      39.484  30.697  31.794  1.00  0.00    -0.248 NA
ATOM     43  C   UNL A   1      38.920  29.890  29.677  1.00  0.00     0.031 C 
ATOM     44  C   UNL A   1      42.743  27.648  32.067  1.00  0.00     0.029 A 
ATOM     45  N   UNL A   1      41.698  29.311  33.134  1.00  0.00    -0.354 N 
ATOM     46  C   UNL A   1      38.447  31.462  31.272  1.00  0.00     0.074 A 
ATOM     47  C   UNL A   1      38.181  30.959  29.942  1.00  0.00     0.031 C 
ATOM     48  C   UNL A   1      43.338  27.797  33.260  1.00  0.00     0.029 A 
ATOM     49  C   UNL A   1      42.699  28.893  33.981  1.00  0.00     0.049 A 
ATOM     50  H   UNL A   1      41.077  30.042  33.354  1.00  0.00     0.167 HD
ATOM     51  C   UNL A   1      37.764  32.476  31.856  1.00  0.00     0.037 A 
ATOM     52  C   UNL A   1      43.066  29.346  35.195  1.00  0.00     0.037 A 
ATOM     53  C   UNL A   1      38.020  32.959  33.189  1.00  0.00     0.049 A 
ATOM     54  C   UNL A   1      42.302  30.483  35.818  1.00  0.00     0.074 A 
ATOM     55  C   UNL A   1      37.342  33.939  33.893  1.00  0.00     0.029 A 
ATOM     56  N   UNL A   1      39.038  32.506  34.017  1.00  0.00    -0.354 N 
ATOM     57  N   UNL A   1      41.278  31.148  35.338  1.00  0.00    -0.248 NA
ATOM     58  C   UNL A   1      42.738  30.929  37.148  1.00  0.00     0.031 C 
ATOM     59  C   UNL A   1      37.984  34.119  35.122  1.00  0.00     0.029 A 
ATOM     60  C   UNL A   1      39.024  33.207  35.212  1.00  0.00     0.049 A 
ATOM     61  H   UNL A   1      39.675  31.791  33.789  1.00  0.00     0.167 HD
ATOM     62  C   UNL A   1      40.929  32.069  36.320  1.00  0.00     0.074 A 
ATOM     63  C   UNL A   1      41.844  31.868  37.424  1.00  0.00     0.031 C 
ATOM     64  C   UNL A   1      39.938  32.995  36.309  1.00  0.00     0.037 A 
BRANCH  51  65
ATOM     65  C   UNL A   1      36.674  33.139  31.055  1.00  0.00     0.058 A 
ATOM     66  C   UNL A   1      36.961  34.051  30.026  1.00  0.00     0.135 A 
ATOM     67  C   UNL A   1      35.325  32.828  31.293  1.00  0.00     0.135 A 
ATOM     68  F   UNL A   1      38.232  34.395  29.761  1.00  0.00    -0.206 F 
ATOM     69  C   UNL A   1      35.950  34.657  29.287  1.00  0.00     0.059 A 
ATOM     70  C   UNL A   1      34.299  33.399  30.545  1.00  0.00     0.059 A 
ATOM     71  F   UNL A   1      34.991  31.962  32.263  1.00  0.00    -0.206 F 
ATOM     72  C   UNL A   1      34.622  34.325  29.555  1.00  0.00     0.060 A 
BRANCH  72  73
ATOM     73  S   UNL A   1      33.323  35.122  28.587  1.00  0.00     0.124 S 
ATOM     74  O   UNL A   1      32.698  33.975  27.938  1.00  0.00    -0.237 OA
ATOM     75  O   UNL A   1      32.525  35.779  29.618  1.00  0.00    -0.237 OA
ATOM     76  O   UNL A   1      34.059  36.019  27.702  1.00  0.00    -0.744 OA
ENDBRANCH  72  73
ENDBRANCH  51  65
BRANCH  52  77
ATOM     77  C   UNL A   1      44.202  28.706  35.915  1.00  0.00     0.058 A 
ATOM     78  C   UNL A   1      43.987  27.636  36.796  1.00  0.00     0.135 A 
ATOM     79  C   UNL A   1      45.523  29.141  35.727  1.00  0.00     0.135 A 
ATOM     80  F   UNL A   1      42.742  27.189  37.016  1.00  0.00    -0.206 F 
ATOM     81  C   UNL A   1      45.037  27.029  37.477  1.00  0.00     0.059 A 
ATOM     82  C   UNL A   1      46.593  28.533  36.375  1.00  0.00     0.059 A 
ATOM     83  F   UNL A   1      45.786  30.151  34.882  1.00  0.00    -0.206 F 
ATOM     84  C   UNL A   1      46.339  27.483  37.257  1.00  0.00     0.060 A 
BRANCH  84  85
ATOM     85  S   UNL A   1      47.699  26.653  38.108  1.00  0.00     0.124 S 
ATOM     86  O   UNL A   1      47.360  26.891  39.505  1.00  0.00    -0.237 OA
ATOM     87  O   UNL A   1      47.558  25.278  37.639  1.00  0.00    -0.237 OA
ATOM     88  O   UNL A   1      48.880  27.356  37.616  1.00  0.00    -0.744 OA
ENDBRANCH  84  85
ENDBRANCH  52  77
BRANCH  64  89
ATOM     89  C   UNL A   1      39.761  33.841  37.541  1.00  0.00     0.058 A 
ATOM     90  C   UNL A   1      38.906  33.462  38.586  1.00  0.00     0.135 A 
ATOM     91  C   UNL A   1      40.502  35.025  37.699  1.00  0.00     0.135 A 
ATOM     92  F   UNL A   1      38.169  32.344  38.484  1.00  0.00    -0.206 F 
ATOM     93  C   UNL A   1      38.772  34.237  39.734  1.00  0.00     0.059 A 
ATOM     94  C   UNL A   1      40.407  35.799  38.850  1.00  0.00     0.059 A 
ATOM     95  F   UNL A   1      41.343  35.430  36.734  1.00  0.00    -0.206 F 
ATOM     96  C   UNL A   1      39.529  35.404  39.858  1.00  0.00     0.060 A 
BRANCH  96  97
ATOM     97  S   UNL A   1      39.373  36.381  41.368  1.00  0.00     0.124 S 
ATOM     98  O   UNL A   1      40.731  36.323  41.898  1.00  0.00    -0.237 OA
ATOM     99  O   UNL A   1      38.948  37.680  40.855  1.00  0.00    -0.237 OA
ATOM    100  O   UNL A   1      38.367  35.658  42.139  1.00  0.00    -0.744 OA
ENDBRANCH  96  97
ENDBRANCH  64  89
ENDBRANCH  38  39
ENDBRANCH  30  33
ENDBRANCH  28  29
ENDBRANCH  27  28
ENDBRANCH   1  27
TORSDOF 17
ENDMDL
MODEL 2
REMARK VINA RESULT:     -12.1      6.919     13.222
REMARK SMILES Cc1ccc(NC(=O)C[N@H+]2CCC[C@@H](C(=O)NCCCCNC(=O)c3ccc(-c4c5nc(c(-c6c(F)cc(S(=O)(=O)[O-])cc6F)c6ccc([nH]6)c(-c6c(F)cc(S(=O)(=O)[O-])cc6F)c6nc(c(-c7c(F)cc(S(=O)(=O)[O-])cc7F)c7ccc4[nH]7)C=C6)C=C5)cc3)C2)cc1Cl
REMARK SMILES IDX 19 1 18 2 17 3 15 4 16 5 14 7 10 8 11 9 91 10 12 12 13 13
REMARK SMILES IDX 9 14 7 15 6 16 8 18 5 19 1 20 2 21 3 22 93 23 4 24 92 25
REMARK SMILES IDX 94 26 20 27 21 28 22 29 23 30 24 32 25 33 26 34 90 35 27 36
REMARK SMILES IDX 89 37 28 38 29 39 30 40 83 41 31 42 88 43 82 44 84 45 32 46
REMARK SMILES IDX 87 47 81 48 80 49 33 51 67 52 46 53 66 54 47 55 50 56 65 57
REMARK SMILES IDX 85 58 48 59 49 60 64 62 86 63 51 64 34 65 35 66 44 67 36 68
REMARK SMILES IDX 37 69 43 70 45 71 38 72 39 73 40 74 41 75 42 76 68 77 69 78
REMARK SMILES IDX 78 79 70 80 71 81 77 82 79 83 72 84 73 85 74 86 75 87 76 88
REMARK SMILES IDX 52 89 53 90 62 91 54 92 55 93 61 94 63 95 56 96 57 97 58 98
REMARK SMILES IDX 59 99 60 100
REMARK H PARENT 17 6 10 11 6 17 22 31 84 50 50 61
REMARK Flexibility Score: inf
ROOT
ATOM      1  C   UNL A   1      34.652  32.989  27.993  1.00  0.00     0.023 C 
ENDROOT
BRANCH   1   2
ATOM      2  C   UNL A   1      33.322  33.742  28.016  1.00  0.00     0.116 C 
BRANCH   2   3
ATOM      3  N   UNL A   1      33.550  35.172  28.116  1.00  0.00    -0.356 N 
ATOM      4  C   UNL A   1      33.297  36.029  29.143  1.00  0.00     0.228 C 
ATOM      5  O   UNL A   1      33.389  37.237  28.913  1.00  0.00    -0.275 OA
ATOM      6  H   UNL A   1      33.950  35.585  27.317  1.00  0.00     0.163 HD
BRANCH   4   7
ATOM      7  C   UNL A   1      33.061  35.491  30.549  1.00  0.00     0.133 C 
ATOM      8  N   UNL A   1      34.525  35.014  32.577  1.00  0.00    -0.326 N 
ATOM      9  C   UNL A   1      33.743  35.965  33.372  1.00  0.00     0.262 C 
ATOM     10  C   UNL A   1      34.461  35.314  31.144  1.00  0.00     0.276 C 
ATOM     11  H   UNL A   1      34.092  34.100  32.707  1.00  0.00     0.348 HD
ATOM     12  C   UNL A   1      32.298  36.041  32.865  1.00  0.00     0.062 C 
ATOM     13  C   UNL A   1      32.251  36.467  31.399  1.00  0.00     0.025 C 
BRANCH   8  14
ATOM     14  C   UNL A   1      35.929  34.881  33.063  1.00  0.00     0.363 C 
BRANCH  14  15
ATOM     15  C   UNL A   1      36.477  33.443  33.164  1.00  0.00     0.279 C 
ATOM     16  N   UNL A   1      37.635  33.020  32.562  1.00  0.00    -0.321 N 
ATOM     17  H   UNL A   1      37.849  32.075  32.732  1.00  0.00     0.170 HD
ATOM     18  O   UNL A   1      35.891  32.615  33.877  1.00  0.00    -0.268 OA
BRANCH  16  19
ATOM     19  C   UNL A   1      38.576  33.679  31.750  1.00  0.00     0.042 A 
ATOM     20  C   UNL A   1      41.467  34.878  28.770  1.00  0.00     0.046 C 
ATOM     21  C   UNL A   1      40.464  34.572  29.845  1.00  0.00    -0.032 A 
ATOM     22  C   UNL A   1      39.123  34.380  29.489  1.00  0.00     0.007 A 
ATOM     23  C   UNL A   1      40.825  34.384  31.186  1.00  0.00     0.046 A 
ATOM     24  C   UNL A   1      38.184  33.957  30.436  1.00  0.00     0.026 A 
ATOM     25  C   UNL A   1      39.878  33.976  32.137  1.00  0.00     0.047 A 
ATOM     26  Cl  UNL A   1      42.462  34.549  31.714  1.00  0.00    -0.084 Cl
ENDBRANCH  16  19
ENDBRANCH  14  15
ENDBRANCH   8  14
ENDBRANCH   4   7
ENDBRANCH   2   3
ENDBRANCH   1   2
BRANCH   1  27
ATOM     27  C   UNL A   1      34.532  31.496  27.662  1.00  0.00     0.023 C 
BRANCH  27  28
ATOM     28  C   UNL A   1      35.575  30.592  28.312  1.00  0.00     0.116 C 
BRANCH  28  29
ATOM     29  N   UNL A   1      35.499  30.591  29.764  1.00  0.00    -0.352 N 
ATOM     30  C   UNL A   1      36.473  30.306  30.689  1.00  0.00     0.251 C 
ATOM     31  H   UNL A   1      34.620  30.828  30.138  1.00  0.00     0.163 HD
ATOM     32  O   UNL A   1      36.175  30.217  31.879  1.00  0.00    -0.269 OA
BRANCH  30  33
ATOM     33  C   UNL A   1      37.868  30.078  30.255  1.00  0.00     0.039 A 
ATOM     34  C   UNL A   1      38.826  29.741  31.216  1.00  0.00     0.014 A 
ATOM     35  C   UNL A   1      38.234  30.190  28.911  1.00  0.00     0.014 A 
ATOM     36  C   UNL A   1      40.132  29.447  30.819  1.00  0.00     0.010 A 
ATOM     37  C   UNL A   1      39.519  29.826  28.510  1.00  0.00     0.010 A 
ATOM     38  C   UNL A   1      40.482  29.447  29.458  1.00  0.00    -0.014 A 
BRANCH  38  39
ATOM     39  C   UNL A   1      41.840  29.038  29.014  1.00  0.00     0.031 A 
ATOM     40  C   UNL A   1      42.962  30.041  28.965  1.00  0.00     0.074 A 
ATOM     41  C   UNL A   1      42.052  27.773  28.596  1.00  0.00     0.049 A 
ATOM     42  N   UNL A   1      44.195  29.882  28.559  1.00  0.00    -0.248 NA
ATOM     43  C   UNL A   1      42.649  31.409  29.410  1.00  0.00     0.031 C 
ATOM     44  C   UNL A   1      41.037  26.717  28.552  1.00  0.00     0.029 A 
ATOM     45  N   UNL A   1      43.185  27.160  28.122  1.00  0.00    -0.354 N 
ATOM     46  C   UNL A   1      44.801  31.127  28.686  1.00  0.00     0.074 A 
ATOM     47  C   UNL A   1      43.785  32.043  29.157  1.00  0.00     0.031 C 
ATOM     48  C   UNL A   1      41.599  25.584  28.103  1.00  0.00     0.029 A 
ATOM     49  C   UNL A   1      43.001  25.838  27.787  1.00  0.00     0.049 A 
ATOM     50  H   UNL A   1      44.049  27.623  28.030  1.00  0.00     0.167 HD
ATOM     51  C   UNL A   1      46.091  31.470  28.451  1.00  0.00     0.037 A 
ATOM     52  C   UNL A   1      43.860  24.935  27.276  1.00  0.00     0.037 A 
ATOM     53  C   UNL A   1      47.102  30.548  28.001  1.00  0.00     0.049 A 
ATOM     54  C   UNL A   1      45.284  25.343  27.010  1.00  0.00     0.074 A 
ATOM     55  C   UNL A   1      48.450  30.785  27.795  1.00  0.00     0.029 A 
ATOM     56  N   UNL A   1      46.878  29.217  27.679  1.00  0.00    -0.354 N 
ATOM     57  N   UNL A   1      45.856  26.508  27.203  1.00  0.00    -0.248 NA
ATOM     58  C   UNL A   1      46.180  24.316  26.463  1.00  0.00     0.031 C 
ATOM     59  C   UNL A   1      49.029  29.615  27.294  1.00  0.00     0.029 A 
ATOM     60  C   UNL A   1      48.056  28.629  27.248  1.00  0.00     0.049 A 
ATOM     61  H   UNL A   1      46.009  28.758  27.748  1.00  0.00     0.167 HD
ATOM     62  C   UNL A   1      47.187  26.344  26.830  1.00  0.00     0.074 A 
ATOM     63  C   UNL A   1      47.335  24.965  26.411  1.00  0.00     0.031 C 
ATOM     64  C   UNL A   1      48.194  27.252  26.838  1.00  0.00     0.037 A 
BRANCH  51  65
ATOM     65  C   UNL A   1      46.484  32.907  28.672  1.00  0.00     0.058 A 
ATOM     66  C   UNL A   1      46.426  33.858  27.640  1.00  0.00     0.135 A 
ATOM     67  C   UNL A   1      46.886  33.349  29.944  1.00  0.00     0.135 A 
ATOM     68  F   UNL A   1      46.061  33.491  26.401  1.00  0.00    -0.206 F 
ATOM     69  C   UNL A   1      46.787  35.185  27.851  1.00  0.00     0.059 A 
ATOM     70  C   UNL A   1      47.221  34.678  30.185  1.00  0.00     0.059 A 
ATOM     71  F   UNL A   1      46.958  32.485  30.968  1.00  0.00    -0.206 F 
ATOM     72  C   UNL A   1      47.184  35.586  29.127  1.00  0.00     0.060 A 
BRANCH  72  73
ATOM     73  S   UNL A   1      47.650  37.310  29.383  1.00  0.00     0.124 S 
ATOM     74  O   UNL A   1      46.387  37.994  29.126  1.00  0.00    -0.237 OA
ATOM     75  O   UNL A   1      48.099  37.309  30.772  1.00  0.00    -0.237 OA
ATOM     76  O   UNL A   1      48.697  37.532  28.390  1.00  0.00    -0.744 OA
ENDBRANCH  72  73
ENDBRANCH  51  65
BRANCH  52  77
ATOM     77  C   UNL A   1      43.402  23.545  27.002  1.00  0.00     0.058 A 
ATOM     78  C   UNL A   1      43.185  23.103  25.688  1.00  0.00     0.135 A 
ATOM     79  C   UNL A   1      43.186  22.628  28.042  1.00  0.00     0.135 A 
ATOM     80  F   UNL A   1      43.370  23.943  24.659  1.00  0.00    -0.206 F 
ATOM     81  C   UNL A   1      42.755  21.808  25.416  1.00  0.00     0.059 A 
ATOM     82  C   UNL A   1      42.783  21.320  27.794  1.00  0.00     0.059 A 
ATOM     83  F   UNL A   1      43.394  22.996  29.317  1.00  0.00    -0.206 F 
ATOM     84  C   UNL A   1      42.561  20.922  26.477  1.00  0.00     0.060 A 
BRANCH  84  85
ATOM     85  S   UNL A   1      42.053  19.229  26.107  1.00  0.00     0.124 S 
ATOM     86  O   UNL A   1      40.614  19.385  25.935  1.00  0.00    -0.237 OA
ATOM     87  O   UNL A   1      42.815  18.940  24.896  1.00  0.00    -0.237 OA
ATOM     88  O   UNL A   1      42.471  18.487  27.292  1.00  0.00    -0.744 OA
ENDBRANCH  84  85
ENDBRANCH  52  77
BRANCH  64  89
ATOM     89  C   UNL A   1      49.559  26.781  26.415  1.00  0.00     0.058 A 
ATOM     90  C   UNL A   1      50.001  26.881  25.087  1.00  0.00     0.135 A 
ATOM     91  C   UNL A   1      50.459  26.270  27.366  1.00  0.00     0.135 A 
ATOM     92  F   UNL A   1      49.180  27.354  24.136  1.00  0.00    -0.206 F 
ATOM     93  C   UNL A   1      51.276  26.469  24.711  1.00  0.00     0.059 A 
ATOM     94  C   UNL A   1      51.749  25.882  27.019  1.00  0.00     0.059 A 
ATOM     95  F   UNL A   1      50.093  26.163  28.653  1.00  0.00    -0.206 F 
ATOM     96  C   UNL A   1      52.145  25.973  25.687  1.00  0.00     0.060 A 
BRANCH  96  97
ATOM     97  S   UNL A   1      53.808  25.476  25.192  1.00  0.00     0.124 S 
ATOM     98  O   UNL A   1      54.528  25.557  26.459  1.00  0.00    -0.237 OA
ATOM     99  O   UNL A   1      53.589  24.130  24.672  1.00  0.00    -0.237 OA
ATOM    100  O   UNL A   1      54.180  26.475  24.196  1.00  0.00    -0.744 OA
ENDBRANCH  96  97
ENDBRANCH  64  89
ENDBRANCH  38  39
ENDBRANCH  30  33
ENDBRANCH  28  29
ENDBRANCH  27  28
ENDBRANCH   1  27
TORSDOF 17
ENDMDL
MODEL 3
REMARK VINA RESULT:     -12.0      1.510      8.351
REMARK SMILES Cc1ccc(NC(=O)C[N@H+]2CCC[C@@H](C(=O)NCCCCNC(=O)c3ccc(-c4c5nc(c(-c6c(F)cc(S(=O)(=O)[O-])cc6F)c6ccc([nH]6)c(-c6c(F)cc(S(=O)(=O)[O-])cc6F)c6nc(c(-c7c(F)cc(S(=O)(=O)[O-])cc7F)c7ccc4[nH]7)C=C6)C=C5)cc3)C2)cc1Cl
REMARK SMILES IDX 19 1 18 2 17 3 15 4 16 5 14 7 10 8 11 9 91 10 12 12 13 13
REMARK SMILES IDX 9 14 7 15 6 16 8 18 5 19 1 20 2 21 3 22 93 23 4 24 92 25
REMARK SMILES IDX 94 26 20 27 21 28 22 29 23 30 24 32 25 33 26 34 90 35 27 36
REMARK SMILES IDX 89 37 28 38 29 39 30 40 83 41 31 42 88 43 82 44 84 45 32 46
REMARK SMILES IDX 87 47 81 48 80 49 33 51 67 52 46 53 66 54 47 55 50 56 65 57
REMARK SMILES IDX 85 58 48 59 49 60 64 62 86 63 51 64 34 65 35 66 44 67 36 68
REMARK SMILES IDX 37 69 43 70 45 71 38 72 39 73 40 74 41 75 42 76 68 77 69 78
REMARK SMILES IDX 78 79 70 80 71 81 77 82 79 83 72 84 73 85 74 86 75 87 76 88
REMARK SMILES IDX 52 89 53 90 62 91 54 92 55 93 61 94 63 95 56 96 57 97 58 98
REMARK SMILES IDX 59 99 60 100
REMARK H PARENT 17 6 10 11 6 17 22 31 84 50 50 61
REMARK Flexibility Score: inf
ROOT
ATOM      1  C   UNL A   1      38.994  23.280  27.205  1.00  0.00     0.023 C 
ENDROOT
BRANCH   1   2
ATOM      2  C   UNL A   1      38.220  24.148  26.214  1.00  0.00     0.116 C 
BRANCH   2   3
ATOM      3  N   UNL A   1      37.820  23.366  25.059  1.00  0.00    -0.356 N 
ATOM      4  C   UNL A   1      36.582  23.150  24.534  1.00  0.00     0.228 C 
ATOM      5  O   UNL A   1      36.474  22.280  23.667  1.00  0.00    -0.275 OA
ATOM      6  H   UNL A   1      38.558  22.924  24.581  1.00  0.00     0.163 HD
BRANCH   4   7
ATOM      7  C   UNL A   1      35.421  24.063  24.909  1.00  0.00     0.133 C 
ATOM      8  N   UNL A   1      33.260  24.802  23.783  1.00  0.00    -0.326 N 
ATOM      9  C   UNL A   1      32.483  24.229  24.887  1.00  0.00     0.262 C 
ATOM     10  C   UNL A   1      34.568  24.157  23.640  1.00  0.00     0.276 C 
ATOM     11  H   UNL A   1      33.435  25.776  24.026  1.00  0.00     0.348 HD
ATOM     12  C   UNL A   1      33.286  24.262  26.193  1.00  0.00     0.062 C 
ATOM     13  C   UNL A   1      34.594  23.486  26.055  1.00  0.00     0.025 C 
BRANCH   8  14
ATOM     14  C   UNL A   1      32.499  24.824  22.500  1.00  0.00     0.363 C 
BRANCH  14  15
ATOM     15  C   UNL A   1      32.814  25.994  21.547  1.00  0.00     0.279 C 
ATOM     16  N   UNL A   1      32.819  27.312  21.928  1.00  0.00    -0.321 N 
ATOM     17  H   UNL A   1      33.049  27.935  21.201  1.00  0.00     0.170 HD
ATOM     18  O   UNL A   1      33.151  25.757  20.378  1.00  0.00    -0.268 OA
BRANCH  16  19
ATOM     19  C   UNL A   1      32.559  27.945  23.157  1.00  0.00     0.042 A 
ATOM     20  C   UNL A   1      31.819  30.687  26.414  1.00  0.00     0.046 C 
ATOM     21  C   UNL A   1      32.052  29.646  25.357  1.00  0.00    -0.032 A 
ATOM     22  C   UNL A   1      31.095  29.474  24.349  1.00  0.00     0.007 A 
ATOM     23  C   UNL A   1      33.232  28.894  25.283  1.00  0.00     0.046 A 
ATOM     24  C   UNL A   1      31.337  28.617  23.271  1.00  0.00     0.026 A 
ATOM     25  C   UNL A   1      33.465  28.023  24.210  1.00  0.00     0.047 A 
ATOM     26  Cl  UNL A   1      34.494  29.072  26.451  1.00  0.00    -0.084 Cl
ENDBRANCH  16  19
ENDBRANCH  14  15
ENDBRANCH   8  14
ENDBRANCH   4   7
ENDBRANCH   2   3
ENDBRANCH   1   2
BRANCH   1  27
ATOM     27  C   UNL A   1      40.250  22.618  26.624  1.00  0.00     0.023 C 
BRANCH  27  28
ATOM     28  C   UNL A   1      41.575  23.275  27.002  1.00  0.00     0.116 C 
BRANCH  28  29
ATOM     29  N   UNL A   1      42.178  24.011  25.903  1.00  0.00    -0.352 N 
ATOM     30  C   UNL A   1      42.328  25.366  25.738  1.00  0.00     0.251 C 
ATOM     31  H   UNL A   1      42.529  23.456  25.169  1.00  0.00     0.163 HD
ATOM     32  O   UNL A   1      42.737  25.806  24.665  1.00  0.00    -0.269 OA
BRANCH  30  33
ATOM     33  C   UNL A   1      41.972  26.293  26.834  1.00  0.00     0.039 A 
ATOM     34  C   UNL A   1      41.052  25.872  27.798  1.00  0.00     0.014 A 
ATOM     35  C   UNL A   1      42.540  27.567  26.917  1.00  0.00     0.014 A 
ATOM     36  C   UNL A   1      40.758  26.701  28.883  1.00  0.00     0.010 A 
ATOM     37  C   UNL A   1      42.301  28.361  28.037  1.00  0.00     0.010 A 
ATOM     38  C   UNL A   1      41.410  27.937  29.035  1.00  0.00    -0.014 A 
BRANCH  38  39
ATOM     39  C   UNL A   1      41.182  28.783  30.235  1.00  0.00     0.031 A 
ATOM     40  C   UNL A   1      42.032  28.609  31.466  1.00  0.00     0.074 A 
ATOM     41  C   UNL A   1      40.168  29.673  30.240  1.00  0.00     0.049 A 
ATOM     42  N   UNL A   1      41.948  29.218  32.620  1.00  0.00    -0.248 NA
ATOM     43  C   UNL A   1      43.101  27.599  31.396  1.00  0.00     0.031 C 
ATOM     44  C   UNL A   1      39.244  29.907  29.127  1.00  0.00     0.029 A 
ATOM     45  N   UNL A   1      39.737  30.541  31.212  1.00  0.00    -0.354 N 
ATOM     46  C   UNL A   1      42.941  28.660  33.418  1.00  0.00     0.074 A 
ATOM     47  C   UNL A   1      43.579  27.626  32.632  1.00  0.00     0.031 C 
ATOM     48  C   UNL A   1      38.376  30.871  29.470  1.00  0.00     0.029 A 
ATOM     49  C   UNL A   1      38.650  31.297  30.839  1.00  0.00     0.049 A 
ATOM     50  H   UNL A   1      40.166  30.615  32.095  1.00  0.00     0.167 HD
ATOM     51  C   UNL A   1      43.301  28.993  34.681  1.00  0.00     0.037 A 
ATOM     52  C   UNL A   1      37.948  32.222  31.522  1.00  0.00     0.037 A 
ATOM     53  C   UNL A   1      42.674  30.036  35.451  1.00  0.00     0.049 A 
ATOM     54  C   UNL A   1      38.357  32.564  32.929  1.00  0.00     0.074 A 
ATOM     55  C   UNL A   1      43.007  30.490  36.715  1.00  0.00     0.029 A 
ATOM     56  N   UNL A   1      41.580  30.782  35.035  1.00  0.00    -0.354 N 
ATOM     57  N   UNL A   1      39.344  32.075  33.642  1.00  0.00    -0.248 NA
ATOM     58  C   UNL A   1      37.564  33.587  33.624  1.00  0.00     0.031 C 
ATOM     59  C   UNL A   1      42.081  31.470  37.087  1.00  0.00     0.029 A 
ATOM     60  C   UNL A   1      41.208  31.673  36.030  1.00  0.00     0.049 A 
ATOM     61  H   UNL A   1      41.134  30.693  34.162  1.00  0.00     0.167 HD
ATOM     62  C   UNL A   1      39.308  32.752  34.856  1.00  0.00     0.074 A 
ATOM     63  C   UNL A   1      38.209  33.692  34.776  1.00  0.00     0.031 C 
ATOM     64  C   UNL A   1      40.115  32.610  35.938  1.00  0.00     0.037 A 
BRANCH  51  65
ATOM     65  C   UNL A   1      44.424  28.215  35.316  1.00  0.00     0.058 A 
ATOM     66  C   UNL A   1      45.764  28.620  35.199  1.00  0.00     0.135 A 
ATOM     67  C   UNL A   1      44.154  27.071  36.085  1.00  0.00     0.135 A 
ATOM     68  F   UNL A   1      46.084  29.700  34.466  1.00  0.00    -0.206 F 
ATOM     69  C   UNL A   1      46.797  27.900  35.790  1.00  0.00     0.059 A 
ATOM     70  C   UNL A   1      45.169  26.354  36.711  1.00  0.00     0.059 A 
ATOM     71  F   UNL A   1      42.892  26.639  36.233  1.00  0.00    -0.206 F 
ATOM     72  C   UNL A   1      46.490  26.767  36.544  1.00  0.00     0.060 A 
BRANCH  72  73
ATOM     73  S   UNL A   1      47.842  25.844  37.303  1.00  0.00     0.124 S 
ATOM     74  O   UNL A   1      47.864  24.636  36.485  1.00  0.00    -0.237 OA
ATOM     75  O   UNL A   1      48.974  26.749  37.127  1.00  0.00    -0.237 OA
ATOM     76  O   UNL A   1      47.399  25.660  38.681  1.00  0.00    -0.744 OA
ENDBRANCH  72  73
ENDBRANCH  51  65
BRANCH  52  77
ATOM     77  C   UNL A   1      36.795  32.907  30.875  1.00  0.00     0.058 A 
ATOM     78  C   UNL A   1      35.475  32.570  31.211  1.00  0.00     0.135 A 
ATOM     79  C   UNL A   1      36.988  33.920  29.923  1.00  0.00     0.135 A 
ATOM     80  F   UNL A   1      35.238  31.604  32.109  1.00  0.00    -0.206 F 
ATOM     81  C   UNL A   1      34.387  33.201  30.614  1.00  0.00     0.059 A 
ATOM     82  C   UNL A   1      35.917  34.584  29.333  1.00  0.00     0.059 A 
ATOM     83  F   UNL A   1      38.231  34.292  29.579  1.00  0.00    -0.206 F 
ATOM     84  C   UNL A   1      34.619  34.210  29.679  1.00  0.00     0.060 A 
BRANCH  84  85
ATOM     85  S   UNL A   1      33.200  35.057  28.950  1.00  0.00     0.124 S 
ATOM     86  O   UNL A   1      32.716  34.058  28.005  1.00  0.00    -0.237 OA
ATOM     87  O   UNL A   1      32.356  35.295  30.117  1.00  0.00    -0.237 OA
ATOM     88  O   UNL A   1      33.790  36.253  28.359  1.00  0.00    -0.744 OA
ENDBRANCH  84  85
ENDBRANCH  52  77
BRANCH  64  89
ATOM     89  C   UNL A   1      39.868  33.515  37.114  1.00  0.00     0.058 A 
ATOM     90  C   UNL A   1      40.530  34.743  37.258  1.00  0.00     0.135 A 
ATOM     91  C   UNL A   1      38.913  33.170  38.086  1.00  0.00     0.135 A 
ATOM     92  F   UNL A   1      41.458  35.120  36.363  1.00  0.00    -0.206 F 
ATOM     93  C   UNL A   1      40.274  35.587  38.335  1.00  0.00     0.059 A 
ATOM     94  C   UNL A   1      38.617  34.011  39.153  1.00  0.00     0.059 A 
ATOM     95  F   UNL A   1      38.241  32.011  37.992  1.00  0.00    -0.206 F 
ATOM     96  C   UNL A   1      39.312  35.213  39.277  1.00  0.00     0.060 A 
BRANCH  96  97
ATOM     97  S   UNL A   1      38.963  36.333  40.649  1.00  0.00     0.124 S 
ATOM     98  O   UNL A   1      37.875  35.636  41.327  1.00  0.00    -0.237 OA
ATOM     99  O   UNL A   1      40.238  36.361  41.360  1.00  0.00    -0.237 OA
ATOM    100  O   UNL A   1      38.593  37.579  39.986  1.00  0.00    -0.744 OA
ENDBRANCH  96  97
ENDBRANCH  64  89
ENDBRANCH  38  39
ENDBRANCH  30  33
ENDBRANCH  28  29
ENDBRANCH  27  28
ENDBRANCH   1  27
TORSDOF 17
ENDMDL
