MODEL 1
REMARK VINA RESULT:     -12.6      0.000      0.000
REMARK SMILES O=C(NCCCCNC(=O)[C@@H]1CN(c2ncccn2)CCN1C(=O)C1CCOCC1)c1ccc(-c2c3nc(c(-c4c(F)cc(S(=O)(=O)[O-])cc4F)c4ccc([nH]4)c(-c4c(F)cc(S(=O)(=O)[O-])cc4F)c4nc(c(-c5c(F)cc(S(=O)(=O)[O-])cc5F)c5ccc2[nH]5)C=C4)C=C3)cc1
REMARK SMILES IDX 5 1 4 2 3 3 1 4 2 5 31 7 32 8 96 9 33 10 95 11 34 12 35 13
REMARK SMILES IDX 36 14 89 15 37 16 94 17 88 18 90 19 38 20 93 21 87 22 86 23
REMARK SMILES IDX 39 25 73 26 52 27 72 28 53 29 56 30 71 31 91 32 54 33 55 34
REMARK SMILES IDX 70 36 92 37 57 38 40 39 41 40 50 41 42 42 43 43 49 44 51 45
REMARK SMILES IDX 44 46 45 47 46 48 47 49 48 50 74 51 75 52 84 53 76 54 77 55
REMARK SMILES IDX 83 56 85 57 78 58 79 59 80 60 81 61 82 62 58 63 59 64 68 65
REMARK SMILES IDX 60 66 61 67 67 68 69 69 62 70 63 71 64 72 65 73 66 74 6 75
REMARK SMILES IDX 7 76 8 77 9 78 10 80 11 81 12 82 22 83 13 84 21 85 20 86
REMARK SMILES IDX 23 87 24 88 25 89 26 90 30 91 27 92 29 93 28 94 14 95 15 96
REMARK SMILES IDX 19 97 16 98 18 99 17 100
REMARK H PARENT 3 6 90 24 56 35 8 79
REMARK Flexibility Score: inf
ROOT
ATOM      1  C   UNL A   1      39.720  22.189  26.619  1.00  0.00     0.023 C 
ENDROOT
BRANCH   1   2
ATOM      2  C   UNL A   1      40.759  23.168  27.146  1.00  0.00     0.116 C 
BRANCH   2   3
ATOM      3  N   UNL A   1      41.424  23.894  26.073  1.00  0.00    -0.352 N 
ATOM      4  O   UNL A   1      42.121  25.726  24.954  1.00  0.00    -0.269 OA
ATOM      5  C   UNL A   1      41.732  25.231  26.008  1.00  0.00     0.251 C 
ATOM      6  H   UNL A   1      41.688  23.355  25.292  1.00  0.00     0.163 HD
BRANCH   5   7
ATOM      7  C   UNL A   1      41.570  26.067  27.215  1.00  0.00     0.039 A 
ATOM      8  C   UNL A   1      40.514  25.822  28.097  1.00  0.00     0.014 A 
ATOM      9  C   UNL A   1      42.466  27.110  27.457  1.00  0.00     0.014 A 
ATOM     10  C   UNL A   1      40.277  26.702  29.147  1.00  0.00     0.010 A 
ATOM     11  C   UNL A   1      42.275  27.944  28.562  1.00  0.00     0.010 A 
ATOM     12  C   UNL A   1      41.165  27.761  29.401  1.00  0.00    -0.014 A 
BRANCH  12  13
ATOM     13  C   UNL A   1      40.942  28.615  30.595  1.00  0.00     0.031 A 
ATOM     14  C   UNL A   1      41.797  28.479  31.824  1.00  0.00     0.074 A 
ATOM     15  C   UNL A   1      39.971  29.547  30.539  1.00  0.00     0.049 A 
ATOM     16  N   UNL A   1      41.742  29.157  32.941  1.00  0.00    -0.248 NA
ATOM     17  C   UNL A   1      42.846  27.448  31.800  1.00  0.00     0.031 C 
ATOM     18  C   UNL A   1      39.071  29.758  29.400  1.00  0.00     0.029 A 
ATOM     19  N   UNL A   1      39.587  30.502  31.443  1.00  0.00    -0.354 N 
ATOM     20  C   UNL A   1      42.737  28.635  33.758  1.00  0.00     0.074 A 
ATOM     21  C   UNL A   1      43.364  27.559  33.018  1.00  0.00     0.031 C 
ATOM     22  C   UNL A   1      38.273  30.803  29.656  1.00  0.00     0.029 A 
ATOM     23  C   UNL A   1      38.559  31.298  30.997  1.00  0.00     0.049 A 
ATOM     24  H   UNL A   1      40.007  30.609  32.327  1.00  0.00     0.167 HD
ATOM     25  C   UNL A   1      43.100  29.025  35.004  1.00  0.00     0.037 A 
ATOM     26  C   UNL A   1      37.904  32.304  31.605  1.00  0.00     0.037 A 
ATOM     27  C   UNL A   1      42.472  30.102  35.728  1.00  0.00     0.049 A 
ATOM     28  C   UNL A   1      38.314  32.702  32.994  1.00  0.00     0.074 A 
ATOM     29  C   UNL A   1      42.769  30.577  36.994  1.00  0.00     0.029 A 
ATOM     30  N   UNL A   1      41.421  30.873  35.251  1.00  0.00    -0.354 N 
ATOM     31  N   UNL A   1      39.266  32.201  33.744  1.00  0.00    -0.248 NA
ATOM     32  C   UNL A   1      37.561  33.796  33.619  1.00  0.00     0.031 C 
ATOM     33  C   UNL A   1      41.876  31.613  37.295  1.00  0.00     0.029 A 
ATOM     34  C   UNL A   1      41.050  31.812  36.201  1.00  0.00     0.049 A 
ATOM     35  H   UNL A   1      41.001  30.768  34.367  1.00  0.00     0.167 HD
ATOM     36  C   UNL A   1      39.235  32.928  34.927  1.00  0.00     0.074 A 
ATOM     37  C   UNL A   1      38.185  33.917  34.782  1.00  0.00     0.031 C 
ATOM     38  C   UNL A   1      40.002  32.787  36.036  1.00  0.00     0.037 A 
BRANCH  25  39
ATOM     39  C   UNL A   1      44.226  28.282  35.671  1.00  0.00     0.058 A 
ATOM     40  C   UNL A   1      45.566  28.650  35.478  1.00  0.00     0.135 A 
ATOM     41  C   UNL A   1      43.960  27.220  36.552  1.00  0.00     0.135 A 
ATOM     42  F   UNL A   1      45.879  29.648  34.637  1.00  0.00    -0.206 F 
ATOM     43  C   UNL A   1      46.605  27.980  36.118  1.00  0.00     0.059 A 
ATOM     44  C   UNL A   1      44.982  26.550  37.220  1.00  0.00     0.059 A 
ATOM     45  F   UNL A   1      42.697  26.826  36.774  1.00  0.00    -0.206 F 
ATOM     46  C   UNL A   1      46.303  26.930  36.987  1.00  0.00     0.060 A 
BRANCH  46  47
ATOM     47  S   UNL A   1      47.662  26.074  37.814  1.00  0.00     0.124 S 
ATOM     48  O   UNL A   1      48.803  26.900  37.429  1.00  0.00    -0.237 OA
ATOM     49  O   UNL A   1      47.271  26.149  39.218  1.00  0.00    -0.237 OA
ATOM     50  O   UNL A   1      47.629  24.737  37.228  1.00  0.00    -0.744 OA
ENDBRANCH  46  47
ENDBRANCH  25  39
BRANCH  26  51
ATOM     51  C   UNL A   1      36.788  32.989  30.904  1.00  0.00     0.058 A 
ATOM     52  C   UNL A   1      35.453  32.756  31.264  1.00  0.00     0.135 A 
ATOM     53  C   UNL A   1      37.039  33.908  29.872  1.00  0.00     0.135 A 
ATOM     54  F   UNL A   1      35.163  31.887  32.244  1.00  0.00    -0.206 F 
ATOM     55  C   UNL A   1      34.403  33.394  30.610  1.00  0.00     0.059 A 
ATOM     56  C   UNL A   1      36.008  34.578  29.224  1.00  0.00     0.059 A 
ATOM     57  F   UNL A   1      38.301  34.181  29.507  1.00  0.00    -0.206 F 
ATOM     58  C   UNL A   1      34.691  34.304  29.592  1.00  0.00     0.060 A 
BRANCH  58  59
ATOM     59  S   UNL A   1      33.327  35.157  28.774  1.00  0.00     0.124 S 
ATOM     60  O   UNL A   1      34.038  36.169  28.001  1.00  0.00    -0.237 OA
ATOM     61  O   UNL A   1      32.709  34.083  28.002  1.00  0.00    -0.237 OA
ATOM     62  O   UNL A   1      32.529  35.656  29.888  1.00  0.00    -0.744 OA
ENDBRANCH  58  59
ENDBRANCH  26  51
BRANCH  38  63
ATOM     63  C   UNL A   1      39.745  33.744  37.166  1.00  0.00     0.058 A 
ATOM     64  C   UNL A   1      40.389  34.989  37.235  1.00  0.00     0.135 A 
ATOM     65  C   UNL A   1      38.828  33.419  38.177  1.00  0.00     0.135 A 
ATOM     66  F   UNL A   1      41.281  35.341  36.296  1.00  0.00    -0.206 F 
ATOM     67  C   UNL A   1      40.154  35.869  38.286  1.00  0.00     0.059 A 
ATOM     68  C   UNL A   1      38.559  34.294  39.224  1.00  0.00     0.059 A 
ATOM     69  F   UNL A   1      38.180  32.244  38.153  1.00  0.00    -0.206 F 
ATOM     70  C   UNL A   1      39.238  35.512  39.277  1.00  0.00     0.060 A 
BRANCH  70  71
ATOM     71  S   UNL A   1      38.926  36.670  40.627  1.00  0.00     0.124 S 
ATOM     72  O   UNL A   1      38.049  35.886  41.488  1.00  0.00    -0.237 OA
ATOM     73  O   UNL A   1      40.268  36.918  41.145  1.00  0.00    -0.237 OA
ATOM     74  O   UNL A   1      38.300  37.807  39.959  1.00  0.00    -0.744 OA
ENDBRANCH  70  71
ENDBRANCH  38  63
ENDBRANCH  12  13
ENDBRANCH   5   7
ENDBRANCH   2   3
ENDBRANCH   1   2
BRANCH   1  75
ATOM     75  C   UNL A   1      38.420  22.838  26.139  1.00  0.00     0.023 C 
BRANCH  75  76
ATOM     76  C   UNL A   1      37.587  21.967  25.204  1.00  0.00     0.116 C 
BRANCH  76  77
ATOM     77  N   UNL A   1      37.027  22.756  24.119  1.00  0.00    -0.354 N 
ATOM     78  C   UNL A   1      35.734  22.871  23.697  1.00  0.00     0.244 C 
ATOM     79  H   UNL A   1      37.681  23.289  23.612  1.00  0.00     0.163 HD
ATOM     80  O   UNL A   1      35.537  23.277  22.552  1.00  0.00    -0.273 OA
BRANCH  78  81
ATOM     81  C   UNL A   1      34.595  22.429  24.626  1.00  0.00     0.193 C 
ATOM     82  C   UNL A   1      34.312  21.018  24.035  1.00  0.00     0.155 C 
ATOM     83  N   UNL A   1      33.302  23.187  24.808  1.00  0.00    -0.327 N 
ATOM     84  N   UNL A   1      33.340  20.310  24.855  1.00  0.00    -0.336 N 
ATOM     85  C   UNL A   1      32.276  22.381  25.525  1.00  0.00     0.142 C 
ATOM     86  C   UNL A   1      32.050  20.958  24.980  1.00  0.00     0.141 C 
BRANCH  83  87
ATOM     87  C   UNL A   1      33.149  24.560  25.002  1.00  0.00     0.226 C 
ATOM     88  O   UNL A   1      33.321  25.051  26.129  1.00  0.00    -0.275 OA
BRANCH  87  89
ATOM     89  C   UNL A   1      32.725  25.533  23.902  1.00  0.00     0.083 C 
ATOM     90  C   UNL A   1      32.315  24.851  22.597  1.00  0.00     0.042 C 
ATOM     91  C   UNL A   1      33.653  26.741  23.821  1.00  0.00     0.042 C 
ATOM     92  C   UNL A   1      32.517  25.698  21.344  1.00  0.00     0.161 C 
ATOM     93  C   UNL A   1      33.530  27.477  22.502  1.00  0.00     0.161 C 
ATOM     94  O   UNL A   1      33.653  26.557  21.427  1.00  0.00    -0.381 OA
ENDBRANCH  87  89
ENDBRANCH  83  87
BRANCH  84  95
ATOM     95  C   UNL A   1      33.501  18.960  24.989  1.00  0.00     0.225 A 
ATOM     96  N   UNL A   1      34.574  18.356  24.459  1.00  0.00    -0.221 NA
ATOM     97  N   UNL A   1      32.529  18.292  25.637  1.00  0.00    -0.221 NA
ATOM     98  C   UNL A   1      34.676  17.025  24.637  1.00  0.00     0.117 A 
ATOM     99  C   UNL A   1      32.652  16.959  25.751  1.00  0.00     0.117 A 
ATOM    100  C   UNL A   1      33.728  16.263  25.273  1.00  0.00     0.040 A 
ENDBRANCH  84  95
ENDBRANCH  78  81
ENDBRANCH  76  77
ENDBRANCH  75  76
ENDBRANCH   1  75
TORSDOF 17
ENDMDL
MODEL 2
REMARK VINA RESULT:     -12.5      6.682     12.337
REMARK SMILES O=C(NCCCCNC(=O)[C@@H]1CN(c2ncccn2)CCN1C(=O)C1CCOCC1)c1ccc(-c2c3nc(c(-c4c(F)cc(S(=O)(=O)[O-])cc4F)c4ccc([nH]4)c(-c4c(F)cc(S(=O)(=O)[O-])cc4F)c4nc(c(-c5c(F)cc(S(=O)(=O)[O-])cc5F)c5ccc2[nH]5)C=C4)C=C3)cc1
REMARK SMILES IDX 5 1 4 2 3 3 1 4 2 5 31 7 32 8 96 9 33 10 95 11 34 12 35 13
REMARK SMILES IDX 36 14 89 15 37 16 94 17 88 18 90 19 38 20 93 21 87 22 86 23
REMARK SMILES IDX 39 25 73 26 52 27 72 28 53 29 56 30 71 31 91 32 54 33 55 34
REMARK SMILES IDX 70 36 92 37 57 38 40 39 41 40 50 41 42 42 43 43 49 44 51 45
REMARK SMILES IDX 44 46 45 47 46 48 47 49 48 50 74 51 75 52 84 53 76 54 77 55
REMARK SMILES IDX 83 56 85 57 78 58 79 59 80 60 81 61 82 62 58 63 59 64 68 65
REMARK SMILES IDX 60 66 61 67 67 68 69 69 62 70 63 71 64 72 65 73 66 74 6 75
REMARK SMILES IDX 7 76 8 77 9 78 10 80 11 81 12 82 22 83 13 84 21 85 20 86
REMARK SMILES IDX 23 87 24 88 25 89 26 90 30 91 27 92 29 93 28 94 14 95 15 96
REMARK SMILES IDX 19 97 16 98 18 99 17 100
REMARK H PARENT 3 6 90 24 56 35 8 79
REMARK Flexibility Score: inf
ROOT
ATOM      1  C   UNL A   1      34.827  31.513  27.635  1.00  0.00     0.023 C 
ENDROOT
BRANCH   1   2
ATOM      2  C   UNL A   1      36.013  31.717  28.568  1.00  0.00     0.116 C 
BRANCH   2   3
ATOM      3  N   UNL A   1      35.761  31.187  29.901  1.00  0.00    -0.352 N 
ATOM      4  O   UNL A   1      36.054  29.786  31.646  1.00  0.00    -0.269 OA
ATOM      5  C   UNL A   1      36.501  30.276  30.613  1.00  0.00     0.251 C 
ATOM      6  H   UNL A   1      34.954  31.528  30.351  1.00  0.00     0.163 HD
BRANCH   5   7
ATOM      7  C   UNL A   1      37.832  29.878  30.109  1.00  0.00     0.039 A 
ATOM      8  C   UNL A   1      38.865  29.603  31.009  1.00  0.00     0.014 A 
ATOM      9  C   UNL A   1      38.052  29.798  28.732  1.00  0.00     0.014 A 
ATOM     10  C   UNL A   1      40.151  29.378  30.531  1.00  0.00     0.010 A 
ATOM     11  C   UNL A   1      39.328  29.489  28.254  1.00  0.00     0.010 A 
ATOM     12  C   UNL A   1      40.392  29.301  29.150  1.00  0.00    -0.014 A 
BRANCH  12  13
ATOM     13  C   UNL A   1      41.756  28.951  28.677  1.00  0.00     0.031 A 
ATOM     14  C   UNL A   1      42.859  29.972  28.646  1.00  0.00     0.074 A 
ATOM     15  C   UNL A   1      41.995  27.677  28.308  1.00  0.00     0.049 A 
ATOM     16  N   UNL A   1      44.105  29.822  28.277  1.00  0.00    -0.248 NA
ATOM     17  C   UNL A   1      42.522  31.337  29.080  1.00  0.00     0.031 C 
ATOM     18  C   UNL A   1      40.993  26.606  28.286  1.00  0.00     0.029 A 
ATOM     19  N   UNL A   1      43.147  27.059  27.900  1.00  0.00    -0.354 N 
ATOM     20  C   UNL A   1      44.701  31.069  28.423  1.00  0.00     0.074 A 
ATOM     21  C   UNL A   1      43.670  31.974  28.888  1.00  0.00     0.031 C 
ATOM     22  C   UNL A   1      41.584  25.457  27.929  1.00  0.00     0.029 A 
ATOM     23  C   UNL A   1      42.988  25.719  27.638  1.00  0.00     0.049 A 
ATOM     24  H   UNL A   1      44.007  27.529  27.804  1.00  0.00     0.167 HD
ATOM     25  C   UNL A   1      45.991  31.421  28.201  1.00  0.00     0.037 A 
ATOM     26  C   UNL A   1      43.869  24.804  27.195  1.00  0.00     0.037 A 
ATOM     27  C   UNL A   1      47.010  30.508  27.744  1.00  0.00     0.049 A 
ATOM     28  C   UNL A   1      45.286  25.226  26.938  1.00  0.00     0.074 A 
ATOM     29  C   UNL A   1      48.347  30.766  27.492  1.00  0.00     0.029 A 
ATOM     30  N   UNL A   1      46.807  29.162  27.472  1.00  0.00    -0.354 N 
ATOM     31  N   UNL A   1      45.832  26.408  27.093  1.00  0.00    -0.248 NA
ATOM     32  C   UNL A   1      46.205  24.194  26.442  1.00  0.00     0.031 C 
ATOM     33  C   UNL A   1      48.944  29.584  27.036  1.00  0.00     0.029 A 
ATOM     34  C   UNL A   1      47.989  28.580  27.044  1.00  0.00     0.049 A 
ATOM     35  H   UNL A   1      45.948  28.691  27.568  1.00  0.00     0.167 HD
ATOM     36  C   UNL A   1      47.164  26.260  26.726  1.00  0.00     0.074 A 
ATOM     37  C   UNL A   1      47.344  24.868  26.363  1.00  0.00     0.031 C 
ATOM     38  C   UNL A   1      48.147  27.192  26.688  1.00  0.00     0.037 A 
BRANCH  25  39
ATOM     39  C   UNL A   1      46.378  32.855  28.443  1.00  0.00     0.058 A 
ATOM     40  C   UNL A   1      46.866  33.285  29.686  1.00  0.00     0.135 A 
ATOM     41  C   UNL A   1      46.308  33.800  27.406  1.00  0.00     0.135 A 
ATOM     42  F   UNL A   1      46.941  32.428  30.717  1.00  0.00    -0.206 F 
ATOM     43  C   UNL A   1      47.250  34.606  29.900  1.00  0.00     0.059 A 
ATOM     44  C   UNL A   1      46.709  35.121  27.591  1.00  0.00     0.059 A 
ATOM     45  F   UNL A   1      45.850  33.443  26.195  1.00  0.00    -0.206 F 
ATOM     46  C   UNL A   1      47.167  35.517  28.846  1.00  0.00     0.060 A 
BRANCH  46  47
ATOM     47  S   UNL A   1      47.675  37.225  29.139  1.00  0.00     0.124 S 
ATOM     48  O   UNL A   1      46.752  37.627  30.196  1.00  0.00    -0.237 OA
ATOM     49  O   UNL A   1      49.069  37.073  29.541  1.00  0.00    -0.237 OA
ATOM     50  O   UNL A   1      47.466  37.869  27.845  1.00  0.00    -0.744 OA
ENDBRANCH  46  47
ENDBRANCH  25  39
BRANCH  26  51
ATOM     51  C   UNL A   1      43.425  23.406  26.956  1.00  0.00     0.058 A 
ATOM     52  C   UNL A   1      43.237  22.916  25.656  1.00  0.00     0.135 A 
ATOM     53  C   UNL A   1      43.199  22.527  28.028  1.00  0.00     0.135 A 
ATOM     54  F   UNL A   1      43.439  23.718  24.600  1.00  0.00    -0.206 F 
ATOM     55  C   UNL A   1      42.819  21.608  25.426  1.00  0.00     0.059 A 
ATOM     56  C   UNL A   1      42.810  21.208  27.822  1.00  0.00     0.059 A 
ATOM     57  F   UNL A   1      43.387  22.943  29.290  1.00  0.00    -0.206 F 
ATOM     58  C   UNL A   1      42.609  20.763  26.516  1.00  0.00     0.060 A 
BRANCH  58  59
ATOM     59  S   UNL A   1      42.106  19.057  26.211  1.00  0.00     0.124 S 
ATOM     60  O   UNL A   1      42.372  18.438  27.504  1.00  0.00    -0.237 OA
ATOM     61  O   UNL A   1      40.699  19.208  25.853  1.00  0.00    -0.237 OA
ATOM     62  O   UNL A   1      42.980  18.641  25.118  1.00  0.00    -0.744 OA
ENDBRANCH  58  59
ENDBRANCH  26  51
BRANCH  38  63
ATOM     63  C   UNL A   1      49.510  26.725  26.261  1.00  0.00     0.058 A 
ATOM     64  C   UNL A   1      49.926  26.803  24.922  1.00  0.00     0.135 A 
ATOM     65  C   UNL A   1      50.415  26.215  27.204  1.00  0.00     0.135 A 
ATOM     66  F   UNL A   1      49.094  27.274  23.982  1.00  0.00    -0.206 F 
ATOM     67  C   UNL A   1      51.186  26.363  24.530  1.00  0.00     0.059 A 
ATOM     68  C   UNL A   1      51.688  25.793  26.837  1.00  0.00     0.059 A 
ATOM     69  F   UNL A   1      50.067  26.127  28.498  1.00  0.00    -0.206 F 
ATOM     70  C   UNL A   1      52.059  25.857  25.494  1.00  0.00     0.060 A 
BRANCH  70  71
ATOM     71  S   UNL A   1      53.699  25.307  24.975  1.00  0.00     0.124 S 
ATOM     72  O   UNL A   1      53.518  23.861  24.919  1.00  0.00    -0.237 OA
ATOM     73  O   UNL A   1      53.863  25.977  23.689  1.00  0.00    -0.237 OA
ATOM     74  O   UNL A   1      54.571  25.791  26.041  1.00  0.00    -0.744 OA
ENDBRANCH  70  71
ENDBRANCH  38  63
ENDBRANCH  12  13
ENDBRANCH   5   7
ENDBRANCH   2   3
ENDBRANCH   1   2
BRANCH   1  75
ATOM     75  C   UNL A   1      34.481  30.049  27.358  1.00  0.00     0.023 C 
BRANCH  75  76
ATOM     76  C   UNL A   1      33.090  29.830  26.769  1.00  0.00     0.116 C 
BRANCH  76  77
ATOM     77  N   UNL A   1      32.534  28.561  27.209  1.00  0.00    -0.354 N 
ATOM     78  C   UNL A   1      31.836  27.620  26.507  1.00  0.00     0.244 C 
ATOM     79  H   UNL A   1      32.683  28.347  28.158  1.00  0.00     0.163 HD
ATOM     80  O   UNL A   1      31.143  26.826  27.142  1.00  0.00    -0.273 OA
BRANCH  78  81
ATOM     81  C   UNL A   1      31.886  27.634  24.973  1.00  0.00     0.193 C 
ATOM     82  C   UNL A   1      30.534  28.344  24.676  1.00  0.00     0.155 C 
ATOM     83  N   UNL A   1      32.026  26.401  24.114  1.00  0.00    -0.327 N 
ATOM     84  N   UNL A   1      30.404  28.615  23.252  1.00  0.00    -0.336 N 
ATOM     85  C   UNL A   1      31.745  26.680  22.679  1.00  0.00     0.142 C 
ATOM     86  C   UNL A   1      30.440  27.447  22.396  1.00  0.00     0.141 C 
BRANCH  83  87
ATOM     87  C   UNL A   1      32.916  25.342  24.298  1.00  0.00     0.226 C 
ATOM     88  O   UNL A   1      34.041  25.377  23.777  1.00  0.00    -0.275 OA
BRANCH  87  89
ATOM     89  C   UNL A   1      32.579  24.073  25.083  1.00  0.00     0.083 C 
ATOM     90  C   UNL A   1      31.086  23.744  25.115  1.00  0.00     0.042 C 
ATOM     91  C   UNL A   1      33.363  23.986  26.389  1.00  0.00     0.042 C 
ATOM     92  C   UNL A   1      30.635  22.951  26.338  1.00  0.00     0.161 C 
ATOM     93  C   UNL A   1      32.750  23.004  27.366  1.00  0.00     0.161 C 
ATOM     94  O   UNL A   1      31.365  23.280  27.518  1.00  0.00    -0.381 OA
ENDBRANCH  87  89
ENDBRANCH  83  87
BRANCH  84  95
ATOM     95  C   UNL A   1      29.775  29.773  22.891  1.00  0.00     0.225 A 
ATOM     96  N   UNL A   1      29.494  30.701  23.818  1.00  0.00    -0.221 NA
ATOM     97  N   UNL A   1      29.435  29.903  21.596  1.00  0.00    -0.221 NA
ATOM     98  C   UNL A   1      28.882  31.823  23.392  1.00  0.00     0.117 A 
ATOM     99  C   UNL A   1      28.786  31.019  21.226  1.00  0.00     0.117 A 
ATOM    100  C   UNL A   1      28.488  32.034  22.094  1.00  0.00     0.040 A 
ENDBRANCH  84  95
ENDBRANCH  78  81
ENDBRANCH  76  77
ENDBRANCH  75  76
ENDBRANCH   1  75
TORSDOF 17
ENDMDL
MODEL 3
REMARK VINA RESULT:     -12.5      6.716     12.007
REMARK SMILES O=C(NCCCCNC(=O)[C@@H]1CN(c2ncccn2)CCN1C(=O)C1CCOCC1)c1ccc(-c2c3nc(c(-c4c(F)cc(S(=O)(=O)[O-])cc4F)c4ccc([nH]4)c(-c4c(F)cc(S(=O)(=O)[O-])cc4F)c4nc(c(-c5c(F)cc(S(=O)(=O)[O-])cc5F)c5ccc2[nH]5)C=C4)C=C3)cc1
REMARK SMILES IDX 5 1 4 2 3 3 1 4 2 5 31 7 32 8 96 9 33 10 95 11 34 12 35 13
REMARK SMILES IDX 36 14 89 15 37 16 94 17 88 18 90 19 38 20 93 21 87 22 86 23
REMARK SMILES IDX 39 25 73 26 52 27 72 28 53 29 56 30 71 31 91 32 54 33 55 34
REMARK SMILES IDX 70 36 92 37 57 38 40 39 41 40 50 41 42 42 43 43 49 44 51 45
REMARK SMILES IDX 44 46 45 47 46 48 47 49 48 50 74 51 75 52 84 53 76 54 77 55
REMARK SMILES IDX 83 56 85 57 78 58 79 59 80 60 81 61 82 62 58 63 59 64 68 65
REMARK SMILES IDX 60 66 61 67 67 68 69 69 62 70 63 71 64 72 65 73 66 74 6 75
REMARK SMILES IDX 7 76 8 77 9 78 10 80 11 81 12 82 22 83 13 84 21 85 20 86
REMARK SMILES IDX 23 87 24 88 25 89 26 90 30 91 27 92 29 93 28 94 14 95 15 96
REMARK SMILES IDX 19 97 16 98 18 99 17 100
REMARK H PARENT 3 6 90 24 56 35 8 79
REMARK Flexibility Score: inf
ROOT
ATOM      1  C   UNL A   1      34.358  29.901  26.898  1.00  0.00     0.023 C 
ENDROOT
BRANCH   1   2
ATOM      2  C   UNL A   1      35.447  29.416  27.845  1.00  0.00     0.116 C 
BRANCH   2   3
ATOM      3  N   UNL A   1      35.376  30.068  29.144  1.00  0.00    -0.352 N 
ATOM      4  O   UNL A   1      36.118  30.653  31.195  1.00  0.00    -0.269 OA
ATOM      5  C   UNL A   1      36.380  30.254  30.064  1.00  0.00     0.251 C 
ATOM      6  H   UNL A   1      34.493  30.422  29.397  1.00  0.00     0.163 HD
BRANCH   5   7
ATOM      7  C   UNL A   1      37.774  29.951  29.679  1.00  0.00     0.039 A 
ATOM      8  C   UNL A   1      38.179  30.097  28.350  1.00  0.00     0.014 A 
ATOM      9  C   UNL A   1      38.674  29.501  30.648  1.00  0.00     0.014 A 
ATOM     10  C   UNL A   1      39.444  29.668  27.965  1.00  0.00     0.010 A 
ATOM     11  C   UNL A   1      39.973  29.149  30.273  1.00  0.00     0.010 A 
ATOM     12  C   UNL A   1      40.360  29.206  28.925  1.00  0.00    -0.014 A 
BRANCH  12  13
ATOM     13  C   UNL A   1      41.738  28.860  28.495  1.00  0.00     0.031 A 
ATOM     14  C   UNL A   1      42.834  29.889  28.477  1.00  0.00     0.074 A 
ATOM     15  C   UNL A   1      41.996  27.583  28.152  1.00  0.00     0.049 A 
ATOM     16  N   UNL A   1      44.091  29.744  28.143  1.00  0.00    -0.248 NA
ATOM     17  C   UNL A   1      42.475  31.258  28.880  1.00  0.00     0.031 C 
ATOM     18  C   UNL A   1      41.004  26.503  28.121  1.00  0.00     0.029 A 
ATOM     19  N   UNL A   1      43.164  26.968  27.786  1.00  0.00    -0.354 N 
ATOM     20  C   UNL A   1      44.673  30.998  28.286  1.00  0.00     0.074 A 
ATOM     21  C   UNL A   1      43.623  31.901  28.708  1.00  0.00     0.031 C 
ATOM     22  C   UNL A   1      41.613  25.354  27.799  1.00  0.00     0.029 A 
ATOM     23  C   UNL A   1      43.022  25.622  27.541  1.00  0.00     0.049 A 
ATOM     24  H   UNL A   1      44.023  27.443  27.705  1.00  0.00     0.167 HD
ATOM     25  C   UNL A   1      45.966  31.356  28.092  1.00  0.00     0.037 A 
ATOM     26  C   UNL A   1      43.922  24.707  27.136  1.00  0.00     0.037 A 
ATOM     27  C   UNL A   1      47.004  30.445  27.677  1.00  0.00     0.049 A 
ATOM     28  C   UNL A   1      45.342  25.136  26.910  1.00  0.00     0.074 A 
ATOM     29  C   UNL A   1      48.345  30.709  27.457  1.00  0.00     0.029 A 
ATOM     30  N   UNL A   1      46.818  29.093  27.421  1.00  0.00    -0.354 N 
ATOM     31  N   UNL A   1      45.874  26.325  27.061  1.00  0.00    -0.248 NA
ATOM     32  C   UNL A   1      46.282  24.104  26.456  1.00  0.00     0.031 C 
ATOM     33  C   UNL A   1      48.963  29.525  27.037  1.00  0.00     0.029 A 
ATOM     34  C   UNL A   1      48.016  28.513  27.035  1.00  0.00     0.049 A 
ATOM     35  H   UNL A   1      45.960  28.617  27.502  1.00  0.00     0.167 HD
ATOM     36  C   UNL A   1      47.217  26.182  26.732  1.00  0.00     0.074 A 
ATOM     37  C   UNL A   1      47.417  24.787  26.396  1.00  0.00     0.031 C 
ATOM     38  C   UNL A   1      48.194  27.121  26.705  1.00  0.00     0.037 A 
BRANCH  25  39
ATOM     39  C   UNL A   1      46.336  32.797  28.321  1.00  0.00     0.058 A 
ATOM     40  C   UNL A   1      46.812  33.245  29.563  1.00  0.00     0.135 A 
ATOM     41  C   UNL A   1      46.259  33.730  27.275  1.00  0.00     0.135 A 
ATOM     42  F   UNL A   1      46.892  32.399  30.602  1.00  0.00    -0.206 F 
ATOM     43  C   UNL A   1      47.181  34.572  29.765  1.00  0.00     0.059 A 
ATOM     44  C   UNL A   1      46.644  35.058  27.448  1.00  0.00     0.059 A 
ATOM     45  F   UNL A   1      45.811  33.357  26.066  1.00  0.00    -0.206 F 
ATOM     46  C   UNL A   1      47.091  35.472  28.702  1.00  0.00     0.060 A 
BRANCH  46  47
ATOM     47  S   UNL A   1      47.579  37.189  28.979  1.00  0.00     0.124 S 
ATOM     48  O   UNL A   1      49.027  37.111  28.812  1.00  0.00    -0.237 OA
ATOM     49  O   UNL A   1      46.857  37.894  27.925  1.00  0.00    -0.237 OA
ATOM     50  O   UNL A   1      47.117  37.459  30.338  1.00  0.00    -0.744 OA
ENDBRANCH  46  47
ENDBRANCH  25  39
BRANCH  26  51
ATOM     51  C   UNL A   1      43.495  23.302  26.908  1.00  0.00     0.058 A 
ATOM     52  C   UNL A   1      43.226  22.443  27.982  1.00  0.00     0.135 A 
ATOM     53  C   UNL A   1      43.329  22.800  25.607  1.00  0.00     0.135 A 
ATOM     54  F   UNL A   1      43.371  22.877  29.243  1.00  0.00    -0.206 F 
ATOM     55  C   UNL A   1      42.827  21.125  27.776  1.00  0.00     0.059 A 
ATOM     56  C   UNL A   1      42.904  21.496  25.376  1.00  0.00     0.059 A 
ATOM     57  F   UNL A   1      43.553  23.591  24.547  1.00  0.00    -0.206 F 
ATOM     58  C   UNL A   1      42.669  20.662  26.469  1.00  0.00     0.060 A 
BRANCH  58  59
ATOM     59  S   UNL A   1      42.114  18.965  26.207  1.00  0.00     0.124 S 
ATOM     60  O   UNL A   1      40.732  19.171  25.788  1.00  0.00    -0.237 OA
ATOM     61  O   UNL A   1      43.031  18.495  25.173  1.00  0.00    -0.237 OA
ATOM     62  O   UNL A   1      42.293  18.349  27.518  1.00  0.00    -0.744 OA
ENDBRANCH  58  59
ENDBRANCH  26  51
BRANCH  38  63
ATOM     63  C   UNL A   1      49.571  26.658  26.322  1.00  0.00     0.058 A 
ATOM     64  C   UNL A   1      50.445  26.095  27.265  1.00  0.00     0.135 A 
ATOM     65  C   UNL A   1      50.011  26.759  24.994  1.00  0.00     0.135 A 
ATOM     66  F   UNL A   1      50.074  25.985  28.550  1.00  0.00    -0.206 F 
ATOM     67  C   UNL A   1      51.721  25.674  26.908  1.00  0.00     0.059 A 
ATOM     68  C   UNL A   1      51.274  26.321  24.609  1.00  0.00     0.059 A 
ATOM     69  F   UNL A   1      49.209  27.283  24.052  1.00  0.00    -0.206 F 
ATOM     70  C   UNL A   1      52.128  25.792  25.578  1.00  0.00     0.060 A 
BRANCH  70  71
ATOM     71  S   UNL A   1      53.780  25.224  25.122  1.00  0.00     0.124 S 
ATOM     72  O   UNL A   1      54.062  26.052  23.955  1.00  0.00    -0.237 OA
ATOM     73  O   UNL A   1      54.558  25.529  26.319  1.00  0.00    -0.237 OA
ATOM     74  O   UNL A   1      53.586  23.803  24.854  1.00  0.00    -0.744 OA
ENDBRANCH  70  71
ENDBRANCH  38  63
ENDBRANCH  12  13
ENDBRANCH   5   7
ENDBRANCH   2   3
ENDBRANCH   1   2
BRANCH   1  75
ATOM     75  C   UNL A   1      32.965  29.341  27.192  1.00  0.00     0.023 C 
BRANCH  75  76
ATOM     76  C   UNL A   1      31.834  30.038  26.442  1.00  0.00     0.116 C 
BRANCH  76  77
ATOM     77  N   UNL A   1      32.096  30.066  25.013  1.00  0.00    -0.354 N 
ATOM     78  C   UNL A   1      31.838  29.127  24.057  1.00  0.00     0.244 C 
ATOM     79  H   UNL A   1      32.527  30.888  24.684  1.00  0.00     0.163 HD
ATOM     80  O   UNL A   1      32.473  29.187  23.005  1.00  0.00    -0.273 OA
BRANCH  78  81
ATOM     81  C   UNL A   1      30.831  28.007  24.353  1.00  0.00     0.193 C 
ATOM     82  C   UNL A   1      31.777  26.775  24.256  1.00  0.00     0.155 C 
ATOM     83  N   UNL A   1      29.572  27.760  23.557  1.00  0.00    -0.327 N 
ATOM     84  N   UNL A   1      31.075  25.563  24.649  1.00  0.00    -0.336 N 
ATOM     85  C   UNL A   1      28.955  26.443  23.877  1.00  0.00     0.142 C 
ATOM     86  C   UNL A   1      29.912  25.237  23.850  1.00  0.00     0.141 C 
BRANCH  83  87
ATOM     87  C   UNL A   1      28.642  28.709  23.135  1.00  0.00     0.226 C 
ATOM     88  O   UNL A   1      27.431  28.438  23.140  1.00  0.00    -0.275 OA
BRANCH  87  89
ATOM     89  C   UNL A   1      29.018  30.094  22.604  1.00  0.00     0.083 C 
ATOM     90  C   UNL A   1      28.972  31.196  23.662  1.00  0.00     0.042 C 
ATOM     91  C   UNL A   1      28.384  30.373  21.245  1.00  0.00     0.042 C 
ATOM     92  C   UNL A   1      28.692  32.593  23.116  1.00  0.00     0.161 C 
ATOM     93  C   UNL A   1      28.374  31.850  20.906  1.00  0.00     0.161 C 
ATOM     94  O   UNL A   1      27.820  32.586  21.987  1.00  0.00    -0.381 OA
ENDBRANCH  87  89
ENDBRANCH  83  87
BRANCH  84  95
ATOM     95  C   UNL A   1      31.794  24.615  25.323  1.00  0.00     0.225 A 
ATOM     96  N   UNL A   1      31.245  23.973  26.364  1.00  0.00    -0.221 NA
ATOM     97  N   UNL A   1      33.055  24.400  24.910  1.00  0.00    -0.221 NA
ATOM     98  C   UNL A   1      32.005  23.045  26.977  1.00  0.00     0.117 A 
ATOM     99  C   UNL A   1      33.790  23.496  25.579  1.00  0.00     0.117 A 
ATOM    100  C   UNL A   1      33.304  22.769  26.631  1.00  0.00     0.040 A 
ENDBRANCH  84  95
ENDBRANCH  78  81
ENDBRANCH  76  77
ENDBRANCH  75  76
ENDBRANCH   1  75
TORSDOF 17
ENDMDL
