MODEL 1
REMARK VINA RESULT:     -11.7      0.000      0.000
REMARK SMILES O=C(CC1CCN(S(=O)(=O)c2cc[nH]c2)CC1)NCCCCNC(=O)c1ccc(-c2c3nc(c(-c4c(F)cc(S(=O)(=O)[O-])cc4F)c4ccc([nH]4)c(-c4c(F)cc(S(=O)(=O)[O-])cc4F)c4nc(c(-c5c(F)cc(S(=O)(=O)[O-])cc5F)c5ccc2[nH]5)C=C4)C=C3)cc1
REMARK SMILES IDX 20 1 19 2 18 3 1 4 2 5 3 7 4 8 5 9 17 10 6 11 16 12 7 13
REMARK SMILES IDX 8 14 9 15 10 16 11 17 12 18 15 19 13 20 14 21 21 23 22 24
REMARK SMILES IDX 23 25 24 26 25 28 26 29 27 30 91 31 28 32 90 33 29 34 30 35
REMARK SMILES IDX 31 36 84 37 32 38 89 39 83 40 85 41 33 42 88 43 82 44 81 45
REMARK SMILES IDX 34 47 68 48 47 49 67 50 48 51 51 52 66 53 86 54 49 55 50 56
REMARK SMILES IDX 65 58 87 59 52 60 35 61 36 62 45 63 37 64 38 65 44 66 46 67
REMARK SMILES IDX 39 68 40 69 41 70 42 71 43 72 69 73 70 74 79 75 71 76 72 77
REMARK SMILES IDX 78 78 80 79 73 80 74 81 75 82 76 83 77 84 53 85 54 86 63 87
REMARK SMILES IDX 55 88 56 89 62 90 64 91 57 92 58 93 59 94 60 95 61 96
REMARK H PARENT 18 6 14 22 23 27 85 46 51 57
REMARK Flexibility Score: inf
ROOT
ATOM      1  C   UNL A   1      32.461  29.048  26.794  1.00  0.00     0.023 C 
ENDROOT
BRANCH   1   2
ATOM      2  C   UNL A   1      31.201  28.181  26.798  1.00  0.00     0.116 C 
BRANCH   2   3
ATOM      3  N   UNL A   1      31.490  26.778  27.033  1.00  0.00    -0.356 N 
ATOM      4  O   UNL A   1      30.190  25.933  25.334  1.00  0.00    -0.275 OA
ATOM      5  C   UNL A   1      31.020  25.771  26.220  1.00  0.00     0.220 C 
ATOM      6  H   UNL A   1      32.046  26.538  27.809  1.00  0.00     0.163 HD
BRANCH   5   7
ATOM      7  C   UNL A   1      31.624  24.413  26.525  1.00  0.00     0.103 C 
BRANCH   7   8
ATOM      8  C   UNL A   1      32.922  24.010  25.788  1.00  0.00     0.001 C 
ATOM      9  C   UNL A   1      33.973  25.102  25.562  1.00  0.00     0.021 C 
ATOM     10  C   UNL A   1      32.673  23.308  24.451  1.00  0.00     0.021 C 
ATOM     11  C   UNL A   1      33.670  26.050  24.403  1.00  0.00     0.103 C 
ATOM     12  C   UNL A   1      32.272  24.269  23.343  1.00  0.00     0.103 C 
ATOM     13  N   UNL A   1      33.275  25.346  23.158  1.00  0.00    -0.198 NA
BRANCH  13  14
ATOM     14  S   UNL A   1      32.854  26.462  21.914  1.00  0.00     0.244 S 
ATOM     15  O   UNL A   1      34.032  27.214  21.557  1.00  0.00    -0.207 OA
ATOM     16  O   UNL A   1      32.089  25.758  20.896  1.00  0.00    -0.207 OA
BRANCH  14  17
ATOM     17  C   UNL A   1      31.766  27.650  22.542  1.00  0.00     0.100 A 
ATOM     18  C   UNL A   1      30.352  27.526  22.615  1.00  0.00     0.041 A 
ATOM     19  C   UNL A   1      32.097  28.876  23.080  1.00  0.00     0.104 A 
ATOM     20  C   UNL A   1      29.867  28.695  23.161  1.00  0.00     0.083 A 
ATOM     21  N   UNL A   1      30.936  29.509  23.438  1.00  0.00    -0.366 N 
ATOM     22  H   UNL A   1      30.879  30.409  23.834  1.00  0.00     0.165 HD
ENDBRANCH  14  17
ENDBRANCH  13  14
ENDBRANCH   7   8
ENDBRANCH   5   7
ENDBRANCH   2   3
ENDBRANCH   1   2
BRANCH   1  23
ATOM     23  C   UNL A   1      33.736  28.357  27.304  1.00  0.00     0.023 C 
BRANCH  23  24
ATOM     24  C   UNL A   1      35.035  28.970  26.786  1.00  0.00     0.116 C 
BRANCH  24  25
ATOM     25  N   UNL A   1      35.221  30.323  27.278  1.00  0.00    -0.352 N 
ATOM     26  C   UNL A   1      36.126  30.784  28.203  1.00  0.00     0.251 C 
ATOM     27  H   UNL A   1      34.616  31.002  26.900  1.00  0.00     0.163 HD
ATOM     28  O   UNL A   1      35.933  31.866  28.749  1.00  0.00    -0.269 OA
BRANCH  26  29
ATOM     29  C   UNL A   1      37.309  29.975  28.564  1.00  0.00     0.039 A 
ATOM     30  C   UNL A   1      38.468  30.105  27.788  1.00  0.00     0.014 A 
ATOM     31  C   UNL A   1      37.258  29.044  29.608  1.00  0.00     0.014 A 
ATOM     32  C   UNL A   1      39.593  29.346  28.095  1.00  0.00     0.010 A 
ATOM     33  C   UNL A   1      38.389  28.310  29.938  1.00  0.00     0.010 A 
ATOM     34  C   UNL A   1      39.556  28.463  29.182  1.00  0.00    -0.014 A 
BRANCH  34  35
ATOM     35  C   UNL A   1      40.784  27.730  29.561  1.00  0.00     0.031 A 
ATOM     36  C   UNL A   1      41.014  26.487  28.683  1.00  0.00     0.074 A 
ATOM     37  C   UNL A   1      41.494  28.252  30.608  1.00  0.00     0.049 A 
ATOM     38  N   UNL A   1      41.519  25.330  28.986  1.00  0.00    -0.248 NA
ATOM     39  C   UNL A   1      40.517  26.499  27.279  1.00  0.00     0.031 C 
ATOM     40  C   UNL A   1      41.108  29.475  31.346  1.00  0.00     0.029 A 
ATOM     41  N   UNL A   1      42.659  27.901  31.263  1.00  0.00    -0.354 N 
ATOM     42  C   UNL A   1      41.587  24.564  27.797  1.00  0.00     0.074 A 
ATOM     43  C   UNL A   1      40.829  25.284  26.816  1.00  0.00     0.031 C 
ATOM     44  C   UNL A   1      41.962  29.719  32.360  1.00  0.00     0.029 A 
ATOM     45  C   UNL A   1      42.992  28.702  32.390  1.00  0.00     0.049 A 
ATOM     46  H   UNL A   1      43.221  27.148  30.969  1.00  0.00     0.167 HD
ATOM     47  C   UNL A   1      42.386  23.463  27.650  1.00  0.00     0.037 A 
ATOM     48  C   UNL A   1      43.990  28.527  33.315  1.00  0.00     0.037 A 
ATOM     49  C   UNL A   1      43.188  23.295  28.818  1.00  0.00     0.049 A 
ATOM     50  C   UNL A   1      44.765  27.369  32.831  1.00  0.00     0.074 A 
ATOM     51  C   UNL A   1      42.914  22.871  30.090  1.00  0.00     0.029 A 
ATOM     52  N   UNL A   1      44.409  23.929  28.810  1.00  0.00    -0.354 N 
ATOM     53  N   UNL A   1      45.543  27.362  31.789  1.00  0.00    -0.248 NA
ATOM     54  C   UNL A   1      44.564  26.075  33.499  1.00  0.00     0.031 C 
ATOM     55  C   UNL A   1      43.746  23.682  30.891  1.00  0.00     0.029 A 
ATOM     56  C   UNL A   1      44.622  24.411  30.077  1.00  0.00     0.049 A 
ATOM     57  H   UNL A   1      45.017  24.018  28.039  1.00  0.00     0.167 HD
ATOM     58  C   UNL A   1      45.649  26.022  31.502  1.00  0.00     0.074 A 
ATOM     59  C   UNL A   1      45.310  25.306  32.714  1.00  0.00     0.031 C 
ATOM     60  C   UNL A   1      45.458  25.585  30.232  1.00  0.00     0.037 A 
BRANCH  47  61
ATOM     61  C   UNL A   1      42.775  22.610  26.468  1.00  0.00     0.058 A 
ATOM     62  C   UNL A   1      42.410  21.238  26.498  1.00  0.00     0.135 A 
ATOM     63  C   UNL A   1      43.752  22.965  25.527  1.00  0.00     0.135 A 
ATOM     64  F   UNL A   1      41.438  20.807  27.319  1.00  0.00    -0.206 F 
ATOM     65  C   UNL A   1      43.074  20.265  25.758  1.00  0.00     0.059 A 
ATOM     66  C   UNL A   1      44.404  22.007  24.741  1.00  0.00     0.059 A 
ATOM     67  F   UNL A   1      44.158  24.236  25.407  1.00  0.00    -0.206 F 
ATOM     68  C   UNL A   1      44.100  20.655  24.908  1.00  0.00     0.060 A 
BRANCH  68  69
ATOM     69  S   UNL A   1      45.051  19.367  24.069  1.00  0.00     0.124 S 
ATOM     70  O   UNL A   1      44.617  18.169  24.778  1.00  0.00    -0.237 OA
ATOM     71  O   UNL A   1      44.587  19.486  22.689  1.00  0.00    -0.237 OA
ATOM     72  O   UNL A   1      46.435  19.773  24.292  1.00  0.00    -0.744 OA
ENDBRANCH  68  69
ENDBRANCH  47  61
BRANCH  48  73
ATOM     73  C   UNL A   1      44.339  29.063  34.695  1.00  0.00     0.058 A 
ATOM     74  C   UNL A   1      43.857  28.588  35.923  1.00  0.00     0.135 A 
ATOM     75  C   UNL A   1      45.355  30.053  34.827  1.00  0.00     0.135 A 
ATOM     76  F   UNL A   1      42.780  27.798  35.991  1.00  0.00    -0.206 F 
ATOM     77  C   UNL A   1      44.463  28.910  37.152  1.00  0.00     0.059 A 
ATOM     78  C   UNL A   1      46.005  30.353  36.022  1.00  0.00     0.059 A 
ATOM     79  F   UNL A   1      45.792  30.759  33.774  1.00  0.00    -0.206 F 
ATOM     80  C   UNL A   1      45.578  29.743  37.184  1.00  0.00     0.060 A 
BRANCH  80  81
ATOM     81  S   UNL A   1      46.546  29.940  38.696  1.00  0.00     0.124 S 
ATOM     82  O   UNL A   1      47.521  30.948  38.303  1.00  0.00    -0.237 OA
ATOM     83  O   UNL A   1      45.540  30.368  39.662  1.00  0.00    -0.237 OA
ATOM     84  O   UNL A   1      47.080  28.598  38.922  1.00  0.00    -0.744 OA
ENDBRANCH  80  81
ENDBRANCH  48  73
BRANCH  60  85
ATOM     85  C   UNL A   1      45.793  26.589  29.143  1.00  0.00     0.058 A 
ATOM     86  C   UNL A   1      47.122  26.969  28.902  1.00  0.00     0.135 A 
ATOM     87  C   UNL A   1      44.827  27.238  28.359  1.00  0.00     0.135 A 
ATOM     88  F   UNL A   1      48.115  26.409  29.611  1.00  0.00    -0.206 F 
ATOM     89  C   UNL A   1      47.465  27.915  27.926  1.00  0.00     0.059 A 
ATOM     90  C   UNL A   1      45.135  28.176  27.371  1.00  0.00     0.059 A 
ATOM     91  F   UNL A   1      43.536  26.980  28.541  1.00  0.00    -0.206 F 
ATOM     92  C   UNL A   1      46.464  28.506  27.155  1.00  0.00     0.060 A 
BRANCH  92  93
ATOM     93  S   UNL A   1      46.919  29.677  25.855  1.00  0.00     0.124 S 
ATOM     94  O   UNL A   1      48.281  30.048  26.228  1.00  0.00    -0.237 OA
ATOM     95  O   UNL A   1      46.795  28.861  24.653  1.00  0.00    -0.237 OA
ATOM     96  O   UNL A   1      45.928  30.743  25.985  1.00  0.00    -0.744 OA
ENDBRANCH  92  93
ENDBRANCH  60  85
ENDBRANCH  34  35
ENDBRANCH  26  29
ENDBRANCH  24  25
ENDBRANCH  23  24
ENDBRANCH   1  23
TORSDOF 17
ENDMDL
MODEL 2
REMARK VINA RESULT:     -11.6      1.440      2.814
REMARK SMILES O=C(CC1CCN(S(=O)(=O)c2cc[nH]c2)CC1)NCCCCNC(=O)c1ccc(-c2c3nc(c(-c4c(F)cc(S(=O)(=O)[O-])cc4F)c4ccc([nH]4)c(-c4c(F)cc(S(=O)(=O)[O-])cc4F)c4nc(c(-c5c(F)cc(S(=O)(=O)[O-])cc5F)c5ccc2[nH]5)C=C4)C=C3)cc1
REMARK SMILES IDX 20 1 19 2 18 3 1 4 2 5 3 7 4 8 5 9 17 10 6 11 16 12 7 13
REMARK SMILES IDX 8 14 9 15 10 16 11 17 12 18 15 19 13 20 14 21 21 23 22 24
REMARK SMILES IDX 23 25 24 26 25 28 26 29 27 30 91 31 28 32 90 33 29 34 30 35
REMARK SMILES IDX 31 36 84 37 32 38 89 39 83 40 85 41 33 42 88 43 82 44 81 45
REMARK SMILES IDX 34 47 68 48 47 49 67 50 48 51 51 52 66 53 86 54 49 55 50 56
REMARK SMILES IDX 65 58 87 59 52 60 35 61 36 62 45 63 37 64 38 65 44 66 46 67
REMARK SMILES IDX 39 68 40 69 41 70 42 71 43 72 69 73 70 74 79 75 71 76 72 77
REMARK SMILES IDX 78 78 80 79 73 80 74 81 75 82 76 83 77 84 53 85 54 86 63 87
REMARK SMILES IDX 55 88 56 89 62 90 64 91 57 92 58 93 59 94 60 95 61 96
REMARK H PARENT 18 6 14 22 23 27 85 46 51 57
REMARK Flexibility Score: inf
ROOT
ATOM      1  C   UNL A   1      32.658  29.838  26.571  1.00  0.00     0.023 C 
ENDROOT
BRANCH   1   2
ATOM      2  C   UNL A   1      31.636  30.072  25.459  1.00  0.00     0.116 C 
BRANCH   2   3
ATOM      3  N   UNL A   1      31.888  29.252  24.288  1.00  0.00    -0.356 N 
ATOM      4  O   UNL A   1      30.572  27.468  24.903  1.00  0.00    -0.275 OA
ATOM      5  C   UNL A   1      31.262  28.045  24.071  1.00  0.00     0.220 C 
ATOM      6  H   UNL A   1      32.536  29.575  23.620  1.00  0.00     0.163 HD
BRANCH   5   7
ATOM      7  C   UNL A   1      31.510  27.472  22.688  1.00  0.00     0.103 C 
BRANCH   7   8
ATOM      8  C   UNL A   1      32.911  26.899  22.377  1.00  0.00     0.001 C 
ATOM      9  C   UNL A   1      33.003  25.794  21.319  1.00  0.00     0.021 C 
ATOM     10  C   UNL A   1      33.670  26.429  23.621  1.00  0.00     0.021 C 
ATOM     11  C   UNL A   1      32.600  24.404  21.811  1.00  0.00     0.103 C 
ATOM     12  C   UNL A   1      33.174  25.090  24.146  1.00  0.00     0.103 C 
ATOM     13  N   UNL A   1      33.228  24.036  23.105  1.00  0.00    -0.198 NA
BRANCH  13  14
ATOM     14  S   UNL A   1      32.667  22.503  23.658  1.00  0.00     0.244 S 
ATOM     15  O   UNL A   1      31.804  22.715  24.794  1.00  0.00    -0.207 OA
ATOM     16  O   UNL A   1      32.206  21.734  22.512  1.00  0.00    -0.207 OA
BRANCH  14  17
ATOM     17  C   UNL A   1      33.993  21.594  24.295  1.00  0.00     0.100 A 
ATOM     18  C   UNL A   1      35.317  22.075  24.481  1.00  0.00     0.041 A 
ATOM     19  C   UNL A   1      33.968  20.286  24.734  1.00  0.00     0.104 A 
ATOM     20  C   UNL A   1      36.062  21.034  24.993  1.00  0.00     0.083 A 
ATOM     21  N   UNL A   1      35.232  19.951  25.141  1.00  0.00    -0.366 N 
ATOM     22  H   UNL A   1      35.502  19.070  25.486  1.00  0.00     0.165 HD
ENDBRANCH  14  17
ENDBRANCH  13  14
ENDBRANCH   7   8
ENDBRANCH   5   7
ENDBRANCH   2   3
ENDBRANCH   1   2
BRANCH   1  23
ATOM     23  C   UNL A   1      33.610  28.652  26.352  1.00  0.00     0.023 C 
BRANCH  23  24
ATOM     24  C   UNL A   1      34.990  28.826  26.981  1.00  0.00     0.116 C 
BRANCH  24  25
ATOM     25  N   UNL A   1      35.270  30.220  27.277  1.00  0.00    -0.352 N 
ATOM     26  C   UNL A   1      36.264  30.748  28.064  1.00  0.00     0.251 C 
ATOM     27  H   UNL A   1      34.667  30.875  26.857  1.00  0.00     0.163 HD
ATOM     28  O   UNL A   1      36.161  31.900  28.476  1.00  0.00    -0.269 OA
BRANCH  26  29
ATOM     29  C   UNL A   1      37.437  29.931  28.441  1.00  0.00     0.039 A 
ATOM     30  C   UNL A   1      38.586  30.007  27.644  1.00  0.00     0.014 A 
ATOM     31  C   UNL A   1      37.385  29.046  29.523  1.00  0.00     0.014 A 
ATOM     32  C   UNL A   1      39.701  29.239  27.966  1.00  0.00     0.010 A 
ATOM     33  C   UNL A   1      38.507  28.304  29.868  1.00  0.00     0.010 A 
ATOM     34  C   UNL A   1      39.665  28.403  29.089  1.00  0.00    -0.014 A 
BRANCH  34  35
ATOM     35  C   UNL A   1      40.884  27.662  29.481  1.00  0.00     0.031 A 
ATOM     36  C   UNL A   1      41.119  26.421  28.601  1.00  0.00     0.074 A 
ATOM     37  C   UNL A   1      41.584  28.178  30.537  1.00  0.00     0.049 A 
ATOM     38  N   UNL A   1      41.614  25.260  28.906  1.00  0.00    -0.248 NA
ATOM     39  C   UNL A   1      40.639  26.440  27.191  1.00  0.00     0.031 C 
ATOM     40  C   UNL A   1      41.196  29.400  31.275  1.00  0.00     0.029 A 
ATOM     41  N   UNL A   1      42.739  27.819  31.205  1.00  0.00    -0.354 N 
ATOM     42  C   UNL A   1      41.692  24.498  27.715  1.00  0.00     0.074 A 
ATOM     43  C   UNL A   1      40.950  25.225  26.728  1.00  0.00     0.031 C 
ATOM     44  C   UNL A   1      42.038  29.637  32.300  1.00  0.00     0.029 A 
ATOM     45  C   UNL A   1      43.062  28.615  32.339  1.00  0.00     0.049 A 
ATOM     46  H   UNL A   1      43.301  27.064  30.916  1.00  0.00     0.167 HD
ATOM     47  C   UNL A   1      42.488  23.393  27.575  1.00  0.00     0.037 A 
ATOM     48  C   UNL A   1      44.048  28.431  33.275  1.00  0.00     0.037 A 
ATOM     49  C   UNL A   1      43.275  23.217  28.752  1.00  0.00     0.049 A 
ATOM     50  C   UNL A   1      44.823  27.271  32.797  1.00  0.00     0.074 A 
ATOM     51  C   UNL A   1      42.983  22.791  30.020  1.00  0.00     0.029 A 
ATOM     52  N   UNL A   1      44.499  23.845  28.760  1.00  0.00    -0.354 N 
ATOM     53  N   UNL A   1      45.614  27.264  31.765  1.00  0.00    -0.248 NA
ATOM     54  C   UNL A   1      44.608  25.976  33.458  1.00  0.00     0.031 C 
ATOM     55  C   UNL A   1      43.809  23.595  30.833  1.00  0.00     0.029 A 
ATOM     56  C   UNL A   1      44.699  24.323  30.032  1.00  0.00     0.049 A 
ATOM     57  H   UNL A   1      45.116  23.934  27.997  1.00  0.00     0.167 HD
ATOM     58  C   UNL A   1      45.717  25.923  31.475  1.00  0.00     0.074 A 
ATOM     59  C   UNL A   1      45.359  25.206  32.679  1.00  0.00     0.031 C 
ATOM     60  C   UNL A   1      45.539  25.492  30.201  1.00  0.00     0.037 A 
BRANCH  47  61
ATOM     61  C   UNL A   1      42.887  22.542  26.394  1.00  0.00     0.058 A 
ATOM     62  C   UNL A   1      42.483  21.181  26.399  1.00  0.00     0.135 A 
ATOM     63  C   UNL A   1      43.899  22.880  25.486  1.00  0.00     0.135 A 
ATOM     64  F   UNL A   1      41.477  20.768  27.188  1.00  0.00    -0.206 F 
ATOM     65  C   UNL A   1      43.141  20.197  25.667  1.00  0.00     0.059 A 
ATOM     66  C   UNL A   1      44.547  21.912  24.708  1.00  0.00     0.059 A 
ATOM     67  F   UNL A   1      44.343  24.141  25.392  1.00  0.00    -0.206 F 
ATOM     68  C   UNL A   1      44.201  20.568  24.852  1.00  0.00     0.060 A 
BRANCH  68  69
ATOM     69  S   UNL A   1      45.140  19.263  24.025  1.00  0.00     0.124 S 
ATOM     70  O   UNL A   1      44.841  18.107  24.862  1.00  0.00    -0.237 OA
ATOM     71  O   UNL A   1      44.543  19.247  22.692  1.00  0.00    -0.237 OA
ATOM     72  O   UNL A   1      46.514  19.751  24.081  1.00  0.00    -0.744 OA
ENDBRANCH  68  69
ENDBRANCH  47  61
BRANCH  48  73
ATOM     73  C   UNL A   1      44.383  28.961  34.661  1.00  0.00     0.058 A 
ATOM     74  C   UNL A   1      45.536  29.667  35.031  1.00  0.00     0.135 A 
ATOM     75  C   UNL A   1      43.406  28.883  35.697  1.00  0.00     0.135 A 
ATOM     76  F   UNL A   1      46.624  29.680  34.255  1.00  0.00    -0.206 F 
ATOM     77  C   UNL A   1      45.627  30.398  36.231  1.00  0.00     0.059 A 
ATOM     78  C   UNL A   1      43.448  29.634  36.869  1.00  0.00     0.059 A 
ATOM     79  F   UNL A   1      42.333  28.086  35.594  1.00  0.00    -0.206 F 
ATOM     80  C   UNL A   1      44.551  30.427  37.113  1.00  0.00     0.060 A 
BRANCH  80  81
ATOM     81  S   UNL A   1      44.524  31.577  38.506  1.00  0.00     0.124 S 
ATOM     82  O   UNL A   1      45.651  31.114  39.304  1.00  0.00    -0.237 OA
ATOM     83  O   UNL A   1      44.694  32.870  37.851  1.00  0.00    -0.237 OA
ATOM     84  O   UNL A   1      43.202  31.356  39.089  1.00  0.00    -0.744 OA
ENDBRANCH  80  81
ENDBRANCH  48  73
BRANCH  60  85
ATOM     85  C   UNL A   1      45.892  26.498  29.119  1.00  0.00     0.058 A 
ATOM     86  C   UNL A   1      47.231  26.801  28.831  1.00  0.00     0.135 A 
ATOM     87  C   UNL A   1      44.937  27.223  28.388  1.00  0.00     0.135 A 
ATOM     88  F   UNL A   1      48.215  26.165  29.487  1.00  0.00    -0.206 F 
ATOM     89  C   UNL A   1      47.594  27.745  27.861  1.00  0.00     0.059 A 
ATOM     90  C   UNL A   1      45.263  28.162  27.408  1.00  0.00     0.059 A 
ATOM     91  F   UNL A   1      43.641  27.040  28.619  1.00  0.00    -0.206 F 
ATOM     92  C   UNL A   1      46.601  28.414  27.144  1.00  0.00     0.060 A 
BRANCH  92  93
ATOM     93  S   UNL A   1      47.076  29.584  25.850  1.00  0.00     0.124 S 
ATOM     94  O   UNL A   1      47.428  28.701  24.742  1.00  0.00    -0.237 OA
ATOM     95  O   UNL A   1      45.851  30.358  25.675  1.00  0.00    -0.237 OA
ATOM     96  O   UNL A   1      48.194  30.319  26.438  1.00  0.00    -0.744 OA
ENDBRANCH  92  93
ENDBRANCH  60  85
ENDBRANCH  34  35
ENDBRANCH  26  29
ENDBRANCH  24  25
ENDBRANCH  23  24
ENDBRANCH   1  23
TORSDOF 17
ENDMDL
MODEL 3
REMARK VINA RESULT:     -11.5      4.442      9.901
REMARK SMILES O=C(CC1CCN(S(=O)(=O)c2cc[nH]c2)CC1)NCCCCNC(=O)c1ccc(-c2c3nc(c(-c4c(F)cc(S(=O)(=O)[O-])cc4F)c4ccc([nH]4)c(-c4c(F)cc(S(=O)(=O)[O-])cc4F)c4nc(c(-c5c(F)cc(S(=O)(=O)[O-])cc5F)c5ccc2[nH]5)C=C4)C=C3)cc1
REMARK SMILES IDX 20 1 19 2 18 3 1 4 2 5 3 7 4 8 5 9 17 10 6 11 16 12 7 13
REMARK SMILES IDX 8 14 9 15 10 16 11 17 12 18 15 19 13 20 14 21 21 23 22 24
REMARK SMILES IDX 23 25 24 26 25 28 26 29 27 30 91 31 28 32 90 33 29 34 30 35
REMARK SMILES IDX 31 36 84 37 32 38 89 39 83 40 85 41 33 42 88 43 82 44 81 45
REMARK SMILES IDX 34 47 68 48 47 49 67 50 48 51 51 52 66 53 86 54 49 55 50 56
REMARK SMILES IDX 65 58 87 59 52 60 35 61 36 62 45 63 37 64 38 65 44 66 46 67
REMARK SMILES IDX 39 68 40 69 41 70 42 71 43 72 69 73 70 74 79 75 71 76 72 77
REMARK SMILES IDX 78 78 80 79 73 80 74 81 75 82 76 83 77 84 53 85 54 86 63 87
REMARK SMILES IDX 55 88 56 89 62 90 64 91 57 92 58 93 59 94 60 95 61 96
REMARK H PARENT 18 6 14 22 23 27 85 46 51 57
REMARK Flexibility Score: inf
ROOT
ATOM      1  C   UNL A   1      36.769  21.714  25.220  1.00  0.00     0.023 C 
ENDROOT
BRANCH   1   2
ATOM      2  C   UNL A   1      35.635  20.712  25.000  1.00  0.00     0.116 C 
BRANCH   2   3
ATOM      3  N   UNL A   1      34.344  21.355  24.845  1.00  0.00    -0.356 N 
ATOM      4  O   UNL A   1      33.079  19.684  25.794  1.00  0.00    -0.275 OA
ATOM      5  C   UNL A   1      33.175  20.816  25.336  1.00  0.00     0.220 C 
ATOM      6  H   UNL A   1      34.302  22.215  24.368  1.00  0.00     0.163 HD
BRANCH   5   7
ATOM      7  C   UNL A   1      31.990  21.759  25.255  1.00  0.00     0.103 C 
BRANCH   7   8
ATOM      8  C   UNL A   1      31.648  22.610  26.499  1.00  0.00     0.001 C 
ATOM      9  C   UNL A   1      30.340  23.407  26.472  1.00  0.00     0.021 C 
ATOM     10  C   UNL A   1      32.773  23.560  26.917  1.00  0.00     0.021 C 
ATOM     11  C   UNL A   1      30.398  24.703  25.665  1.00  0.00     0.103 C 
ATOM     12  C   UNL A   1      32.870  24.791  26.030  1.00  0.00     0.103 C 
ATOM     13  N   UNL A   1      31.588  25.534  25.977  1.00  0.00    -0.198 NA
BRANCH  13  14
ATOM     14  S   UNL A   1      31.653  26.934  24.974  1.00  0.00     0.244 S 
ATOM     15  O   UNL A   1      32.802  26.824  24.109  1.00  0.00    -0.207 OA
ATOM     16  O   UNL A   1      30.330  27.171  24.418  1.00  0.00    -0.207 OA
BRANCH  14  17
ATOM     17  C   UNL A   1      31.982  28.328  25.942  1.00  0.00     0.100 A 
ATOM     18  C   UNL A   1      31.792  29.679  25.546  1.00  0.00     0.041 A 
ATOM     19  C   UNL A   1      32.454  28.345  27.239  1.00  0.00     0.104 A 
ATOM     20  C   UNL A   1      32.189  30.475  26.599  1.00  0.00     0.083 A 
ATOM     21  N   UNL A   1      32.592  29.652  27.623  1.00  0.00    -0.366 N 
ATOM     22  H   UNL A   1      32.927  29.955  28.497  1.00  0.00     0.165 HD
ENDBRANCH  14  17
ENDBRANCH  13  14
ENDBRANCH   7   8
ENDBRANCH   5   7
ENDBRANCH   2   3
ENDBRANCH   1   2
BRANCH   1  23
ATOM     23  C   UNL A   1      36.327  23.172  25.422  1.00  0.00     0.023 C 
BRANCH  23  24
ATOM     24  C   UNL A   1      37.406  24.083  26.004  1.00  0.00     0.116 C 
BRANCH  24  25
ATOM     25  N   UNL A   1      38.508  23.318  26.560  1.00  0.00    -0.352 N 
ATOM     26  C   UNL A   1      39.693  23.775  27.084  1.00  0.00     0.251 C 
ATOM     27  H   UNL A   1      38.391  22.340  26.562  1.00  0.00     0.163 HD
ATOM     28  O   UNL A   1      40.640  23.002  27.198  1.00  0.00    -0.269 OA
BRANCH  26  29
ATOM     29  C   UNL A   1      39.843  25.190  27.480  1.00  0.00     0.039 A 
ATOM     30  C   UNL A   1      39.486  25.559  28.784  1.00  0.00     0.014 A 
ATOM     31  C   UNL A   1      40.260  26.159  26.561  1.00  0.00     0.014 A 
ATOM     32  C   UNL A   1      39.602  26.888  29.181  1.00  0.00     0.010 A 
ATOM     33  C   UNL A   1      40.410  27.479  26.964  1.00  0.00     0.010 A 
ATOM     34  C   UNL A   1      40.082  27.841  28.275  1.00  0.00    -0.014 A 
BRANCH  34  35
ATOM     35  C   UNL A   1      40.294  29.233  28.732  1.00  0.00     0.031 A 
ATOM     36  C   UNL A   1      38.967  29.968  28.991  1.00  0.00     0.074 A 
ATOM     37  C   UNL A   1      41.597  29.636  28.840  1.00  0.00     0.049 A 
ATOM     38  N   UNL A   1      38.651  31.214  28.809  1.00  0.00    -0.248 NA
ATOM     39  C   UNL A   1      37.782  29.178  29.426  1.00  0.00     0.031 C 
ATOM     40  C   UNL A   1      42.761  28.774  28.538  1.00  0.00     0.029 A 
ATOM     41  N   UNL A   1      42.224  30.807  29.220  1.00  0.00    -0.354 N 
ATOM     42  C   UNL A   1      37.330  31.398  29.284  1.00  0.00     0.074 A 
ATOM     43  C   UNL A   1      36.805  30.085  29.518  1.00  0.00     0.031 C 
ATOM     44  C   UNL A   1      43.917  29.453  28.678  1.00  0.00     0.029 A 
ATOM     45  C   UNL A   1      43.640  30.812  29.092  1.00  0.00     0.049 A 
ATOM     46  H   UNL A   1      41.723  31.585  29.556  1.00  0.00     0.167 HD
ATOM     47  C   UNL A   1      36.802  32.622  29.598  1.00  0.00     0.037 A 
ATOM     48  C   UNL A   1      44.522  31.851  29.251  1.00  0.00     0.037 A 
ATOM     49  C   UNL A   1      37.810  33.624  29.474  1.00  0.00     0.049 A 
ATOM     50  C   UNL A   1      43.703  32.984  29.721  1.00  0.00     0.074 A 
ATOM     51  C   UNL A   1      38.419  34.212  28.398  1.00  0.00     0.029 A 
ATOM     52  N   UNL A   1      38.550  33.881  30.605  1.00  0.00    -0.354 N 
ATOM     53  N   UNL A   1      43.158  33.087  30.898  1.00  0.00    -0.248 NA
ATOM     54  C   UNL A   1      43.364  34.039  28.756  1.00  0.00     0.031 C 
ATOM     55  C   UNL A   1      39.749  34.392  28.834  1.00  0.00     0.029 A 
ATOM     56  C   UNL A   1      39.844  34.096  30.201  1.00  0.00     0.049 A 
ATOM     57  H   UNL A   1      38.213  33.906  31.531  1.00  0.00     0.167 HD
ATOM     58  C   UNL A   1      42.175  34.025  30.693  1.00  0.00     0.074 A 
ATOM     59  C   UNL A   1      42.544  34.767  29.506  1.00  0.00     0.031 C 
ATOM     60  C   UNL A   1      40.912  33.789  31.131  1.00  0.00     0.037 A 
BRANCH  47  61
ATOM     61  C   UNL A   1      35.530  33.061  30.281  1.00  0.00     0.058 A 
ATOM     62  C   UNL A   1      34.598  33.810  29.514  1.00  0.00     0.135 A 
ATOM     63  C   UNL A   1      35.355  33.099  31.670  1.00  0.00     0.135 A 
ATOM     64  F   UNL A   1      34.641  33.788  28.171  1.00  0.00    -0.206 F 
ATOM     65  C   UNL A   1      33.656  34.657  30.091  1.00  0.00     0.059 A 
ATOM     66  C   UNL A   1      34.385  33.912  32.271  1.00  0.00     0.059 A 
ATOM     67  F   UNL A   1      36.172  32.417  32.484  1.00  0.00    -0.206 F 
ATOM     68  C   UNL A   1      33.583  34.732  31.475  1.00  0.00     0.060 A 
BRANCH  68  69
ATOM     69  S   UNL A   1      32.461  35.945  32.207  1.00  0.00     0.124 S 
ATOM     70  O   UNL A   1      33.299  36.537  33.243  1.00  0.00    -0.237 OA
ATOM     71  O   UNL A   1      32.155  36.811  31.071  1.00  0.00    -0.237 OA
ATOM     72  O   UNL A   1      31.347  35.130  32.678  1.00  0.00    -0.744 OA
ENDBRANCH  68  69
ENDBRANCH  47  61
BRANCH  48  73
ATOM     73  C   UNL A   1      45.972  32.147  28.902  1.00  0.00     0.058 A 
ATOM     74  C   UNL A   1      47.076  32.056  29.762  1.00  0.00     0.135 A 
ATOM     75  C   UNL A   1      46.327  32.414  27.547  1.00  0.00     0.135 A 
ATOM     76  F   UNL A   1      46.921  31.996  31.089  1.00  0.00    -0.206 F 
ATOM     77  C   UNL A   1      48.403  32.028  29.294  1.00  0.00     0.059 A 
ATOM     78  C   UNL A   1      47.627  32.341  27.050  1.00  0.00     0.059 A 
ATOM     79  F   UNL A   1      45.405  32.727  26.626  1.00  0.00    -0.206 F 
ATOM     80  C   UNL A   1      48.664  32.105  27.929  1.00  0.00     0.060 A 
BRANCH  80  81
ATOM     81  S   UNL A   1      50.318  31.780  27.281  1.00  0.00     0.124 S 
ATOM     82  O   UNL A   1      50.583  32.985  26.507  1.00  0.00    -0.237 OA
ATOM     83  O   UNL A   1      51.108  31.616  28.497  1.00  0.00    -0.237 OA
ATOM     84  O   UNL A   1      50.132  30.557  26.503  1.00  0.00    -0.744 OA
ENDBRANCH  80  81
ENDBRANCH  48  73
BRANCH  60  85
ATOM     85  C   UNL A   1      40.805  32.877  32.341  1.00  0.00     0.058 A 
ATOM     86  C   UNL A   1      41.206  33.320  33.610  1.00  0.00     0.135 A 
ATOM     87  C   UNL A   1      40.366  31.545  32.275  1.00  0.00     0.135 A 
ATOM     88  F   UNL A   1      41.650  34.577  33.769  1.00  0.00    -0.206 F 
ATOM     89  C   UNL A   1      41.149  32.497  34.743  1.00  0.00     0.059 A 
ATOM     90  C   UNL A   1      40.286  30.702  33.385  1.00  0.00     0.059 A 
ATOM     91  F   UNL A   1      40.006  31.018  31.110  1.00  0.00    -0.206 F 
ATOM     92  C   UNL A   1      40.676  31.190  34.623  1.00  0.00     0.060 A 
BRANCH  92  93
ATOM     93  S   UNL A   1      40.545  30.154  36.100  1.00  0.00     0.124 S 
ATOM     94  O   UNL A   1      40.844  28.823  35.577  1.00  0.00    -0.237 OA
ATOM     95  O   UNL A   1      41.563  30.733  36.970  1.00  0.00    -0.237 OA
ATOM     96  O   UNL A   1      39.166  30.352  36.542  1.00  0.00    -0.744 OA
ENDBRANCH  92  93
ENDBRANCH  60  85
ENDBRANCH  34  35
ENDBRANCH  26  29
ENDBRANCH  24  25
ENDBRANCH  23  24
ENDBRANCH   1  23
TORSDOF 17
ENDMDL
