MODEL 1
REMARK VINA RESULT:     -12.2      0.000      0.000
REMARK SMILES Cc1cc(C)c2c(OCCCC(=O)NCCCCNC(=O)c3ccc(-c4c5nc(c(-c6c(F)cc(S(=O)(=O)[O-])cc6F)c6ccc([nH]6)c(-c6c(F)cc(S(=O)(=O)[O-])cc6F)c6nc(c(-c7c(F)cc(S(=O)(=O)[O-])cc7F)c7ccc4[nH]7)C=C6)C=C5)cc3)nsc2n1
REMARK SMILES IDX 16 1 15 2 14 3 12 4 13 5 11 7 10 8 9 9 8 10 7 11 1 12 2 13
REMARK SMILES IDX 3 14 91 15 4 16 90 17 5 18 6 19 89 20 88 21 17 22 18 23
REMARK SMILES IDX 19 24 20 25 21 27 22 28 23 29 87 30 24 31 86 32 25 33 26 34
REMARK SMILES IDX 27 35 80 36 28 37 85 38 79 39 81 40 29 41 84 42 78 43 77 44
REMARK SMILES IDX 30 46 64 47 43 48 63 49 44 50 47 51 62 52 82 53 45 54 46 55
REMARK SMILES IDX 61 57 83 58 48 59 31 60 32 61 41 62 33 63 34 64 40 65 42 66
REMARK SMILES IDX 35 67 36 68 37 69 38 70 39 71 65 72 66 73 75 74 67 75 68 76
REMARK SMILES IDX 74 77 76 78 69 79 70 80 71 81 72 82 73 83 49 84 50 85 59 86
REMARK SMILES IDX 51 87 52 88 58 89 60 90 53 91 54 92 55 93 56 94 57 95
REMARK H PARENT 14 6 19 26 81 45 47 56
REMARK Flexibility Score: inf
ROOT
ATOM      1  C   UNL A   1      36.140  21.159  24.738  1.00  0.00     0.023 C 
ENDROOT
BRANCH   1   2
ATOM      2  C   UNL A   1      35.023  21.264  25.816  1.00  0.00     0.116 C 
BRANCH   2   3
ATOM      3  N   UNL A   1      33.962  20.208  25.672  1.00  0.00    -0.356 N 
ATOM      4  C   UNL A   1      32.944  19.648  24.972  1.00  0.00     0.220 C 
ATOM      5  O   UNL A   1      32.416  18.736  25.643  1.00  0.00    -0.275 OA
ATOM      6  H   UNL A   1      34.050  19.651  26.479  1.00  0.00     0.163 HD
BRANCH   4   7
ATOM      7  C   UNL A   1      32.400  19.804  23.506  1.00  0.00     0.103 C 
BRANCH   7   8
ATOM      8  C   UNL A   1      32.372  21.110  22.636  1.00  0.00     0.051 C 
BRANCH   8   9
ATOM      9  C   UNL A   1      32.978  22.512  22.974  1.00  0.00     0.232 C 
BRANCH   9  10
ATOM     10  O   UNL A   1      32.164  23.618  23.378  1.00  0.00    -0.477 OA
BRANCH  10  11
ATOM     11  C   UNL A   1      31.884  23.873  24.683  1.00  0.00     0.235 A 
ATOM     12  C   UNL A   1      31.766  28.783  26.978  1.00  0.00     0.067 C 
ATOM     13  C   UNL A   1      32.093  27.338  26.721  1.00  0.00     0.039 A 
ATOM     14  C   UNL A   1      33.291  26.997  26.102  1.00  0.00     0.027 A 
ATOM     15  N   UNL A   1      31.142  26.429  27.026  1.00  0.00    -0.240 NA
ATOM     16  C   UNL A   1      33.494  25.693  25.619  1.00  0.00    -0.034 A 
ATOM     17  C   UNL A   1      31.308  25.255  26.392  1.00  0.00     0.147 A 
ATOM     18  C   UNL A   1      34.801  25.132  25.193  1.00  0.00     0.045 C 
ATOM     19  C   UNL A   1      32.345  24.910  25.540  1.00  0.00     0.078 A 
ATOM     20  S   UNL A   1      30.273  23.909  26.512  1.00  0.00    -0.012 S 
ATOM     21  N   UNL A   1      30.878  23.134  25.156  1.00  0.00    -0.153 NA
ENDBRANCH  10  11
ENDBRANCH   9  10
ENDBRANCH   8   9
ENDBRANCH   7   8
ENDBRANCH   4   7
ENDBRANCH   2   3
ENDBRANCH   1   2
BRANCH   1  22
ATOM     22  C   UNL A   1      36.864  22.471  24.348  1.00  0.00     0.023 C 
BRANCH  22  23
ATOM     23  C   UNL A   1      37.816  23.072  25.386  1.00  0.00     0.116 C 
BRANCH  23  24
ATOM     24  N   UNL A   1      38.498  22.084  26.230  1.00  0.00    -0.352 N 
ATOM     25  C   UNL A   1      39.647  22.295  26.992  1.00  0.00     0.251 C 
ATOM     26  H   UNL A   1      38.105  21.182  26.262  1.00  0.00     0.163 HD
ATOM     27  O   UNL A   1      40.299  21.384  27.445  1.00  0.00    -0.269 OA
BRANCH  25  28
ATOM     28  C   UNL A   1      40.035  23.705  27.221  1.00  0.00     0.039 A 
ATOM     29  C   UNL A   1      39.107  24.743  27.105  1.00  0.00     0.014 A 
ATOM     30  C   UNL A   1      41.311  23.924  27.728  1.00  0.00     0.014 A 
ATOM     31  C   UNL A   1      39.439  25.996  27.622  1.00  0.00     0.010 A 
ATOM     32  C   UNL A   1      41.589  25.127  28.336  1.00  0.00     0.010 A 
ATOM     33  C   UNL A   1      40.667  26.176  28.278  1.00  0.00    -0.014 A 
BRANCH  33  34
ATOM     34  C   UNL A   1      40.947  27.425  28.992  1.00  0.00     0.031 A 
ATOM     35  C   UNL A   1      42.019  28.311  28.433  1.00  0.00     0.074 A 
ATOM     36  C   UNL A   1      40.142  27.903  29.965  1.00  0.00     0.049 A 
ATOM     37  N   UNL A   1      43.117  28.695  29.001  1.00  0.00    -0.248 NA
ATOM     38  C   UNL A   1      41.881  28.787  27.047  1.00  0.00     0.031 C 
ATOM     39  C   UNL A   1      38.868  27.359  30.452  1.00  0.00     0.029 A 
ATOM     40  N   UNL A   1      40.247  29.076  30.644  1.00  0.00    -0.354 N 
ATOM     41  C   UNL A   1      43.735  29.591  28.126  1.00  0.00     0.074 A 
ATOM     42  C   UNL A   1      42.992  29.515  26.894  1.00  0.00     0.031 C 
ATOM     43  C   UNL A   1      38.212  28.311  31.148  1.00  0.00     0.029 A 
ATOM     44  C   UNL A   1      39.090  29.454  31.307  1.00  0.00     0.049 A 
ATOM     45  H   UNL A   1      41.074  29.610  30.664  1.00  0.00     0.167 HD
ATOM     46  C   UNL A   1      44.718  30.448  28.531  1.00  0.00     0.037 A 
ATOM     47  C   UNL A   1      38.850  30.640  31.915  1.00  0.00     0.037 A 
ATOM     48  C   UNL A   1      45.231  30.087  29.827  1.00  0.00     0.049 A 
ATOM     49  C   UNL A   1      40.172  31.239  32.235  1.00  0.00     0.074 A 
ATOM     50  C   UNL A   1      45.852  28.968  30.345  1.00  0.00     0.029 A 
ATOM     51  N   UNL A   1      44.814  30.814  30.917  1.00  0.00    -0.354 N 
ATOM     52  N   UNL A   1      41.018  30.718  33.085  1.00  0.00    -0.248 NA
ATOM     53  C   UNL A   1      40.753  32.168  31.276  1.00  0.00     0.031 C 
ATOM     54  C   UNL A   1      45.311  28.828  31.657  1.00  0.00     0.029 A 
ATOM     55  C   UNL A   1      44.444  29.901  31.873  1.00  0.00     0.049 A 
ATOM     56  H   UNL A   1      44.786  31.795  30.996  1.00  0.00     0.167 HD
ATOM     57  C   UNL A   1      42.269  30.914  32.516  1.00  0.00     0.074 A 
ATOM     58  C   UNL A   1      42.049  31.897  31.456  1.00  0.00     0.031 C 
ATOM     59  C   UNL A   1      43.315  30.069  32.764  1.00  0.00     0.037 A 
BRANCH  46  60
ATOM     60  C   UNL A   1      45.043  31.787  27.905  1.00  0.00     0.058 A 
ATOM     61  C   UNL A   1      46.332  32.018  27.373  1.00  0.00     0.135 A 
ATOM     62  C   UNL A   1      44.238  32.933  28.065  1.00  0.00     0.135 A 
ATOM     63  F   UNL A   1      47.184  30.999  27.174  1.00  0.00    -0.206 F 
ATOM     64  C   UNL A   1      46.812  33.300  27.100  1.00  0.00     0.059 A 
ATOM     65  C   UNL A   1      44.679  34.216  27.751  1.00  0.00     0.059 A 
ATOM     66  F   UNL A   1      43.025  32.871  28.628  1.00  0.00    -0.206 F 
ATOM     67  C   UNL A   1      45.983  34.396  27.315  1.00  0.00     0.060 A 
BRANCH  67  68
ATOM     68  S   UNL A   1      46.646  36.060  27.106  1.00  0.00     0.124 S 
ATOM     69  O   UNL A   1      47.974  35.918  27.692  1.00  0.00    -0.237 OA
ATOM     70  O   UNL A   1      46.601  36.228  25.657  1.00  0.00    -0.237 OA
ATOM     71  O   UNL A   1      45.710  36.890  27.858  1.00  0.00    -0.744 OA
ENDBRANCH  67  68
ENDBRANCH  46  60
BRANCH  47  72
ATOM     72  C   UNL A   1      37.561  31.375  31.934  1.00  0.00     0.058 A 
ATOM     73  C   UNL A   1      36.910  31.697  33.136  1.00  0.00     0.135 A 
ATOM     74  C   UNL A   1      37.048  31.989  30.769  1.00  0.00     0.135 A 
ATOM     75  F   UNL A   1      37.351  31.187  34.296  1.00  0.00    -0.206 F 
ATOM     76  C   UNL A   1      35.834  32.592  33.185  1.00  0.00     0.059 A 
ATOM     77  C   UNL A   1      35.969  32.867  30.789  1.00  0.00     0.059 A 
ATOM     78  F   UNL A   1      37.643  31.822  29.577  1.00  0.00    -0.206 F 
ATOM     79  C   UNL A   1      35.380  33.184  32.005  1.00  0.00     0.060 A 
BRANCH  79  80
ATOM     80  S   UNL A   1      34.098  34.456  32.080  1.00  0.00     0.124 S 
ATOM     81  O   UNL A   1      34.843  35.610  32.570  1.00  0.00    -0.237 OA
ATOM     82  O   UNL A   1      33.654  34.523  30.692  1.00  0.00    -0.237 OA
ATOM     83  O   UNL A   1      33.122  33.899  33.014  1.00  0.00    -0.744 OA
ENDBRANCH  79  80
ENDBRANCH  47  72
BRANCH  59  84
ATOM     84  C   UNL A   1      43.185  29.044  33.864  1.00  0.00     0.058 A 
ATOM     85  C   UNL A   1      43.361  29.331  35.229  1.00  0.00     0.135 A 
ATOM     86  C   UNL A   1      42.657  27.783  33.545  1.00  0.00     0.135 A 
ATOM     87  F   UNL A   1      43.756  30.544  35.633  1.00  0.00    -0.206 F 
ATOM     88  C   UNL A   1      43.054  28.405  36.227  1.00  0.00     0.059 A 
ATOM     89  C   UNL A   1      42.314  26.852  34.525  1.00  0.00     0.059 A 
ATOM     90  F   UNL A   1      42.401  27.465  32.265  1.00  0.00    -0.206 F 
ATOM     91  C   UNL A   1      42.522  27.169  35.866  1.00  0.00     0.060 A 
BRANCH  91  92
ATOM     92  S   UNL A   1      42.026  26.019  37.167  1.00  0.00     0.124 S 
ATOM     93  O   UNL A   1      42.258  24.724  36.537  1.00  0.00    -0.237 OA
ATOM     94  O   UNL A   1      42.931  26.366  38.259  1.00  0.00    -0.237 OA
ATOM     95  O   UNL A   1      40.623  26.355  37.402  1.00  0.00    -0.744 OA
ENDBRANCH  91  92
ENDBRANCH  59  84
ENDBRANCH  33  34
ENDBRANCH  25  28
ENDBRANCH  23  24
ENDBRANCH  22  23
ENDBRANCH   1  22
TORSDOF 18
ENDMDL
MODEL 2
REMARK VINA RESULT:     -12.1      2.000      2.732
REMARK SMILES Cc1cc(C)c2c(OCCCC(=O)NCCCCNC(=O)c3ccc(-c4c5nc(c(-c6c(F)cc(S(=O)(=O)[O-])cc6F)c6ccc([nH]6)c(-c6c(F)cc(S(=O)(=O)[O-])cc6F)c6nc(c(-c7c(F)cc(S(=O)(=O)[O-])cc7F)c7ccc4[nH]7)C=C6)C=C5)cc3)nsc2n1
REMARK SMILES IDX 16 1 15 2 14 3 12 4 13 5 11 7 10 8 9 9 8 10 7 11 1 12 2 13
REMARK SMILES IDX 3 14 91 15 4 16 90 17 5 18 6 19 89 20 88 21 17 22 18 23
REMARK SMILES IDX 19 24 20 25 21 27 22 28 23 29 87 30 24 31 86 32 25 33 26 34
REMARK SMILES IDX 27 35 80 36 28 37 85 38 79 39 81 40 29 41 84 42 78 43 77 44
REMARK SMILES IDX 30 46 64 47 43 48 63 49 44 50 47 51 62 52 82 53 45 54 46 55
REMARK SMILES IDX 61 57 83 58 48 59 31 60 32 61 41 62 33 63 34 64 40 65 42 66
REMARK SMILES IDX 35 67 36 68 37 69 38 70 39 71 65 72 66 73 75 74 67 75 68 76
REMARK SMILES IDX 74 77 76 78 69 79 70 80 71 81 72 82 73 83 49 84 50 85 59 86
REMARK SMILES IDX 51 87 52 88 58 89 60 90 53 91 54 92 55 93 56 94 57 95
REMARK H PARENT 14 6 19 26 81 45 47 56
REMARK Flexibility Score: inf
ROOT
ATOM      1  C   UNL A   1      38.361  22.722  26.146  1.00  0.00     0.023 C 
ENDROOT
BRANCH   1   2
ATOM      2  C   UNL A   1      37.363  23.290  25.095  1.00  0.00     0.116 C 
BRANCH   2   3
ATOM      3  N   UNL A   1      35.984  23.510  25.651  1.00  0.00    -0.356 N 
ATOM      4  C   UNL A   1      34.852  24.253  25.736  1.00  0.00     0.220 C 
ATOM      5  O   UNL A   1      34.091  23.775  26.603  1.00  0.00    -0.275 OA
ATOM      6  H   UNL A   1      35.823  22.738  26.240  1.00  0.00     0.163 HD
BRANCH   4   7
ATOM      7  C   UNL A   1      34.262  25.457  24.915  1.00  0.00     0.103 C 
BRANCH   7   8
ATOM      8  C   UNL A   1      33.540  25.395  23.522  1.00  0.00     0.051 C 
BRANCH   8   9
ATOM      9  C   UNL A   1      32.131  24.806  23.188  1.00  0.00     0.232 C 
BRANCH   9  10
ATOM     10  O   UNL A   1      31.100  25.591  22.579  1.00  0.00    -0.477 OA
BRANCH  10  11
ATOM     11  C   UNL A   1      30.733  26.806  23.063  1.00  0.00     0.235 A 
ATOM     12  C   UNL A   1      33.078  29.382  27.217  1.00  0.00     0.067 C 
ATOM     13  C   UNL A   1      32.031  28.763  26.332  1.00  0.00     0.039 A 
ATOM     14  C   UNL A   1      31.545  27.491  26.615  1.00  0.00     0.027 A 
ATOM     15  N   UNL A   1      31.676  29.452  25.226  1.00  0.00    -0.240 NA
ATOM     16  C   UNL A   1      30.775  26.798  25.666  1.00  0.00    -0.034 A 
ATOM     17  C   UNL A   1      31.095  28.685  24.286  1.00  0.00     0.147 A 
ATOM     18  C   UNL A   1      29.981  25.573  25.938  1.00  0.00     0.045 C 
ATOM     19  C   UNL A   1      30.804  27.333  24.381  1.00  0.00     0.078 A 
ATOM     20  S   UNL A   1      30.566  29.219  22.759  1.00  0.00    -0.012 S 
ATOM     21  N   UNL A   1      30.437  27.684  22.101  1.00  0.00    -0.153 NA
ENDBRANCH  10  11
ENDBRANCH   9  10
ENDBRANCH   8   9
ENDBRANCH   7   8
ENDBRANCH   4   7
ENDBRANCH   2   3
ENDBRANCH   1   2
BRANCH   1  22
ATOM     22  C   UNL A   1      39.084  21.402  25.785  1.00  0.00     0.023 C 
BRANCH  22  23
ATOM     23  C   UNL A   1      40.377  21.089  26.544  1.00  0.00     0.116 C 
BRANCH  23  24
ATOM     24  N   UNL A   1      41.605  21.332  25.779  1.00  0.00    -0.352 N 
ATOM     25  C   UNL A   1      42.257  22.556  25.623  1.00  0.00     0.251 C 
ATOM     26  H   UNL A   1      42.010  20.554  25.332  1.00  0.00     0.163 HD
ATOM     27  O   UNL A   1      43.099  22.736  24.776  1.00  0.00    -0.269 OA
BRANCH  25  28
ATOM     28  C   UNL A   1      41.862  23.635  26.555  1.00  0.00     0.039 A 
ATOM     29  C   UNL A   1      42.290  23.643  27.884  1.00  0.00     0.014 A 
ATOM     30  C   UNL A   1      41.198  24.724  25.999  1.00  0.00     0.014 A 
ATOM     31  C   UNL A   1      42.150  24.817  28.624  1.00  0.00     0.010 A 
ATOM     32  C   UNL A   1      41.165  25.911  26.695  1.00  0.00     0.010 A 
ATOM     33  C   UNL A   1      41.625  25.967  28.014  1.00  0.00    -0.014 A 
BRANCH  33  34
ATOM     34  C   UNL A   1      41.651  27.254  28.715  1.00  0.00     0.031 A 
ATOM     35  C   UNL A   1      42.821  28.154  28.454  1.00  0.00     0.074 A 
ATOM     36  C   UNL A   1      40.582  27.742  29.381  1.00  0.00     0.049 A 
ATOM     37  N   UNL A   1      43.691  28.601  29.301  1.00  0.00    -0.248 NA
ATOM     38  C   UNL A   1      43.091  28.566  27.067  1.00  0.00     0.031 C 
ATOM     39  C   UNL A   1      39.234  27.174  29.496  1.00  0.00     0.029 A 
ATOM     40  N   UNL A   1      40.454  28.946  30.000  1.00  0.00    -0.354 N 
ATOM     41  C   UNL A   1      44.521  29.482  28.604  1.00  0.00     0.074 A 
ATOM     42  C   UNL A   1      44.180  29.328  27.212  1.00  0.00     0.031 C 
ATOM     43  C   UNL A   1      38.380  28.129  29.917  1.00  0.00     0.029 A 
ATOM     44  C   UNL A   1      39.145  29.309  30.270  1.00  0.00     0.049 A 
ATOM     45  H   UNL A   1      41.226  29.510  30.236  1.00  0.00     0.167 HD
ATOM     46  C   UNL A   1      45.320  30.391  29.237  1.00  0.00     0.037 A 
ATOM     47  C   UNL A   1      38.709  30.510  30.719  1.00  0.00     0.037 A 
ATOM     48  C   UNL A   1      45.433  30.103  30.644  1.00  0.00     0.049 A 
ATOM     49  C   UNL A   1      39.862  31.169  31.385  1.00  0.00     0.074 A 
ATOM     50  C   UNL A   1      45.896  29.030  31.379  1.00  0.00     0.029 A 
ATOM     51  N   UNL A   1      44.693  30.859  31.523  1.00  0.00    -0.354 N 
ATOM     52  N   UNL A   1      40.428  30.716  32.472  1.00  0.00    -0.248 NA
ATOM     53  C   UNL A   1      40.681  32.078  30.595  1.00  0.00     0.031 C 
ATOM     54  C   UNL A   1      44.993  28.926  32.477  1.00  0.00     0.029 A 
ATOM     55  C   UNL A   1      44.077  29.974  32.372  1.00  0.00     0.049 A 
ATOM     56  H   UNL A   1      44.622  31.841  31.540  1.00  0.00     0.167 HD
ATOM     57  C   UNL A   1      41.787  30.934  32.290  1.00  0.00     0.074 A 
ATOM     58  C   UNL A   1      41.870  31.863  31.164  1.00  0.00     0.031 C 
ATOM     59  C   UNL A   1      42.730  30.138  32.879  1.00  0.00     0.037 A 
BRANCH  46  60
ATOM     60  C   UNL A   1      45.787  31.713  28.669  1.00  0.00     0.058 A 
ATOM     61  C   UNL A   1      44.838  32.642  28.185  1.00  0.00     0.135 A 
ATOM     62  C   UNL A   1      47.127  31.978  28.323  1.00  0.00     0.135 A 
ATOM     63  F   UNL A   1      43.531  32.491  28.456  1.00  0.00    -0.206 F 
ATOM     64  C   UNL A   1      45.187  33.706  27.350  1.00  0.00     0.059 A 
ATOM     65  C   UNL A   1      47.504  33.063  27.534  1.00  0.00     0.059 A 
ATOM     66  F   UNL A   1      48.120  31.141  28.649  1.00  0.00    -0.206 F 
ATOM     67  C   UNL A   1      46.523  33.893  27.012  1.00  0.00     0.060 A 
BRANCH  67  68
ATOM     68  S   UNL A   1      46.961  35.171  25.818  1.00  0.00     0.124 S 
ATOM     69  O   UNL A   1      48.047  34.527  25.088  1.00  0.00    -0.237 OA
ATOM     70  O   UNL A   1      45.712  35.345  25.084  1.00  0.00    -0.237 OA
ATOM     71  O   UNL A   1      47.349  36.298  26.662  1.00  0.00    -0.744 OA
ENDBRANCH  67  68
ENDBRANCH  46  60
BRANCH  47  72
ATOM     72  C   UNL A   1      37.455  31.197  30.318  1.00  0.00     0.058 A 
ATOM     73  C   UNL A   1      36.637  31.850  31.255  1.00  0.00     0.135 A 
ATOM     74  C   UNL A   1      37.149  31.431  28.959  1.00  0.00     0.135 A 
ATOM     75  F   UNL A   1      36.877  31.713  32.567  1.00  0.00    -0.206 F 
ATOM     76  C   UNL A   1      35.596  32.702  30.868  1.00  0.00     0.059 A 
ATOM     77  C   UNL A   1      36.108  32.259  28.550  1.00  0.00     0.059 A 
ATOM     78  F   UNL A   1      37.916  30.929  27.977  1.00  0.00    -0.206 F 
ATOM     79  C   UNL A   1      35.349  32.912  29.510  1.00  0.00     0.060 A 
BRANCH  79  80
ATOM     80  S   UNL A   1      34.111  34.128  29.005  1.00  0.00     0.124 S 
ATOM     81  O   UNL A   1      33.462  34.446  30.272  1.00  0.00    -0.237 OA
ATOM     82  O   UNL A   1      34.939  35.183  28.428  1.00  0.00    -0.237 OA
ATOM     83  O   UNL A   1      33.287  33.396  28.046  1.00  0.00    -0.744 OA
ENDBRANCH  79  80
ENDBRANCH  47  72
BRANCH  59  84
ATOM     84  C   UNL A   1      42.302  29.156  33.942  1.00  0.00     0.058 A 
ATOM     85  C   UNL A   1      41.779  27.880  33.668  1.00  0.00     0.135 A 
ATOM     86  C   UNL A   1      42.631  29.432  35.279  1.00  0.00     0.135 A 
ATOM     87  F   UNL A   1      41.539  27.490  32.411  1.00  0.00    -0.206 F 
ATOM     88  C   UNL A   1      41.568  26.935  34.672  1.00  0.00     0.059 A 
ATOM     89  C   UNL A   1      42.457  28.493  36.295  1.00  0.00     0.059 A 
ATOM     90  F   UNL A   1      43.196  30.607  35.604  1.00  0.00    -0.206 F 
ATOM     91  C   UNL A   1      41.918  27.246  35.984  1.00  0.00     0.060 A 
BRANCH  91  92
ATOM     92  S   UNL A   1      41.744  25.979  37.258  1.00  0.00     0.124 S 
ATOM     93  O   UNL A   1      41.965  24.751  36.502  1.00  0.00    -0.237 OA
ATOM     94  O   UNL A   1      42.792  26.338  38.208  1.00  0.00    -0.237 OA
ATOM     95  O   UNL A   1      40.380  26.173  37.748  1.00  0.00    -0.744 OA
ENDBRANCH  91  92
ENDBRANCH  59  84
ENDBRANCH  33  34
ENDBRANCH  25  28
ENDBRANCH  23  24
ENDBRANCH  22  23
ENDBRANCH   1  22
TORSDOF 18
ENDMDL
MODEL 3
REMARK VINA RESULT:     -12.0      2.474      3.859
REMARK SMILES Cc1cc(C)c2c(OCCCC(=O)NCCCCNC(=O)c3ccc(-c4c5nc(c(-c6c(F)cc(S(=O)(=O)[O-])cc6F)c6ccc([nH]6)c(-c6c(F)cc(S(=O)(=O)[O-])cc6F)c6nc(c(-c7c(F)cc(S(=O)(=O)[O-])cc7F)c7ccc4[nH]7)C=C6)C=C5)cc3)nsc2n1
REMARK SMILES IDX 16 1 15 2 14 3 12 4 13 5 11 7 10 8 9 9 8 10 7 11 1 12 2 13
REMARK SMILES IDX 3 14 91 15 4 16 90 17 5 18 6 19 89 20 88 21 17 22 18 23
REMARK SMILES IDX 19 24 20 25 21 27 22 28 23 29 87 30 24 31 86 32 25 33 26 34
REMARK SMILES IDX 27 35 80 36 28 37 85 38 79 39 81 40 29 41 84 42 78 43 77 44
REMARK SMILES IDX 30 46 64 47 43 48 63 49 44 50 47 51 62 52 82 53 45 54 46 55
REMARK SMILES IDX 61 57 83 58 48 59 31 60 32 61 41 62 33 63 34 64 40 65 42 66
REMARK SMILES IDX 35 67 36 68 37 69 38 70 39 71 65 72 66 73 75 74 67 75 68 76
REMARK SMILES IDX 74 77 76 78 69 79 70 80 71 81 72 82 73 83 49 84 50 85 59 86
REMARK SMILES IDX 51 87 52 88 58 89 60 90 53 91 54 92 55 93 56 94 57 95
REMARK H PARENT 14 6 19 26 81 45 47 56
REMARK Flexibility Score: inf
ROOT
ATOM      1  C   UNL A   1      40.116  21.811  27.177  1.00  0.00     0.023 C 
ENDROOT
BRANCH   1   2
ATOM      2  C   UNL A   1      39.247  22.576  26.137  1.00  0.00     0.116 C 
BRANCH   2   3
ATOM      3  N   UNL A   1      37.830  22.080  26.072  1.00  0.00    -0.356 N 
ATOM      4  C   UNL A   1      36.529  22.268  25.736  1.00  0.00     0.220 C 
ATOM      5  O   UNL A   1      35.838  21.313  26.150  1.00  0.00    -0.275 OA
ATOM      6  H   UNL A   1      37.861  21.177  26.464  1.00  0.00     0.163 HD
BRANCH   4   7
ATOM      7  C   UNL A   1      35.762  23.319  24.855  1.00  0.00     0.103 C 
BRANCH   7   8
ATOM      8  C   UNL A   1      35.319  24.766  25.271  1.00  0.00     0.051 C 
BRANCH   8   9
ATOM      9  C   UNL A   1      33.960  25.221  25.898  1.00  0.00     0.232 C 
BRANCH   9  10
ATOM     10  O   UNL A   1      32.731  25.186  25.165  1.00  0.00    -0.477 OA
BRANCH  10  11
ATOM     11  C   UNL A   1      31.898  24.113  25.198  1.00  0.00     0.235 A 
ATOM     12  C   UNL A   1      33.429  18.923  24.874  1.00  0.00     0.067 C 
ATOM     13  C   UNL A   1      32.709  20.216  24.604  1.00  0.00     0.039 A 
ATOM     14  C   UNL A   1      33.106  21.022  23.542  1.00  0.00     0.027 A 
ATOM     15  N   UNL A   1      31.754  20.582  25.485  1.00  0.00    -0.240 NA
ATOM     16  C   UNL A   1      32.629  22.340  23.437  1.00  0.00    -0.034 A 
ATOM     17  C   UNL A   1      31.469  21.896  25.444  1.00  0.00     0.147 A 
ATOM     18  C   UNL A   1      32.752  23.200  22.233  1.00  0.00     0.045 C 
ATOM     19  C   UNL A   1      32.013  22.836  24.583  1.00  0.00     0.078 A 
ATOM     20  S   UNL A   1      30.350  22.700  26.442  1.00  0.00    -0.012 S 
ATOM     21  N   UNL A   1      30.922  24.236  26.101  1.00  0.00    -0.153 NA
ENDBRANCH  10  11
ENDBRANCH   9  10
ENDBRANCH   8   9
ENDBRANCH   7   8
ENDBRANCH   4   7
ENDBRANCH   2   3
ENDBRANCH   1   2
BRANCH   1  22
ATOM     22  C   UNL A   1      40.731  20.465  26.722  1.00  0.00     0.023 C 
BRANCH  22  23
ATOM     23  C   UNL A   1      42.153  20.156  27.199  1.00  0.00     0.116 C 
BRANCH  23  24
ATOM     24  N   UNL A   1      43.045  19.635  26.157  1.00  0.00    -0.352 N 
ATOM     25  C   UNL A   1      43.774  20.387  25.236  1.00  0.00     0.251 C 
ATOM     26  H   UNL A   1      43.139  18.656  26.103  1.00  0.00     0.163 HD
ATOM     27  O   UNL A   1      44.271  19.897  24.250  1.00  0.00    -0.269 OA
BRANCH  25  28
ATOM     28  C   UNL A   1      43.909  21.832  25.527  1.00  0.00     0.039 A 
ATOM     29  C   UNL A   1      43.016  22.768  25.000  1.00  0.00     0.014 A 
ATOM     30  C   UNL A   1      44.852  22.187  26.485  1.00  0.00     0.014 A 
ATOM     31  C   UNL A   1      43.000  24.054  25.541  1.00  0.00     0.010 A 
ATOM     32  C   UNL A   1      44.756  23.419  27.091  1.00  0.00     0.010 A 
ATOM     33  C   UNL A   1      43.844  24.367  26.619  1.00  0.00    -0.014 A 
BRANCH  33  34
ATOM     34  C   UNL A   1      43.702  25.645  27.321  1.00  0.00     0.031 A 
ATOM     35  C   UNL A   1      44.700  26.718  27.003  1.00  0.00     0.074 A 
ATOM     36  C   UNL A   1      42.605  25.963  28.041  1.00  0.00     0.049 A 
ATOM     37  N   UNL A   1      45.531  27.301  27.806  1.00  0.00    -0.248 NA
ATOM     38  C   UNL A   1      44.831  27.159  25.605  1.00  0.00     0.031 C 
ATOM     39  C   UNL A   1      41.371  25.189  28.223  1.00  0.00     0.029 A 
ATOM     40  N   UNL A   1      42.320  27.134  28.669  1.00  0.00    -0.354 N 
ATOM     41  C   UNL A   1      46.175  28.298  27.070  1.00  0.00     0.074 A 
ATOM     42  C   UNL A   1      45.792  28.084  25.697  1.00  0.00     0.031 C 
ATOM     43  C   UNL A   1      40.398  26.000  28.689  1.00  0.00     0.029 A 
ATOM     44  C   UNL A   1      40.984  27.288  29.006  1.00  0.00     0.049 A 
ATOM     45  H   UNL A   1      43.003  27.815  28.867  1.00  0.00     0.167 HD
ATOM     46  C   UNL A   1      46.851  29.325  27.664  1.00  0.00     0.037 A 
ATOM     47  C   UNL A   1      40.387  28.408  29.479  1.00  0.00     0.037 A 
ATOM     48  C   UNL A   1      47.078  29.067  29.062  1.00  0.00     0.049 A 
ATOM     49  C   UNL A   1      41.454  29.244  30.087  1.00  0.00     0.074 A 
ATOM     50  C   UNL A   1      47.742  28.084  29.770  1.00  0.00     0.029 A 
ATOM     51  N   UNL A   1      46.275  29.702  29.980  1.00  0.00    -0.354 N 
ATOM     52  N   UNL A   1      42.139  28.892  31.144  1.00  0.00    -0.248 NA
ATOM     53  C   UNL A   1      42.078  30.267  29.260  1.00  0.00     0.031 C 
ATOM     54  C   UNL A   1      46.924  27.845  30.912  1.00  0.00     0.029 A 
ATOM     55  C   UNL A   1      45.849  28.735  30.856  1.00  0.00     0.049 A 
ATOM     56  H   UNL A   1      46.050  30.660  30.003  1.00  0.00     0.167 HD
ATOM     57  C   UNL A   1      43.436  29.321  30.893  1.00  0.00     0.074 A 
ATOM     58  C   UNL A   1      43.314  30.245  29.767  1.00  0.00     0.031 C 
ATOM     59  C   UNL A   1      44.521  28.687  31.431  1.00  0.00     0.037 A 
BRANCH  46  60
ATOM     60  C   UNL A   1      47.074  30.701  27.076  1.00  0.00     0.058 A 
ATOM     61  C   UNL A   1      48.367  31.269  27.088  1.00  0.00     0.135 A 
ATOM     62  C   UNL A   1      46.024  31.590  26.764  1.00  0.00     0.135 A 
ATOM     63  F   UNL A   1      49.444  30.515  27.369  1.00  0.00    -0.206 F 
ATOM     64  C   UNL A   1      48.591  32.633  26.889  1.00  0.00     0.059 A 
ATOM     65  C   UNL A   1      46.230  32.944  26.512  1.00  0.00     0.059 A 
ATOM     66  F   UNL A   1      44.742  31.206  26.791  1.00  0.00    -0.206 F 
ATOM     67  C   UNL A   1      47.510  33.466  26.624  1.00  0.00     0.060 A 
BRANCH  67  68
ATOM     68  S   UNL A   1      47.773  35.247  26.514  1.00  0.00     0.124 S 
ATOM     69  O   UNL A   1      48.395  35.367  25.200  1.00  0.00    -0.237 OA
ATOM     70  O   UNL A   1      46.413  35.765  26.627  1.00  0.00    -0.237 OA
ATOM     71  O   UNL A   1      48.642  35.527  27.652  1.00  0.00    -0.744 OA
ENDBRANCH  67  68
ENDBRANCH  46  60
BRANCH  47  72
ATOM     72  C   UNL A   1      39.022  28.886  29.145  1.00  0.00     0.058 A 
ATOM     73  C   UNL A   1      38.048  29.094  30.134  1.00  0.00     0.135 A 
ATOM     74  C   UNL A   1      38.713  29.378  27.857  1.00  0.00     0.135 A 
ATOM     75  F   UNL A   1      38.272  28.692  31.394  1.00  0.00    -0.206 F 
ATOM     76  C   UNL A   1      36.851  29.771  29.869  1.00  0.00     0.059 A 
ATOM     77  C   UNL A   1      37.523  30.037  27.565  1.00  0.00     0.059 A 
ATOM     78  F   UNL A   1      39.604  29.312  26.855  1.00  0.00    -0.206 F 
ATOM     79  C   UNL A   1      36.604  30.252  28.583  1.00  0.00     0.060 A 
BRANCH  79  80
ATOM     80  S   UNL A   1      35.136  31.260  28.272  1.00  0.00     0.124 S 
ATOM     81  O   UNL A   1      34.271  30.326  27.562  1.00  0.00    -0.237 OA
ATOM     82  O   UNL A   1      34.720  31.618  29.624  1.00  0.00    -0.237 OA
ATOM     83  O   UNL A   1      35.650  32.369  27.471  1.00  0.00    -0.744 OA
ENDBRANCH  79  80
ENDBRANCH  47  72
BRANCH  59  84
ATOM     84  C   UNL A   1      44.308  27.656  32.513  1.00  0.00     0.058 A 
ATOM     85  C   UNL A   1      44.070  27.971  33.862  1.00  0.00     0.135 A 
ATOM     86  C   UNL A   1      44.126  26.316  32.133  1.00  0.00     0.135 A 
ATOM     87  F   UNL A   1      44.112  29.237  34.292  1.00  0.00    -0.206 F 
ATOM     88  C   UNL A   1      43.697  27.002  34.794  1.00  0.00     0.059 A 
ATOM     89  C   UNL A   1      43.725  25.336  33.040  1.00  0.00     0.059 A 
ATOM     90  F   UNL A   1      44.273  25.956  30.847  1.00  0.00    -0.206 F 
ATOM     91  C   UNL A   1      43.517  25.686  34.373  1.00  0.00     0.060 A 
BRANCH  91  92
ATOM     92  S   UNL A   1      42.928  24.461  35.561  1.00  0.00     0.124 S 
ATOM     93  O   UNL A   1      43.475  23.221  35.021  1.00  0.00    -0.237 OA
ATOM     94  O   UNL A   1      43.520  24.924  36.813  1.00  0.00    -0.237 OA
ATOM     95  O   UNL A   1      41.474  24.586  35.487  1.00  0.00    -0.744 OA
ENDBRANCH  91  92
ENDBRANCH  59  84
ENDBRANCH  33  34
ENDBRANCH  25  28
ENDBRANCH  23  24
ENDBRANCH  22  23
ENDBRANCH   1  22
TORSDOF 18
ENDMDL
