MODEL 1
REMARK VINA RESULT:     -13.4      0.000      0.000
REMARK SMILES Cc1ccc(S(=O)(=O)n2cc(C(=O)C(=O)NCC(=O)NCCCCNC(=O)c3ccc(-c4c5nc(c(-c6c(F)cc(S(=O)(=O)[O-])cc6F)c6ccc([nH]6)c(-c6c(F)cc(S(=O)(=O)[O-])cc6F)c6nc(c(-c7c(F)cc(S(=O)(=O)[O-])cc7F)c7ccc4[nH]7)C=C6)C=C5)cc3)c3ccccc32)cc1
REMARK SMILES IDX 21 1 20 2 18 3 19 4 17 6 16 7 14 8 15 9 12 11 13 12 11 13
REMARK SMILES IDX 9 14 10 15 99 16 94 17 98 18 95 19 97 20 96 21 6 22 7 23
REMARK SMILES IDX 8 24 5 25 1 26 2 27 3 28 101 29 4 30 100 31 22 32 23 33
REMARK SMILES IDX 24 34 25 35 26 36 27 38 28 39 29 40 93 41 30 42 92 43 31 44
REMARK SMILES IDX 32 45 33 46 86 47 34 48 91 49 85 50 87 51 35 52 90 53 84 54
REMARK SMILES IDX 83 55 36 57 70 58 49 59 69 60 50 61 53 62 68 63 88 64 51 65
REMARK SMILES IDX 52 66 67 68 89 69 54 70 37 71 38 72 47 73 39 74 40 75 46 76
REMARK SMILES IDX 48 77 41 78 42 79 43 80 44 81 45 82 71 83 72 84 81 85 73 86
REMARK SMILES IDX 74 87 80 88 82 89 75 90 76 91 77 92 78 93 79 94 55 95 56 96
REMARK SMILES IDX 65 97 57 98 58 99 64 100 66 101 59 102 60 103 61 104 62 105
REMARK SMILES IDX 63 106
REMARK H PARENT 20 5 16 10 25 37 87 56 53 67
REMARK Flexibility Score: inf
ROOT
ATOM      1  C   UNL A   1      38.372  21.235  25.260  1.00  0.00     0.116 C 
ENDROOT
BRANCH   1   2
ATOM      2  N   UNL A   1      37.342  21.817  26.105  1.00  0.00    -0.355 N 
ATOM      3  C   UNL A   1      35.985  21.749  25.993  1.00  0.00     0.239 C 
ATOM      4  O   UNL A   1      35.290  22.300  26.849  1.00  0.00    -0.273 OA
ATOM      5  H   UNL A   1      37.675  22.338  26.872  1.00  0.00     0.163 HD
BRANCH   3   6
ATOM      6  C   UNL A   1      35.351  20.915  24.879  1.00  0.00     0.216 C 
BRANCH   6   7
ATOM      7  N   UNL A   1      34.233  20.102  25.340  1.00  0.00    -0.340 N 
ATOM      8  C   UNL A   1      32.947  19.988  24.854  1.00  0.00     0.292 C 
ATOM      9  O   UNL A   1      32.196  19.168  25.372  1.00  0.00    -0.265 OA
ATOM     10  H   UNL A   1      34.427  19.544  26.127  1.00  0.00     0.164 HD
BRANCH   8  11
ATOM     11  C   UNL A   1      32.461  20.864  23.673  1.00  0.00     0.252 C 
ATOM     12  O   UNL A   1      32.274  20.312  22.591  1.00  0.00    -0.283 OA
BRANCH  11  13
ATOM     13  C   UNL A   1      32.181  22.300  23.835  1.00  0.00     0.054 A 
ATOM     14  N   UNL A   1      31.437  24.253  24.629  1.00  0.00    -0.240 N 
ATOM     15  C   UNL A   1      31.602  22.923  24.925  1.00  0.00     0.117 A 
ATOM     16  C   UNL A   1      31.933  24.549  23.379  1.00  0.00     0.065 A 
ATOM     17  C   UNL A   1      32.407  23.337  22.856  1.00  0.00     0.012 A 
ATOM     18  C   UNL A   1      31.983  25.748  22.640  1.00  0.00     0.028 A 
ATOM     19  C   UNL A   1      32.965  23.342  21.558  1.00  0.00     0.011 A 
ATOM     20  C   UNL A   1      32.515  25.710  21.351  1.00  0.00     0.002 A 
ATOM     21  C   UNL A   1      33.005  24.526  20.816  1.00  0.00     0.001 A 
BRANCH  14  22
ATOM     22  S   UNL A   1      30.546  25.324  25.612  1.00  0.00     0.268 S 
ATOM     23  O   UNL A   1      30.104  24.535  26.752  1.00  0.00    -0.201 OA
ATOM     24  O   UNL A   1      29.628  26.012  24.735  1.00  0.00    -0.201 OA
BRANCH  22  25
ATOM     25  C   UNL A   1      31.660  26.555  26.250  1.00  0.00     0.088 A 
ATOM     26  C   UNL A   1      34.524  29.544  27.420  1.00  0.00     0.044 C 
ATOM     27  C   UNL A   1      33.526  28.493  27.036  1.00  0.00    -0.051 A 
ATOM     28  C   UNL A   1      33.924  27.414  26.239  1.00  0.00     0.005 A 
ATOM     29  C   UNL A   1      32.192  28.574  27.460  1.00  0.00     0.005 A 
ATOM     30  C   UNL A   1      32.996  26.451  25.843  1.00  0.00     0.022 A 
ATOM     31  C   UNL A   1      31.260  27.602  27.079  1.00  0.00     0.022 A 
ENDBRANCH  22  25
ENDBRANCH  14  22
ENDBRANCH  11  13
ENDBRANCH   8  11
ENDBRANCH   6   7
ENDBRANCH   3   6
ENDBRANCH   1   2
BRANCH   1  32
ATOM     32  C   UNL A   1      39.609  20.802  26.059  1.00  0.00     0.023 C 
BRANCH  32  33
ATOM     33  C   UNL A   1      40.076  21.815  27.103  1.00  0.00     0.023 C 
BRANCH  33  34
ATOM     34  C   UNL A   1      40.488  23.162  26.526  1.00  0.00     0.116 C 
BRANCH  34  35
ATOM     35  N   UNL A   1      39.379  23.989  26.073  1.00  0.00    -0.352 N 
ATOM     36  C   UNL A   1      38.756  24.999  26.795  1.00  0.00     0.251 C 
ATOM     37  H   UNL A   1      39.037  23.816  25.166  1.00  0.00     0.163 HD
ATOM     38  O   UNL A   1      37.588  25.326  26.627  1.00  0.00    -0.269 OA
BRANCH  36  39
ATOM     39  C   UNL A   1      39.633  25.810  27.665  1.00  0.00     0.039 A 
ATOM     40  C   UNL A   1      39.272  25.915  29.016  1.00  0.00     0.014 A 
ATOM     41  C   UNL A   1      40.508  26.715  27.078  1.00  0.00     0.014 A 
ATOM     42  C   UNL A   1      39.587  27.070  29.714  1.00  0.00     0.010 A 
ATOM     43  C   UNL A   1      40.698  27.912  27.714  1.00  0.00     0.010 A 
ATOM     44  C   UNL A   1      40.194  28.098  29.009  1.00  0.00    -0.014 A 
BRANCH  44  45
ATOM     45  C   UNL A   1      40.461  29.417  29.536  1.00  0.00     0.031 A 
ATOM     46  C   UNL A   1      39.384  30.406  29.403  1.00  0.00     0.074 A 
ATOM     47  C   UNL A   1      41.526  29.569  30.348  1.00  0.00     0.049 A 
ATOM     48  N   UNL A   1      39.483  31.638  29.736  1.00  0.00    -0.248 NA
ATOM     49  C   UNL A   1      38.079  30.065  28.843  1.00  0.00     0.031 C 
ATOM     50  C   UNL A   1      41.777  30.610  31.336  1.00  0.00     0.029 A 
ATOM     51  N   UNL A   1      42.736  28.873  30.269  1.00  0.00    -0.354 N 
ATOM     52  C   UNL A   1      38.214  32.174  29.731  1.00  0.00     0.074 A 
ATOM     53  C   UNL A   1      37.398  31.189  29.069  1.00  0.00     0.031 C 
ATOM     54  C   UNL A   1      43.102  30.684  31.554  1.00  0.00     0.029 A 
ATOM     55  C   UNL A   1      43.740  29.818  30.576  1.00  0.00     0.049 A 
ATOM     56  H   UNL A   1      42.863  27.923  30.044  1.00  0.00     0.167 HD
ATOM     57  C   UNL A   1      38.017  33.332  30.424  1.00  0.00     0.037 A 
ATOM     58  C   UNL A   1      44.557  30.254  29.565  1.00  0.00     0.037 A 
ATOM     59  C   UNL A   1      39.316  33.870  30.851  1.00  0.00     0.049 A 
ATOM     60  C   UNL A   1      44.349  31.718  29.195  1.00  0.00     0.074 A 
ATOM     61  C   UNL A   1      40.051  33.840  32.024  1.00  0.00     0.029 A 
ATOM     62  N   UNL A   1      40.210  34.238  29.862  1.00  0.00    -0.354 N 
ATOM     63  N   UNL A   1      43.405  32.480  29.682  1.00  0.00    -0.248 NA
ATOM     64  C   UNL A   1      45.169  32.427  28.215  1.00  0.00     0.031 C 
ATOM     65  C   UNL A   1      41.412  34.149  31.701  1.00  0.00     0.029 A 
ATOM     66  C   UNL A   1      41.493  34.394  30.341  1.00  0.00     0.049 A 
ATOM     67  H   UNL A   1      39.957  34.374  28.919  1.00  0.00     0.167 HD
ATOM     68  C   UNL A   1      43.445  33.718  29.094  1.00  0.00     0.074 A 
ATOM     69  C   UNL A   1      44.567  33.629  28.173  1.00  0.00     0.031 C 
ATOM     70  C   UNL A   1      42.548  34.712  29.385  1.00  0.00     0.037 A 
BRANCH  57  71
ATOM     71  C   UNL A   1      36.684  33.883  30.896  1.00  0.00     0.058 A 
ATOM     72  C   UNL A   1      35.693  34.210  29.945  1.00  0.00     0.135 A 
ATOM     73  C   UNL A   1      36.324  34.182  32.228  1.00  0.00     0.135 A 
ATOM     74  F   UNL A   1      35.856  33.940  28.642  1.00  0.00    -0.206 F 
ATOM     75  C   UNL A   1      34.491  34.843  30.275  1.00  0.00     0.059 A 
ATOM     76  C   UNL A   1      35.139  34.834  32.582  1.00  0.00     0.059 A 
ATOM     77  F   UNL A   1      37.077  33.835  33.272  1.00  0.00    -0.206 F 
ATOM     78  C   UNL A   1      34.230  35.172  31.595  1.00  0.00     0.060 A 
BRANCH  78  79
ATOM     79  S   UNL A   1      32.695  36.019  32.000  1.00  0.00     0.124 S 
ATOM     80  O   UNL A   1      31.893  34.937  32.562  1.00  0.00    -0.237 OA
ATOM     81  O   UNL A   1      33.147  37.035  32.943  1.00  0.00    -0.237 OA
ATOM     82  O   UNL A   1      32.234  36.527  30.710  1.00  0.00    -0.744 OA
ENDBRANCH  78  79
ENDBRANCH  57  71
BRANCH  58  83
ATOM     83  C   UNL A   1      44.908  29.134  28.629  1.00  0.00     0.058 A 
ATOM     84  C   UNL A   1      44.262  29.117  27.373  1.00  0.00     0.135 A 
ATOM     85  C   UNL A   1      46.120  28.439  28.730  1.00  0.00     0.135 A 
ATOM     86  F   UNL A   1      43.095  29.763  27.218  1.00  0.00    -0.206 F 
ATOM     87  C   UNL A   1      44.875  28.609  26.231  1.00  0.00     0.059 A 
ATOM     88  C   UNL A   1      46.745  27.900  27.598  1.00  0.00     0.059 A 
ATOM     89  F   UNL A   1      46.785  28.404  29.896  1.00  0.00    -0.206 F 
ATOM     90  C   UNL A   1      46.149  28.063  26.345  1.00  0.00     0.060 A 
BRANCH  90  91
ATOM     91  S   UNL A   1      47.076  27.754  24.819  1.00  0.00     0.124 S 
ATOM     92  O   UNL A   1      48.454  27.906  25.267  1.00  0.00    -0.237 OA
ATOM     93  O   UNL A   1      46.664  26.390  24.481  1.00  0.00    -0.237 OA
ATOM     94  O   UNL A   1      46.591  28.795  23.920  1.00  0.00    -0.744 OA
ENDBRANCH  90  91
ENDBRANCH  58  83
BRANCH  70  95
ATOM     95  C   UNL A   1      42.563  36.083  28.741  1.00  0.00     0.058 A 
ATOM     96  C   UNL A   1      41.905  36.361  27.533  1.00  0.00     0.135 A 
ATOM     97  C   UNL A   1      43.332  37.149  29.271  1.00  0.00     0.135 A 
ATOM     98  F   UNL A   1      41.245  35.398  26.871  1.00  0.00    -0.206 F 
ATOM     99  C   UNL A   1      41.922  37.631  26.951  1.00  0.00     0.059 A 
ATOM    100  C   UNL A   1      43.416  38.401  28.674  1.00  0.00     0.059 A 
ATOM    101  F   UNL A   1      44.013  37.040  30.419  1.00  0.00    -0.206 F 
ATOM    102  C   UNL A   1      42.673  38.647  27.535  1.00  0.00     0.060 A 
BRANCH 102 103
ATOM    103  S   UNL A   1      42.683  40.289  26.799  1.00  0.00     0.124 S 
ATOM    104  O   UNL A   1      42.860  41.152  27.962  1.00  0.00    -0.237 OA
ATOM    105  O   UNL A   1      43.829  40.194  25.899  1.00  0.00    -0.237 OA
ATOM    106  O   UNL A   1      41.379  40.381  26.148  1.00  0.00    -0.744 OA
ENDBRANCH 102 103
ENDBRANCH  70  95
ENDBRANCH  44  45
ENDBRANCH  36  39
ENDBRANCH  34  35
ENDBRANCH  33  34
ENDBRANCH  32  33
ENDBRANCH   1  32
TORSDOF 19
ENDMDL
MODEL 2
REMARK VINA RESULT:     -12.9      1.648      2.447
REMARK SMILES Cc1ccc(S(=O)(=O)n2cc(C(=O)C(=O)NCC(=O)NCCCCNC(=O)c3ccc(-c4c5nc(c(-c6c(F)cc(S(=O)(=O)[O-])cc6F)c6ccc([nH]6)c(-c6c(F)cc(S(=O)(=O)[O-])cc6F)c6nc(c(-c7c(F)cc(S(=O)(=O)[O-])cc7F)c7ccc4[nH]7)C=C6)C=C5)cc3)c3ccccc32)cc1
REMARK SMILES IDX 21 1 20 2 18 3 19 4 17 6 16 7 14 8 15 9 12 11 13 12 11 13
REMARK SMILES IDX 9 14 10 15 99 16 94 17 98 18 95 19 97 20 96 21 6 22 7 23
REMARK SMILES IDX 8 24 5 25 1 26 2 27 3 28 101 29 4 30 100 31 22 32 23 33
REMARK SMILES IDX 24 34 25 35 26 36 27 38 28 39 29 40 93 41 30 42 92 43 31 44
REMARK SMILES IDX 32 45 33 46 86 47 34 48 91 49 85 50 87 51 35 52 90 53 84 54
REMARK SMILES IDX 83 55 36 57 70 58 49 59 69 60 50 61 53 62 68 63 88 64 51 65
REMARK SMILES IDX 52 66 67 68 89 69 54 70 37 71 38 72 47 73 39 74 40 75 46 76
REMARK SMILES IDX 48 77 41 78 42 79 43 80 44 81 45 82 71 83 72 84 81 85 73 86
REMARK SMILES IDX 74 87 80 88 82 89 75 90 76 91 77 92 78 93 79 94 55 95 56 96
REMARK SMILES IDX 65 97 57 98 58 99 64 100 66 101 59 102 60 103 61 104 62 105
REMARK SMILES IDX 63 106
REMARK H PARENT 20 5 16 10 25 37 87 56 53 67
REMARK Flexibility Score: inf
ROOT
ATOM      1  C   UNL A   1      38.255  21.436  25.378  1.00  0.00     0.116 C 
ENDROOT
BRANCH   1   2
ATOM      2  N   UNL A   1      37.124  21.850  26.194  1.00  0.00    -0.355 N 
ATOM      3  C   UNL A   1      35.803  21.532  26.072  1.00  0.00     0.239 C 
ATOM      4  O   UNL A   1      35.006  21.977  26.901  1.00  0.00    -0.273 OA
ATOM      5  H   UNL A   1      37.345  22.448  26.944  1.00  0.00     0.163 HD
BRANCH   3   6
ATOM      6  C   UNL A   1      35.348  20.559  24.983  1.00  0.00     0.216 C 
BRANCH   6   7
ATOM      7  N   UNL A   1      34.193  19.762  25.376  1.00  0.00    -0.340 N 
ATOM      8  C   UNL A   1      32.922  19.703  24.844  1.00  0.00     0.292 C 
ATOM      9  O   UNL A   1      32.132  18.886  25.306  1.00  0.00    -0.265 OA
ATOM     10  H   UNL A   1      34.345  19.170  26.147  1.00  0.00     0.164 HD
BRANCH   8  11
ATOM     11  C   UNL A   1      32.500  20.635  23.682  1.00  0.00     0.252 C 
ATOM     12  O   UNL A   1      32.225  20.115  22.603  1.00  0.00    -0.283 OA
BRANCH  11  13
ATOM     13  C   UNL A   1      32.380  22.091  23.859  1.00  0.00     0.054 A 
ATOM     14  N   UNL A   1      32.707  24.297  23.683  1.00  0.00    -0.240 N 
ATOM     15  C   UNL A   1      33.023  23.079  23.134  1.00  0.00     0.117 A 
ATOM     16  C   UNL A   1      31.829  24.155  24.735  1.00  0.00     0.065 A 
ATOM     17  C   UNL A   1      31.608  22.777  24.868  1.00  0.00     0.012 A 
ATOM     18  C   UNL A   1      31.236  25.091  25.604  1.00  0.00     0.028 A 
ATOM     19  C   UNL A   1      30.746  22.335  25.896  1.00  0.00     0.011 A 
ATOM     20  C   UNL A   1      30.412  24.618  26.626  1.00  0.00     0.002 A 
ATOM     21  C   UNL A   1      30.164  23.259  26.769  1.00  0.00     0.001 A 
BRANCH  14  22
ATOM     22  S   UNL A   1      33.476  25.750  23.233  1.00  0.00     0.268 S 
ATOM     23  O   UNL A   1      33.832  25.589  21.831  1.00  0.00    -0.201 OA
ATOM     24  O   UNL A   1      34.453  26.027  24.260  1.00  0.00    -0.201 OA
BRANCH  22  25
ATOM     25  C   UNL A   1      32.278  27.062  23.303  1.00  0.00     0.088 A 
ATOM     26  C   UNL A   1      29.093  29.953  23.382  1.00  0.00     0.044 C 
ATOM     27  C   UNL A   1      30.219  28.964  23.346  1.00  0.00    -0.051 A 
ATOM     28  C   UNL A   1      30.257  27.990  22.342  1.00  0.00     0.005 A 
ATOM     29  C   UNL A   1      31.238  28.994  24.307  1.00  0.00     0.005 A 
ATOM     30  C   UNL A   1      31.278  27.039  22.322  1.00  0.00     0.022 A 
ATOM     31  C   UNL A   1      32.274  28.054  24.283  1.00  0.00     0.022 A 
ENDBRANCH  22  25
ENDBRANCH  14  22
ENDBRANCH  11  13
ENDBRANCH   8  11
ENDBRANCH   6   7
ENDBRANCH   3   6
ENDBRANCH   1   2
BRANCH   1  32
ATOM     32  C   UNL A   1      39.382  20.816  26.215  1.00  0.00     0.023 C 
BRANCH  32  33
ATOM     33  C   UNL A   1      40.074  21.791  27.168  1.00  0.00     0.023 C 
BRANCH  33  34
ATOM     34  C   UNL A   1      40.460  23.119  26.531  1.00  0.00     0.116 C 
BRANCH  34  35
ATOM     35  N   UNL A   1      39.331  23.932  26.103  1.00  0.00    -0.352 N 
ATOM     36  C   UNL A   1      38.711  24.934  26.839  1.00  0.00     0.251 C 
ATOM     37  H   UNL A   1      38.972  23.755  25.204  1.00  0.00     0.163 HD
ATOM     38  O   UNL A   1      37.536  25.247  26.696  1.00  0.00    -0.269 OA
BRANCH  36  39
ATOM     39  C   UNL A   1      39.597  25.755  27.691  1.00  0.00     0.039 A 
ATOM     40  C   UNL A   1      39.311  25.789  29.063  1.00  0.00     0.014 A 
ATOM     41  C   UNL A   1      40.390  26.726  27.094  1.00  0.00     0.014 A 
ATOM     42  C   UNL A   1      39.609  26.930  29.790  1.00  0.00     0.010 A 
ATOM     43  C   UNL A   1      40.557  27.906  27.767  1.00  0.00     0.010 A 
ATOM     44  C   UNL A   1      40.121  28.015  29.095  1.00  0.00    -0.014 A 
BRANCH  44  45
ATOM     45  C   UNL A   1      40.353  29.325  29.661  1.00  0.00     0.031 A 
ATOM     46  C   UNL A   1      39.294  30.322  29.461  1.00  0.00     0.074 A 
ATOM     47  C   UNL A   1      41.354  29.459  30.554  1.00  0.00     0.049 A 
ATOM     48  N   UNL A   1      39.373  31.548  29.819  1.00  0.00    -0.248 NA
ATOM     49  C   UNL A   1      38.034  29.996  28.798  1.00  0.00     0.031 C 
ATOM     50  C   UNL A   1      41.534  30.485  31.573  1.00  0.00     0.029 A 
ATOM     51  N   UNL A   1      42.564  28.759  30.556  1.00  0.00    -0.354 N 
ATOM     52  C   UNL A   1      38.109  32.091  29.726  1.00  0.00     0.074 A 
ATOM     53  C   UNL A   1      37.342  31.120  28.988  1.00  0.00     0.031 C 
ATOM     54  C   UNL A   1      42.838  30.548  31.893  1.00  0.00     0.029 A 
ATOM     55  C   UNL A   1      43.545  29.693  30.952  1.00  0.00     0.049 A 
ATOM     56  H   UNL A   1      42.703  27.811  30.327  1.00  0.00     0.167 HD
ATOM     57  C   UNL A   1      37.866  33.240  30.419  1.00  0.00     0.037 A 
ATOM     58  C   UNL A   1      44.439  30.140  30.013  1.00  0.00     0.037 A 
ATOM     59  C   UNL A   1      39.131  33.764  30.951  1.00  0.00     0.049 A 
ATOM     60  C   UNL A   1      44.265  31.610  29.651  1.00  0.00     0.074 A 
ATOM     61  C   UNL A   1      39.774  33.713  32.176  1.00  0.00     0.029 A 
ATOM     62  N   UNL A   1      40.098  34.142  30.038  1.00  0.00    -0.354 N 
ATOM     63  N   UNL A   1      43.291  32.370  30.076  1.00  0.00    -0.248 NA
ATOM     64  C   UNL A   1      45.161  32.328  28.747  1.00  0.00     0.031 C 
ATOM     65  C   UNL A   1      41.157  34.020  31.962  1.00  0.00     0.029 A 
ATOM     66  C   UNL A   1      41.342  34.284  30.616  1.00  0.00     0.049 A 
ATOM     67  H   UNL A   1      39.919  34.293  29.082  1.00  0.00     0.167 HD
ATOM     68  C   UNL A   1      43.381  33.616  29.511  1.00  0.00     0.074 A 
ATOM     69  C   UNL A   1      44.569  33.534  28.677  1.00  0.00     0.031 C 
ATOM     70  C   UNL A   1      42.468  34.610  29.748  1.00  0.00     0.037 A 
BRANCH  57  71
ATOM     71  C   UNL A   1      36.503  33.791  30.796  1.00  0.00     0.058 A 
ATOM     72  C   UNL A   1      35.656  34.298  29.786  1.00  0.00     0.135 A 
ATOM     73  C   UNL A   1      35.984  33.924  32.102  1.00  0.00     0.135 A 
ATOM     74  F   UNL A   1      35.977  34.200  28.488  1.00  0.00    -0.206 F 
ATOM     75  C   UNL A   1      34.445  34.942  30.052  1.00  0.00     0.059 A 
ATOM     76  C   UNL A   1      34.786  34.583  32.397  1.00  0.00     0.059 A 
ATOM     77  F   UNL A   1      36.583  33.397  33.171  1.00  0.00    -0.206 F 
ATOM     78  C   UNL A   1      34.026  35.101  31.363  1.00  0.00     0.060 A 
BRANCH  78  79
ATOM     79  S   UNL A   1      32.482  35.965  31.692  1.00  0.00     0.124 S 
ATOM     80  O   UNL A   1      31.974  36.199  30.344  1.00  0.00    -0.237 OA
ATOM     81  O   UNL A   1      31.749  34.988  32.489  1.00  0.00    -0.237 OA
ATOM     82  O   UNL A   1      32.907  37.163  32.411  1.00  0.00    -0.744 OA
ENDBRANCH  78  79
ENDBRANCH  57  71
BRANCH  58  83
ATOM     83  C   UNL A   1      44.855  29.031  29.090  1.00  0.00     0.058 A 
ATOM     84  C   UNL A   1      45.647  27.999  29.640  1.00  0.00     0.135 A 
ATOM     85  C   UNL A   1      44.139  28.732  27.925  1.00  0.00     0.135 A 
ATOM     86  F   UNL A   1      46.359  28.229  30.755  1.00  0.00    -0.206 F 
ATOM     87  C   UNL A   1      45.581  26.687  29.176  1.00  0.00     0.059 A 
ATOM     88  C   UNL A   1      44.076  27.425  27.427  1.00  0.00     0.059 A 
ATOM     89  F   UNL A   1      43.374  29.668  27.342  1.00  0.00    -0.206 F 
ATOM     90  C   UNL A   1      44.737  26.400  28.109  1.00  0.00     0.060 A 
BRANCH  90  91
ATOM     91  S   UNL A   1      44.376  24.658  27.763  1.00  0.00     0.124 S 
ATOM     92  O   UNL A   1      45.706  24.117  27.518  1.00  0.00    -0.237 OA
ATOM     93  O   UNL A   1      43.733  24.225  29.005  1.00  0.00    -0.237 OA
ATOM     94  O   UNL A   1      43.503  24.725  26.597  1.00  0.00    -0.744 OA
ENDBRANCH  90  91
ENDBRANCH  58  83
BRANCH  70  95
ATOM     95  C   UNL A   1      42.538  35.990  29.127  1.00  0.00     0.058 A 
ATOM     96  C   UNL A   1      41.930  36.303  27.902  1.00  0.00     0.135 A 
ATOM     97  C   UNL A   1      43.313  37.029  29.701  1.00  0.00     0.135 A 
ATOM     98  F   UNL A   1      41.271  35.367  27.202  1.00  0.00    -0.206 F 
ATOM     99  C   UNL A   1      41.997  37.581  27.342  1.00  0.00     0.059 A 
ATOM    100  C   UNL A   1      43.447  38.288  29.129  1.00  0.00     0.059 A 
ATOM    101  F   UNL A   1      43.950  36.887  30.870  1.00  0.00    -0.206 F 
ATOM    102  C   UNL A   1      42.750  38.570  27.968  1.00  0.00     0.060 A 
BRANCH 102 103
ATOM    103  S   UNL A   1      42.825  40.222  27.261  1.00  0.00     0.124 S 
ATOM    104  O   UNL A   1      42.769  39.952  25.827  1.00  0.00    -0.237 OA
ATOM    105  O   UNL A   1      41.634  40.837  27.837  1.00  0.00    -0.237 OA
ATOM    106  O   UNL A   1      44.100  40.745  27.745  1.00  0.00    -0.744 OA
ENDBRANCH 102 103
ENDBRANCH  70  95
ENDBRANCH  44  45
ENDBRANCH  36  39
ENDBRANCH  34  35
ENDBRANCH  33  34
ENDBRANCH  32  33
ENDBRANCH   1  32
TORSDOF 19
ENDMDL
MODEL 3
REMARK VINA RESULT:     -12.6      2.081      3.025
REMARK SMILES Cc1ccc(S(=O)(=O)n2cc(C(=O)C(=O)NCC(=O)NCCCCNC(=O)c3ccc(-c4c5nc(c(-c6c(F)cc(S(=O)(=O)[O-])cc6F)c6ccc([nH]6)c(-c6c(F)cc(S(=O)(=O)[O-])cc6F)c6nc(c(-c7c(F)cc(S(=O)(=O)[O-])cc7F)c7ccc4[nH]7)C=C6)C=C5)cc3)c3ccccc32)cc1
REMARK SMILES IDX 21 1 20 2 18 3 19 4 17 6 16 7 14 8 15 9 12 11 13 12 11 13
REMARK SMILES IDX 9 14 10 15 99 16 94 17 98 18 95 19 97 20 96 21 6 22 7 23
REMARK SMILES IDX 8 24 5 25 1 26 2 27 3 28 101 29 4 30 100 31 22 32 23 33
REMARK SMILES IDX 24 34 25 35 26 36 27 38 28 39 29 40 93 41 30 42 92 43 31 44
REMARK SMILES IDX 32 45 33 46 86 47 34 48 91 49 85 50 87 51 35 52 90 53 84 54
REMARK SMILES IDX 83 55 36 57 70 58 49 59 69 60 50 61 53 62 68 63 88 64 51 65
REMARK SMILES IDX 52 66 67 68 89 69 54 70 37 71 38 72 47 73 39 74 40 75 46 76
REMARK SMILES IDX 48 77 41 78 42 79 43 80 44 81 45 82 71 83 72 84 81 85 73 86
REMARK SMILES IDX 74 87 80 88 82 89 75 90 76 91 77 92 78 93 79 94 55 95 56 96
REMARK SMILES IDX 65 97 57 98 58 99 64 100 66 101 59 102 60 103 61 104 62 105
REMARK SMILES IDX 63 106
REMARK H PARENT 20 5 16 10 25 37 87 56 53 67
REMARK Flexibility Score: inf
ROOT
ATOM      1  C   UNL A   1      37.205  23.362  26.235  1.00  0.00     0.116 C 
ENDROOT
BRANCH   1   2
ATOM      2  N   UNL A   1      36.924  23.449  24.811  1.00  0.00    -0.355 N 
ATOM      3  C   UNL A   1      36.605  22.461  23.927  1.00  0.00     0.239 C 
ATOM      4  O   UNL A   1      36.375  22.765  22.754  1.00  0.00    -0.273 OA
ATOM      5  H   UNL A   1      36.971  24.356  24.429  1.00  0.00     0.163 HD
BRANCH   3   6
ATOM      6  C   UNL A   1      36.439  21.022  24.416  1.00  0.00     0.216 C 
BRANCH   6   7
ATOM      7  N   UNL A   1      35.600  20.915  25.603  1.00  0.00    -0.340 N 
ATOM      8  C   UNL A   1      34.230  20.984  25.742  1.00  0.00     0.292 C 
ATOM      9  O   UNL A   1      33.743  20.786  26.851  1.00  0.00    -0.265 OA
ATOM     10  H   UNL A   1      36.093  20.771  26.443  1.00  0.00     0.164 HD
BRANCH   8  11
ATOM     11  C   UNL A   1      33.320  21.291  24.528  1.00  0.00     0.252 C 
ATOM     12  O   UNL A   1      33.071  20.371  23.753  1.00  0.00    -0.283 OA
BRANCH  11  13
ATOM     13  C   UNL A   1      32.727  22.622  24.318  1.00  0.00     0.054 A 
ATOM     14  N   UNL A   1      32.360  24.705  23.593  1.00  0.00    -0.240 N 
ATOM     15  C   UNL A   1      33.109  23.573  23.389  1.00  0.00     0.117 A 
ATOM     16  C   UNL A   1      31.451  24.523  24.611  1.00  0.00     0.065 A 
ATOM     17  C   UNL A   1      31.661  23.221  25.086  1.00  0.00     0.012 A 
ATOM     18  C   UNL A   1      30.492  25.379  25.185  1.00  0.00     0.028 A 
ATOM     19  C   UNL A   1      30.864  22.764  26.159  1.00  0.00     0.011 A 
ATOM     20  C   UNL A   1      29.741  24.905  26.262  1.00  0.00     0.002 A 
ATOM     21  C   UNL A   1      29.918  23.614  26.741  1.00  0.00     0.001 A 
BRANCH  14  22
ATOM     22  S   UNL A   1      32.681  26.187  22.814  1.00  0.00     0.268 S 
ATOM     23  O   UNL A   1      31.431  26.574  22.175  1.00  0.00    -0.201 OA
ATOM     24  O   UNL A   1      33.909  26.002  22.078  1.00  0.00    -0.201 OA
BRANCH  22  25
ATOM     25  C   UNL A   1      33.012  27.413  24.059  1.00  0.00     0.088 A 
ATOM     26  C   UNL A   1      33.416  30.481  27.048  1.00  0.00     0.044 C 
ATOM     27  C   UNL A   1      33.300  29.415  25.999  1.00  0.00    -0.051 A 
ATOM     28  C   UNL A   1      32.538  29.653  24.849  1.00  0.00     0.005 A 
ATOM     29  C   UNL A   1      33.940  28.178  26.151  1.00  0.00     0.005 A 
ATOM     30  C   UNL A   1      32.390  28.656  23.884  1.00  0.00     0.022 A 
ATOM     31  C   UNL A   1      33.809  27.179  25.180  1.00  0.00     0.022 A 
ENDBRANCH  22  25
ENDBRANCH  14  22
ENDBRANCH  11  13
ENDBRANCH   8  11
ENDBRANCH   6   7
ENDBRANCH   3   6
ENDBRANCH   1   2
BRANCH   1  32
ATOM     32  C   UNL A   1      38.706  23.458  26.541  1.00  0.00     0.023 C 
BRANCH  32  33
ATOM     33  C   UNL A   1      39.472  22.146  26.371  1.00  0.00     0.023 C 
BRANCH  33  34
ATOM     34  C   UNL A   1      40.435  21.834  27.508  1.00  0.00     0.116 C 
BRANCH  34  35
ATOM     35  N   UNL A   1      41.842  21.990  27.166  1.00  0.00    -0.352 N 
ATOM     36  C   UNL A   1      42.433  23.113  26.600  1.00  0.00     0.251 C 
ATOM     37  H   UNL A   1      42.432  21.225  27.356  1.00  0.00     0.163 HD
ATOM     38  O   UNL A   1      43.436  23.066  25.900  1.00  0.00    -0.269 OA
BRANCH  36  39
ATOM     39  C   UNL A   1      41.901  24.418  27.044  1.00  0.00     0.039 A 
ATOM     40  C   UNL A   1      41.982  25.482  26.134  1.00  0.00     0.014 A 
ATOM     41  C   UNL A   1      41.714  24.640  28.402  1.00  0.00     0.014 A 
ATOM     42  C   UNL A   1      42.130  26.774  26.614  1.00  0.00     0.010 A 
ATOM     43  C   UNL A   1      42.002  25.889  28.882  1.00  0.00     0.010 A 
ATOM     44  C   UNL A   1      42.256  26.937  27.985  1.00  0.00    -0.014 A 
BRANCH  44  45
ATOM     45  C   UNL A   1      42.559  28.186  28.646  1.00  0.00     0.031 A 
ATOM     46  C   UNL A   1      41.448  29.135  28.792  1.00  0.00     0.074 A 
ATOM     47  C   UNL A   1      43.721  28.277  29.322  1.00  0.00     0.049 A 
ATOM     48  N   UNL A   1      41.560  30.316  29.274  1.00  0.00    -0.248 NA
ATOM     49  C   UNL A   1      40.088  28.812  28.370  1.00  0.00     0.031 C 
ATOM     50  C   UNL A   1      44.079  29.191  30.399  1.00  0.00     0.029 A 
ATOM     51  N   UNL A   1      44.927  27.653  28.988  1.00  0.00    -0.354 N 
ATOM     52  C   UNL A   1      40.288  30.791  29.510  1.00  0.00     0.074 A 
ATOM     53  C   UNL A   1      39.415  29.866  28.835  1.00  0.00     0.031 C 
ATOM     54  C   UNL A   1      45.418  29.294  30.448  1.00  0.00     0.029 A 
ATOM     55  C   UNL A   1      45.938  28.593  29.284  1.00  0.00     0.049 A 
ATOM     56  H   UNL A   1      45.046  26.746  28.622  1.00  0.00     0.167 HD
ATOM     57  C   UNL A   1      40.159  31.839  30.374  1.00  0.00     0.037 A 
ATOM     58  C   UNL A   1      46.596  29.194  28.242  1.00  0.00     0.037 A 
ATOM     59  C   UNL A   1      41.490  32.373  30.693  1.00  0.00     0.049 A 
ATOM     60  C   UNL A   1      46.300  30.682  28.106  1.00  0.00     0.074 A 
ATOM     61  C   UNL A   1      42.379  32.223  31.743  1.00  0.00     0.029 A 
ATOM     62  N   UNL A   1      42.228  32.907  29.653  1.00  0.00    -0.354 N 
ATOM     63  N   UNL A   1      45.413  31.332  28.813  1.00  0.00    -0.248 NA
ATOM     64  C   UNL A   1      46.959  31.549  27.131  1.00  0.00     0.031 C 
ATOM     65  C   UNL A   1      43.674  32.632  31.287  1.00  0.00     0.029 A 
ATOM     66  C   UNL A   1      43.561  33.056  29.974  1.00  0.00     0.049 A 
ATOM     67  H   UNL A   1      41.845  33.154  28.780  1.00  0.00     0.167 HD
ATOM     68  C   UNL A   1      45.339  32.637  28.398  1.00  0.00     0.074 A 
ATOM     69  C   UNL A   1      46.326  32.718  27.333  1.00  0.00     0.031 C 
ATOM     70  C   UNL A   1      44.465  33.543  28.938  1.00  0.00     0.037 A 
BRANCH  57  71
ATOM     71  C   UNL A   1      38.890  32.263  31.089  1.00  0.00     0.058 A 
ATOM     72  C   UNL A   1      37.865  32.907  30.361  1.00  0.00     0.135 A 
ATOM     73  C   UNL A   1      38.625  32.145  32.471  1.00  0.00     0.135 A 
ATOM     74  F   UNL A   1      37.936  33.051  29.030  1.00  0.00    -0.206 F 
ATOM     75  C   UNL A   1      36.723  33.449  30.958  1.00  0.00     0.059 A 
ATOM     76  C   UNL A   1      37.502  32.697  33.095  1.00  0.00     0.059 A 
ATOM     77  F   UNL A   1      39.417  31.462  33.299  1.00  0.00    -0.206 F 
ATOM     78  C   UNL A   1      36.559  33.359  32.331  1.00  0.00     0.060 A 
BRANCH  78  79
ATOM     79  S   UNL A   1      35.101  34.093  33.089  1.00  0.00     0.124 S 
ATOM     80  O   UNL A   1      34.959  33.297  34.304  1.00  0.00    -0.237 OA
ATOM     81  O   UNL A   1      35.520  35.477  33.279  1.00  0.00    -0.237 OA
ATOM     82  O   UNL A   1      34.057  33.889  32.088  1.00  0.00    -0.744 OA
ENDBRANCH  78  79
ENDBRANCH  57  71
BRANCH  58  83
ATOM     83  C   UNL A   1      46.844  28.222  27.125  1.00  0.00     0.058 A 
ATOM     84  C   UNL A   1      45.982  28.292  26.007  1.00  0.00     0.135 A 
ATOM     85  C   UNL A   1      48.097  27.630  26.925  1.00  0.00     0.135 A 
ATOM     86  F   UNL A   1      44.767  28.846  26.140  1.00  0.00    -0.206 F 
ATOM     87  C   UNL A   1      46.410  27.973  24.721  1.00  0.00     0.059 A 
ATOM     88  C   UNL A   1      48.539  27.280  25.644  1.00  0.00     0.059 A 
ATOM     89  F   UNL A   1      48.964  27.521  27.945  1.00  0.00    -0.206 F 
ATOM     90  C   UNL A   1      47.716  27.531  24.543  1.00  0.00     0.060 A 
BRANCH  90  91
ATOM     91  S   UNL A   1      48.368  27.480  22.853  1.00  0.00     0.124 S 
ATOM     92  O   UNL A   1      47.396  28.291  22.131  1.00  0.00    -0.237 OA
ATOM     93  O   UNL A   1      49.695  28.077  23.018  1.00  0.00    -0.237 OA
ATOM     94  O   UNL A   1      48.357  26.058  22.536  1.00  0.00    -0.744 OA
ENDBRANCH  90  91
ENDBRANCH  58  83
BRANCH  70  95
ATOM     95  C   UNL A   1      44.355  34.985  28.490  1.00  0.00     0.058 A 
ATOM     96  C   UNL A   1      44.818  36.059  29.267  1.00  0.00     0.135 A 
ATOM     97  C   UNL A   1      43.683  35.348  27.296  1.00  0.00     0.135 A 
ATOM     98  F   UNL A   1      45.363  35.849  30.475  1.00  0.00    -0.206 F 
ATOM     99  C   UNL A   1      44.716  37.385  28.841  1.00  0.00     0.059 A 
ATOM    100  C   UNL A   1      43.512  36.664  26.885  1.00  0.00     0.059 A 
ATOM    101  F   UNL A   1      43.189  34.439  26.447  1.00  0.00    -0.206 F 
ATOM    102  C   UNL A   1      44.070  37.677  27.643  1.00  0.00     0.060 A 
BRANCH 102 103
ATOM    103  S   UNL A   1      43.952  39.382  27.081  1.00  0.00     0.124 S 
ATOM    104  O   UNL A   1      45.106  39.501  26.196  1.00  0.00    -0.237 OA
ATOM    105  O   UNL A   1      42.648  39.381  26.427  1.00  0.00    -0.237 OA
ATOM    106  O   UNL A   1      44.034  40.156  28.317  1.00  0.00    -0.744 OA
ENDBRANCH 102 103
ENDBRANCH  70  95
ENDBRANCH  44  45
ENDBRANCH  36  39
ENDBRANCH  34  35
ENDBRANCH  33  34
ENDBRANCH  32  33
ENDBRANCH   1  32
TORSDOF 19
ENDMDL
