MODEL 1
REMARK VINA RESULT:     -11.8      0.000      0.000
REMARK SMILES CCOC(=O)C1=NN(c2ccc([N+](=O)[O-])cc2C(F)(F)F)[C@@](C)(C(=O)NCCCCNC(=O)c2ccc(-c3c4nc(c(-c5c(F)cc(S(=O)(=O)[O-])cc5F)c5ccc([nH]5)c(-c5c(F)cc(S(=O)(=O)[O-])cc5F)c5nc(c(-c6c(F)cc(S(=O)(=O)[O-])cc6F)c6ccc3[nH]6)C=C5)C=C4)cc2)C1
REMARK SMILES IDX 28 1 27 2 26 3 24 4 25 5 22 7 6 8 7 9 100 10 8 11 23 12 4 13
REMARK SMILES IDX 5 14 3 15 2 16 1 17 9 18 10 19 17 20 11 21 16 22 12 23 18 24
REMARK SMILES IDX 19 25 20 26 21 27 13 28 14 29 15 30 29 31 30 32 31 33 32 34
REMARK SMILES IDX 33 36 34 37 35 38 99 39 36 40 98 41 37 42 38 43 39 44 92 45
REMARK SMILES IDX 40 46 97 47 91 48 93 49 41 50 96 51 90 52 89 53 42 55 76 56
REMARK SMILES IDX 55 57 75 58 56 59 59 60 74 61 94 62 57 63 58 64 73 66 95 67
REMARK SMILES IDX 60 68 43 69 44 70 53 71 45 72 46 73 52 74 54 75 47 76 48 77
REMARK SMILES IDX 49 78 50 79 51 80 77 81 78 82 87 83 79 84 80 85 86 86 88 87
REMARK SMILES IDX 81 88 82 89 83 90 84 91 85 92 61 93 62 94 71 95 63 96 64 97
REMARK SMILES IDX 70 98 72 99 65 100 66 101 67 102 68 103 69 104
REMARK H PARENT 26 6 31 35 93 54 59 65
REMARK Flexibility Score: inf
ROOT
ATOM      1  C   UNL A   1      37.496  22.144  24.981  1.00  0.00     0.023 C 
ENDROOT
BRANCH   1   2
ATOM      2  C   UNL A   1      36.099  22.072  24.365  1.00  0.00     0.116 C 
BRANCH   2   3
ATOM      3  N   UNL A   1      35.533  23.396  24.231  1.00  0.00    -0.354 N 
ATOM      4  C   UNL A   1      34.430  23.977  24.770  1.00  0.00     0.248 C 
ATOM      5  O   UNL A   1      34.119  25.062  24.260  1.00  0.00    -0.272 OA
ATOM      6  H   UNL A   1      36.044  23.989  23.635  1.00  0.00     0.163 HD
BRANCH   4   7
ATOM      7  C   UNL A   1      33.619  23.391  25.969  1.00  0.00     0.144 C 
ATOM      8  C   UNL A   1      31.524  24.290  25.668  1.00  0.00     0.149 C 
ATOM      9  N   UNL A   1      31.408  23.091  25.186  1.00  0.00    -0.169 NA
ATOM     10  C   UNL A   1      32.728  24.540  26.512  1.00  0.00     0.106 C 
ATOM     11  N   UNL A   1      32.555  22.426  25.551  1.00  0.00    -0.249 N 
ATOM     12  C   UNL A   1      34.525  22.929  27.104  1.00  0.00     0.048 C 
BRANCH   8  13
ATOM     13  C   UNL A   1      30.522  25.397  25.460  1.00  0.00     0.354 C 
ATOM     14  O   UNL A   1      29.965  25.936  26.389  1.00  0.00    -0.245 OA
BRANCH  13  15
ATOM     15  O   UNL A   1      30.333  25.612  24.142  1.00  0.00    -0.461 OA
BRANCH  15  16
ATOM     16  C   UNL A   1      29.076  26.211  23.802  1.00  0.00     0.230 C 
ATOM     17  C   UNL A   1      29.259  27.667  23.416  1.00  0.00     0.049 C 
ENDBRANCH  15  16
ENDBRANCH  13  15
ENDBRANCH   8  13
BRANCH  11  18
ATOM     18  C   UNL A   1      32.721  21.146  25.041  1.00  0.00     0.073 A 
ATOM     19  C   UNL A   1      33.203  20.129  25.892  1.00  0.00     0.036 A 
ATOM     20  C   UNL A   1      32.499  20.818  23.690  1.00  0.00     0.088 A 
ATOM     21  C   UNL A   1      33.344  18.802  25.468  1.00  0.00     0.088 A 
ATOM     22  C   UNL A   1      32.602  19.470  23.269  1.00  0.00     0.101 A 
ATOM     23  C   UNL A   1      33.010  18.470  24.159  1.00  0.00     0.270 A 
BRANCH  20  24
ATOM     24  C   UNL A   1      32.197  21.848  22.628  1.00  0.00     0.418 C 
ATOM     25  F   UNL A   1      33.240  22.710  22.437  1.00  0.00    -0.166 F 
ATOM     26  F   UNL A   1      31.984  21.274  21.410  1.00  0.00    -0.166 F 
ATOM     27  F   UNL A   1      31.120  22.643  22.864  1.00  0.00    -0.166 F 
ENDBRANCH  20  24
BRANCH  23  28
ATOM     28  N   UNL A   1      33.095  17.075  23.707  1.00  0.00     0.062 N 
ATOM     29  O   UNL A   1      33.397  16.869  22.525  1.00  0.00    -0.258 OA
ATOM     30  O   UNL A   1      32.862  16.188  24.541  1.00  0.00    -0.258 OA
ENDBRANCH  23  28
ENDBRANCH  11  18
ENDBRANCH   4   7
ENDBRANCH   2   3
ENDBRANCH   1   2
BRANCH   1  31
ATOM     31  C   UNL A   1      38.174  20.800  25.228  1.00  0.00     0.023 C 
BRANCH  31  32
ATOM     32  C   UNL A   1      39.345  20.835  26.199  1.00  0.00     0.116 C 
BRANCH  32  33
ATOM     33  N   UNL A   1      40.235  19.692  26.057  1.00  0.00    -0.352 N 
ATOM     34  C   UNL A   1      41.608  19.662  26.080  1.00  0.00     0.251 C 
ATOM     35  H   UNL A   1      39.793  18.821  25.929  1.00  0.00     0.163 HD
ATOM     36  O   UNL A   1      42.207  18.621  25.830  1.00  0.00    -0.269 OA
BRANCH  34  37
ATOM     37  C   UNL A   1      42.353  20.903  26.374  1.00  0.00     0.039 A 
ATOM     38  C   UNL A   1      42.799  21.691  25.311  1.00  0.00     0.014 A 
ATOM     39  C   UNL A   1      42.565  21.304  27.696  1.00  0.00     0.014 A 
ATOM     40  C   UNL A   1      43.394  22.927  25.575  1.00  0.00     0.010 A 
ATOM     41  C   UNL A   1      43.099  22.561  27.954  1.00  0.00     0.010 A 
ATOM     42  C   UNL A   1      43.513  23.385  26.896  1.00  0.00    -0.014 A 
BRANCH  42  43
ATOM     43  C   UNL A   1      44.070  24.724  27.205  1.00  0.00     0.031 A 
ATOM     44  C   UNL A   1      43.155  25.822  27.666  1.00  0.00     0.074 A 
ATOM     45  C   UNL A   1      45.374  24.974  26.979  1.00  0.00     0.049 A 
ATOM     46  N   UNL A   1      43.414  27.089  27.853  1.00  0.00    -0.248 NA
ATOM     47  C   UNL A   1      41.752  25.451  27.916  1.00  0.00     0.031 C 
ATOM     48  C   UNL A   1      46.350  24.005  26.476  1.00  0.00     0.029 A 
ATOM     49  N   UNL A   1      46.099  26.128  27.126  1.00  0.00    -0.354 N 
ATOM     50  C   UNL A   1      42.203  27.675  28.202  1.00  0.00     0.074 A 
ATOM     51  C   UNL A   1      41.204  26.629  28.178  1.00  0.00     0.031 C 
ATOM     52  C   UNL A   1      47.549  24.602  26.373  1.00  0.00     0.029 A 
ATOM     53  C   UNL A   1      47.420  25.999  26.774  1.00  0.00     0.049 A 
ATOM     54  H   UNL A   1      45.709  26.972  27.454  1.00  0.00     0.167 HD
ATOM     55  C   UNL A   1      41.951  28.964  28.524  1.00  0.00     0.037 A 
ATOM     56  C   UNL A   1      48.414  26.907  26.772  1.00  0.00     0.037 A 
ATOM     57  C   UNL A   1      42.956  29.990  28.603  1.00  0.00     0.049 A 
ATOM     58  C   UNL A   1      48.127  28.313  27.214  1.00  0.00     0.074 A 
ATOM     59  C   UNL A   1      42.812  31.313  28.978  1.00  0.00     0.029 A 
ATOM     60  N   UNL A   1      44.299  29.799  28.314  1.00  0.00    -0.354 N 
ATOM     61  N   UNL A   1      46.982  28.843  27.572  1.00  0.00    -0.248 NA
ATOM     62  C   UNL A   1      49.263  29.243  27.257  1.00  0.00     0.031 C 
ATOM     63  C   UNL A   1      44.069  31.926  28.911  1.00  0.00     0.029 A 
ATOM     64  C   UNL A   1      44.997  30.977  28.509  1.00  0.00     0.049 A 
ATOM     65  H   UNL A   1      44.697  28.949  28.015  1.00  0.00     0.167 HD
ATOM     66  C   UNL A   1      47.262  30.164  27.899  1.00  0.00     0.074 A 
ATOM     67  C   UNL A   1      48.686  30.352  27.704  1.00  0.00     0.031 C 
ATOM     68  C   UNL A   1      46.416  31.135  28.320  1.00  0.00     0.037 A 
BRANCH  55  69
ATOM     69  C   UNL A   1      40.525  29.327  28.821  1.00  0.00     0.058 A 
ATOM     70  C   UNL A   1      40.073  29.502  30.138  1.00  0.00     0.135 A 
ATOM     71  C   UNL A   1      39.601  29.494  27.779  1.00  0.00     0.135 A 
ATOM     72  F   UNL A   1      40.915  29.333  31.169  1.00  0.00    -0.206 F 
ATOM     73  C   UNL A   1      38.742  29.794  30.415  1.00  0.00     0.059 A 
ATOM     74  C   UNL A   1      38.268  29.806  28.032  1.00  0.00     0.059 A 
ATOM     75  F   UNL A   1      39.983  29.334  26.503  1.00  0.00    -0.206 F 
ATOM     76  C   UNL A   1      37.844  29.935  29.355  1.00  0.00     0.060 A 
BRANCH  76  77
ATOM     77  S   UNL A   1      36.113  30.291  29.719  1.00  0.00     0.124 S 
ATOM     78  O   UNL A   1      35.962  29.673  31.034  1.00  0.00    -0.237 OA
ATOM     79  O   UNL A   1      36.074  31.749  29.698  1.00  0.00    -0.237 OA
ATOM     80  O   UNL A   1      35.400  29.633  28.629  1.00  0.00    -0.744 OA
ENDBRANCH  76  77
ENDBRANCH  55  69
BRANCH  56  81
ATOM     81  C   UNL A   1      49.783  26.500  26.368  1.00  0.00     0.058 A 
ATOM     82  C   UNL A   1      50.645  25.886  27.289  1.00  0.00     0.135 A 
ATOM     83  C   UNL A   1      50.244  26.690  25.058  1.00  0.00     0.135 A 
ATOM     84  F   UNL A   1      50.244  25.689  28.554  1.00  0.00    -0.206 F 
ATOM     85  C   UNL A   1      51.925  25.480  26.926  1.00  0.00     0.059 A 
ATOM     86  C   UNL A   1      51.516  26.279  24.669  1.00  0.00     0.059 A 
ATOM     87  F   UNL A   1      49.448  27.257  24.140  1.00  0.00    -0.206 F 
ATOM     88  C   UNL A   1      52.352  25.681  25.613  1.00  0.00     0.060 A 
BRANCH  88  89
ATOM     89  S   UNL A   1      53.990  25.095  25.128  1.00  0.00     0.124 S 
ATOM     90  O   UNL A   1      54.792  25.487  26.281  1.00  0.00    -0.237 OA
ATOM     91  O   UNL A   1      53.773  23.662  24.960  1.00  0.00    -0.237 OA
ATOM     92  O   UNL A   1      54.251  25.830  23.893  1.00  0.00    -0.744 OA
ENDBRANCH  88  89
ENDBRANCH  56  81
BRANCH  68  93
ATOM     93  C   UNL A   1      47.012  32.477  28.623  1.00  0.00     0.058 A 
ATOM     94  C   UNL A   1      47.108  33.471  27.640  1.00  0.00     0.135 A 
ATOM     95  C   UNL A   1      47.445  32.786  29.923  1.00  0.00     0.135 A 
ATOM     96  F   UNL A   1      46.712  33.217  26.382  1.00  0.00    -0.206 F 
ATOM     97  C   UNL A   1      47.623  34.729  27.930  1.00  0.00     0.059 A 
ATOM     98  C   UNL A   1      47.951  34.042  30.239  1.00  0.00     0.059 A 
ATOM     99  F   UNL A   1      47.367  31.865  30.897  1.00  0.00    -0.206 F 
ATOM    100  C   UNL A   1      48.045  35.004  29.234  1.00  0.00     0.060 A 
BRANCH 100 101
ATOM    101  S   UNL A   1      48.675  36.652  29.618  1.00  0.00     0.124 S 
ATOM    102  O   UNL A   1      48.308  36.785  31.023  1.00  0.00    -0.237 OA
ATOM    103  O   UNL A   1      50.103  36.520  29.345  1.00  0.00    -0.237 OA
ATOM    104  O   UNL A   1      47.946  37.513  28.691  1.00  0.00    -0.744 OA
ENDBRANCH 100 101
ENDBRANCH  68  93
ENDBRANCH  42  43
ENDBRANCH  34  37
ENDBRANCH  32  33
ENDBRANCH  31  32
ENDBRANCH   1  31
TORSDOF 20
ENDMDL
MODEL 2
REMARK VINA RESULT:     -11.7      2.960      8.824
REMARK SMILES CCOC(=O)C1=NN(c2ccc([N+](=O)[O-])cc2C(F)(F)F)[C@@](C)(C(=O)NCCCCNC(=O)c2ccc(-c3c4nc(c(-c5c(F)cc(S(=O)(=O)[O-])cc5F)c5ccc([nH]5)c(-c5c(F)cc(S(=O)(=O)[O-])cc5F)c5nc(c(-c6c(F)cc(S(=O)(=O)[O-])cc6F)c6ccc3[nH]6)C=C5)C=C4)cc2)C1
REMARK SMILES IDX 28 1 27 2 26 3 24 4 25 5 22 7 6 8 7 9 100 10 8 11 23 12 4 13
REMARK SMILES IDX 5 14 3 15 2 16 1 17 9 18 10 19 17 20 11 21 16 22 12 23 18 24
REMARK SMILES IDX 19 25 20 26 21 27 13 28 14 29 15 30 29 31 30 32 31 33 32 34
REMARK SMILES IDX 33 36 34 37 35 38 99 39 36 40 98 41 37 42 38 43 39 44 92 45
REMARK SMILES IDX 40 46 97 47 91 48 93 49 41 50 96 51 90 52 89 53 42 55 76 56
REMARK SMILES IDX 55 57 75 58 56 59 59 60 74 61 94 62 57 63 58 64 73 66 95 67
REMARK SMILES IDX 60 68 43 69 44 70 53 71 45 72 46 73 52 74 54 75 47 76 48 77
REMARK SMILES IDX 49 78 50 79 51 80 77 81 78 82 87 83 79 84 80 85 86 86 88 87
REMARK SMILES IDX 81 88 82 89 83 90 84 91 85 92 61 93 62 94 71 95 63 96 64 97
REMARK SMILES IDX 70 98 72 99 65 100 66 101 67 102 68 103 69 104
REMARK H PARENT 26 6 31 35 93 54 59 65
REMARK Flexibility Score: inf
ROOT
ATOM      1  C   UNL A   1      35.255  23.985  23.920  1.00  0.00     0.023 C 
ENDROOT
BRANCH   1   2
ATOM      2  C   UNL A   1      34.744  24.983  24.960  1.00  0.00     0.116 C 
BRANCH   2   3
ATOM      3  N   UNL A   1      34.343  26.220  24.325  1.00  0.00    -0.354 N 
ATOM      4  C   UNL A   1      33.137  26.829  24.191  1.00  0.00     0.248 C 
ATOM      5  O   UNL A   1      33.125  27.773  23.388  1.00  0.00    -0.272 OA
ATOM      6  H   UNL A   1      35.088  26.713  23.911  1.00  0.00     0.163 HD
BRANCH   4   7
ATOM      7  C   UNL A   1      31.857  26.442  24.997  1.00  0.00     0.144 C 
ATOM      8  C   UNL A   1      30.149  27.152  23.631  1.00  0.00     0.149 C 
ATOM      9  N   UNL A   1      30.213  25.877  23.393  1.00  0.00    -0.169 NA
ATOM     10  C   UNL A   1      30.862  27.624  24.853  1.00  0.00     0.106 C 
ATOM     11  N   UNL A   1      31.054  25.358  24.351  1.00  0.00    -0.249 N 
ATOM     12  C   UNL A   1      32.148  26.257  26.481  1.00  0.00     0.048 C 
BRANCH   8  13
ATOM     13  C   UNL A   1      29.386  28.141  22.788  1.00  0.00     0.354 C 
ATOM     14  O   UNL A   1      29.908  28.736  21.873  1.00  0.00    -0.245 OA
BRANCH  13  15
ATOM     15  O   UNL A   1      28.126  28.274  23.252  1.00  0.00    -0.461 OA
BRANCH  15  16
ATOM     16  C   UNL A   1      27.409  29.404  22.737  1.00  0.00     0.230 C 
ATOM     17  C   UNL A   1      27.749  30.660  23.519  1.00  0.00     0.049 C 
ENDBRANCH  15  16
ENDBRANCH  13  15
ENDBRANCH   8  13
BRANCH  11  18
ATOM     18  C   UNL A   1      31.380  24.015  24.230  1.00  0.00     0.073 A 
ATOM     19  C   UNL A   1      31.902  23.547  23.005  1.00  0.00     0.036 A 
ATOM     20  C   UNL A   1      31.153  23.070  25.248  1.00  0.00     0.088 A 
ATOM     21  C   UNL A   1      32.308  22.220  22.822  1.00  0.00     0.088 A 
ATOM     22  C   UNL A   1      31.599  21.736  25.080  1.00  0.00     0.101 A 
ATOM     23  C   UNL A   1      32.184  21.322  23.878  1.00  0.00     0.270 A 
BRANCH  20  24
ATOM     24  C   UNL A   1      30.402  23.387  26.519  1.00  0.00     0.418 C 
ATOM     25  F   UNL A   1      29.587  24.474  26.376  1.00  0.00    -0.166 F 
ATOM     26  F   UNL A   1      29.574  22.369  26.888  1.00  0.00    -0.166 F 
ATOM     27  F   UNL A   1      31.170  23.662  27.607  1.00  0.00    -0.166 F 
ENDBRANCH  20  24
BRANCH  23  28
ATOM     28  N   UNL A   1      32.655  19.939  23.729  1.00  0.00     0.062 N 
ATOM     29  O   UNL A   1      32.258  19.297  22.748  1.00  0.00    -0.258 OA
ATOM     30  O   UNL A   1      33.426  19.500  24.595  1.00  0.00    -0.258 OA
ENDBRANCH  23  28
ENDBRANCH  11  18
ENDBRANCH   4   7
ENDBRANCH   2   3
ENDBRANCH   1   2
BRANCH   1  31
ATOM     31  C   UNL A   1      36.201  22.912  24.450  1.00  0.00     0.023 C 
BRANCH  31  32
ATOM     32  C   UNL A   1      36.943  23.277  25.727  1.00  0.00     0.116 C 
BRANCH  32  33
ATOM     33  N   UNL A   1      37.985  22.321  26.072  1.00  0.00    -0.352 N 
ATOM     34  C   UNL A   1      39.235  22.558  26.588  1.00  0.00     0.251 C 
ATOM     35  H   UNL A   1      37.762  21.374  25.915  1.00  0.00     0.163 HD
ATOM     36  O   UNL A   1      40.036  21.638  26.715  1.00  0.00    -0.269 OA
BRANCH  34  37
ATOM     37  C   UNL A   1      39.614  23.938  26.955  1.00  0.00     0.039 A 
ATOM     38  C   UNL A   1      39.543  24.325  28.295  1.00  0.00     0.014 A 
ATOM     39  C   UNL A   1      40.080  24.826  25.982  1.00  0.00     0.014 A 
ATOM     40  C   UNL A   1      40.015  25.584  28.672  1.00  0.00     0.010 A 
ATOM     41  C   UNL A   1      40.608  26.052  26.368  1.00  0.00     0.010 A 
ATOM     42  C   UNL A   1      40.584  26.440  27.717  1.00  0.00    -0.014 A 
BRANCH  42  43
ATOM     43  C   UNL A   1      41.163  27.750  28.098  1.00  0.00     0.031 A 
ATOM     44  C   UNL A   1      42.644  27.972  27.982  1.00  0.00     0.074 A 
ATOM     45  C   UNL A   1      40.372  28.699  28.635  1.00  0.00     0.049 A 
ATOM     46  N   UNL A   1      43.361  28.985  28.389  1.00  0.00    -0.248 NA
ATOM     47  C   UNL A   1      43.425  26.892  27.356  1.00  0.00     0.031 C 
ATOM     48  C   UNL A   1      38.929  28.580  28.853  1.00  0.00     0.029 A 
ATOM     49  N   UNL A   1      40.677  29.948  29.112  1.00  0.00    -0.354 N 
ATOM     50  C   UNL A   1      44.680  28.651  28.107  1.00  0.00     0.074 A 
ATOM     51  C   UNL A   1      44.666  27.330  27.515  1.00  0.00     0.031 C 
ATOM     52  C   UNL A   1      38.472  29.716  29.405  1.00  0.00     0.029 A 
ATOM     53  C   UNL A   1      39.592  30.630  29.606  1.00  0.00     0.049 A 
ATOM     54  H   UNL A   1      41.589  30.322  29.102  1.00  0.00     0.167 HD
ATOM     55  C   UNL A   1      45.800  29.383  28.311  1.00  0.00     0.037 A 
ATOM     56  C   UNL A   1      39.511  31.853  30.163  1.00  0.00     0.037 A 
ATOM     57  C   UNL A   1      45.806  30.718  28.846  1.00  0.00     0.049 A 
ATOM     58  C   UNL A   1      40.756  32.681  30.303  1.00  0.00     0.074 A 
ATOM     59  C   UNL A   1      46.881  31.567  29.038  1.00  0.00     0.029 A 
ATOM     60  N   UNL A   1      44.675  31.404  29.262  1.00  0.00    -0.354 N 
ATOM     61  N   UNL A   1      41.992  32.363  30.001  1.00  0.00    -0.248 NA
ATOM     62  C   UNL A   1      40.598  34.034  30.853  1.00  0.00     0.031 C 
ATOM     63  C   UNL A   1      46.400  32.767  29.575  1.00  0.00     0.029 A 
ATOM     64  C   UNL A   1      45.024  32.668  29.703  1.00  0.00     0.049 A 
ATOM     65  H   UNL A   1      43.758  31.045  29.246  1.00  0.00     0.167 HD
ATOM     66  C   UNL A   1      42.757  33.480  30.309  1.00  0.00     0.074 A 
ATOM     67  C   UNL A   1      41.845  34.487  30.814  1.00  0.00     0.031 C 
ATOM     68  C   UNL A   1      44.095  33.657  30.188  1.00  0.00     0.037 A 
BRANCH  55  69
ATOM     69  C   UNL A   1      47.108  28.747  27.945  1.00  0.00     0.058 A 
ATOM     70  C   UNL A   1      47.594  28.776  26.629  1.00  0.00     0.135 A 
ATOM     71  C   UNL A   1      47.880  28.094  28.919  1.00  0.00     0.135 A 
ATOM     72  F   UNL A   1      46.881  29.370  25.659  1.00  0.00    -0.206 F 
ATOM     73  C   UNL A   1      48.785  28.147  26.281  1.00  0.00     0.059 A 
ATOM     74  C   UNL A   1      49.086  27.476  28.597  1.00  0.00     0.059 A 
ATOM     75  F   UNL A   1      47.458  28.036  30.190  1.00  0.00    -0.206 F 
ATOM     76  C   UNL A   1      49.519  27.491  27.271  1.00  0.00     0.060 A 
BRANCH  76  77
ATOM     77  S   UNL A   1      51.052  26.656  26.812  1.00  0.00     0.124 S 
ATOM     78  O   UNL A   1      50.829  26.408  25.390  1.00  0.00    -0.237 OA
ATOM     79  O   UNL A   1      52.068  27.655  27.128  1.00  0.00    -0.237 OA
ATOM     80  O   UNL A   1      51.057  25.473  27.665  1.00  0.00    -0.744 OA
ENDBRANCH  76  77
ENDBRANCH  55  69
BRANCH  56  81
ATOM     81  C   UNL A   1      38.193  32.380  30.595  1.00  0.00     0.058 A 
ATOM     82  C   UNL A   1      37.713  32.126  31.889  1.00  0.00     0.135 A 
ATOM     83  C   UNL A   1      37.405  33.166  29.742  1.00  0.00     0.135 A 
ATOM     84  F   UNL A   1      38.434  31.377  32.736  1.00  0.00    -0.206 F 
ATOM     85  C   UNL A   1      36.489  32.627  32.321  1.00  0.00     0.059 A 
ATOM     86  C   UNL A   1      36.184  33.689  30.158  1.00  0.00     0.059 A 
ATOM     87  F   UNL A   1      37.832  33.449  28.503  1.00  0.00    -0.206 F 
ATOM     88  C   UNL A   1      35.731  33.407  31.447  1.00  0.00     0.060 A 
BRANCH  88  89
ATOM     89  S   UNL A   1      34.173  34.109  32.032  1.00  0.00     0.124 S 
ATOM     90  O   UNL A   1      33.500  34.413  30.775  1.00  0.00    -0.237 OA
ATOM     91  O   UNL A   1      33.607  33.010  32.809  1.00  0.00    -0.237 OA
ATOM     92  O   UNL A   1      34.604  35.262  32.817  1.00  0.00    -0.744 OA
ENDBRANCH  88  89
ENDBRANCH  56  81
BRANCH  68  93
ATOM     93  C   UNL A   1      44.647  34.993  30.582  1.00  0.00     0.058 A 
ATOM     94  C   UNL A   1      44.729  36.049  29.663  1.00  0.00     0.135 A 
ATOM     95  C   UNL A   1      45.051  35.234  31.905  1.00  0.00     0.135 A 
ATOM     96  F   UNL A   1      44.359  35.861  28.385  1.00  0.00    -0.206 F 
ATOM     97  C   UNL A   1      45.204  37.300  30.038  1.00  0.00     0.059 A 
ATOM     98  C   UNL A   1      45.517  36.482  32.305  1.00  0.00     0.059 A 
ATOM     99  F   UNL A   1      44.986  34.254  32.820  1.00  0.00    -0.206 F 
ATOM    100  C   UNL A   1      45.598  37.506  31.362  1.00  0.00     0.060 A 
BRANCH 100 101
ATOM    101  S   UNL A   1      46.175  39.144  31.856  1.00  0.00     0.124 S 
ATOM    102  O   UNL A   1      47.298  38.809  32.725  1.00  0.00    -0.237 OA
ATOM    103  O   UNL A   1      46.522  39.760  30.579  1.00  0.00    -0.237 OA
ATOM    104  O   UNL A   1      45.011  39.721  32.525  1.00  0.00    -0.744 OA
ENDBRANCH 100 101
ENDBRANCH  68  93
ENDBRANCH  42  43
ENDBRANCH  34  37
ENDBRANCH  32  33
ENDBRANCH  31  32
ENDBRANCH   1  31
TORSDOF 20
ENDMDL
MODEL 3
REMARK VINA RESULT:     -11.6      2.858      8.812
REMARK SMILES CCOC(=O)C1=NN(c2ccc([N+](=O)[O-])cc2C(F)(F)F)[C@@](C)(C(=O)NCCCCNC(=O)c2ccc(-c3c4nc(c(-c5c(F)cc(S(=O)(=O)[O-])cc5F)c5ccc([nH]5)c(-c5c(F)cc(S(=O)(=O)[O-])cc5F)c5nc(c(-c6c(F)cc(S(=O)(=O)[O-])cc6F)c6ccc3[nH]6)C=C5)C=C4)cc2)C1
REMARK SMILES IDX 28 1 27 2 26 3 24 4 25 5 22 7 6 8 7 9 100 10 8 11 23 12 4 13
REMARK SMILES IDX 5 14 3 15 2 16 1 17 9 18 10 19 17 20 11 21 16 22 12 23 18 24
REMARK SMILES IDX 19 25 20 26 21 27 13 28 14 29 15 30 29 31 30 32 31 33 32 34
REMARK SMILES IDX 33 36 34 37 35 38 99 39 36 40 98 41 37 42 38 43 39 44 92 45
REMARK SMILES IDX 40 46 97 47 91 48 93 49 41 50 96 51 90 52 89 53 42 55 76 56
REMARK SMILES IDX 55 57 75 58 56 59 59 60 74 61 94 62 57 63 58 64 73 66 95 67
REMARK SMILES IDX 60 68 43 69 44 70 53 71 45 72 46 73 52 74 54 75 47 76 48 77
REMARK SMILES IDX 49 78 50 79 51 80 77 81 78 82 87 83 79 84 80 85 86 86 88 87
REMARK SMILES IDX 81 88 82 89 83 90 84 91 85 92 61 93 62 94 71 95 63 96 64 97
REMARK SMILES IDX 70 98 72 99 65 100 66 101 67 102 68 103 69 104
REMARK H PARENT 26 6 31 35 93 54 59 65
REMARK Flexibility Score: inf
ROOT
ATOM      1  C   UNL A   1      33.309  30.117  26.871  1.00  0.00     0.023 C 
ENDROOT
BRANCH   1   2
ATOM      2  C   UNL A   1      32.279  29.243  26.157  1.00  0.00     0.116 C 
BRANCH   2   3
ATOM      3  N   UNL A   1      32.520  27.843  26.432  1.00  0.00    -0.354 N 
ATOM      4  C   UNL A   1      32.774  26.783  25.622  1.00  0.00     0.248 C 
ATOM      5  O   UNL A   1      32.707  25.680  26.183  1.00  0.00    -0.272 OA
ATOM      6  H   UNL A   1      32.495  27.616  27.390  1.00  0.00     0.163 HD
BRANCH   4   7
ATOM      7  C   UNL A   1      33.172  26.897  24.117  1.00  0.00     0.144 C 
ATOM      8  C   UNL A   1      32.772  24.780  23.312  1.00  0.00     0.149 C 
ATOM      9  N   UNL A   1      31.722  25.446  22.939  1.00  0.00    -0.169 NA
ATOM     10  C   UNL A   1      33.939  25.596  23.756  1.00  0.00     0.106 C 
ATOM     11  N   UNL A   1      32.010  26.769  23.184  1.00  0.00    -0.249 N 
ATOM     12  C   UNL A   1      34.106  28.073  23.858  1.00  0.00     0.048 C 
BRANCH   8  13
ATOM     13  C   UNL A   1      32.885  23.277  23.286  1.00  0.00     0.354 C 
ATOM     14  O   UNL A   1      32.516  22.627  22.334  1.00  0.00    -0.245 OA
BRANCH  13  15
ATOM     15  O   UNL A   1      33.378  22.826  24.458  1.00  0.00    -0.461 OA
BRANCH  15  16
ATOM     16  C   UNL A   1      33.878  21.483  24.426  1.00  0.00     0.230 C 
ATOM     17  C   UNL A   1      32.842  20.509  24.956  1.00  0.00     0.049 C 
ENDBRANCH  15  16
ENDBRANCH  13  15
ENDBRANCH   8  13
BRANCH  11  18
ATOM     18  C   UNL A   1      30.982  27.678  22.977  1.00  0.00     0.073 A 
ATOM     19  C   UNL A   1      31.279  28.921  22.379  1.00  0.00     0.036 A 
ATOM     20  C   UNL A   1      29.657  27.454  23.399  1.00  0.00     0.088 A 
ATOM     21  C   UNL A   1      30.289  29.867  22.086  1.00  0.00     0.088 A 
ATOM     22  C   UNL A   1      28.648  28.392  23.068  1.00  0.00     0.101 A 
ATOM     23  C   UNL A   1      28.965  29.582  22.405  1.00  0.00     0.270 A 
BRANCH  20  24
ATOM     24  C   UNL A   1      29.247  26.272  24.243  1.00  0.00     0.418 C 
ATOM     25  F   UNL A   1      29.850  26.282  25.469  1.00  0.00    -0.166 F 
ATOM     26  F   UNL A   1      27.909  26.276  24.507  1.00  0.00    -0.166 F 
ATOM     27  F   UNL A   1      29.526  25.047  23.722  1.00  0.00    -0.166 F 
ENDBRANCH  20  24
BRANCH  23  28
ATOM     28  N   UNL A   1      27.902  30.534  22.057  1.00  0.00     0.062 N 
ATOM     29  O   UNL A   1      27.146  30.910  22.962  1.00  0.00    -0.258 OA
ATOM     30  O   UNL A   1      27.829  30.904  20.876  1.00  0.00    -0.258 OA
ENDBRANCH  23  28
ENDBRANCH  11  18
ENDBRANCH   4   7
ENDBRANCH   2   3
ENDBRANCH   1   2
BRANCH   1  31
ATOM     31  C   UNL A   1      34.613  29.421  27.246  1.00  0.00     0.023 C 
BRANCH  31  32
ATOM     32  C   UNL A   1      35.602  30.275  28.024  1.00  0.00     0.116 C 
BRANCH  32  33
ATOM     33  N   UNL A   1      35.509  30.083  29.464  1.00  0.00    -0.352 N 
ATOM     34  C   UNL A   1      36.504  29.768  30.357  1.00  0.00     0.251 C 
ATOM     35  H   UNL A   1      34.610  30.196  29.851  1.00  0.00     0.163 HD
ATOM     36  O   UNL A   1      36.229  29.530  31.528  1.00  0.00    -0.269 OA
BRANCH  34  37
ATOM     37  C   UNL A   1      37.900  29.685  29.882  1.00  0.00     0.039 A 
ATOM     38  C   UNL A   1      38.911  29.401  30.803  1.00  0.00     0.014 A 
ATOM     39  C   UNL A   1      38.196  29.843  28.526  1.00  0.00     0.014 A 
ATOM     40  C   UNL A   1      40.216  29.198  30.349  1.00  0.00     0.010 A 
ATOM     41  C   UNL A   1      39.482  29.577  28.069  1.00  0.00     0.010 A 
ATOM     42  C   UNL A   1      40.501  29.248  28.976  1.00  0.00    -0.014 A 
BRANCH  42  43
ATOM     43  C   UNL A   1      41.860  28.961  28.456  1.00  0.00     0.031 A 
ATOM     44  C   UNL A   1      42.201  27.575  27.990  1.00  0.00     0.074 A 
ATOM     45  C   UNL A   1      42.805  29.919  28.493  1.00  0.00     0.049 A 
ATOM     46  N   UNL A   1      43.359  27.085  27.634  1.00  0.00    -0.248 NA
ATOM     47  C   UNL A   1      41.098  26.600  27.955  1.00  0.00     0.031 C 
ATOM     48  C   UNL A   1      42.610  31.288  28.978  1.00  0.00     0.029 A 
ATOM     49  N   UNL A   1      44.128  29.881  28.132  1.00  0.00    -0.354 N 
ATOM     50  C   UNL A   1      43.135  25.739  27.372  1.00  0.00     0.074 A 
ATOM     51  C   UNL A   1      41.735  25.483  27.633  1.00  0.00     0.031 C 
ATOM     52  C   UNL A   1      43.766  31.962  28.867  1.00  0.00     0.029 A 
ATOM     53  C   UNL A   1      44.789  31.069  28.332  1.00  0.00     0.049 A 
ATOM     54  H   UNL A   1      44.563  29.078  27.762  1.00  0.00     0.167 HD
ATOM     55  C   UNL A   1      44.015  24.805  26.942  1.00  0.00     0.037 A 
ATOM     56  C   UNL A   1      46.076  31.397  28.114  1.00  0.00     0.037 A 
ATOM     57  C   UNL A   1      45.392  25.074  26.629  1.00  0.00     0.049 A 
ATOM     58  C   UNL A   1      47.014  30.364  27.557  1.00  0.00     0.074 A 
ATOM     59  C   UNL A   1      46.350  24.210  26.130  1.00  0.00     0.029 A 
ATOM     60  N   UNL A   1      46.004  26.310  26.772  1.00  0.00    -0.354 N 
ATOM     61  N   UNL A   1      46.778  29.104  27.284  1.00  0.00    -0.248 NA
ATOM     62  C   UNL A   1      48.389  30.797  27.274  1.00  0.00     0.031 C 
ATOM     63  C   UNL A   1      47.544  24.923  25.976  1.00  0.00     0.029 A 
ATOM     64  C   UNL A   1      47.324  26.235  26.365  1.00  0.00     0.049 A 
ATOM     65  H   UNL A   1      45.564  27.123  27.112  1.00  0.00     0.167 HD
ATOM     66  C   UNL A   1      47.969  28.596  26.781  1.00  0.00     0.074 A 
ATOM     67  C   UNL A   1      48.923  29.687  26.780  1.00  0.00     0.031 C 
ATOM     68  C   UNL A   1      48.250  27.338  26.361  1.00  0.00     0.037 A 
BRANCH  55  69
ATOM     69  C   UNL A   1      43.499  23.405  26.782  1.00  0.00     0.058 A 
ATOM     70  C   UNL A   1      43.297  22.567  27.890  1.00  0.00     0.135 A 
ATOM     71  C   UNL A   1      43.212  22.892  25.508  1.00  0.00     0.135 A 
ATOM     72  F   UNL A   1      43.577  23.006  29.127  1.00  0.00    -0.206 F 
ATOM     73  C   UNL A   1      42.862  21.255  27.738  1.00  0.00     0.059 A 
ATOM     74  C   UNL A   1      42.756  21.588  25.333  1.00  0.00     0.059 A 
ATOM     75  F   UNL A   1      43.393  23.651  24.416  1.00  0.00    -0.206 F 
ATOM     76  C   UNL A   1      42.603  20.772  26.454  1.00  0.00     0.060 A 
BRANCH  76  77
ATOM     77  S   UNL A   1      42.062  19.061  26.259  1.00  0.00     0.124 S 
ATOM     78  O   UNL A   1      42.983  18.583  25.232  1.00  0.00    -0.237 OA
ATOM     79  O   UNL A   1      42.260  18.508  27.594  1.00  0.00    -0.237 OA
ATOM     80  O   UNL A   1      40.670  19.196  25.842  1.00  0.00    -0.744 OA
ENDBRANCH  76  77
ENDBRANCH  55  69
BRANCH  56  81
ATOM     81  C   UNL A   1      46.542  32.778  28.391  1.00  0.00     0.058 A 
ATOM     82  C   UNL A   1      47.122  33.101  29.626  1.00  0.00     0.135 A 
ATOM     83  C   UNL A   1      46.442  33.789  27.425  1.00  0.00     0.135 A 
ATOM     84  F   UNL A   1      47.234  32.164  30.579  1.00  0.00    -0.206 F 
ATOM     85  C   UNL A   1      47.583  34.385  29.899  1.00  0.00     0.059 A 
ATOM     86  C   UNL A   1      46.909  35.078  27.670  1.00  0.00     0.059 A 
ATOM     87  F   UNL A   1      45.909  33.522  26.223  1.00  0.00    -0.206 F 
ATOM     88  C   UNL A   1      47.471  35.367  28.914  1.00  0.00     0.060 A 
BRANCH  88  89
ATOM     89  S   UNL A   1      48.127  37.017  29.248  1.00  0.00     0.124 S 
ATOM     90  O   UNL A   1      49.345  37.014  28.447  1.00  0.00    -0.237 OA
ATOM     91  O   UNL A   1      47.053  37.883  28.773  1.00  0.00    -0.237 OA
ATOM     92  O   UNL A   1      48.318  37.008  30.696  1.00  0.00    -0.744 OA
ENDBRANCH  88  89
ENDBRANCH  56  81
BRANCH  68  93
ATOM     93  C   UNL A   1      49.632  27.083  25.841  1.00  0.00     0.058 A 
ATOM     94  C   UNL A   1      50.650  26.609  26.680  1.00  0.00     0.135 A 
ATOM     95  C   UNL A   1      49.926  27.268  24.481  1.00  0.00     0.135 A 
ATOM     96  F   UNL A   1      50.416  26.424  27.989  1.00  0.00    -0.206 F 
ATOM     97  C   UNL A   1      51.922  26.334  26.190  1.00  0.00     0.059 A 
ATOM     98  C   UNL A   1      51.187  26.986  23.967  1.00  0.00     0.059 A 
ATOM     99  F   UNL A   1      48.980  27.716  23.640  1.00  0.00    -0.206 F 
ATOM    100  C   UNL A   1      52.181  26.528  24.831  1.00  0.00     0.060 A 
BRANCH 100 101
ATOM    101  S   UNL A   1      53.822  26.131  24.189  1.00  0.00     0.124 S 
ATOM    102  O   UNL A   1      53.569  26.077  22.753  1.00  0.00    -0.237 OA
ATOM    103  O   UNL A   1      54.627  27.258  24.650  1.00  0.00    -0.237 OA
ATOM    104  O   UNL A   1      54.128  24.852  24.824  1.00  0.00    -0.744 OA
ENDBRANCH 100 101
ENDBRANCH  68  93
ENDBRANCH  42  43
ENDBRANCH  34  37
ENDBRANCH  32  33
ENDBRANCH  31  32
ENDBRANCH   1  31
TORSDOF 20
ENDMDL
