MODEL 1
REMARK VINA RESULT:     -11.2      0.000      0.000
REMARK SMILES C[C@@H]1C[NH+](CC2(C(=O)NCCCCNC(=O)c3ccc(-c4c5nc(c(-c6c(F)cc(S(=O)(=O)[O-])cc6F)c6ccc([nH]6)c(-c6c(F)cc(S(=O)(=O)[O-])cc6F)c6nc(c(-c7c(F)cc(S(=O)(=O)[O-])cc7F)c7ccc4[nH]7)C=C6)C=C5)cc3)CCCC2)C[C@H]1C
REMARK SMILES IDX 12 1 11 2 10 3 9 4 7 5 8 6 6 8 83 9 86 10 84 11 85 12 5 13
REMARK SMILES IDX 4 14 1 15 2 16 3 17 88 18 87 19 89 20 13 22 14 23 15 24
REMARK SMILES IDX 16 26 17 27 18 28 82 29 19 30 81 31 20 32 21 33 22 34 75 35
REMARK SMILES IDX 23 36 80 37 74 38 76 39 24 40 79 41 73 42 72 43 25 45 59 46
REMARK SMILES IDX 38 47 58 48 39 49 42 50 57 51 77 52 40 53 41 54 56 56 78 57
REMARK SMILES IDX 43 58 26 59 27 60 36 61 28 62 29 63 35 64 37 65 30 66 31 67
REMARK SMILES IDX 32 68 33 69 34 70 60 71 61 72 70 73 62 74 63 75 69 76 71 77
REMARK SMILES IDX 64 78 65 79 66 80 67 81 68 82 44 83 45 84 54 85 46 86 47 87
REMARK SMILES IDX 53 88 55 89 48 90 49 91 50 92 51 93 52 94
REMARK H PARENT 9 7 4 21 14 25 76 44 42 55
REMARK Flexibility Score: inf
ROOT
ATOM      1  C   UNL A   1      31.792  28.278  26.875  1.00  0.00     0.023 C 
ENDROOT
BRANCH   1   2
ATOM      2  C   UNL A   1      31.672  27.904  25.401  1.00  0.00     0.023 C 
BRANCH   2   3
ATOM      3  C   UNL A   1      30.754  26.717  25.127  1.00  0.00     0.116 C 
BRANCH   3   4
ATOM      4  N   UNL A   1      30.773  25.744  26.198  1.00  0.00    -0.355 N 
ATOM      5  C   UNL A   1      31.548  24.646  26.422  1.00  0.00     0.231 C 
ATOM      6  O   UNL A   1      31.318  24.056  27.485  1.00  0.00    -0.274 OA
ATOM      7  H   UNL A   1      30.098  25.906  26.897  1.00  0.00     0.163 HD
BRANCH   5   8
ATOM      8  C   UNL A   1      32.661  24.156  25.436  1.00  0.00     0.098 C 
ATOM      9  C   UNL A   1      33.805  25.189  25.412  1.00  0.00     0.023 C 
ATOM     10  C   UNL A   1      32.098  24.097  24.007  1.00  0.00     0.023 C 
ATOM     11  C   UNL A   1      33.990  25.677  23.980  1.00  0.00     0.001 C 
ATOM     12  C   UNL A   1      32.943  24.998  23.114  1.00  0.00     0.001 C 
BRANCH   8  13
ATOM     13  C   UNL A   1      33.106  22.736  25.987  1.00  0.00     0.279 C 
BRANCH  13  14
ATOM     14  N   UNL A   1      34.372  22.044  25.728  1.00  0.00    -0.334 N 
ATOM     15  C   UNL A   1      37.868  23.232  25.965  1.00  0.00     0.014 C 
ATOM     16  C   UNL A   1      36.430  23.081  25.504  1.00  0.00     0.049 C 
ATOM     17  C   UNL A   1      35.552  22.357  26.509  1.00  0.00     0.265 C 
ATOM     18  C   UNL A   1      36.231  22.238  24.242  1.00  0.00     0.049 C 
ATOM     19  C   UNL A   1      34.768  21.773  24.351  1.00  0.00     0.265 C 
ATOM     20  C   UNL A   1      36.521  22.990  22.952  1.00  0.00     0.014 C 
ATOM     21  H   UNL A   1      33.991  21.183  26.120  1.00  0.00     0.348 HD
ENDBRANCH  13  14
ENDBRANCH   8  13
ENDBRANCH   5   8
ENDBRANCH   3   4
ENDBRANCH   2   3
ENDBRANCH   1   2
BRANCH   1  22
ATOM     22  C   UNL A   1      33.169  28.763  27.318  1.00  0.00     0.116 C 
BRANCH  22  23
ATOM     23  N   UNL A   1      33.223  30.176  27.676  1.00  0.00    -0.352 N 
ATOM     24  C   UNL A   1      34.309  30.882  28.143  1.00  0.00     0.251 C 
ATOM     25  H   UNL A   1      32.385  30.684  27.571  1.00  0.00     0.163 HD
ATOM     26  O   UNL A   1      34.207  32.063  28.460  1.00  0.00    -0.269 OA
BRANCH  24  27
ATOM     27  C   UNL A   1      35.586  30.163  28.303  1.00  0.00     0.039 A 
ATOM     28  C   UNL A   1      36.513  30.196  27.261  1.00  0.00     0.014 A 
ATOM     29  C   UNL A   1      35.910  29.585  29.534  1.00  0.00     0.014 A 
ATOM     30  C   UNL A   1      37.811  29.736  27.487  1.00  0.00     0.010 A 
ATOM     31  C   UNL A   1      37.221  29.191  29.777  1.00  0.00     0.010 A 
ATOM     32  C   UNL A   1      38.187  29.283  28.763  1.00  0.00    -0.014 A 
BRANCH  32  33
ATOM     33  C   UNL A   1      39.599  28.940  29.073  1.00  0.00     0.031 A 
ATOM     34  C   UNL A   1      40.514  29.979  29.657  1.00  0.00     0.074 A 
ATOM     35  C   UNL A   1      40.075  27.722  28.738  1.00  0.00     0.049 A 
ATOM     36  N   UNL A   1      41.796  29.901  29.902  1.00  0.00    -0.248 NA
ATOM     37  C   UNL A   1      39.920  31.288  29.974  1.00  0.00     0.031 C 
ATOM     38  C   UNL A   1      39.303  26.652  28.099  1.00  0.00     0.029 A 
ATOM     39  N   UNL A   1      41.330  27.183  28.872  1.00  0.00    -0.354 N 
ATOM     40  C   UNL A   1      42.166  31.154  30.376  1.00  0.00     0.074 A 
ATOM     41  C   UNL A   1      40.983  31.985  30.349  1.00  0.00     0.031 C 
ATOM     42  C   UNL A   1      40.096  25.585  27.912  1.00  0.00     0.029 A 
ATOM     43  C   UNL A   1      41.438  25.900  28.388  1.00  0.00     0.049 A 
ATOM     44  H   UNL A   1      42.084  27.670  29.278  1.00  0.00     0.167 HD
ATOM     45  C   UNL A   1      43.379  31.566  30.812  1.00  0.00     0.037 A 
ATOM     46  C   UNL A   1      42.502  25.075  28.326  1.00  0.00     0.037 A 
ATOM     47  C   UNL A   1      44.538  30.718  30.894  1.00  0.00     0.049 A 
ATOM     48  C   UNL A   1      43.827  25.547  28.861  1.00  0.00     0.074 A 
ATOM     49  C   UNL A   1      45.783  31.013  31.423  1.00  0.00     0.029 A 
ATOM     50  N   UNL A   1      44.595  29.410  30.441  1.00  0.00    -0.354 N 
ATOM     51  N   UNL A   1      44.135  26.708  29.389  1.00  0.00    -0.248 NA
ATOM     52  C   UNL A   1      44.947  24.598  28.797  1.00  0.00     0.031 C 
ATOM     53  C   UNL A   1      46.602  29.892  31.261  1.00  0.00     0.029 A 
ATOM     54  C   UNL A   1      45.859  28.889  30.661  1.00  0.00     0.049 A 
ATOM     55  H   UNL A   1      43.847  28.922  30.024  1.00  0.00     0.167 HD
ATOM     56  C   UNL A   1      45.477  26.619  29.739  1.00  0.00     0.074 A 
ATOM     57  C   UNL A   1      45.920  25.289  29.377  1.00  0.00     0.031 C 
ATOM     58  C   UNL A   1      46.274  27.557  30.307  1.00  0.00     0.037 A 
BRANCH  45  59
ATOM     59  C   UNL A   1      43.517  32.992  31.261  1.00  0.00     0.058 A 
ATOM     60  C   UNL A   1      43.230  33.375  32.580  1.00  0.00     0.135 A 
ATOM     61  C   UNL A   1      44.010  33.970  30.384  1.00  0.00     0.135 A 
ATOM     62  F   UNL A   1      42.739  32.480  33.453  1.00  0.00    -0.206 F 
ATOM     63  C   UNL A   1      43.419  34.683  33.012  1.00  0.00     0.059 A 
ATOM     64  C   UNL A   1      44.227  35.280  30.800  1.00  0.00     0.059 A 
ATOM     65  F   UNL A   1      44.294  33.654  29.111  1.00  0.00    -0.206 F 
ATOM     66  C   UNL A   1      43.922  35.628  32.116  1.00  0.00     0.060 A 
BRANCH  66  67
ATOM     67  S   UNL A   1      44.201  37.311  32.704  1.00  0.00     0.124 S 
ATOM     68  O   UNL A   1      45.588  37.238  33.152  1.00  0.00    -0.237 OA
ATOM     69  O   UNL A   1      43.964  38.105  31.503  1.00  0.00    -0.237 OA
ATOM     70  O   UNL A   1      43.207  37.470  33.762  1.00  0.00    -0.744 OA
ENDBRANCH  66  67
ENDBRANCH  45  59
BRANCH  46  71
ATOM     71  C   UNL A   1      42.367  23.711  27.751  1.00  0.00     0.058 A 
ATOM     72  C   UNL A   1      42.292  22.584  28.583  1.00  0.00     0.135 A 
ATOM     73  C   UNL A   1      42.341  23.503  26.363  1.00  0.00     0.135 A 
ATOM     74  F   UNL A   1      42.318  22.733  29.915  1.00  0.00    -0.206 F 
ATOM     75  C   UNL A   1      42.231  21.296  28.061  1.00  0.00     0.059 A 
ATOM     76  C   UNL A   1      42.257  22.226  25.818  1.00  0.00     0.059 A 
ATOM     77  F   UNL A   1      42.391  24.551  25.525  1.00  0.00    -0.206 F 
ATOM     78  C   UNL A   1      42.222  21.126  26.676  1.00  0.00     0.060 A 
BRANCH  78  79
ATOM     79  S   UNL A   1      42.129  19.454  26.002  1.00  0.00     0.124 S 
ATOM     80  O   UNL A   1      42.660  18.664  27.107  1.00  0.00    -0.237 OA
ATOM     81  O   UNL A   1      40.701  19.303  25.738  1.00  0.00    -0.237 OA
ATOM     82  O   UNL A   1      42.972  19.528  24.813  1.00  0.00    -0.744 OA
ENDBRANCH  78  79
ENDBRANCH  46  71
BRANCH  58  83
ATOM     83  C   UNL A   1      47.694  27.169  30.600  1.00  0.00     0.058 A 
ATOM     84  C   UNL A   1      48.048  26.536  31.801  1.00  0.00     0.135 A 
ATOM     85  C   UNL A   1      48.701  27.384  29.646  1.00  0.00     0.135 A 
ATOM     86  F   UNL A   1      47.120  26.315  32.746  1.00  0.00    -0.206 F 
ATOM     87  C   UNL A   1      49.357  26.144  32.056  1.00  0.00     0.059 A 
ATOM     88  C   UNL A   1      50.013  26.980  29.870  1.00  0.00     0.059 A 
ATOM     89  F   UNL A   1      48.411  27.977  28.477  1.00  0.00    -0.206 F 
ATOM     90  C   UNL A   1      50.334  26.371  31.083  1.00  0.00     0.060 A 
BRANCH  90  91
ATOM     91  S   UNL A   1      52.023  25.824  31.406  1.00  0.00     0.124 S 
ATOM     92  O   UNL A   1      52.440  26.758  32.446  1.00  0.00    -0.237 OA
ATOM     93  O   UNL A   1      51.832  24.442  31.835  1.00  0.00    -0.237 OA
ATOM     94  O   UNL A   1      52.683  25.986  30.114  1.00  0.00    -0.744 OA
ENDBRANCH  90  91
ENDBRANCH  58  83
ENDBRANCH  32  33
ENDBRANCH  24  27
ENDBRANCH  22  23
ENDBRANCH   1  22
TORSDOF 16
ENDMDL
MODEL 2
REMARK VINA RESULT:     -11.1      0.694      8.420
REMARK SMILES C[C@@H]1C[NH+](CC2(C(=O)NCCCCNC(=O)c3ccc(-c4c5nc(c(-c6c(F)cc(S(=O)(=O)[O-])cc6F)c6ccc([nH]6)c(-c6c(F)cc(S(=O)(=O)[O-])cc6F)c6nc(c(-c7c(F)cc(S(=O)(=O)[O-])cc7F)c7ccc4[nH]7)C=C6)C=C5)cc3)CCCC2)C[C@H]1C
REMARK SMILES IDX 12 1 11 2 10 3 9 4 7 5 8 6 6 8 83 9 86 10 84 11 85 12 5 13
REMARK SMILES IDX 4 14 1 15 2 16 3 17 88 18 87 19 89 20 13 22 14 23 15 24
REMARK SMILES IDX 16 26 17 27 18 28 82 29 19 30 81 31 20 32 21 33 22 34 75 35
REMARK SMILES IDX 23 36 80 37 74 38 76 39 24 40 79 41 73 42 72 43 25 45 59 46
REMARK SMILES IDX 38 47 58 48 39 49 42 50 57 51 77 52 40 53 41 54 56 56 78 57
REMARK SMILES IDX 43 58 26 59 27 60 36 61 28 62 29 63 35 64 37 65 30 66 31 67
REMARK SMILES IDX 32 68 33 69 34 70 60 71 61 72 70 73 62 74 63 75 69 76 71 77
REMARK SMILES IDX 64 78 65 79 66 80 67 81 68 82 44 83 45 84 54 85 46 86 47 87
REMARK SMILES IDX 53 88 55 89 48 90 49 91 50 92 51 93 52 94
REMARK H PARENT 9 7 4 21 14 25 76 44 42 55
REMARK Flexibility Score: inf
ROOT
ATOM      1  C   UNL A   1      32.546  28.391  26.291  1.00  0.00     0.023 C 
ENDROOT
BRANCH   1   2
ATOM      2  C   UNL A   1      31.417  27.544  26.871  1.00  0.00     0.023 C 
BRANCH   2   3
ATOM      3  C   UNL A   1      30.960  26.404  25.967  1.00  0.00     0.116 C 
BRANCH   3   4
ATOM      4  N   UNL A   1      30.782  25.162  26.688  1.00  0.00    -0.355 N 
ATOM      5  C   UNL A   1      31.487  23.996  26.688  1.00  0.00     0.231 C 
ATOM      6  O   UNL A   1      31.072  23.139  27.478  1.00  0.00    -0.274 OA
ATOM      7  H   UNL A   1      30.004  25.159  27.292  1.00  0.00     0.163 HD
BRANCH   5   8
ATOM      8  C   UNL A   1      32.736  23.740  25.781  1.00  0.00     0.098 C 
ATOM      9  C   UNL A   1      33.772  24.856  26.021  1.00  0.00     0.023 C 
ATOM     10  C   UNL A   1      32.331  23.833  24.301  1.00  0.00     0.023 C 
ATOM     11  C   UNL A   1      34.055  25.550  24.694  1.00  0.00     0.001 C 
ATOM     12  C   UNL A   1      33.172  24.914  23.634  1.00  0.00     0.001 C 
BRANCH   8  13
ATOM     13  C   UNL A   1      33.258  22.299  26.193  1.00  0.00     0.279 C 
BRANCH  13  14
ATOM     14  N   UNL A   1      34.530  21.676  25.814  1.00  0.00    -0.334 N 
ATOM     15  C   UNL A   1      37.990  22.981  25.944  1.00  0.00     0.014 C 
ATOM     16  C   UNL A   1      36.534  22.807  25.553  1.00  0.00     0.049 C 
ATOM     17  C   UNL A   1      35.742  21.979  26.549  1.00  0.00     0.265 C 
ATOM     18  C   UNL A   1      36.292  22.049  24.247  1.00  0.00     0.049 C 
ATOM     19  C   UNL A   1      34.855  21.520  24.401  1.00  0.00     0.265 C 
ATOM     20  C   UNL A   1      36.480  22.901  23.001  1.00  0.00     0.014 C 
ATOM     21  H   UNL A   1      34.202  20.775  26.163  1.00  0.00     0.348 HD
ENDBRANCH  13  14
ENDBRANCH   8  13
ENDBRANCH   5   8
ENDBRANCH   3   4
ENDBRANCH   2   3
ENDBRANCH   1   2
BRANCH   1  22
ATOM     22  C   UNL A   1      33.697  28.692  27.246  1.00  0.00     0.116 C 
BRANCH  22  23
ATOM     23  N   UNL A   1      33.667  30.032  27.820  1.00  0.00    -0.352 N 
ATOM     24  C   UNL A   1      34.710  30.720  28.399  1.00  0.00     0.251 C 
ATOM     25  H   UNL A   1      32.801  30.500  27.789  1.00  0.00     0.163 HD
ATOM     26  O   UNL A   1      34.539  31.828  28.895  1.00  0.00    -0.269 OA
BRANCH  24  27
ATOM     27  C   UNL A   1      36.028  30.060  28.456  1.00  0.00     0.039 A 
ATOM     28  C   UNL A   1      36.863  30.127  27.340  1.00  0.00     0.014 A 
ATOM     29  C   UNL A   1      36.479  29.507  29.658  1.00  0.00     0.014 A 
ATOM     30  C   UNL A   1      38.195  29.727  27.459  1.00  0.00     0.010 A 
ATOM     31  C   UNL A   1      37.822  29.174  29.792  1.00  0.00     0.010 A 
ATOM     32  C   UNL A   1      38.696  29.302  28.701  1.00  0.00    -0.014 A 
BRANCH  32  33
ATOM     33  C   UNL A   1      40.143  29.025  28.894  1.00  0.00     0.031 A 
ATOM     34  C   UNL A   1      40.708  27.684  28.522  1.00  0.00     0.074 A 
ATOM     35  C   UNL A   1      40.920  29.951  29.495  1.00  0.00     0.049 A 
ATOM     36  N   UNL A   1      41.917  27.221  28.706  1.00  0.00    -0.248 NA
ATOM     37  C   UNL A   1      39.787  26.725  27.890  1.00  0.00     0.031 C 
ATOM     38  C   UNL A   1      40.470  31.263  29.970  1.00  0.00     0.029 A 
ATOM     39  N   UNL A   1      42.252  29.922  29.827  1.00  0.00    -0.354 N 
ATOM     40  C   UNL A   1      41.895  25.912  28.240  1.00  0.00     0.074 A 
ATOM     41  C   UNL A   1      40.545  25.641  27.798  1.00  0.00     0.031 C 
ATOM     42  C   UNL A   1      41.509  31.916  30.515  1.00  0.00     0.029 A 
ATOM     43  C   UNL A   1      42.691  31.063  30.459  1.00  0.00     0.049 A 
ATOM     44  H   UNL A   1      42.839  29.156  29.631  1.00  0.00     0.167 HD
ATOM     45  C   UNL A   1      42.914  25.025  28.169  1.00  0.00     0.037 A 
ATOM     46  C   UNL A   1      43.906  31.381  30.945  1.00  0.00     0.037 A 
ATOM     47  C   UNL A   1      44.269  25.320  28.554  1.00  0.00     0.049 A 
ATOM     48  C   UNL A   1      45.031  30.390  30.811  1.00  0.00     0.074 A 
ATOM     49  C   UNL A   1      45.393  24.523  28.419  1.00  0.00     0.029 A 
ATOM     50  N   UNL A   1      44.685  26.503  29.143  1.00  0.00    -0.354 N 
ATOM     51  N   UNL A   1      45.011  29.189  30.284  1.00  0.00    -0.248 NA
ATOM     52  C   UNL A   1      46.344  30.797  31.331  1.00  0.00     0.031 C 
ATOM     53  C   UNL A   1      46.484  25.214  28.954  1.00  0.00     0.029 A 
ATOM     54  C   UNL A   1      46.045  26.452  29.394  1.00  0.00     0.049 A 
ATOM     55  H   UNL A   1      44.099  27.268  29.351  1.00  0.00     0.167 HD
ATOM     56  C   UNL A   1      46.310  28.707  30.391  1.00  0.00     0.074 A 
ATOM     57  C   UNL A   1      47.095  29.750  31.018  1.00  0.00     0.031 C 
ATOM     58  C   UNL A   1      46.810  27.508  30.005  1.00  0.00     0.037 A 
BRANCH  45  59
ATOM     59  C   UNL A   1      42.617  23.655  27.634  1.00  0.00     0.058 A 
ATOM     60  C   UNL A   1      42.600  23.395  26.255  1.00  0.00     0.135 A 
ATOM     61  C   UNL A   1      42.420  22.576  28.509  1.00  0.00     0.135 A 
ATOM     62  F   UNL A   1      42.766  24.397  25.376  1.00  0.00    -0.206 F 
ATOM     63  C   UNL A   1      42.388  22.113  25.761  1.00  0.00     0.059 A 
ATOM     64  C   UNL A   1      42.227  21.281  28.038  1.00  0.00     0.059 A 
ATOM     65  F   UNL A   1      42.422  22.773  29.836  1.00  0.00    -0.206 F 
ATOM     66  C   UNL A   1      42.206  21.061  26.661  1.00  0.00     0.060 A 
BRANCH  66  67
ATOM     67  S   UNL A   1      41.974  19.396  26.004  1.00  0.00     0.124 S 
ATOM     68  O   UNL A   1      42.842  19.421  24.831  1.00  0.00    -0.237 OA
ATOM     69  O   UNL A   1      42.426  18.558  27.109  1.00  0.00    -0.237 OA
ATOM     70  O   UNL A   1      40.542  19.339  25.724  1.00  0.00    -0.744 OA
ENDBRANCH  66  67
ENDBRANCH  45  59
BRANCH  46  71
ATOM     71  C   UNL A   1      44.139  32.698  31.594  1.00  0.00     0.058 A 
ATOM     72  C   UNL A   1      44.021  32.846  32.984  1.00  0.00     0.135 A 
ATOM     73  C   UNL A   1      44.452  33.839  30.838  1.00  0.00     0.135 A 
ATOM     74  F   UNL A   1      43.719  31.785  33.747  1.00  0.00    -0.206 F 
ATOM     75  C   UNL A   1      44.172  34.084  33.600  1.00  0.00     0.059 A 
ATOM     76  C   UNL A   1      44.629  35.083  31.434  1.00  0.00     0.059 A 
ATOM     77  F   UNL A   1      44.594  33.745  29.507  1.00  0.00    -0.206 F 
ATOM     78  C   UNL A   1      44.469  35.199  32.816  1.00  0.00     0.060 A 
BRANCH  78  79
ATOM     79  S   UNL A   1      44.676  36.802  33.621  1.00  0.00     0.124 S 
ATOM     80  O   UNL A   1      46.124  36.967  33.575  1.00  0.00    -0.237 OA
ATOM     81  O   UNL A   1      43.905  37.687  32.753  1.00  0.00    -0.237 OA
ATOM     82  O   UNL A   1      44.104  36.584  34.946  1.00  0.00    -0.744 OA
ENDBRANCH  78  79
ENDBRANCH  46  71
BRANCH  58  83
ATOM     83  C   UNL A   1      48.276  27.270  30.224  1.00  0.00     0.058 A 
ATOM     84  C   UNL A   1      49.226  27.611  29.250  1.00  0.00     0.135 A 
ATOM     85  C   UNL A   1      48.738  26.744  31.440  1.00  0.00     0.135 A 
ATOM     86  F   UNL A   1      48.831  28.110  28.067  1.00  0.00    -0.206 F 
ATOM     87  C   UNL A   1      50.586  27.424  29.467  1.00  0.00     0.059 A 
ATOM     88  C   UNL A   1      50.095  26.569  31.689  1.00  0.00     0.059 A 
ATOM     89  F   UNL A   1      47.868  26.411  32.407  1.00  0.00    -0.206 F 
ATOM     90  C   UNL A   1      51.011  26.901  30.691  1.00  0.00     0.060 A 
BRANCH  90  91
ATOM     91  S   UNL A   1      52.781  26.698  30.980  1.00  0.00     0.124 S 
ATOM     92  O   UNL A   1      53.297  26.646  29.616  1.00  0.00    -0.237 OA
ATOM     93  O   UNL A   1      53.118  27.897  31.741  1.00  0.00    -0.237 OA
ATOM     94  O   UNL A   1      52.859  25.447  31.729  1.00  0.00    -0.744 OA
ENDBRANCH  90  91
ENDBRANCH  58  83
ENDBRANCH  32  33
ENDBRANCH  24  27
ENDBRANCH  22  23
ENDBRANCH   1  22
TORSDOF 16
ENDMDL
MODEL 3
REMARK VINA RESULT:     -10.9      1.094      1.989
REMARK SMILES C[C@@H]1C[NH+](CC2(C(=O)NCCCCNC(=O)c3ccc(-c4c5nc(c(-c6c(F)cc(S(=O)(=O)[O-])cc6F)c6ccc([nH]6)c(-c6c(F)cc(S(=O)(=O)[O-])cc6F)c6nc(c(-c7c(F)cc(S(=O)(=O)[O-])cc7F)c7ccc4[nH]7)C=C6)C=C5)cc3)CCCC2)C[C@H]1C
REMARK SMILES IDX 12 1 11 2 10 3 9 4 7 5 8 6 6 8 83 9 86 10 84 11 85 12 5 13
REMARK SMILES IDX 4 14 1 15 2 16 3 17 88 18 87 19 89 20 13 22 14 23 15 24
REMARK SMILES IDX 16 26 17 27 18 28 82 29 19 30 81 31 20 32 21 33 22 34 75 35
REMARK SMILES IDX 23 36 80 37 74 38 76 39 24 40 79 41 73 42 72 43 25 45 59 46
REMARK SMILES IDX 38 47 58 48 39 49 42 50 57 51 77 52 40 53 41 54 56 56 78 57
REMARK SMILES IDX 43 58 26 59 27 60 36 61 28 62 29 63 35 64 37 65 30 66 31 67
REMARK SMILES IDX 32 68 33 69 34 70 60 71 61 72 70 73 62 74 63 75 69 76 71 77
REMARK SMILES IDX 64 78 65 79 66 80 67 81 68 82 44 83 45 84 54 85 46 86 47 87
REMARK SMILES IDX 53 88 55 89 48 90 49 91 50 92 51 93 52 94
REMARK H PARENT 9 7 4 21 14 25 76 44 42 55
REMARK Flexibility Score: inf
ROOT
ATOM      1  C   UNL A   1      33.441  28.797  25.582  1.00  0.00     0.023 C 
ENDROOT
BRANCH   1   2
ATOM      2  C   UNL A   1      31.999  28.732  25.085  1.00  0.00     0.023 C 
BRANCH   2   3
ATOM      3  C   UNL A   1      31.652  27.451  24.332  1.00  0.00     0.116 C 
BRANCH   3   4
ATOM      4  N   UNL A   1      32.477  27.256  23.160  1.00  0.00    -0.355 N 
ATOM      5  C   UNL A   1      33.206  26.192  22.722  1.00  0.00     0.231 C 
ATOM      6  O   UNL A   1      33.764  26.358  21.632  1.00  0.00    -0.274 OA
ATOM      7  H   UNL A   1      32.520  28.041  22.567  1.00  0.00     0.163 HD
BRANCH   5   8
ATOM      8  C   UNL A   1      33.331  24.845  23.511  1.00  0.00     0.098 C 
ATOM      9  C   UNL A   1      33.791  23.735  22.546  1.00  0.00     0.023 C 
ATOM     10  C   UNL A   1      31.949  24.421  24.034  1.00  0.00     0.023 C 
ATOM     11  C   UNL A   1      32.752  22.620  22.556  1.00  0.00     0.001 C 
ATOM     12  C   UNL A   1      31.622  23.041  23.479  1.00  0.00     0.001 C 
BRANCH   8  13
ATOM     13  C   UNL A   1      34.370  25.141  24.673  1.00  0.00     0.279 C 
BRANCH  13  14
ATOM     14  N   UNL A   1      35.068  24.159  25.507  1.00  0.00    -0.334 N 
ATOM     15  C   UNL A   1      37.347  21.392  24.587  1.00  0.00     0.014 C 
ATOM     16  C   UNL A   1      36.094  22.238  24.719  1.00  0.00     0.049 C 
ATOM     17  C   UNL A   1      36.379  23.672  25.126  1.00  0.00     0.265 C 
ATOM     18  C   UNL A   1      35.110  21.790  25.802  1.00  0.00     0.049 C 
ATOM     19  C   UNL A   1      34.311  23.068  26.110  1.00  0.00     0.265 C 
ATOM     20  C   UNL A   1      34.228  20.624  25.383  1.00  0.00     0.014 C 
ATOM     21  H   UNL A   1      35.225  24.867  26.225  1.00  0.00     0.348 HD
ENDBRANCH  13  14
ENDBRANCH   8  13
ENDBRANCH   5   8
ENDBRANCH   3   4
ENDBRANCH   2   3
ENDBRANCH   1   2
BRANCH   1  22
ATOM     22  C   UNL A   1      33.611  28.829  27.097  1.00  0.00     0.116 C 
BRANCH  22  23
ATOM     23  N   UNL A   1      33.612  30.168  27.674  1.00  0.00    -0.352 N 
ATOM     24  C   UNL A   1      34.650  30.803  28.318  1.00  0.00     0.251 C 
ATOM     25  H   UNL A   1      32.773  30.679  27.592  1.00  0.00     0.163 HD
ATOM     26  O   UNL A   1      34.503  31.918  28.807  1.00  0.00    -0.269 OA
BRANCH  24  27
ATOM     27  C   UNL A   1      35.928  30.079  28.452  1.00  0.00     0.039 A 
ATOM     28  C   UNL A   1      36.834  30.112  27.391  1.00  0.00     0.014 A 
ATOM     29  C   UNL A   1      36.275  29.499  29.675  1.00  0.00     0.014 A 
ATOM     30  C   UNL A   1      38.135  29.647  27.591  1.00  0.00     0.010 A 
ATOM     31  C   UNL A   1      37.589  29.101  29.891  1.00  0.00     0.010 A 
ATOM     32  C   UNL A   1      38.535  29.191  28.858  1.00  0.00    -0.014 A 
BRANCH  32  33
ATOM     33  C   UNL A   1      39.952  28.843  29.140  1.00  0.00     0.031 A 
ATOM     34  C   UNL A   1      40.873  29.868  29.739  1.00  0.00     0.074 A 
ATOM     35  C   UNL A   1      40.426  27.636  28.765  1.00  0.00     0.049 A 
ATOM     36  N   UNL A   1      42.158  29.787  29.964  1.00  0.00    -0.248 NA
ATOM     37  C   UNL A   1      40.280  31.166  30.100  1.00  0.00     0.031 C 
ATOM     38  C   UNL A   1      39.647  26.583  28.107  1.00  0.00     0.029 A 
ATOM     39  N   UNL A   1      41.684  27.097  28.867  1.00  0.00    -0.354 N 
ATOM     40  C   UNL A   1      42.532  31.028  30.467  1.00  0.00     0.074 A 
ATOM     41  C   UNL A   1      41.347  31.856  30.479  1.00  0.00     0.031 C 
ATOM     42  C   UNL A   1      40.441  25.522  27.880  1.00  0.00     0.029 A 
ATOM     43  C   UNL A   1      41.788  25.828  28.346  1.00  0.00     0.049 A 
ATOM     44  H   UNL A   1      42.442  27.575  29.275  1.00  0.00     0.167 HD
ATOM     45  C   UNL A   1      43.750  31.430  30.898  1.00  0.00     0.037 A 
ATOM     46  C   UNL A   1      42.853  25.008  28.247  1.00  0.00     0.037 A 
ATOM     47  C   UNL A   1      44.912  30.583  30.940  1.00  0.00     0.049 A 
ATOM     48  C   UNL A   1      44.184  25.468  28.777  1.00  0.00     0.074 A 
ATOM     49  C   UNL A   1      46.163  30.868  31.460  1.00  0.00     0.029 A 
ATOM     50  N   UNL A   1      44.966  29.288  30.451  1.00  0.00    -0.354 N 
ATOM     51  N   UNL A   1      44.497  26.615  29.332  1.00  0.00    -0.248 NA
ATOM     52  C   UNL A   1      45.305  24.525  28.672  1.00  0.00     0.031 C 
ATOM     53  C   UNL A   1      46.983  29.753  31.257  1.00  0.00     0.029 A 
ATOM     54  C   UNL A   1      46.233  28.765  30.639  1.00  0.00     0.049 A 
ATOM     55  H   UNL A   1      44.213  28.810  30.031  1.00  0.00     0.167 HD
ATOM     56  C   UNL A   1      45.844  26.520  29.661  1.00  0.00     0.074 A 
ATOM     57  C   UNL A   1      46.284  25.201  29.257  1.00  0.00     0.031 C 
ATOM     58  C   UNL A   1      46.646  27.444  30.244  1.00  0.00     0.037 A 
BRANCH  45  59
ATOM     59  C   UNL A   1      43.891  32.844  31.383  1.00  0.00     0.058 A 
ATOM     60  C   UNL A   1      44.077  33.910  30.489  1.00  0.00     0.135 A 
ATOM     61  C   UNL A   1      43.768  33.144  32.748  1.00  0.00     0.135 A 
ATOM     62  F   UNL A   1      44.219  33.673  29.175  1.00  0.00    -0.206 F 
ATOM     63  C   UNL A   1      44.144  35.225  30.934  1.00  0.00     0.059 A 
ATOM     64  C   UNL A   1      43.811  34.455  33.213  1.00  0.00     0.059 A 
ATOM     65  F   UNL A   1      43.595  32.159  33.643  1.00  0.00    -0.206 F 
ATOM     66  C   UNL A   1      44.006  35.488  32.297  1.00  0.00     0.060 A 
BRANCH  66  67
ATOM     67  S   UNL A   1      44.054  37.205  32.853  1.00  0.00     0.124 S 
ATOM     68  O   UNL A   1      44.036  37.923  31.583  1.00  0.00    -0.237 OA
ATOM     69  O   UNL A   1      42.841  37.308  33.656  1.00  0.00    -0.237 OA
ATOM     70  O   UNL A   1      45.305  37.285  33.601  1.00  0.00    -0.744 OA
ENDBRANCH  66  67
ENDBRANCH  45  59
BRANCH  46  71
ATOM     71  C   UNL A   1      42.712  23.659  27.637  1.00  0.00     0.058 A 
ATOM     72  C   UNL A   1      42.441  22.535  28.431  1.00  0.00     0.135 A 
ATOM     73  C   UNL A   1      42.878  23.462  26.257  1.00  0.00     0.135 A 
ATOM     74  F   UNL A   1      42.280  22.674  29.755  1.00  0.00    -0.206 F 
ATOM     75  C   UNL A   1      42.371  21.257  27.886  1.00  0.00     0.059 A 
ATOM     76  C   UNL A   1      42.790  22.197  25.685  1.00  0.00     0.059 A 
ATOM     77  F   UNL A   1      43.120  24.508  25.453  1.00  0.00    -0.206 F 
ATOM     78  C   UNL A   1      42.554  21.097  26.512  1.00  0.00     0.060 A 
BRANCH  78  79
ATOM     79  S   UNL A   1      42.450  19.439  25.805  1.00  0.00     0.124 S 
ATOM     80  O   UNL A   1      42.870  18.614  26.932  1.00  0.00    -0.237 OA
ATOM     81  O   UNL A   1      41.041  19.346  25.437  1.00  0.00    -0.237 OA
ATOM     82  O   UNL A   1      43.380  19.498  24.681  1.00  0.00    -0.744 OA
ENDBRANCH  78  79
ENDBRANCH  46  71
BRANCH  58  83
ATOM     83  C   UNL A   1      48.071  27.052  30.506  1.00  0.00     0.058 A 
ATOM     84  C   UNL A   1      49.102  27.400  29.620  1.00  0.00     0.135 A 
ATOM     85  C   UNL A   1      48.415  26.368  31.683  1.00  0.00     0.135 A 
ATOM     86  F   UNL A   1      48.820  28.048  28.479  1.00  0.00    -0.206 F 
ATOM     87  C   UNL A   1      50.426  27.067  29.883  1.00  0.00     0.059 A 
ATOM     88  C   UNL A   1      49.736  26.045  31.977  1.00  0.00     0.059 A 
ATOM     89  F   UNL A   1      47.465  26.021  32.566  1.00  0.00    -0.206 F 
ATOM     90  C   UNL A   1      50.733  26.389  31.065  1.00  0.00     0.060 A 
BRANCH  90  91
ATOM     91  S   UNL A   1      52.459  25.996  31.416  1.00  0.00     0.124 S 
ATOM     92  O   UNL A   1      52.349  24.643  31.951  1.00  0.00    -0.237 OA
ATOM     93  O   UNL A   1      53.084  26.110  30.102  1.00  0.00    -0.237 OA
ATOM     94  O   UNL A   1      52.850  27.023  32.379  1.00  0.00    -0.744 OA
ENDBRANCH  90  91
ENDBRANCH  58  83
ENDBRANCH  32  33
ENDBRANCH  24  27
ENDBRANCH  22  23
ENDBRANCH   1  22
TORSDOF 16
ENDMDL
