MODEL 1
REMARK VINA RESULT:     -12.9      0.000      0.000
REMARK SMILES [NH3+][C@H]1CN(C(=O)OCC2c3ccccc3-c3ccccc32)C[C@@H]1C(=O)NCCCCNC(=O)c1ccc(-c2c3nc(c(-c4c(F)cc(S(=O)(=O)[O-])cc4F)c4ccc([nH]4)c(-c4c(F)cc(S(=O)(=O)[O-])cc4F)c4nc(c(-c5c(F)cc(S(=O)(=O)[O-])cc5F)c5ccc2[nH]5)C=C4)C=C3)cc1
REMARK SMILES IDX 28 1 27 2 26 3 24 4 25 5 23 7 2 8 3 9 4 10 22 11 1 12 5 16
REMARK SMILES IDX 6 17 7 18 8 19 9 20 10 21 21 22 11 23 15 24 16 25 20 26
REMARK SMILES IDX 12 27 14 28 17 29 19 30 13 31 18 32 29 33 30 34 31 35 32 36
REMARK SMILES IDX 33 38 34 39 35 40 99 41 36 42 98 43 37 44 38 45 39 46 92 47
REMARK SMILES IDX 40 48 97 49 91 50 93 51 41 52 96 53 90 54 89 55 42 57 76 58
REMARK SMILES IDX 55 59 75 60 56 61 59 62 74 63 94 64 57 65 58 66 73 68 95 69
REMARK SMILES IDX 60 70 43 71 44 72 53 73 45 74 46 75 52 76 54 77 47 78 48 79
REMARK SMILES IDX 49 80 50 81 51 82 77 83 78 84 87 85 79 86 80 87 86 88 88 89
REMARK SMILES IDX 81 90 82 91 83 92 84 93 85 94 61 95 62 96 71 97 63 98 64 99
REMARK SMILES IDX 70 100 72 101 65 102 66 103 67 104 68 105 69 106
REMARK H PARENT 26 6 1 13 1 14 1 15 31 37 93 56 59 67
REMARK Flexibility Score: inf
ROOT
ATOM      1  C   UNL A   1      37.759  22.067  25.521  1.00  0.00     0.023 C 
ENDROOT
BRANCH   1   2
ATOM      2  C   UNL A   1      36.520  21.221  25.226  1.00  0.00     0.116 C 
BRANCH   2   3
ATOM      3  N   UNL A   1      35.666  21.122  26.397  1.00  0.00    -0.356 N 
ATOM      4  C   UNL A   1      34.347  21.442  26.543  1.00  0.00     0.231 C 
ATOM      5  O   UNL A   1      33.873  21.449  27.677  1.00  0.00    -0.274 OA
ATOM      6  H   UNL A   1      36.104  20.773  27.206  1.00  0.00     0.163 HD
BRANCH   4   7
ATOM      7  C   UNL A   1      33.508  21.711  25.303  1.00  0.00     0.158 C 
ATOM      8  C   UNL A   1      33.899  23.025  24.603  1.00  0.00     0.215 C 
ATOM      9  C   UNL A   1      33.127  24.092  25.402  1.00  0.00     0.188 C 
ATOM     10  N   UNL A   1      31.967  23.389  25.931  1.00  0.00    -0.301 N 
ATOM     11  C   UNL A   1      32.066  21.953  25.739  1.00  0.00     0.143 C 
BRANCH   8  12
ATOM     12  N   UNL A   1      33.465  23.025  23.188  1.00  0.00    -0.353 N 
ATOM     13  H   UNL A   1      32.451  23.132  23.142  1.00  0.00     0.344 HD
ATOM     14  H   UNL A   1      33.733  22.142  22.750  1.00  0.00     0.344 HD
ATOM     15  H   UNL A   1      33.910  23.798  22.695  1.00  0.00     0.344 HD
ENDBRANCH   8  12
BRANCH  10  16
ATOM     16  C   UNL A   1      30.987  23.949  26.702  1.00  0.00     0.410 C 
ATOM     17  O   UNL A   1      30.184  23.285  27.349  1.00  0.00    -0.224 OA
BRANCH  16  18
ATOM     18  O   UNL A   1      31.004  25.311  26.670  1.00  0.00    -0.448 OA
BRANCH  18  19
ATOM     19  C   UNL A   1      30.045  25.912  25.769  1.00  0.00     0.248 C 
BRANCH  19  20
ATOM     20  C   UNL A   1      30.655  27.117  25.036  1.00  0.00     0.088 C 
ATOM     21  C   UNL A   1      31.746  27.833  25.827  1.00  0.00    -0.029 A 
ATOM     22  C   UNL A   1      31.410  26.729  23.764  1.00  0.00    -0.029 A 
ATOM     23  C   UNL A   1      31.659  28.413  27.084  1.00  0.00     0.005 A 
ATOM     24  C   UNL A   1      32.938  27.899  25.075  1.00  0.00    -0.014 A 
ATOM     25  C   UNL A   1      32.734  27.217  23.814  1.00  0.00    -0.014 A 
ATOM     26  C   UNL A   1      30.943  26.025  22.664  1.00  0.00     0.005 A 
ATOM     27  C   UNL A   1      32.784  29.061  27.595  1.00  0.00     0.000 A 
ATOM     28  C   UNL A   1      34.054  28.546  25.581  1.00  0.00     0.009 A 
ATOM     29  C   UNL A   1      33.605  27.002  22.759  1.00  0.00     0.009 A 
ATOM     30  C   UNL A   1      31.824  25.804  21.603  1.00  0.00     0.000 A 
ATOM     31  C   UNL A   1      33.971  29.130  26.849  1.00  0.00     0.001 A 
ATOM     32  C   UNL A   1      33.142  26.289  21.649  1.00  0.00     0.001 A 
ENDBRANCH  19  20
ENDBRANCH  18  19
ENDBRANCH  16  18
ENDBRANCH  10  16
ENDBRANCH   4   7
ENDBRANCH   2   3
ENDBRANCH   1   2
BRANCH   1  33
ATOM     33  C   UNL A   1      37.463  23.538  25.833  1.00  0.00     0.023 C 
BRANCH  33  34
ATOM     34  C   UNL A   1      38.517  24.250  26.675  1.00  0.00     0.116 C 
BRANCH  34  35
ATOM     35  N   UNL A   1      39.834  24.242  26.056  1.00  0.00    -0.352 N 
ATOM     36  C   UNL A   1      40.946  24.987  26.378  1.00  0.00     0.251 C 
ATOM     37  H   UNL A   1      39.945  23.618  25.304  1.00  0.00     0.163 HD
ATOM     38  O   UNL A   1      41.934  24.955  25.652  1.00  0.00    -0.269 OA
BRANCH  36  39
ATOM     39  C   UNL A   1      40.929  25.850  27.580  1.00  0.00     0.039 A 
ATOM     40  C   UNL A   1      41.998  26.720  27.802  1.00  0.00     0.014 A 
ATOM     41  C   UNL A   1      39.850  25.820  28.468  1.00  0.00     0.014 A 
ATOM     42  C   UNL A   1      41.949  27.614  28.876  1.00  0.00     0.010 A 
ATOM     43  C   UNL A   1      39.769  26.763  29.489  1.00  0.00     0.010 A 
ATOM     44  C   UNL A   1      40.816  27.673  29.703  1.00  0.00    -0.014 A 
BRANCH  44  45
ATOM     45  C   UNL A   1      40.698  28.689  30.782  1.00  0.00     0.031 A 
ATOM     46  C   UNL A   1      41.570  28.600  32.006  1.00  0.00     0.074 A 
ATOM     47  C   UNL A   1      39.760  29.653  30.690  1.00  0.00     0.049 A 
ATOM     48  N   UNL A   1      41.564  29.347  33.080  1.00  0.00    -0.248 NA
ATOM     49  C   UNL A   1      42.564  27.515  32.037  1.00  0.00     0.031 C 
ATOM     50  C   UNL A   1      38.826  29.822  29.576  1.00  0.00     0.029 A 
ATOM     51  N   UNL A   1      39.430  30.671  31.552  1.00  0.00    -0.354 N 
ATOM     52  C   UNL A   1      42.543  28.821  33.914  1.00  0.00     0.074 A 
ATOM     53  C   UNL A   1      43.081  27.655  33.248  1.00  0.00     0.031 C 
ATOM     54  C   UNL A   1      38.048  30.892  29.808  1.00  0.00     0.029 A 
ATOM     55  C   UNL A   1      38.394  31.459  31.108  1.00  0.00     0.049 A 
ATOM     56  H   UNL A   1      39.892  30.822  32.408  1.00  0.00     0.167 HD
ATOM     57  C   UNL A   1      42.971  29.280  35.114  1.00  0.00     0.037 A 
ATOM     58  C   UNL A   1      37.782  32.512  31.685  1.00  0.00     0.037 A 
ATOM     59  C   UNL A   1      42.438  30.449  35.766  1.00  0.00     0.049 A 
ATOM     60  C   UNL A   1      38.256  32.985  33.034  1.00  0.00     0.074 A 
ATOM     61  C   UNL A   1      42.835  31.022  36.962  1.00  0.00     0.029 A 
ATOM     62  N   UNL A   1      41.392  31.222  35.283  1.00  0.00    -0.354 N 
ATOM     63  N   UNL A   1      39.223  32.510  33.782  1.00  0.00    -0.248 NA
ATOM     64  C   UNL A   1      37.558  34.141  33.616  1.00  0.00     0.031 C 
ATOM     65  C   UNL A   1      41.995  32.107  37.229  1.00  0.00     0.029 A 
ATOM     66  C   UNL A   1      41.113  32.251  36.169  1.00  0.00     0.049 A 
ATOM     67  H   UNL A   1      40.917  31.063  34.435  1.00  0.00     0.167 HD
ATOM     68  C   UNL A   1      39.270  33.328  34.907  1.00  0.00     0.074 A 
ATOM     69  C   UNL A   1      38.243  34.334  34.734  1.00  0.00     0.031 C 
ATOM     70  C   UNL A   1      40.093  33.253  35.983  1.00  0.00     0.037 A 
BRANCH  57  71
ATOM     71  C   UNL A   1      44.074  28.520  35.802  1.00  0.00     0.058 A 
ATOM     72  C   UNL A   1      43.803  27.457  36.678  1.00  0.00     0.135 A 
ATOM     73  C   UNL A   1      45.422  28.830  35.551  1.00  0.00     0.135 A 
ATOM     74  F   UNL A   1      42.534  27.125  36.966  1.00  0.00    -0.206 F 
ATOM     75  C   UNL A   1      44.824  26.749  37.303  1.00  0.00     0.059 A 
ATOM     76  C   UNL A   1      46.460  28.115  36.141  1.00  0.00     0.059 A 
ATOM     77  F   UNL A   1      45.741  29.837  34.723  1.00  0.00    -0.206 F 
ATOM     78  C   UNL A   1      46.149  27.084  37.028  1.00  0.00     0.060 A 
BRANCH  78  79
ATOM     79  S   UNL A   1      47.460  26.149  37.843  1.00  0.00     0.124 S 
ATOM     80  O   UNL A   1      47.529  24.955  37.005  1.00  0.00    -0.237 OA
ATOM     81  O   UNL A   1      48.597  27.057  37.747  1.00  0.00    -0.237 OA
ATOM     82  O   UNL A   1      46.942  25.937  39.191  1.00  0.00    -0.744 OA
ENDBRANCH  78  79
ENDBRANCH  57  71
BRANCH  58  83
ATOM     83  C   UNL A   1      36.668  33.204  30.982  1.00  0.00     0.058 A 
ATOM     84  C   UNL A   1      36.909  33.991  29.846  1.00  0.00     0.135 A 
ATOM     85  C   UNL A   1      35.340  33.090  31.425  1.00  0.00     0.135 A 
ATOM     86  F   UNL A   1      38.161  34.140  29.387  1.00  0.00    -0.206 F 
ATOM     87  C   UNL A   1      35.880  34.654  29.185  1.00  0.00     0.059 A 
ATOM     88  C   UNL A   1      34.289  33.717  30.763  1.00  0.00     0.059 A 
ATOM     89  F   UNL A   1      35.052  32.336  32.499  1.00  0.00    -0.206 F 
ATOM     90  C   UNL A   1      34.571  34.507  29.649  1.00  0.00     0.060 A 
BRANCH  90  91
ATOM     91  S   UNL A   1      33.238  35.333  28.754  1.00  0.00     0.124 S 
ATOM     92  O   UNL A   1      33.975  36.326  27.981  1.00  0.00    -0.237 OA
ATOM     93  O   UNL A   1      32.655  34.232  27.992  1.00  0.00    -0.237 OA
ATOM     94  O   UNL A   1      32.394  35.862  29.822  1.00  0.00    -0.744 OA
ENDBRANCH  90  91
ENDBRANCH  58  83
BRANCH  70  95
ATOM     95  C   UNL A   1      39.950  34.310  37.045  1.00  0.00     0.058 A 
ATOM     96  C   UNL A   1      40.629  35.536  36.965  1.00  0.00     0.135 A 
ATOM     97  C   UNL A   1      39.076  34.115  38.126  1.00  0.00     0.135 A 
ATOM     98  F   UNL A   1      41.482  35.774  35.957  1.00  0.00    -0.206 F 
ATOM     99  C   UNL A   1      40.461  36.522  37.934  1.00  0.00     0.059 A 
ATOM    100  C   UNL A   1      38.869  35.098  39.088  1.00  0.00     0.059 A 
ATOM    101  F   UNL A   1      38.395  32.964  38.245  1.00  0.00    -0.206 F 
ATOM    102  C   UNL A   1      39.575  36.296  38.988  1.00  0.00     0.060 A 
BRANCH 102 103
ATOM    103  S   UNL A   1      39.338  37.601  40.213  1.00  0.00     0.124 S 
ATOM    104  O   UNL A   1      39.019  36.827  41.409  1.00  0.00    -0.237 OA
ATOM    105  O   UNL A   1      40.637  38.266  40.214  1.00  0.00    -0.237 OA
ATOM    106  O   UNL A   1      38.237  38.388  39.663  1.00  0.00    -0.744 OA
ENDBRANCH 102 103
ENDBRANCH  70  95
ENDBRANCH  44  45
ENDBRANCH  36  39
ENDBRANCH  34  35
ENDBRANCH  33  34
ENDBRANCH   1  33
TORSDOF 19
ENDMDL
MODEL 2
REMARK VINA RESULT:     -12.9      4.706     10.262
REMARK SMILES [NH3+][C@H]1CN(C(=O)OCC2c3ccccc3-c3ccccc32)C[C@@H]1C(=O)NCCCCNC(=O)c1ccc(-c2c3nc(c(-c4c(F)cc(S(=O)(=O)[O-])cc4F)c4ccc([nH]4)c(-c4c(F)cc(S(=O)(=O)[O-])cc4F)c4nc(c(-c5c(F)cc(S(=O)(=O)[O-])cc5F)c5ccc2[nH]5)C=C4)C=C3)cc1
REMARK SMILES IDX 28 1 27 2 26 3 24 4 25 5 23 7 2 8 3 9 4 10 22 11 1 12 5 16
REMARK SMILES IDX 6 17 7 18 8 19 9 20 10 21 21 22 11 23 15 24 16 25 20 26
REMARK SMILES IDX 12 27 14 28 17 29 19 30 13 31 18 32 29 33 30 34 31 35 32 36
REMARK SMILES IDX 33 38 34 39 35 40 99 41 36 42 98 43 37 44 38 45 39 46 92 47
REMARK SMILES IDX 40 48 97 49 91 50 93 51 41 52 96 53 90 54 89 55 42 57 76 58
REMARK SMILES IDX 55 59 75 60 56 61 59 62 74 63 94 64 57 65 58 66 73 68 95 69
REMARK SMILES IDX 60 70 43 71 44 72 53 73 45 74 46 75 52 76 54 77 47 78 48 79
REMARK SMILES IDX 49 80 50 81 51 82 77 83 78 84 87 85 79 86 80 87 86 88 88 89
REMARK SMILES IDX 81 90 82 91 83 92 84 93 85 94 61 95 62 96 71 97 63 98 64 99
REMARK SMILES IDX 70 100 72 101 65 102 66 103 67 104 68 105 69 106
REMARK H PARENT 26 6 1 13 1 14 1 15 31 37 93 56 59 67
REMARK Flexibility Score: inf
ROOT
ATOM      1  C   UNL A   1      32.969  29.325  24.957  1.00  0.00     0.023 C 
ENDROOT
BRANCH   1   2
ATOM      2  C   UNL A   1      31.825  29.078  23.973  1.00  0.00     0.116 C 
BRANCH   2   3
ATOM      3  N   UNL A   1      31.238  27.766  24.177  1.00  0.00    -0.356 N 
ATOM      4  C   UNL A   1      31.237  26.674  23.358  1.00  0.00     0.231 C 
ATOM      5  O   UNL A   1      30.518  25.722  23.658  1.00  0.00    -0.274 OA
ATOM      6  H   UNL A   1      30.770  27.646  25.035  1.00  0.00     0.163 HD
BRANCH   4   7
ATOM      7  C   UNL A   1      32.163  26.651  22.152  1.00  0.00     0.158 C 
ATOM      8  C   UNL A   1      31.899  25.446  21.231  1.00  0.00     0.215 C 
ATOM      9  C   UNL A   1      32.689  24.308  21.906  1.00  0.00     0.188 C 
ATOM     10  N   UNL A   1      33.768  24.979  22.616  1.00  0.00    -0.301 N 
ATOM     11  C   UNL A   1      33.589  26.420  22.643  1.00  0.00     0.143 C 
BRANCH   8  12
ATOM     12  N   UNL A   1      32.416  25.694  19.867  1.00  0.00    -0.353 N 
ATOM     13  H   UNL A   1      33.370  25.340  19.794  1.00  0.00     0.344 HD
ATOM     14  H   UNL A   1      32.410  26.698  19.678  1.00  0.00     0.344 HD
ATOM     15  H   UNL A   1      31.824  25.218  19.187  1.00  0.00     0.344 HD
ENDBRANCH   8  12
BRANCH  10  16
ATOM     16  C   UNL A   1      34.735  24.357  23.356  1.00  0.00     0.410 C 
ATOM     17  O   UNL A   1      35.472  23.490  22.898  1.00  0.00    -0.224 OA
BRANCH  16  18
ATOM     18  O   UNL A   1      34.785  24.804  24.641  1.00  0.00    -0.448 OA
BRANCH  18  19
ATOM     19  C   UNL A   1      35.681  24.070  25.507  1.00  0.00     0.248 C 
BRANCH  19  20
ATOM     20  C   UNL A   1      34.928  22.980  26.288  1.00  0.00     0.088 C 
ATOM     21  C   UNL A   1      33.411  23.140  26.260  1.00  0.00    -0.029 A 
ATOM     22  C   UNL A   1      35.095  21.585  25.685  1.00  0.00    -0.029 A 
ATOM     23  C   UNL A   1      32.651  24.221  26.683  1.00  0.00     0.005 A 
ATOM     24  C   UNL A   1      32.800  21.966  25.771  1.00  0.00    -0.014 A 
ATOM     25  C   UNL A   1      33.831  21.016  25.413  1.00  0.00    -0.014 A 
ATOM     26  C   UNL A   1      36.267  20.890  25.429  1.00  0.00     0.005 A 
ATOM     27  C   UNL A   1      31.261  24.125  26.606  1.00  0.00     0.000 A 
ATOM     28  C   UNL A   1      31.419  21.869  25.700  1.00  0.00     0.009 A 
ATOM     29  C   UNL A   1      33.731  19.742  24.879  1.00  0.00     0.009 A 
ATOM     30  C   UNL A   1      36.165  19.608  24.885  1.00  0.00     0.000 A 
ATOM     31  C   UNL A   1      30.649  22.958  26.122  1.00  0.00     0.001 A 
ATOM     32  C   UNL A   1      34.910  19.038  24.614  1.00  0.00     0.001 A 
ENDBRANCH  19  20
ENDBRANCH  18  19
ENDBRANCH  16  18
ENDBRANCH  10  16
ENDBRANCH   4   7
ENDBRANCH   2   3
ENDBRANCH   1   2
BRANCH   1  33
ATOM     33  C   UNL A   1      33.347  28.108  25.809  1.00  0.00     0.023 C 
BRANCH  33  34
ATOM     34  C   UNL A   1      33.536  28.389  27.296  1.00  0.00     0.116 C 
BRANCH  34  35
ATOM     35  N   UNL A   1      33.478  29.807  27.616  1.00  0.00    -0.352 N 
ATOM     36  C   UNL A   1      34.455  30.613  28.154  1.00  0.00     0.251 C 
ATOM     37  H   UNL A   1      32.622  30.251  27.421  1.00  0.00     0.163 HD
ATOM     38  O   UNL A   1      34.182  31.760  28.494  1.00  0.00    -0.269 OA
BRANCH  36  39
ATOM     39  C   UNL A   1      35.821  30.079  28.352  1.00  0.00     0.039 A 
ATOM     40  C   UNL A   1      36.727  30.133  27.292  1.00  0.00     0.014 A 
ATOM     41  C   UNL A   1      36.212  29.553  29.587  1.00  0.00     0.014 A 
ATOM     42  C   UNL A   1      38.050  29.727  27.493  1.00  0.00     0.010 A 
ATOM     43  C   UNL A   1      37.547  29.223  29.805  1.00  0.00     0.010 A 
ATOM     44  C   UNL A   1      38.482  29.310  28.763  1.00  0.00    -0.014 A 
BRANCH  44  45
ATOM     45  C   UNL A   1      39.908  28.978  29.024  1.00  0.00     0.031 A 
ATOM     46  C   UNL A   1      40.836  30.014  29.596  1.00  0.00     0.074 A 
ATOM     47  C   UNL A   1      40.381  27.761  28.685  1.00  0.00     0.049 A 
ATOM     48  N   UNL A   1      42.122  29.935  29.826  1.00  0.00    -0.248 NA
ATOM     49  C   UNL A   1      40.248  31.321  29.933  1.00  0.00     0.031 C 
ATOM     50  C   UNL A   1      39.592  26.684  28.084  1.00  0.00     0.029 A 
ATOM     51  N   UNL A   1      41.643  27.227  28.788  1.00  0.00    -0.354 N 
ATOM     52  C   UNL A   1      42.496  31.177  30.325  1.00  0.00     0.074 A 
ATOM     53  C   UNL A   1      41.315  32.011  30.309  1.00  0.00     0.031 C 
ATOM     54  C   UNL A   1      40.379  25.611  27.898  1.00  0.00     0.029 A 
ATOM     55  C   UNL A   1      41.738  25.938  28.320  1.00  0.00     0.049 A 
ATOM     56  H   UNL A   1      42.407  27.722  29.163  1.00  0.00     0.167 HD
ATOM     57  C   UNL A   1      43.708  31.578  30.779  1.00  0.00     0.037 A 
ATOM     58  C   UNL A   1      42.800  25.113  28.228  1.00  0.00     0.037 A 
ATOM     59  C   UNL A   1      44.878  30.738  30.803  1.00  0.00     0.049 A 
ATOM     60  C   UNL A   1      44.143  25.593  28.711  1.00  0.00     0.074 A 
ATOM     61  C   UNL A   1      46.140  31.038  31.285  1.00  0.00     0.029 A 
ATOM     62  N   UNL A   1      44.934  29.438  30.323  1.00  0.00    -0.354 N 
ATOM     63  N   UNL A   1      44.466  26.752  29.234  1.00  0.00    -0.248 NA
ATOM     64  C   UNL A   1      45.267  24.653  28.594  1.00  0.00     0.031 C 
ATOM     65  C   UNL A   1      46.972  29.940  31.047  1.00  0.00     0.029 A 
ATOM     66  C   UNL A   1      46.214  28.931  30.473  1.00  0.00     0.049 A 
ATOM     67  H   UNL A   1      44.174  28.947  29.933  1.00  0.00     0.167 HD
ATOM     68  C   UNL A   1      45.821  26.667  29.539  1.00  0.00     0.074 A 
ATOM     69  C   UNL A   1      46.253  25.341  29.151  1.00  0.00     0.031 C 
ATOM     70  C   UNL A   1      46.632  27.604  30.091  1.00  0.00     0.037 A 
BRANCH  57  71
ATOM     71  C   UNL A   1      43.831  32.989  31.291  1.00  0.00     0.058 A 
ATOM     72  C   UNL A   1      44.133  34.061  30.435  1.00  0.00     0.135 A 
ATOM     73  C   UNL A   1      43.604  33.282  32.646  1.00  0.00     0.135 A 
ATOM     74  F   UNL A   1      44.374  33.839  29.132  1.00  0.00    -0.206 F 
ATOM     75  C   UNL A   1      44.236  35.365  30.908  1.00  0.00     0.059 A 
ATOM     76  C   UNL A   1      43.670  34.583  33.136  1.00  0.00     0.059 A 
ATOM     77  F   UNL A   1      43.312  32.298  33.511  1.00  0.00    -0.206 F 
ATOM     78  C   UNL A   1      44.002  35.617  32.260  1.00  0.00     0.060 A 
BRANCH  78  79
ATOM     79  S   UNL A   1      44.132  37.316  32.853  1.00  0.00     0.124 S 
ATOM     80  O   UNL A   1      44.002  38.069  31.608  1.00  0.00    -0.237 OA
ATOM     81  O   UNL A   1      43.003  37.413  33.772  1.00  0.00    -0.237 OA
ATOM     82  O   UNL A   1      45.451  37.361  33.476  1.00  0.00    -0.744 OA
ENDBRANCH  78  79
ENDBRANCH  57  71
BRANCH  58  83
ATOM     83  C   UNL A   1      42.634  23.741  27.676  1.00  0.00     0.058 A 
ATOM     84  C   UNL A   1      42.416  22.643  28.522  1.00  0.00     0.135 A 
ATOM     85  C   UNL A   1      42.683  23.498  26.293  1.00  0.00     0.135 A 
ATOM     86  F   UNL A   1      42.370  22.820  29.851  1.00  0.00    -0.206 F 
ATOM     87  C   UNL A   1      42.270  21.354  28.022  1.00  0.00     0.059 A 
ATOM     88  C   UNL A   1      42.510  22.222  25.767  1.00  0.00     0.059 A 
ATOM     89  F   UNL A   1      42.873  24.516  25.438  1.00  0.00    -0.206 F 
ATOM     90  C   UNL A   1      42.315  21.154  26.640  1.00  0.00     0.060 A 
BRANCH  90  91
ATOM     91  S   UNL A   1      42.076  19.482  26.001  1.00  0.00     0.124 S 
ATOM     92  O   UNL A   1      42.560  18.670  27.111  1.00  0.00    -0.237 OA
ATOM     93  O   UNL A   1      40.636  19.449  25.764  1.00  0.00    -0.237 OA
ATOM     94  O   UNL A   1      42.902  19.462  24.797  1.00  0.00    -0.744 OA
ENDBRANCH  90  91
ENDBRANCH  58  83
BRANCH  70  95
ATOM     95  C   UNL A   1      48.063  27.220  30.353  1.00  0.00     0.058 A 
ATOM     96  C   UNL A   1      49.101  27.592  29.483  1.00  0.00     0.135 A 
ATOM     97  C   UNL A   1      48.408  26.521  31.521  1.00  0.00     0.135 A 
ATOM     98  F   UNL A   1      48.828  28.255  28.349  1.00  0.00    -0.206 F 
ATOM     99  C   UNL A   1      50.427  27.264  29.754  1.00  0.00     0.059 A 
ATOM    100  C   UNL A   1      49.729  26.211  31.827  1.00  0.00     0.059 A 
ATOM    101  F   UNL A   1      47.456  26.149  32.392  1.00  0.00    -0.206 F 
ATOM    102  C   UNL A   1      50.731  26.579  30.931  1.00  0.00     0.060 A 
BRANCH 102 103
ATOM    103  S   UNL A   1      52.460  26.198  31.287  1.00  0.00     0.124 S 
ATOM    104  O   UNL A   1      52.839  27.322  32.137  1.00  0.00    -0.237 OA
ATOM    105  O   UNL A   1      52.361  24.902  31.953  1.00  0.00    -0.237 OA
ATOM    106  O   UNL A   1      53.082  26.172  29.966  1.00  0.00    -0.744 OA
ENDBRANCH 102 103
ENDBRANCH  70  95
ENDBRANCH  44  45
ENDBRANCH  36  39
ENDBRANCH  34  35
ENDBRANCH  33  34
ENDBRANCH   1  33
TORSDOF 19
ENDMDL
MODEL 3
REMARK VINA RESULT:     -12.8      6.469     12.020
REMARK SMILES [NH3+][C@H]1CN(C(=O)OCC2c3ccccc3-c3ccccc32)C[C@@H]1C(=O)NCCCCNC(=O)c1ccc(-c2c3nc(c(-c4c(F)cc(S(=O)(=O)[O-])cc4F)c4ccc([nH]4)c(-c4c(F)cc(S(=O)(=O)[O-])cc4F)c4nc(c(-c5c(F)cc(S(=O)(=O)[O-])cc5F)c5ccc2[nH]5)C=C4)C=C3)cc1
REMARK SMILES IDX 28 1 27 2 26 3 24 4 25 5 23 7 2 8 3 9 4 10 22 11 1 12 5 16
REMARK SMILES IDX 6 17 7 18 8 19 9 20 10 21 21 22 11 23 15 24 16 25 20 26
REMARK SMILES IDX 12 27 14 28 17 29 19 30 13 31 18 32 29 33 30 34 31 35 32 36
REMARK SMILES IDX 33 38 34 39 35 40 99 41 36 42 98 43 37 44 38 45 39 46 92 47
REMARK SMILES IDX 40 48 97 49 91 50 93 51 41 52 96 53 90 54 89 55 42 57 76 58
REMARK SMILES IDX 55 59 75 60 56 61 59 62 74 63 94 64 57 65 58 66 73 68 95 69
REMARK SMILES IDX 60 70 43 71 44 72 53 73 45 74 46 75 52 76 54 77 47 78 48 79
REMARK SMILES IDX 49 80 50 81 51 82 77 83 78 84 87 85 79 86 80 87 86 88 88 89
REMARK SMILES IDX 81 90 82 91 83 92 84 93 85 94 61 95 62 96 71 97 63 98 64 99
REMARK SMILES IDX 70 100 72 101 65 102 66 103 67 104 68 105 69 106
REMARK H PARENT 26 6 1 13 1 14 1 15 31 37 93 56 59 67
REMARK Flexibility Score: inf
ROOT
ATOM      1  C   UNL A   1      34.048  32.924  28.207  1.00  0.00     0.023 C 
ENDROOT
BRANCH   1   2
ATOM      2  C   UNL A   1      33.212  31.897  27.442  1.00  0.00     0.116 C 
BRANCH   2   3
ATOM      3  N   UNL A   1      33.781  30.567  27.567  1.00  0.00    -0.356 N 
ATOM      4  C   UNL A   1      33.632  29.477  26.759  1.00  0.00     0.231 C 
ATOM      5  O   UNL A   1      34.061  28.395  27.158  1.00  0.00    -0.274 OA
ATOM      6  H   UNL A   1      34.360  30.431  28.351  1.00  0.00     0.163 HD
BRANCH   4   7
ATOM      7  C   UNL A   1      33.006  29.652  25.385  1.00  0.00     0.158 C 
ATOM      8  C   UNL A   1      31.488  29.394  25.394  1.00  0.00     0.215 C 
ATOM      9  C   UNL A   1      31.392  27.860  25.283  1.00  0.00     0.188 C 
ATOM     10  N   UNL A   1      32.606  27.465  24.585  1.00  0.00    -0.301 N 
ATOM     11  C   UNL A   1      33.548  28.563  24.464  1.00  0.00     0.143 C 
BRANCH   8  12
ATOM     12  N   UNL A   1      30.831  30.038  24.235  1.00  0.00    -0.353 N 
ATOM     13  H   UNL A   1      30.394  29.325  23.650  1.00  0.00     0.344 HD
ATOM     14  H   UNL A   1      31.527  30.547  23.688  1.00  0.00     0.344 HD
ATOM     15  H   UNL A   1      30.118  30.688  24.565  1.00  0.00     0.344 HD
ENDBRANCH   8  12
BRANCH  10  16
ATOM     16  C   UNL A   1      32.945  26.182  24.253  1.00  0.00     0.410 C 
ATOM     17  O   UNL A   1      32.788  25.719  23.128  1.00  0.00    -0.224 OA
BRANCH  16  18
ATOM     18  O   UNL A   1      33.471  25.488  25.300  1.00  0.00    -0.448 OA
BRANCH  18  19
ATOM     19  C   UNL A   1      34.804  24.971  25.082  1.00  0.00     0.248 C 
BRANCH  19  20
ATOM     20  C   UNL A   1      35.075  23.746  25.971  1.00  0.00     0.088 C 
ATOM     21  C   UNL A   1      34.453  22.455  25.447  1.00  0.00    -0.029 A 
ATOM     22  C   UNL A   1      36.554  23.364  26.033  1.00  0.00    -0.029 A 
ATOM     23  C   UNL A   1      33.118  22.189  25.178  1.00  0.00     0.005 A 
ATOM     24  C   UNL A   1      35.439  21.457  25.299  1.00  0.00    -0.014 A 
ATOM     25  C   UNL A   1      36.727  22.015  25.653  1.00  0.00    -0.014 A 
ATOM     26  C   UNL A   1      37.632  24.147  26.418  1.00  0.00     0.005 A 
ATOM     27  C   UNL A   1      32.771  20.908  24.747  1.00  0.00     0.000 A 
ATOM     28  C   UNL A   1      35.093  20.183  24.876  1.00  0.00     0.009 A 
ATOM     29  C   UNL A   1      37.987  21.439  25.651  1.00  0.00     0.009 A 
ATOM     30  C   UNL A   1      38.902  23.566  26.410  1.00  0.00     0.000 A 
ATOM     31  C   UNL A   1      33.749  19.912  24.600  1.00  0.00     0.001 A 
ATOM     32  C   UNL A   1      39.078  22.225  26.032  1.00  0.00     0.001 A 
ENDBRANCH  19  20
ENDBRANCH  18  19
ENDBRANCH  16  18
ENDBRANCH  10  16
ENDBRANCH   4   7
ENDBRANCH   2   3
ENDBRANCH   1   2
BRANCH   1  33
ATOM     33  C   UNL A   1      35.561  32.794  27.996  1.00  0.00     0.023 C 
BRANCH  33  34
ATOM     34  C   UNL A   1      36.381  32.597  29.267  1.00  0.00     0.116 C 
BRANCH  34  35
ATOM     35  N   UNL A   1      35.918  31.475  30.070  1.00  0.00    -0.352 N 
ATOM     36  C   UNL A   1      36.554  30.286  30.345  1.00  0.00     0.251 C 
ATOM     37  H   UNL A   1      35.026  31.581  30.471  1.00  0.00     0.163 HD
ATOM     38  O   UNL A   1      35.950  29.390  30.924  1.00  0.00    -0.269 OA
BRANCH  36  39
ATOM     39  C   UNL A   1      37.954  30.085  29.908  1.00  0.00     0.039 A 
ATOM     40  C   UNL A   1      38.970  30.109  30.865  1.00  0.00     0.014 A 
ATOM     41  C   UNL A   1      38.258  29.847  28.564  1.00  0.00     0.014 A 
ATOM     42  C   UNL A   1      40.284  29.820  30.484  1.00  0.00     0.010 A 
ATOM     43  C   UNL A   1      39.552  29.484  28.202  1.00  0.00     0.010 A 
ATOM     44  C   UNL A   1      40.579  29.461  29.159  1.00  0.00    -0.014 A 
BRANCH  44  45
ATOM     45  C   UNL A   1      41.949  29.046  28.757  1.00  0.00     0.031 A 
ATOM     46  C   UNL A   1      43.062  30.056  28.698  1.00  0.00     0.074 A 
ATOM     47  C   UNL A   1      42.175  27.770  28.381  1.00  0.00     0.049 A 
ATOM     48  N   UNL A   1      44.300  29.899  28.304  1.00  0.00    -0.248 NA
ATOM     49  C   UNL A   1      42.737  31.430  29.115  1.00  0.00     0.031 C 
ATOM     50  C   UNL A   1      41.169  26.706  28.354  1.00  0.00     0.029 A 
ATOM     51  N   UNL A   1      43.320  27.152  27.942  1.00  0.00    -0.354 N 
ATOM     52  C   UNL A   1      44.897  31.149  28.418  1.00  0.00     0.074 A 
ATOM     53  C   UNL A   1      43.870  32.067  28.861  1.00  0.00     0.031 C 
ATOM     54  C   UNL A   1      41.746  25.563  27.948  1.00  0.00     0.029 A 
ATOM     55  C   UNL A   1      43.150  25.821  27.640  1.00  0.00     0.049 A 
ATOM     56  H   UNL A   1      44.182  27.618  27.851  1.00  0.00     0.167 HD
ATOM     57  C   UNL A   1      46.188  31.496  28.198  1.00  0.00     0.037 A 
ATOM     58  C   UNL A   1      44.021  24.912  27.158  1.00  0.00     0.037 A 
ATOM     59  C   UNL A   1      47.208  30.574  27.769  1.00  0.00     0.049 A 
ATOM     60  C   UNL A   1      45.443  25.329  26.892  1.00  0.00     0.074 A 
ATOM     61  C   UNL A   1      48.554  30.818  27.561  1.00  0.00     0.029 A 
ATOM     62  N   UNL A   1      46.997  29.234  27.476  1.00  0.00    -0.354 N 
ATOM     63  N   UNL A   1      46.003  26.503  27.061  1.00  0.00    -0.248 NA
ATOM     64  C   UNL A   1      46.352  24.298  26.373  1.00  0.00     0.031 C 
ATOM     65  C   UNL A   1      49.146  29.641  27.092  1.00  0.00     0.029 A 
ATOM     66  C   UNL A   1      48.183  28.645  27.066  1.00  0.00     0.049 A 
ATOM     67  H   UNL A   1      46.132  28.769  27.550  1.00  0.00     0.167 HD
ATOM     68  C   UNL A   1      47.338  26.342  26.701  1.00  0.00     0.074 A 
ATOM     69  C   UNL A   1      47.501  24.957  26.315  1.00  0.00     0.031 C 
ATOM     70  C   UNL A   1      48.336  27.260  26.693  1.00  0.00     0.037 A 
BRANCH  57  71
ATOM     71  C   UNL A   1      46.574  32.934  28.421  1.00  0.00     0.058 A 
ATOM     72  C   UNL A   1      47.021  33.393  29.670  1.00  0.00     0.135 A 
ATOM     73  C   UNL A   1      46.535  33.858  27.363  1.00  0.00     0.135 A 
ATOM     74  F   UNL A   1      47.065  32.559  30.721  1.00  0.00    -0.206 F 
ATOM     75  C   UNL A   1      47.388  34.720  29.871  1.00  0.00     0.059 A 
ATOM     76  C   UNL A   1      46.928  35.183  27.532  1.00  0.00     0.059 A 
ATOM     77  F   UNL A   1      46.116  33.476  26.146  1.00  0.00    -0.206 F 
ATOM     78  C   UNL A   1      47.339  35.607  28.796  1.00  0.00     0.060 A 
BRANCH  78  79
ATOM     79  S   UNL A   1      47.826  37.322  29.074  1.00  0.00     0.124 S 
ATOM     80  O   UNL A   1      47.927  37.822  27.705  1.00  0.00    -0.237 OA
ATOM     81  O   UNL A   1      46.709  37.841  29.856  1.00  0.00    -0.237 OA
ATOM     82  O   UNL A   1      49.092  37.206  29.793  1.00  0.00    -0.744 OA
ENDBRANCH  78  79
ENDBRANCH  57  71
BRANCH  58  83
ATOM     83  C   UNL A   1      43.579  23.512  26.915  1.00  0.00     0.058 A 
ATOM     84  C   UNL A   1      43.358  22.628  27.982  1.00  0.00     0.135 A 
ATOM     85  C   UNL A   1      43.362  23.028  25.614  1.00  0.00     0.135 A 
ATOM     86  F   UNL A   1      43.558  23.038  29.244  1.00  0.00    -0.206 F 
ATOM     87  C   UNL A   1      42.955  21.314  27.772  1.00  0.00     0.059 A 
ATOM     88  C   UNL A   1      42.931  21.727  25.378  1.00  0.00     0.059 A 
ATOM     89  F   UNL A   1      43.544  23.836  24.557  1.00  0.00    -0.206 F 
ATOM     90  C   UNL A   1      42.740  20.873  26.464  1.00  0.00     0.060 A 
BRANCH  90  91
ATOM     91  S   UNL A   1      42.172  19.178  26.205  1.00  0.00     0.124 S 
ATOM     92  O   UNL A   1      40.774  19.388  25.849  1.00  0.00    -0.237 OA
ATOM     93  O   UNL A   1      43.046  18.726  25.127  1.00  0.00    -0.237 OA
ATOM     94  O   UNL A   1      42.407  18.544  27.499  1.00  0.00    -0.744 OA
ENDBRANCH  90  91
ENDBRANCH  58  83
BRANCH  70  95
ATOM     95  C   UNL A   1      49.710  26.793  26.294  1.00  0.00     0.058 A 
ATOM     96  C   UNL A   1      50.584  26.192  27.214  1.00  0.00     0.135 A 
ATOM     97  C   UNL A   1      50.134  26.895  24.959  1.00  0.00     0.135 A 
ATOM     98  F   UNL A   1      50.233  26.075  28.504  1.00  0.00    -0.206 F 
ATOM     99  C   UNL A   1      51.839  25.729  26.827  1.00  0.00     0.059 A 
ATOM    100  C   UNL A   1      51.370  26.411  24.544  1.00  0.00     0.059 A 
ATOM    101  F   UNL A   1      49.334  27.453  24.037  1.00  0.00    -0.206 F 
ATOM    102  C   UNL A   1      52.220  25.838  25.489  1.00  0.00     0.060 A 
BRANCH 102 103
ATOM    103  S   UNL A   1      53.834  25.196  24.995  1.00  0.00     0.124 S 
ATOM    104  O   UNL A   1      53.537  23.781  24.789  1.00  0.00    -0.237 OA
ATOM    105  O   UNL A   1      54.119  25.967  23.789  1.00  0.00    -0.237 OA
ATOM    106  O   UNL A   1      54.686  25.497  26.141  1.00  0.00    -0.744 OA
ENDBRANCH 102 103
ENDBRANCH  70  95
ENDBRANCH  44  45
ENDBRANCH  36  39
ENDBRANCH  34  35
ENDBRANCH  33  34
ENDBRANCH   1  33
TORSDOF 19
ENDMDL
