MODEL 1
REMARK VINA RESULT:     -12.9      0.000      0.000
REMARK SMILES Cc1ccc(NC(=O)C[NH+]2CCN(c3ccc(C(=O)NCCCCNC(=O)c4ccc(-c5c6nc(c(-c7c(F)cc(S(=O)(=O)[O-])cc7F)c7ccc([nH]7)c(-c7c(F)cc(S(=O)(=O)[O-])cc7F)c7nc(c(-c8c(F)cc(S(=O)(=O)[O-])cc8F)c8ccc5[nH]8)C=C7)C=C6)cc4)cc3NS(C)(=O)=O)CC2)cc1
REMARK SMILES IDX 22 1 21 2 20 3 18 4 19 5 17 7 14 8 15 9 95 10 16 11 94 12
REMARK SMILES IDX 13 13 10 14 11 15 102 16 12 18 101 19 9 20 7 21 6 22 8 24
REMARK SMILES IDX 5 25 1 26 2 27 3 28 104 29 4 30 103 31 96 32 97 34 98 35
REMARK SMILES IDX 99 36 100 37 23 38 24 39 25 40 26 41 27 43 28 44 29 45 93 46
REMARK SMILES IDX 30 47 92 48 31 49 32 50 33 51 86 52 34 53 91 54 85 55 87 56
REMARK SMILES IDX 35 57 90 58 84 59 83 60 36 62 70 63 49 64 69 65 50 66 53 67
REMARK SMILES IDX 68 68 88 69 51 70 52 71 67 73 89 74 54 75 37 76 38 77 47 78
REMARK SMILES IDX 39 79 40 80 46 81 48 82 41 83 42 84 43 85 44 86 45 87 71 88
REMARK SMILES IDX 72 89 81 90 73 91 74 92 80 93 82 94 75 95 76 96 77 97 78 98
REMARK SMILES IDX 79 99 55 100 56 101 65 102 57 103 58 104 64 105 66 106
REMARK SMILES IDX 59 107 60 108 61 109 62 110 63 111
REMARK H PARENT 20 6 10 17 6 23 96 33 25 42 87 61 53 72
REMARK Flexibility Score: inf
ROOT
ATOM      1  C   UNL A   1      33.581  31.705  27.931  1.00  0.00     0.023 C 
ENDROOT
BRANCH   1   2
ATOM      2  C   UNL A   1      33.064  30.411  27.273  1.00  0.00     0.116 C 
BRANCH   2   3
ATOM      3  N   UNL A   1      32.041  30.698  26.281  1.00  0.00    -0.352 N 
ATOM      4  C   UNL A   1      31.331  29.921  25.404  1.00  0.00     0.251 C 
ATOM      5  O   UNL A   1      30.571  30.498  24.625  1.00  0.00    -0.269 OA
ATOM      6  H   UNL A   1      31.810  31.654  26.226  1.00  0.00     0.163 HD
BRANCH   4   7
ATOM      7  C   UNL A   1      31.413  28.434  25.356  1.00  0.00     0.042 A 
ATOM      8  C   UNL A   1      31.610  25.627  25.100  1.00  0.00     0.062 A 
ATOM      9  C   UNL A   1      31.494  26.248  26.356  1.00  0.00     0.029 A 
ATOM     10  C   UNL A   1      31.588  26.439  23.923  1.00  0.00     0.073 A 
ATOM     11  C   UNL A   1      31.474  27.626  26.482  1.00  0.00     0.016 A 
ATOM     12  C   UNL A   1      31.474  27.827  24.084  1.00  0.00     0.042 A 
BRANCH   8  13
ATOM     13  N   UNL A   1      31.922  24.243  25.129  1.00  0.00    -0.359 N 
ATOM     14  N   UNL A   1      32.387  21.556  26.196  1.00  0.00    -0.324 N 
ATOM     15  C   UNL A   1      33.124  22.673  26.797  1.00  0.00     0.284 C 
ATOM     16  C   UNL A   1      30.994  22.048  26.053  1.00  0.00     0.284 C 
ATOM     17  H   UNL A   1      32.455  20.727  26.786  1.00  0.00     0.348 HD
ATOM     18  C   UNL A   1      33.089  23.991  26.017  1.00  0.00     0.178 C 
ATOM     19  C   UNL A   1      30.778  23.304  25.161  1.00  0.00     0.178 C 
BRANCH  14  20
ATOM     20  C   UNL A   1      32.939  21.116  24.885  1.00  0.00     0.364 C 
BRANCH  20  21
ATOM     21  C   UNL A   1      33.835  19.858  24.974  1.00  0.00     0.279 C 
ATOM     22  N   UNL A   1      35.208  19.877  24.928  1.00  0.00    -0.321 N 
ATOM     23  H   UNL A   1      35.621  18.984  24.977  1.00  0.00     0.170 HD
ATOM     24  O   UNL A   1      33.321  18.743  25.149  1.00  0.00    -0.268 OA
BRANCH  22  25
ATOM     25  C   UNL A   1      36.131  20.925  24.826  1.00  0.00     0.041 A 
ATOM     26  C   UNL A   1      38.371  24.179  26.361  1.00  0.00     0.044 C 
ATOM     27  C   UNL A   1      37.785  23.064  25.537  1.00  0.00    -0.051 A 
ATOM     28  C   UNL A   1      36.620  23.261  24.795  1.00  0.00     0.005 A 
ATOM     29  C   UNL A   1      38.247  21.759  25.682  1.00  0.00     0.005 A 
ATOM     30  C   UNL A   1      35.800  22.200  24.407  1.00  0.00     0.026 A 
ATOM     31  C   UNL A   1      37.425  20.689  25.309  1.00  0.00     0.026 A 
ENDBRANCH  22  25
ENDBRANCH  20  21
ENDBRANCH  14  20
ENDBRANCH   8  13
BRANCH  10  32
ATOM     32  N   UNL A   1      31.751  25.812  22.629  1.00  0.00    -0.282 N 
ATOM     33  H   UNL A   1      30.921  25.673  22.118  1.00  0.00     0.180 HD
BRANCH  32  34
ATOM     34  S   UNL A   1      33.162  25.288  21.879  1.00  0.00     0.229 S 
ATOM     35  C   UNL A   1      33.026  23.505  21.860  1.00  0.00     0.183 C 
ATOM     36  O   UNL A   1      33.044  25.697  20.499  1.00  0.00    -0.207 OA
ATOM     37  O   UNL A   1      34.350  25.614  22.643  1.00  0.00    -0.207 OA
ENDBRANCH  32  34
ENDBRANCH  10  32
ENDBRANCH   4   7
ENDBRANCH   2   3
ENDBRANCH   1   2
BRANCH   1  38
ATOM     38  C   UNL A   1      35.054  32.014  27.644  1.00  0.00     0.023 C 
BRANCH  38  39
ATOM     39  C   UNL A   1      35.451  33.438  27.991  1.00  0.00     0.116 C 
BRANCH  39  40
ATOM     40  N   UNL A   1      35.636  33.742  29.399  1.00  0.00    -0.352 N 
ATOM     41  C   UNL A   1      35.974  32.811  30.381  1.00  0.00     0.251 C 
ATOM     42  H   UNL A   1      35.515  34.677  29.683  1.00  0.00     0.163 HD
ATOM     43  O   UNL A   1      35.587  32.889  31.539  1.00  0.00    -0.269 OA
BRANCH  41  44
ATOM     44  C   UNL A   1      37.001  31.808  30.005  1.00  0.00     0.039 A 
ATOM     45  C   UNL A   1      36.886  30.529  30.567  1.00  0.00     0.014 A 
ATOM     46  C   UNL A   1      38.205  32.250  29.473  1.00  0.00     0.014 A 
ATOM     47  C   UNL A   1      38.037  29.803  30.844  1.00  0.00     0.010 A 
ATOM     48  C   UNL A   1      39.346  31.625  29.899  1.00  0.00     0.010 A 
ATOM     49  C   UNL A   1      39.253  30.429  30.621  1.00  0.00    -0.014 A 
BRANCH  49  50
ATOM     50  C   UNL A   1      40.547  29.887  30.964  1.00  0.00     0.031 A 
ATOM     51  C   UNL A   1      40.878  28.594  30.345  1.00  0.00     0.074 A 
ATOM     52  C   UNL A   1      41.438  30.719  31.543  1.00  0.00     0.049 A 
ATOM     53  N   UNL A   1      41.919  27.902  30.617  1.00  0.00    -0.248 NA
ATOM     54  C   UNL A   1      40.008  27.948  29.361  1.00  0.00     0.031 C 
ATOM     55  C   UNL A   1      42.892  30.623  31.574  1.00  0.00     0.029 A 
ATOM     56  N   UNL A   1      41.147  31.772  32.417  1.00  0.00    -0.354 N 
ATOM     57  C   UNL A   1      42.030  26.923  29.650  1.00  0.00     0.074 A 
ATOM     58  C   UNL A   1      40.760  26.915  28.979  1.00  0.00     0.031 C 
ATOM     59  C   UNL A   1      43.353  31.350  32.609  1.00  0.00     0.029 A 
ATOM     60  C   UNL A   1      42.190  31.790  33.366  1.00  0.00     0.049 A 
ATOM     61  H   UNL A   1      40.372  32.377  32.379  1.00  0.00     0.167 HD
ATOM     62  C   UNL A   1      43.260  26.364  29.464  1.00  0.00     0.037 A 
ATOM     63  C   UNL A   1      41.925  31.406  34.653  1.00  0.00     0.037 A 
ATOM     64  C   UNL A   1      44.142  26.803  30.549  1.00  0.00     0.049 A 
ATOM     65  C   UNL A   1      42.639  30.125  35.029  1.00  0.00     0.074 A 
ATOM     66  C   UNL A   1      45.092  27.806  30.638  1.00  0.00     0.029 A 
ATOM     67  N   UNL A   1      43.817  26.449  31.855  1.00  0.00    -0.354 N 
ATOM     68  N   UNL A   1      43.000  29.201  34.177  1.00  0.00    -0.248 NA
ATOM     69  C   UNL A   1      43.079  29.837  36.388  1.00  0.00     0.031 C 
ATOM     70  C   UNL A   1      45.259  28.119  32.016  1.00  0.00     0.029 A 
ATOM     71  C   UNL A   1      44.438  27.285  32.761  1.00  0.00     0.049 A 
ATOM     72  H   UNL A   1      43.223  25.703  32.099  1.00  0.00     0.167 HD
ATOM     73  C   UNL A   1      43.707  28.222  34.832  1.00  0.00     0.074 A 
ATOM     74  C   UNL A   1      43.743  28.683  36.209  1.00  0.00     0.031 C 
ATOM     75  C   UNL A   1      44.220  27.122  34.196  1.00  0.00     0.037 A 
BRANCH  62  76
ATOM     76  C   UNL A   1      43.756  25.642  28.223  1.00  0.00     0.058 A 
ATOM     77  C   UNL A   1      43.345  24.308  27.990  1.00  0.00     0.135 A 
ATOM     78  C   UNL A   1      44.682  26.130  27.277  1.00  0.00     0.135 A 
ATOM     79  F   UNL A   1      42.451  23.702  28.784  1.00  0.00    -0.206 F 
ATOM     80  C   UNL A   1      43.842  23.521  26.947  1.00  0.00     0.059 A 
ATOM     81  C   UNL A   1      45.190  25.363  26.221  1.00  0.00     0.059 A 
ATOM     82  F   UNL A   1      45.158  27.375  27.309  1.00  0.00    -0.206 F 
ATOM     83  C   UNL A   1      44.773  24.054  26.069  1.00  0.00     0.060 A 
BRANCH  83  84
ATOM     84  S   UNL A   1      45.408  23.028  24.733  1.00  0.00     0.124 S 
ATOM     85  O   UNL A   1      46.260  23.966  24.009  1.00  0.00    -0.237 OA
ATOM     86  O   UNL A   1      46.099  21.970  25.462  1.00  0.00    -0.237 OA
ATOM     87  O   UNL A   1      44.203  22.608  24.023  1.00  0.00    -0.744 OA
ENDBRANCH  83  84
ENDBRANCH  62  76
BRANCH  63  88
ATOM     88  C   UNL A   1      40.561  31.838  35.096  1.00  0.00     0.058 A 
ATOM     89  C   UNL A   1      39.566  30.838  35.149  1.00  0.00     0.135 A 
ATOM     90  C   UNL A   1      40.372  32.971  35.902  1.00  0.00     0.135 A 
ATOM     91  F   UNL A   1      39.679  29.740  34.382  1.00  0.00    -0.206 F 
ATOM     92  C   UNL A   1      38.551  30.860  36.100  1.00  0.00     0.059 A 
ATOM     93  C   UNL A   1      39.344  33.022  36.852  1.00  0.00     0.059 A 
ATOM     94  F   UNL A   1      41.270  33.967  35.888  1.00  0.00    -0.206 F 
ATOM     95  C   UNL A   1      38.496  31.922  36.997  1.00  0.00     0.060 A 
BRANCH  95  96
ATOM     96  S   UNL A   1      37.427  31.737  38.449  1.00  0.00     0.124 S 
ATOM     97  O   UNL A   1      36.395  32.734  38.191  1.00  0.00    -0.237 OA
ATOM     98  O   UNL A   1      36.999  30.340  38.332  1.00  0.00    -0.237 OA
ATOM     99  O   UNL A   1      38.322  32.032  39.561  1.00  0.00    -0.744 OA
ENDBRANCH  95  96
ENDBRANCH  63  88
BRANCH  75 100
ATOM    100  C   UNL A   1      44.662  25.827  34.865  1.00  0.00     0.058 A 
ATOM    101  C   UNL A   1      43.807  24.750  35.156  1.00  0.00     0.135 A 
ATOM    102  C   UNL A   1      46.037  25.571  35.123  1.00  0.00     0.135 A 
ATOM    103  F   UNL A   1      42.511  24.759  34.818  1.00  0.00    -0.206 F 
ATOM    104  C   UNL A   1      44.251  23.575  35.765  1.00  0.00     0.059 A 
ATOM    105  C   UNL A   1      46.512  24.372  35.648  1.00  0.00     0.059 A 
ATOM    106  F   UNL A   1      46.993  26.471  34.856  1.00  0.00    -0.206 F 
ATOM    107  C   UNL A   1      45.605  23.396  36.012  1.00  0.00     0.060 A 
BRANCH 107 108
ATOM    108  S   UNL A   1      46.164  21.869  36.777  1.00  0.00     0.124 S 
ATOM    109  O   UNL A   1      45.752  22.073  38.161  1.00  0.00    -0.237 OA
ATOM    110  O   UNL A   1      45.417  20.855  36.038  1.00  0.00    -0.237 OA
ATOM    111  O   UNL A   1      47.603  21.876  36.537  1.00  0.00    -0.744 OA
ENDBRANCH 107 108
ENDBRANCH  75 100
ENDBRANCH  49  50
ENDBRANCH  41  44
ENDBRANCH  39  40
ENDBRANCH  38  39
ENDBRANCH   1  38
TORSDOF 20
ENDMDL
MODEL 2
REMARK VINA RESULT:     -12.4      2.085      2.921
REMARK SMILES Cc1ccc(NC(=O)C[NH+]2CCN(c3ccc(C(=O)NCCCCNC(=O)c4ccc(-c5c6nc(c(-c7c(F)cc(S(=O)(=O)[O-])cc7F)c7ccc([nH]7)c(-c7c(F)cc(S(=O)(=O)[O-])cc7F)c7nc(c(-c8c(F)cc(S(=O)(=O)[O-])cc8F)c8ccc5[nH]8)C=C7)C=C6)cc4)cc3NS(C)(=O)=O)CC2)cc1
REMARK SMILES IDX 22 1 21 2 20 3 18 4 19 5 17 7 14 8 15 9 95 10 16 11 94 12
REMARK SMILES IDX 13 13 10 14 11 15 102 16 12 18 101 19 9 20 7 21 6 22 8 24
REMARK SMILES IDX 5 25 1 26 2 27 3 28 104 29 4 30 103 31 96 32 97 34 98 35
REMARK SMILES IDX 99 36 100 37 23 38 24 39 25 40 26 41 27 43 28 44 29 45 93 46
REMARK SMILES IDX 30 47 92 48 31 49 32 50 33 51 86 52 34 53 91 54 85 55 87 56
REMARK SMILES IDX 35 57 90 58 84 59 83 60 36 62 70 63 49 64 69 65 50 66 53 67
REMARK SMILES IDX 68 68 88 69 51 70 52 71 67 73 89 74 54 75 37 76 38 77 47 78
REMARK SMILES IDX 39 79 40 80 46 81 48 82 41 83 42 84 43 85 44 86 45 87 71 88
REMARK SMILES IDX 72 89 81 90 73 91 74 92 80 93 82 94 75 95 76 96 77 97 78 98
REMARK SMILES IDX 79 99 55 100 56 101 65 102 57 103 58 104 64 105 66 106
REMARK SMILES IDX 59 107 60 108 61 109 62 110 63 111
REMARK H PARENT 20 6 10 17 6 23 96 33 25 42 87 61 53 72
REMARK Flexibility Score: inf
ROOT
ATOM      1  C   UNL A   1      35.281  32.018  27.959  1.00  0.00     0.023 C 
ENDROOT
BRANCH   1   2
ATOM      2  C   UNL A   1      34.210  30.915  27.851  1.00  0.00     0.116 C 
BRANCH   2   3
ATOM      3  N   UNL A   1      32.995  31.421  27.233  1.00  0.00    -0.352 N 
ATOM      4  C   UNL A   1      31.958  30.828  26.563  1.00  0.00     0.251 C 
ATOM      5  O   UNL A   1      31.095  31.567  26.087  1.00  0.00    -0.269 OA
ATOM      6  H   UNL A   1      32.897  32.398  27.312  1.00  0.00     0.163 HD
BRANCH   4   7
ATOM      7  C   UNL A   1      31.810  29.354  26.396  1.00  0.00     0.042 A 
ATOM      8  C   UNL A   1      31.549  26.583  25.914  1.00  0.00     0.062 A 
ATOM      9  C   UNL A   1      31.703  27.095  27.214  1.00  0.00     0.029 A 
ATOM     10  C   UNL A   1      31.484  27.495  24.815  1.00  0.00     0.073 A 
ATOM     11  C   UNL A   1      31.906  28.445  27.440  1.00  0.00     0.016 A 
ATOM     12  C   UNL A   1      31.602  28.865  25.090  1.00  0.00     0.042 A 
BRANCH   8  13
ATOM     13  N   UNL A   1      31.652  25.173  25.796  1.00  0.00    -0.359 N 
ATOM     14  N   UNL A   1      31.888  22.363  26.586  1.00  0.00    -0.324 N 
ATOM     15  C   UNL A   1      32.874  23.311  27.113  1.00  0.00     0.284 C 
ATOM     16  C   UNL A   1      30.579  23.048  26.730  1.00  0.00     0.284 C 
ATOM     17  H   UNL A   1      31.931  21.482  27.098  1.00  0.00     0.348 HD
ATOM     18  C   UNL A   1      32.903  24.686  26.439  1.00  0.00     0.178 C 
ATOM     19  C   UNL A   1      30.404  24.398  25.975  1.00  0.00     0.178 C 
BRANCH  14  20
ATOM     20  C   UNL A   1      32.136  21.972  25.170  1.00  0.00     0.364 C 
BRANCH  20  21
ATOM     21  C   UNL A   1      32.770  20.570  25.011  1.00  0.00     0.279 C 
ATOM     22  N   UNL A   1      34.106  20.342  24.784  1.00  0.00    -0.321 N 
ATOM     23  H   UNL A   1      34.338  19.390  24.686  1.00  0.00     0.170 HD
ATOM     24  O   UNL A   1      32.069  19.555  25.139  1.00  0.00    -0.268 OA
BRANCH  22  25
ATOM     25  C   UNL A   1      35.201  21.208  24.665  1.00  0.00     0.041 A 
ATOM     26  C   UNL A   1      38.072  23.930  26.182  1.00  0.00     0.044 C 
ATOM     27  C   UNL A   1      37.253  22.977  25.356  1.00  0.00    -0.051 A 
ATOM     28  C   UNL A   1      36.109  23.414  24.685  1.00  0.00     0.005 A 
ATOM     29  C   UNL A   1      37.472  21.605  25.432  1.00  0.00     0.005 A 
ATOM     30  C   UNL A   1      35.090  22.538  24.307  1.00  0.00     0.026 A 
ATOM     31  C   UNL A   1      36.450  20.720  25.069  1.00  0.00     0.026 A 
ENDBRANCH  22  25
ENDBRANCH  20  21
ENDBRANCH  14  20
ENDBRANCH   8  13
BRANCH  10  32
ATOM     32  N   UNL A   1      31.370  26.975  23.470  1.00  0.00    -0.282 N 
ATOM     33  H   UNL A   1      30.473  26.664  23.211  1.00  0.00     0.180 HD
BRANCH  32  34
ATOM     34  S   UNL A   1      32.558  26.826  22.289  1.00  0.00     0.229 S 
ATOM     35  C   UNL A   1      33.658  25.561  22.914  1.00  0.00     0.183 C 
ATOM     36  O   UNL A   1      31.901  26.235  21.148  1.00  0.00    -0.207 OA
ATOM     37  O   UNL A   1      33.345  28.035  22.140  1.00  0.00    -0.207 OA
ENDBRANCH  32  34
ENDBRANCH  10  32
ENDBRANCH   4   7
ENDBRANCH   2   3
ENDBRANCH   1   2
BRANCH   1  38
ATOM     38  C   UNL A   1      36.047  32.025  29.286  1.00  0.00     0.023 C 
BRANCH  38  39
ATOM     39  C   UNL A   1      35.160  31.788  30.496  1.00  0.00     0.116 C 
BRANCH  39  40
ATOM     40  N   UNL A   1      34.341  32.904  30.936  1.00  0.00    -0.352 N 
ATOM     41  C   UNL A   1      34.370  33.465  32.213  1.00  0.00     0.251 C 
ATOM     42  H   UNL A   1      33.717  33.296  30.282  1.00  0.00     0.163 HD
ATOM     43  O   UNL A   1      33.384  33.946  32.755  1.00  0.00    -0.269 OA
BRANCH  41  44
ATOM     44  C   UNL A   1      35.713  33.633  32.821  1.00  0.00     0.039 A 
ATOM     45  C   UNL A   1      36.655  34.383  32.102  1.00  0.00     0.014 A 
ATOM     46  C   UNL A   1      36.111  32.755  33.820  1.00  0.00     0.014 A 
ATOM     47  C   UNL A   1      37.999  34.052  32.193  1.00  0.00     0.010 A 
ATOM     48  C   UNL A   1      37.404  32.308  33.783  1.00  0.00     0.010 A 
ATOM     49  C   UNL A   1      38.329  32.930  32.936  1.00  0.00    -0.014 A 
BRANCH  49  50
ATOM     50  C   UNL A   1      39.650  32.357  33.044  1.00  0.00     0.031 A 
ATOM     51  C   UNL A   1      39.850  31.082  32.337  1.00  0.00     0.074 A 
ATOM     52  C   UNL A   1      40.641  33.155  33.497  1.00  0.00     0.049 A 
ATOM     53  N   UNL A   1      40.906  30.365  32.413  1.00  0.00    -0.248 NA
ATOM     54  C   UNL A   1      38.817  30.484  31.489  1.00  0.00     0.031 C 
ATOM     55  C   UNL A   1      42.078  33.036  33.286  1.00  0.00     0.029 A 
ATOM     56  N   UNL A   1      40.518  34.180  34.440  1.00  0.00    -0.354 N 
ATOM     57  C   UNL A   1      40.838  29.419  31.410  1.00  0.00     0.074 A 
ATOM     58  C   UNL A   1      39.475  29.454  30.956  1.00  0.00     0.031 C 
ATOM     59  C   UNL A   1      42.717  33.718  34.255  1.00  0.00     0.029 A 
ATOM     60  C   UNL A   1      41.702  34.148  35.206  1.00  0.00     0.049 A 
ATOM     61  H   UNL A   1      39.760  34.798  34.549  1.00  0.00     0.167 HD
ATOM     62  C   UNL A   1      42.009  28.849  31.007  1.00  0.00     0.037 A 
ATOM     63  C   UNL A   1      41.643  33.724  36.505  1.00  0.00     0.037 A 
ATOM     64  C   UNL A   1      43.065  29.235  31.946  1.00  0.00     0.049 A 
ATOM     65  C   UNL A   1      42.382  32.419  36.718  1.00  0.00     0.074 A 
ATOM     66  C   UNL A   1      44.038  30.220  31.911  1.00  0.00     0.029 A 
ATOM     67  N   UNL A   1      42.949  28.841  33.275  1.00  0.00    -0.354 N 
ATOM     68  N   UNL A   1      42.580  31.520  35.788  1.00  0.00    -0.248 NA
ATOM     69  C   UNL A   1      43.031  32.076  37.977  1.00  0.00     0.031 C 
ATOM     70  C   UNL A   1      44.433  30.482  33.253  1.00  0.00     0.029 A 
ATOM     71  C   UNL A   1      43.728  29.635  34.094  1.00  0.00     0.049 A 
ATOM     72  H   UNL A   1      42.388  28.095  33.590  1.00  0.00     0.167 HD
ATOM     73  C   UNL A   1      43.363  30.509  36.287  1.00  0.00     0.074 A 
ATOM     74  C   UNL A   1      43.633  30.919  37.654  1.00  0.00     0.031 C 
ATOM     75  C   UNL A   1      43.743  29.424  35.540  1.00  0.00     0.037 A 
BRANCH  62  76
ATOM     76  C   UNL A   1      42.281  28.164  29.678  1.00  0.00     0.058 A 
ATOM     77  C   UNL A   1      42.990  26.939  29.665  1.00  0.00     0.135 A 
ATOM     78  C   UNL A   1      41.973  28.662  28.394  1.00  0.00     0.135 A 
ATOM     79  F   UNL A   1      43.338  26.320  30.801  1.00  0.00    -0.206 F 
ATOM     80  C   UNL A   1      43.394  26.297  28.491  1.00  0.00     0.059 A 
ATOM     81  C   UNL A   1      42.362  28.035  27.205  1.00  0.00     0.059 A 
ATOM     82  F   UNL A   1      41.280  29.785  28.203  1.00  0.00    -0.206 F 
ATOM     83  C   UNL A   1      43.083  26.857  27.262  1.00  0.00     0.060 A 
BRANCH  83  84
ATOM     84  S   UNL A   1      43.615  26.022  25.758  1.00  0.00     0.124 S 
ATOM     85  O   UNL A   1      44.894  26.670  25.487  1.00  0.00    -0.237 OA
ATOM     86  O   UNL A   1      43.683  24.630  26.188  1.00  0.00    -0.237 OA
ATOM     87  O   UNL A   1      42.550  26.326  24.804  1.00  0.00    -0.744 OA
ENDBRANCH  83  84
ENDBRANCH  62  76
BRANCH  63  88
ATOM     88  C   UNL A   1      40.379  34.160  37.180  1.00  0.00     0.058 A 
ATOM     89  C   UNL A   1      39.401  33.165  37.397  1.00  0.00     0.135 A 
ATOM     90  C   UNL A   1      40.339  35.287  38.013  1.00  0.00     0.135 A 
ATOM     91  F   UNL A   1      39.372  32.073  36.616  1.00  0.00    -0.206 F 
ATOM     92  C   UNL A   1      38.565  33.186  38.509  1.00  0.00     0.059 A 
ATOM     93  C   UNL A   1      39.491  35.337  39.126  1.00  0.00     0.059 A 
ATOM     94  F   UNL A   1      41.228  36.279  37.851  1.00  0.00    -0.206 F 
ATOM     95  C   UNL A   1      38.673  34.242  39.409  1.00  0.00     0.060 A 
BRANCH  95  96
ATOM     96  S   UNL A   1      37.868  34.052  41.021  1.00  0.00     0.124 S 
ATOM     97  O   UNL A   1      37.709  35.439  41.442  1.00  0.00    -0.237 OA
ATOM     98  O   UNL A   1      36.630  33.354  40.661  1.00  0.00    -0.237 OA
ATOM     99  O   UNL A   1      38.833  33.270  41.785  1.00  0.00    -0.744 OA
ENDBRANCH  95  96
ENDBRANCH  63  88
BRANCH  75 100
ATOM    100  C   UNL A   1      44.261  28.099  36.085  1.00  0.00     0.058 A 
ATOM    101  C   UNL A   1      45.616  27.816  36.332  1.00  0.00     0.135 A 
ATOM    102  C   UNL A   1      43.362  27.084  36.513  1.00  0.00     0.135 A 
ATOM    103  F   UNL A   1      46.578  28.729  36.147  1.00  0.00    -0.206 F 
ATOM    104  C   UNL A   1      46.053  26.591  36.838  1.00  0.00     0.059 A 
ATOM    105  C   UNL A   1      43.772  25.890  37.101  1.00  0.00     0.059 A 
ATOM    106  F   UNL A   1      42.033  27.212  36.398  1.00  0.00    -0.206 F 
ATOM    107  C   UNL A   1      45.124  25.631  37.216  1.00  0.00     0.060 A 
BRANCH 107 108
ATOM    108  S   UNL A   1      45.700  24.067  37.887  1.00  0.00     0.124 S 
ATOM    109  O   UNL A   1      47.147  24.254  37.849  1.00  0.00    -0.237 OA
ATOM    110  O   UNL A   1      45.100  24.054  39.217  1.00  0.00    -0.237 OA
ATOM    111  O   UNL A   1      45.166  23.080  36.955  1.00  0.00    -0.744 OA
ENDBRANCH 107 108
ENDBRANCH  75 100
ENDBRANCH  49  50
ENDBRANCH  41  44
ENDBRANCH  39  40
ENDBRANCH  38  39
ENDBRANCH   1  38
TORSDOF 20
ENDMDL
MODEL 3
REMARK VINA RESULT:     -12.4      1.577      2.243
REMARK SMILES Cc1ccc(NC(=O)C[NH+]2CCN(c3ccc(C(=O)NCCCCNC(=O)c4ccc(-c5c6nc(c(-c7c(F)cc(S(=O)(=O)[O-])cc7F)c7ccc([nH]7)c(-c7c(F)cc(S(=O)(=O)[O-])cc7F)c7nc(c(-c8c(F)cc(S(=O)(=O)[O-])cc8F)c8ccc5[nH]8)C=C7)C=C6)cc4)cc3NS(C)(=O)=O)CC2)cc1
REMARK SMILES IDX 22 1 21 2 20 3 18 4 19 5 17 7 14 8 15 9 95 10 16 11 94 12
REMARK SMILES IDX 13 13 10 14 11 15 102 16 12 18 101 19 9 20 7 21 6 22 8 24
REMARK SMILES IDX 5 25 1 26 2 27 3 28 104 29 4 30 103 31 96 32 97 34 98 35
REMARK SMILES IDX 99 36 100 37 23 38 24 39 25 40 26 41 27 43 28 44 29 45 93 46
REMARK SMILES IDX 30 47 92 48 31 49 32 50 33 51 86 52 34 53 91 54 85 55 87 56
REMARK SMILES IDX 35 57 90 58 84 59 83 60 36 62 70 63 49 64 69 65 50 66 53 67
REMARK SMILES IDX 68 68 88 69 51 70 52 71 67 73 89 74 54 75 37 76 38 77 47 78
REMARK SMILES IDX 39 79 40 80 46 81 48 82 41 83 42 84 43 85 44 86 45 87 71 88
REMARK SMILES IDX 72 89 81 90 73 91 74 92 80 93 82 94 75 95 76 96 77 97 78 98
REMARK SMILES IDX 79 99 55 100 56 101 65 102 57 103 58 104 64 105 66 106
REMARK SMILES IDX 59 107 60 108 61 109 62 110 63 111
REMARK H PARENT 20 6 10 17 6 23 96 33 25 42 87 61 53 72
REMARK Flexibility Score: inf
ROOT
ATOM      1  C   UNL A   1      35.092  31.526  28.870  1.00  0.00     0.023 C 
ENDROOT
BRANCH   1   2
ATOM      2  C   UNL A   1      34.499  30.552  27.833  1.00  0.00     0.116 C 
BRANCH   2   3
ATOM      3  N   UNL A   1      33.287  31.092  27.237  1.00  0.00    -0.352 N 
ATOM      4  C   UNL A   1      32.252  30.537  26.533  1.00  0.00     0.251 C 
ATOM      5  O   UNL A   1      31.392  31.301  26.093  1.00  0.00    -0.269 OA
ATOM      6  H   UNL A   1      33.190  32.063  27.368  1.00  0.00     0.163 HD
BRANCH   4   7
ATOM      7  C   UNL A   1      32.103  29.073  26.288  1.00  0.00     0.042 A 
ATOM      8  C   UNL A   1      31.945  26.313  25.708  1.00  0.00     0.062 A 
ATOM      9  C   UNL A   1      31.278  26.876  26.810  1.00  0.00     0.029 A 
ATOM     10  C   UNL A   1      32.690  27.170  24.839  1.00  0.00     0.073 A 
ATOM     11  C   UNL A   1      31.418  28.214  27.134  1.00  0.00     0.016 A 
ATOM     12  C   UNL A   1      32.737  28.537  25.147  1.00  0.00     0.042 A 
BRANCH   8  13
ATOM     13  N   UNL A   1      31.962  24.895  25.663  1.00  0.00    -0.359 N 
ATOM     14  N   UNL A   1      31.940  22.119  26.595  1.00  0.00    -0.324 N 
ATOM     15  C   UNL A   1      32.940  23.028  27.164  1.00  0.00     0.284 C 
ATOM     16  C   UNL A   1      30.673  22.893  26.593  1.00  0.00     0.284 C 
ATOM     17  H   UNL A   1      31.880  21.264  27.148  1.00  0.00     0.348 HD
ATOM     18  C   UNL A   1      33.118  24.363  26.435  1.00  0.00     0.178 C 
ATOM     19  C   UNL A   1      30.654  24.211  25.766  1.00  0.00     0.178 C 
BRANCH  14  20
ATOM     20  C   UNL A   1      32.280  21.643  25.226  1.00  0.00     0.364 C 
BRANCH  20  21
ATOM     21  C   UNL A   1      32.986  20.266  25.200  1.00  0.00     0.279 C 
ATOM     22  N   UNL A   1      34.331  20.086  24.987  1.00  0.00    -0.321 N 
ATOM     23  H   UNL A   1      34.611  19.142  24.981  1.00  0.00     0.170 HD
ATOM     24  O   UNL A   1      32.338  19.234  25.433  1.00  0.00    -0.268 OA
BRANCH  22  25
ATOM     25  C   UNL A   1      35.379  20.991  24.775  1.00  0.00     0.041 A 
ATOM     26  C   UNL A   1      38.129  23.972  26.002  1.00  0.00     0.044 C 
ATOM     27  C   UNL A   1      37.347  22.912  25.275  1.00  0.00    -0.051 A 
ATOM     28  C   UNL A   1      36.175  23.233  24.589  1.00  0.00     0.005 A 
ATOM     29  C   UNL A   1      37.637  21.564  25.466  1.00  0.00     0.005 A 
ATOM     30  C   UNL A   1      35.197  22.278  24.306  1.00  0.00     0.026 A 
ATOM     31  C   UNL A   1      36.657  20.601  25.199  1.00  0.00     0.026 A 
ENDBRANCH  22  25
ENDBRANCH  20  21
ENDBRANCH  14  20
ENDBRANCH   8  13
BRANCH  10  32
ATOM     32  N   UNL A   1      33.416  26.593  23.729  1.00  0.00    -0.282 N 
ATOM     33  H   UNL A   1      34.396  26.579  23.826  1.00  0.00     0.180 HD
BRANCH  32  34
ATOM     34  S   UNL A   1      32.819  25.945  22.297  1.00  0.00     0.229 S 
ATOM     35  C   UNL A   1      31.259  26.782  22.041  1.00  0.00     0.183 C 
ATOM     36  O   UNL A   1      33.692  26.431  21.255  1.00  0.00    -0.207 OA
ATOM     37  O   UNL A   1      32.526  24.530  22.409  1.00  0.00    -0.207 OA
ENDBRANCH  32  34
ENDBRANCH  10  32
ENDBRANCH   4   7
ENDBRANCH   2   3
ENDBRANCH   1   2
BRANCH   1  38
ATOM     38  C   UNL A   1      36.607  31.723  28.756  1.00  0.00     0.023 C 
BRANCH  38  39
ATOM     39  C   UNL A   1      37.024  33.183  28.715  1.00  0.00     0.116 C 
BRANCH  39  40
ATOM     40  N   UNL A   1      37.597  33.734  29.930  1.00  0.00    -0.352 N 
ATOM     41  C   UNL A   1      37.966  32.990  31.051  1.00  0.00     0.251 C 
ATOM     42  H   UNL A   1      37.737  34.708  29.967  1.00  0.00     0.163 HD
ATOM     43  O   UNL A   1      37.890  33.419  32.194  1.00  0.00    -0.269 OA
BRANCH  41  44
ATOM     44  C   UNL A   1      38.651  31.701  30.782  1.00  0.00     0.039 A 
ATOM     45  C   UNL A   1      38.428  30.654  31.688  1.00  0.00     0.014 A 
ATOM     46  C   UNL A   1      39.751  31.691  29.935  1.00  0.00     0.014 A 
ATOM     47  C   UNL A   1      39.444  29.742  31.936  1.00  0.00     0.010 A 
ATOM     48  C   UNL A   1      40.815  30.910  30.297  1.00  0.00     0.010 A 
ATOM     49  C   UNL A   1      40.667  29.972  31.327  1.00  0.00    -0.014 A 
BRANCH  49  50
ATOM     50  C   UNL A   1      41.873  29.212  31.559  1.00  0.00     0.031 A 
ATOM     51  C   UNL A   1      42.032  28.005  30.732  1.00  0.00     0.074 A 
ATOM     52  C   UNL A   1      42.863  29.809  32.255  1.00  0.00     0.049 A 
ATOM     53  N   UNL A   1      42.967  27.143  30.874  1.00  0.00    -0.248 NA
ATOM     54  C   UNL A   1      41.091  27.652  29.668  1.00  0.00     0.031 C 
ATOM     55  C   UNL A   1      44.290  29.514  32.250  1.00  0.00     0.029 A 
ATOM     56  N   UNL A   1      42.710  30.734  33.293  1.00  0.00    -0.354 N 
ATOM     57  C   UNL A   1      42.953  26.330  29.759  1.00  0.00     0.074 A 
ATOM     58  C   UNL A   1      41.699  26.603  29.112  1.00  0.00     0.031 C 
ATOM     59  C   UNL A   1      44.837  29.992  33.384  1.00  0.00     0.029 A 
ATOM     60  C   UNL A   1      43.737  30.455  34.218  1.00  0.00     0.049 A 
ATOM     61  H   UNL A   1      42.025  31.437  33.364  1.00  0.00     0.167 HD
ATOM     62  C   UNL A   1      44.097  25.648  29.467  1.00  0.00     0.037 A 
ATOM     63  C   UNL A   1      43.411  29.905  35.428  1.00  0.00     0.037 A 
ATOM     64  C   UNL A   1      45.021  25.779  30.597  1.00  0.00     0.049 A 
ATOM     65  C   UNL A   1      43.941  28.495  35.580  1.00  0.00     0.074 A 
ATOM     66  C   UNL A   1      46.097  26.617  30.836  1.00  0.00     0.029 A 
ATOM     67  N   UNL A   1      44.638  25.264  31.831  1.00  0.00    -0.354 N 
ATOM     68  N   UNL A   1      44.182  27.683  34.583  1.00  0.00    -0.248 NA
ATOM     69  C   UNL A   1      44.325  27.931  36.868  1.00  0.00     0.031 C 
ATOM     70  C   UNL A   1      46.292  26.674  32.245  1.00  0.00     0.029 A 
ATOM     71  C   UNL A   1      45.359  25.849  32.854  1.00  0.00     0.049 A 
ATOM     72  H   UNL A   1      43.947  24.575  31.959  1.00  0.00     0.167 HD
ATOM     73  C   UNL A   1      44.743  26.524  35.060  1.00  0.00     0.074 A 
ATOM     74  C   UNL A   1      44.828  26.743  36.494  1.00  0.00     0.031 C 
ATOM     75  C   UNL A   1      45.108  25.483  34.246  1.00  0.00     0.037 A 
BRANCH  62  76
ATOM     76  C   UNL A   1      44.502  25.078  28.118  1.00  0.00     0.058 A 
ATOM     77  C   UNL A   1      44.738  23.688  27.998  1.00  0.00     0.135 A 
ATOM     78  C   UNL A   1      44.764  25.809  26.939  1.00  0.00     0.135 A 
ATOM     79  F   UNL A   1      44.515  22.850  29.019  1.00  0.00    -0.206 F 
ATOM     80  C   UNL A   1      45.231  23.090  26.835  1.00  0.00     0.059 A 
ATOM     81  C   UNL A   1      45.253  25.231  25.761  1.00  0.00     0.059 A 
ATOM     82  F   UNL A   1      44.567  27.124  26.847  1.00  0.00    -0.206 F 
ATOM     83  C   UNL A   1      45.495  23.870  25.721  1.00  0.00     0.060 A 
BRANCH  83  84
ATOM     84  S   UNL A   1      46.134  23.087  24.231  1.00  0.00     0.124 S 
ATOM     85  O   UNL A   1      44.936  22.982  23.405  1.00  0.00    -0.237 OA
ATOM     86  O   UNL A   1      47.135  24.049  23.785  1.00  0.00    -0.237 OA
ATOM     87  O   UNL A   1      46.667  21.816  24.716  1.00  0.00    -0.744 OA
ENDBRANCH  83  84
ENDBRANCH  62  76
BRANCH  63  88
ATOM     88  C   UNL A   1      42.114  30.439  35.954  1.00  0.00     0.058 A 
ATOM     89  C   UNL A   1      42.173  31.653  36.672  1.00  0.00     0.135 A 
ATOM     90  C   UNL A   1      40.887  30.104  35.364  1.00  0.00     0.135 A 
ATOM     91  F   UNL A   1      43.315  32.016  37.280  1.00  0.00    -0.206 F 
ATOM     92  C   UNL A   1      41.139  32.583  36.631  1.00  0.00     0.059 A 
ATOM     93  C   UNL A   1      39.825  31.018  35.329  1.00  0.00     0.059 A 
ATOM     94  F   UNL A   1      40.754  28.957  34.681  1.00  0.00    -0.206 F 
ATOM     95  C   UNL A   1      39.998  32.284  35.892  1.00  0.00     0.060 A 
BRANCH  95  96
ATOM     96  S   UNL A   1      38.853  33.643  35.535  1.00  0.00     0.124 S 
ATOM     97  O   UNL A   1      38.764  34.307  36.830  1.00  0.00    -0.237 OA
ATOM     98  O   UNL A   1      39.576  34.381  34.495  1.00  0.00    -0.237 OA
ATOM     99  O   UNL A   1      37.646  32.954  35.097  1.00  0.00    -0.744 OA
ENDBRANCH  95  96
ENDBRANCH  63  88
BRANCH  75 100
ATOM    100  C   UNL A   1      45.364  24.048  34.688  1.00  0.00     0.058 A 
ATOM    101  C   UNL A   1      46.483  23.633  35.431  1.00  0.00     0.135 A 
ATOM    102  C   UNL A   1      44.388  23.035  34.480  1.00  0.00     0.135 A 
ATOM    103  F   UNL A   1      47.412  24.497  35.860  1.00  0.00    -0.206 F 
ATOM    104  C   UNL A   1      46.680  22.308  35.824  1.00  0.00     0.059 A 
ATOM    105  C   UNL A   1      44.525  21.728  34.939  1.00  0.00     0.059 A 
ATOM    106  F   UNL A   1      43.239  23.273  33.834  1.00  0.00    -0.206 F 
ATOM    107  C   UNL A   1      45.699  21.360  35.570  1.00  0.00     0.060 A 
BRANCH 107 108
ATOM    108  S   UNL A   1      45.958  19.663  36.100  1.00  0.00     0.124 S 
ATOM    109  O   UNL A   1      45.015  18.948  35.245  1.00  0.00    -0.237 OA
ATOM    110  O   UNL A   1      47.370  19.450  35.798  1.00  0.00    -0.237 OA
ATOM    111  O   UNL A   1      45.625  19.695  37.520  1.00  0.00    -0.744 OA
ENDBRANCH 107 108
ENDBRANCH  75 100
ENDBRANCH  49  50
ENDBRANCH  41  44
ENDBRANCH  39  40
ENDBRANCH  38  39
ENDBRANCH   1  38
TORSDOF 20
ENDMDL
