MODEL 1
REMARK VINA RESULT:     -11.4      0.000      0.000
REMARK SMILES COc1ccc2c(c1OC)C(=O)O[C@@H]2Nc1nonc1C(=O)NCCCCNC(=O)c1ccc(-c2c3nc(c(-c4c(F)cc(S(=O)(=O)[O-])cc4F)c4ccc([nH]4)c(-c4c(F)cc(S(=O)(=O)[O-])cc4F)c4nc(c(-c5c(F)cc(S(=O)(=O)[O-])cc5F)c5ccc2[nH]5)C=C4)C=C3)cc1
REMARK SMILES IDX 25 1 24 2 23 3 21 4 22 5 20 7 16 8 17 9 18 10 19 11 15 12
REMARK SMILES IDX 14 14 3 15 4 16 8 17 5 18 7 19 6 20 11 21 12 22 13 23 2 24
REMARK SMILES IDX 1 25 9 26 10 27 26 28 27 29 28 30 29 31 30 33 31 34 32 35
REMARK SMILES IDX 96 36 33 37 95 38 34 39 35 40 36 41 89 42 37 43 94 44 88 45
REMARK SMILES IDX 90 46 38 47 93 48 87 49 86 50 39 52 73 53 52 54 72 55 53 56
REMARK SMILES IDX 56 57 71 58 91 59 54 60 55 61 70 63 92 64 57 65 40 66 41 67
REMARK SMILES IDX 50 68 42 69 43 70 49 71 51 72 44 73 45 74 46 75 47 76 48 77
REMARK SMILES IDX 74 78 75 79 84 80 76 81 77 82 83 83 85 84 78 85 79 86 80 87
REMARK SMILES IDX 81 88 82 89 58 90 59 91 68 92 60 93 61 94 67 95 69 96 62 97
REMARK SMILES IDX 63 98 64 99 65 100 66 101
REMARK H PARENT 23 6 15 13 28 32 90 51 56 62
REMARK Flexibility Score: inf
ROOT
ATOM      1  C   UNL A   1      32.616  27.386  26.405  1.00  0.00     0.023 C 
ENDROOT
BRANCH   1   2
ATOM      2  C   UNL A   1      32.232  27.421  24.917  1.00  0.00     0.116 C 
BRANCH   2   3
ATOM      3  N   UNL A   1      30.993  26.738  24.593  1.00  0.00    -0.350 N 
ATOM      4  C   UNL A   1      30.736  25.848  23.564  1.00  0.00     0.277 C 
ATOM      5  O   UNL A   1      29.592  25.396  23.486  1.00  0.00    -0.267 OA
ATOM      6  H   UNL A   1      30.231  26.934  25.184  1.00  0.00     0.163 HD
BRANCH   4   7
ATOM      7  C   UNL A   1      31.771  25.463  22.607  1.00  0.00     0.216 A 
ATOM      8  C   UNL A   1      32.357  24.214  22.274  1.00  0.00     0.207 A 
ATOM      9  N   UNL A   1      33.322  24.404  21.376  1.00  0.00    -0.031 NA
ATOM     10  O   UNL A   1      33.274  25.749  21.060  1.00  0.00    -0.242 OA
ATOM     11  N   UNL A   1      32.309  26.400  21.806  1.00  0.00    -0.042 NA
BRANCH   8  12
ATOM     12  N   UNL A   1      32.084  22.991  22.784  1.00  0.00    -0.326 N 
ATOM     13  H   UNL A   1      31.794  22.266  22.186  1.00  0.00     0.166 HD
BRANCH  12  14
ATOM     14  C   UNL A   1      32.215  22.741  24.203  1.00  0.00     0.307 C 
ATOM     15  C   UNL A   1      36.246  22.839  25.457  1.00  0.00     0.161 A 
ATOM     16  C   UNL A   1      35.584  24.068  25.341  1.00  0.00     0.051 A 
ATOM     17  C   UNL A   1      35.545  21.612  25.285  1.00  0.00     0.175 A 
ATOM     18  C   UNL A   1      34.252  24.115  24.964  1.00  0.00     0.014 A 
ATOM     19  C   UNL A   1      34.217  21.693  24.869  1.00  0.00     0.114 A 
ATOM     20  C   UNL A   1      33.602  22.926  24.679  1.00  0.00     0.032 A 
ATOM     21  C   UNL A   1      33.182  20.684  24.610  1.00  0.00     0.344 C 
ATOM     22  O   UNL A   1      33.271  19.470  24.571  1.00  0.00    -0.246 OA
ATOM     23  O   UNL A   1      32.011  21.340  24.371  1.00  0.00    -0.434 OA
BRANCH  15  24
ATOM     24  O   UNL A   1      37.573  22.810  25.819  1.00  0.00    -0.493 OA
ATOM     25  C   UNL A   1      38.182  24.073  26.129  1.00  0.00     0.278 C 
ENDBRANCH  15  24
BRANCH  17  26
ATOM     26  O   UNL A   1      36.238  20.487  25.626  1.00  0.00    -0.492 OA
ATOM     27  C   UNL A   1      36.902  19.722  24.626  1.00  0.00     0.278 C 
ENDBRANCH  17  26
ENDBRANCH  12  14
ENDBRANCH   8  12
ENDBRANCH   4   7
ENDBRANCH   2   3
ENDBRANCH   1   2
BRANCH   1  28
ATOM     28  C   UNL A   1      33.859  28.197  26.836  1.00  0.00     0.023 C 
BRANCH  28  29
ATOM     29  C   UNL A   1      33.776  29.728  26.713  1.00  0.00     0.116 C 
BRANCH  29  30
ATOM     30  N   UNL A   1      33.741  30.481  27.955  1.00  0.00    -0.352 N 
ATOM     31  C   UNL A   1      34.770  31.033  28.701  1.00  0.00     0.251 C 
ATOM     32  H   UNL A   1      32.840  30.623  28.328  1.00  0.00     0.163 HD
ATOM     33  O   UNL A   1      34.516  32.003  29.415  1.00  0.00    -0.269 OA
BRANCH  31  34
ATOM     34  C   UNL A   1      36.137  30.448  28.777  1.00  0.00     0.039 A 
ATOM     35  C   UNL A   1      36.928  30.464  27.628  1.00  0.00     0.014 A 
ATOM     36  C   UNL A   1      36.627  29.759  29.878  1.00  0.00     0.014 A 
ATOM     37  C   UNL A   1      38.219  29.896  27.634  1.00  0.00     0.010 A 
ATOM     38  C   UNL A   1      37.948  29.265  29.916  1.00  0.00     0.010 A 
ATOM     39  C   UNL A   1      38.792  29.358  28.806  1.00  0.00    -0.014 A 
BRANCH  39  40
ATOM     40  C   UNL A   1      40.264  29.029  28.873  1.00  0.00     0.031 A 
ATOM     41  C   UNL A   1      40.854  27.686  28.475  1.00  0.00     0.074 A 
ATOM     42  C   UNL A   1      41.113  29.949  29.393  1.00  0.00     0.049 A 
ATOM     43  N   UNL A   1      42.116  27.313  28.455  1.00  0.00    -0.248 NA
ATOM     44  C   UNL A   1      39.923  26.614  28.100  1.00  0.00     0.031 C 
ATOM     45  C   UNL A   1      40.713  31.234  29.975  1.00  0.00     0.029 A 
ATOM     46  N   UNL A   1      42.485  29.959  29.508  1.00  0.00    -0.354 N 
ATOM     47  C   UNL A   1      42.125  25.967  28.089  1.00  0.00     0.074 A 
ATOM     48  C   UNL A   1      40.736  25.574  27.966  1.00  0.00     0.031 C 
ATOM     49  C   UNL A   1      41.807  31.940  30.293  1.00  0.00     0.029 A 
ATOM     50  C   UNL A   1      42.992  31.145  29.991  1.00  0.00     0.049 A 
ATOM     51  H   UNL A   1      43.052  29.191  29.266  1.00  0.00     0.167 HD
ATOM     52  C   UNL A   1      43.176  25.141  27.840  1.00  0.00     0.037 A 
ATOM     53  C   UNL A   1      44.259  31.574  30.162  1.00  0.00     0.037 A 
ATOM     54  C   UNL A   1      44.566  25.530  27.913  1.00  0.00     0.049 A 
ATOM     55  C   UNL A   1      45.411  30.681  29.798  1.00  0.00     0.074 A 
ATOM     56  C   UNL A   1      45.687  24.788  27.573  1.00  0.00     0.029 A 
ATOM     57  N   UNL A   1      45.027  26.760  28.352  1.00  0.00    -0.354 N 
ATOM     58  N   UNL A   1      45.387  29.456  29.331  1.00  0.00    -0.248 NA
ATOM     59  C   UNL A   1      46.762  31.231  29.976  1.00  0.00     0.031 C 
ATOM     60  C   UNL A   1      46.826  25.559  27.836  1.00  0.00     0.029 A 
ATOM     61  C   UNL A   1      46.413  26.795  28.301  1.00  0.00     0.049 A 
ATOM     62  H   UNL A   1      44.455  27.501  28.656  1.00  0.00     0.167 HD
ATOM     63  C   UNL A   1      46.717  29.102  29.133  1.00  0.00     0.074 A 
ATOM     64  C   UNL A   1      47.519  30.244  29.518  1.00  0.00     0.031 C 
ATOM     65  C   UNL A   1      47.221  27.932  28.671  1.00  0.00     0.037 A 
BRANCH  52  66
ATOM     66  C   UNL A   1      42.869  23.723  27.416  1.00  0.00     0.058 A 
ATOM     67  C   UNL A   1      42.607  22.717  28.362  1.00  0.00     0.135 A 
ATOM     68  C   UNL A   1      42.787  23.369  26.057  1.00  0.00     0.135 A 
ATOM     69  F   UNL A   1      42.659  22.995  29.675  1.00  0.00    -0.206 F 
ATOM     70  C   UNL A   1      42.338  21.406  27.982  1.00  0.00     0.059 A 
ATOM     71  C   UNL A   1      42.485  22.069  25.654  1.00  0.00     0.059 A 
ATOM     72  F   UNL A   1      42.999  24.290  25.104  1.00  0.00    -0.206 F 
ATOM     73  C   UNL A   1      42.288  21.089  26.625  1.00  0.00     0.060 A 
BRANCH  73  74
ATOM     74  S   UNL A   1      41.968  19.375  26.152  1.00  0.00     0.124 S 
ATOM     75  O   UNL A   1      40.534  19.413  25.879  1.00  0.00    -0.237 OA
ATOM     76  O   UNL A   1      42.828  19.204  24.985  1.00  0.00    -0.237 OA
ATOM     77  O   UNL A   1      42.363  18.616  27.334  1.00  0.00    -0.744 OA
ENDBRANCH  73  74
ENDBRANCH  52  66
BRANCH  53  78
ATOM     78  C   UNL A   1      44.508  32.961  30.641  1.00  0.00     0.058 A 
ATOM     79  C   UNL A   1      44.556  34.029  29.733  1.00  0.00     0.135 A 
ATOM     80  C   UNL A   1      44.677  33.250  32.003  1.00  0.00     0.135 A 
ATOM     81  F   UNL A   1      44.404  33.800  28.419  1.00  0.00    -0.206 F 
ATOM     82  C   UNL A   1      44.782  35.335  30.154  1.00  0.00     0.059 A 
ATOM     83  C   UNL A   1      44.877  34.553  32.452  1.00  0.00     0.059 A 
ATOM     84  F   UNL A   1      44.614  32.266  32.913  1.00  0.00    -0.206 F 
ATOM     85  C   UNL A   1      44.937  35.587  31.518  1.00  0.00     0.060 A 
BRANCH  85  86
ATOM     86  S   UNL A   1      45.176  37.293  32.059  1.00  0.00     0.124 S 
ATOM     87  O   UNL A   1      46.045  37.115  33.216  1.00  0.00    -0.237 OA
ATOM     88  O   UNL A   1      45.790  37.903  30.883  1.00  0.00    -0.237 OA
ATOM     89  O   UNL A   1      43.817  37.743  32.351  1.00  0.00    -0.744 OA
ENDBRANCH  85  86
ENDBRANCH  53  78
BRANCH  65  90
ATOM     90  C   UNL A   1      48.714  27.827  28.514  1.00  0.00     0.058 A 
ATOM     91  C   UNL A   1      49.535  27.336  29.542  1.00  0.00     0.135 A 
ATOM     92  C   UNL A   1      49.330  28.187  27.304  1.00  0.00     0.135 A 
ATOM     93  F   UNL A   1      49.002  26.987  30.724  1.00  0.00    -0.206 F 
ATOM     94  C   UNL A   1      50.914  27.223  29.382  1.00  0.00     0.059 A 
ATOM     95  C   UNL A   1      50.703  28.058  27.113  1.00  0.00     0.059 A 
ATOM     96  F   UNL A   1      48.592  28.659  26.285  1.00  0.00    -0.206 F 
ATOM     97  C   UNL A   1      51.488  27.584  28.162  1.00  0.00     0.060 A 
BRANCH  97  98
ATOM     98  S   UNL A   1      53.272  27.396  27.955  1.00  0.00     0.124 S 
ATOM     99  O   UNL A   1      53.766  28.661  28.488  1.00  0.00    -0.237 OA
ATOM    100  O   UNL A   1      53.559  26.214  28.761  1.00  0.00    -0.237 OA
ATOM    101  O   UNL A   1      53.430  27.216  26.514  1.00  0.00    -0.744 OA
ENDBRANCH  97  98
ENDBRANCH  65  90
ENDBRANCH  39  40
ENDBRANCH  31  34
ENDBRANCH  29  30
ENDBRANCH  28  29
ENDBRANCH   1  28
TORSDOF 18
ENDMDL
MODEL 2
REMARK VINA RESULT:     -11.3      5.667     10.960
REMARK SMILES COc1ccc2c(c1OC)C(=O)O[C@@H]2Nc1nonc1C(=O)NCCCCNC(=O)c1ccc(-c2c3nc(c(-c4c(F)cc(S(=O)(=O)[O-])cc4F)c4ccc([nH]4)c(-c4c(F)cc(S(=O)(=O)[O-])cc4F)c4nc(c(-c5c(F)cc(S(=O)(=O)[O-])cc5F)c5ccc2[nH]5)C=C4)C=C3)cc1
REMARK SMILES IDX 25 1 24 2 23 3 21 4 22 5 20 7 16 8 17 9 18 10 19 11 15 12
REMARK SMILES IDX 14 14 3 15 4 16 8 17 5 18 7 19 6 20 11 21 12 22 13 23 2 24
REMARK SMILES IDX 1 25 9 26 10 27 26 28 27 29 28 30 29 31 30 33 31 34 32 35
REMARK SMILES IDX 96 36 33 37 95 38 34 39 35 40 36 41 89 42 37 43 94 44 88 45
REMARK SMILES IDX 90 46 38 47 93 48 87 49 86 50 39 52 73 53 52 54 72 55 53 56
REMARK SMILES IDX 56 57 71 58 91 59 54 60 55 61 70 63 92 64 57 65 40 66 41 67
REMARK SMILES IDX 50 68 42 69 43 70 49 71 51 72 44 73 45 74 46 75 47 76 48 77
REMARK SMILES IDX 74 78 75 79 84 80 76 81 77 82 83 83 85 84 78 85 79 86 80 87
REMARK SMILES IDX 81 88 82 89 58 90 59 91 68 92 60 93 61 94 67 95 69 96 62 97
REMARK SMILES IDX 63 98 64 99 65 100 66 101
REMARK H PARENT 23 6 15 13 28 32 90 51 56 62
REMARK Flexibility Score: inf
ROOT
ATOM      1  C   UNL A   1      38.140  21.443  25.355  1.00  0.00     0.023 C 
ENDROOT
BRANCH   1   2
ATOM      2  C   UNL A   1      36.670  21.686  25.732  1.00  0.00     0.116 C 
BRANCH   2   3
ATOM      3  N   UNL A   1      35.721  20.808  25.074  1.00  0.00    -0.350 N 
ATOM      4  C   UNL A   1      34.341  20.781  25.185  1.00  0.00     0.277 C 
ATOM      5  O   UNL A   1      33.741  19.931  24.524  1.00  0.00    -0.267 OA
ATOM      6  H   UNL A   1      36.110  20.139  24.466  1.00  0.00     0.163 HD
BRANCH   4   7
ATOM      7  C   UNL A   1      33.623  21.713  26.052  1.00  0.00     0.216 A 
ATOM      8  C   UNL A   1      33.053  22.993  25.826  1.00  0.00     0.207 A 
ATOM      9  N   UNL A   1      32.566  23.469  26.971  1.00  0.00    -0.031 NA
ATOM     10  O   UNL A   1      32.730  22.451  27.893  1.00  0.00    -0.242 OA
ATOM     11  N   UNL A   1      33.366  21.364  27.325  1.00  0.00    -0.042 NA
BRANCH   8  12
ATOM     12  N   UNL A   1      33.021  23.712  24.680  1.00  0.00    -0.326 N 
ATOM     13  H   UNL A   1      32.239  23.650  24.086  1.00  0.00     0.166 HD
BRANCH  12  14
ATOM     14  C   UNL A   1      34.128  24.570  24.321  1.00  0.00     0.307 C 
ATOM     15  C   UNL A   1      33.265  28.641  25.040  1.00  0.00     0.161 A 
ATOM     16  C   UNL A   1      33.705  27.880  26.130  1.00  0.00     0.051 A 
ATOM     17  C   UNL A   1      33.240  28.091  23.727  1.00  0.00     0.175 A 
ATOM     18  C   UNL A   1      34.037  26.544  25.967  1.00  0.00     0.014 A 
ATOM     19  C   UNL A   1      33.542  26.736  23.602  1.00  0.00     0.114 A 
ATOM     20  C   UNL A   1      33.896  25.976  24.711  1.00  0.00     0.032 A 
ATOM     21  C   UNL A   1      33.642  25.832  22.448  1.00  0.00     0.344 C 
ATOM     22  O   UNL A   1      33.350  26.023  21.281  1.00  0.00    -0.246 OA
ATOM     23  O   UNL A   1      34.122  24.637  22.896  1.00  0.00    -0.434 OA
BRANCH  15  24
ATOM     24  O   UNL A   1      32.926  29.962  25.222  1.00  0.00    -0.493 OA
ATOM     25  C   UNL A   1      31.807  30.225  26.083  1.00  0.00     0.278 C 
ENDBRANCH  15  24
BRANCH  17  26
ATOM     26  O   UNL A   1      32.995  28.981  22.722  1.00  0.00    -0.492 OA
ATOM     27  C   UNL A   1      31.694  29.086  22.157  1.00  0.00     0.278 C 
ENDBRANCH  17  26
ENDBRANCH  12  14
ENDBRANCH   8  12
ENDBRANCH   4   7
ENDBRANCH   2   3
ENDBRANCH   1   2
BRANCH   1  28
ATOM     28  C   UNL A   1      39.219  21.994  26.314  1.00  0.00     0.023 C 
BRANCH  28  29
ATOM     29  C   UNL A   1      39.124  23.482  26.697  1.00  0.00     0.116 C 
BRANCH  29  30
ATOM     30  N   UNL A   1      39.777  24.427  25.808  1.00  0.00    -0.352 N 
ATOM     31  C   UNL A   1      40.655  25.462  26.086  1.00  0.00     0.251 C 
ATOM     32  H   UNL A   1      39.561  24.314  24.853  1.00  0.00     0.163 HD
ATOM     33  O   UNL A   1      41.441  25.810  25.205  1.00  0.00    -0.269 OA
BRANCH  31  34
ATOM     34  C   UNL A   1      40.623  26.254  27.346  1.00  0.00     0.039 A 
ATOM     35  C   UNL A   1      41.604  27.225  27.542  1.00  0.00     0.014 A 
ATOM     36  C   UNL A   1      39.765  25.993  28.406  1.00  0.00     0.014 A 
ATOM     37  C   UNL A   1      41.642  27.982  28.730  1.00  0.00     0.010 A 
ATOM     38  C   UNL A   1      39.745  26.803  29.560  1.00  0.00     0.010 A 
ATOM     39  C   UNL A   1      40.658  27.847  29.733  1.00  0.00    -0.014 A 
BRANCH  39  40
ATOM     40  C   UNL A   1      40.539  28.857  30.849  1.00  0.00     0.031 A 
ATOM     41  C   UNL A   1      39.488  29.954  30.893  1.00  0.00     0.074 A 
ATOM     42  C   UNL A   1      41.465  28.846  31.837  1.00  0.00     0.049 A 
ATOM     43  N   UNL A   1      39.272  30.852  31.832  1.00  0.00    -0.248 NA
ATOM     44  C   UNL A   1      38.603  30.102  29.731  1.00  0.00     0.031 C 
ATOM     45  C   UNL A   1      42.641  27.971  31.884  1.00  0.00     0.029 A 
ATOM     46  N   UNL A   1      41.567  29.579  32.999  1.00  0.00    -0.354 N 
ATOM     47  C   UNL A   1      38.248  31.674  31.364  1.00  0.00     0.074 A 
ATOM     48  C   UNL A   1      37.937  31.211  30.027  1.00  0.00     0.031 C 
ATOM     49  C   UNL A   1      43.283  28.148  33.047  1.00  0.00     0.029 A 
ATOM     50  C   UNL A   1      42.605  29.185  33.814  1.00  0.00     0.049 A 
ATOM     51  H   UNL A   1      40.953  30.315  33.226  1.00  0.00     0.167 HD
ATOM     52  C   UNL A   1      37.597  32.693  31.987  1.00  0.00     0.037 A 
ATOM     53  C   UNL A   1      42.975  29.585  35.048  1.00  0.00     0.037 A 
ATOM     54  C   UNL A   1      37.863  33.137  33.336  1.00  0.00     0.049 A 
ATOM     55  C   UNL A   1      42.191  30.649  35.761  1.00  0.00     0.074 A 
ATOM     56  C   UNL A   1      37.179  34.087  34.081  1.00  0.00     0.029 A 
ATOM     57  N   UNL A   1      38.887  32.668  34.143  1.00  0.00    -0.354 N 
ATOM     58  N   UNL A   1      41.146  31.321  35.343  1.00  0.00    -0.248 NA
ATOM     59  C   UNL A   1      42.631  31.005  37.117  1.00  0.00     0.031 C 
ATOM     60  C   UNL A   1      37.810  34.213  35.325  1.00  0.00     0.029 A 
ATOM     61  C   UNL A   1      38.860  33.313  35.371  1.00  0.00     0.049 A 
ATOM     62  H   UNL A   1      39.538  31.978  33.883  1.00  0.00     0.167 HD
ATOM     63  C   UNL A   1      40.788  32.156  36.395  1.00  0.00     0.074 A 
ATOM     64  C   UNL A   1      41.718  31.898  37.473  1.00  0.00     0.031 C 
ATOM     65  C   UNL A   1      39.775  33.055  36.455  1.00  0.00     0.037 A 
BRANCH  52  66
ATOM     66  C   UNL A   1      36.486  33.384  31.231  1.00  0.00     0.058 A 
ATOM     67  C   UNL A   1      36.753  34.171  30.097  1.00  0.00     0.135 A 
ATOM     68  C   UNL A   1      35.140  33.226  31.605  1.00  0.00     0.135 A 
ATOM     69  F   UNL A   1      38.017  34.351  29.683  1.00  0.00    -0.206 F 
ATOM     70  C   UNL A   1      35.739  34.823  29.402  1.00  0.00     0.059 A 
ATOM     71  C   UNL A   1      34.105  33.842  30.903  1.00  0.00     0.059 A 
ATOM     72  F   UNL A   1      34.816  32.465  32.662  1.00  0.00    -0.206 F 
ATOM     73  C   UNL A   1      34.417  34.659  29.818  1.00  0.00     0.060 A 
BRANCH  73  74
ATOM     74  S   UNL A   1      33.118  35.538  28.923  1.00  0.00     0.124 S 
ATOM     75  O   UNL A   1      33.896  36.520  28.173  1.00  0.00    -0.237 OA
ATOM     76  O   UNL A   1      32.508  34.476  28.129  1.00  0.00    -0.237 OA
ATOM     77  O   UNL A   1      32.279  36.082  29.987  1.00  0.00    -0.744 OA
ENDBRANCH  73  74
ENDBRANCH  52  66
BRANCH  53  78
ATOM     78  C   UNL A   1      44.116  28.912  35.727  1.00  0.00     0.058 A 
ATOM     79  C   UNL A   1      43.903  27.770  36.513  1.00  0.00     0.135 A 
ATOM     80  C   UNL A   1      45.432  29.376  35.588  1.00  0.00     0.135 A 
ATOM     81  F   UNL A   1      42.660  27.291  36.677  1.00  0.00    -0.206 F 
ATOM     82  C   UNL A   1      44.952  27.119  37.153  1.00  0.00     0.059 A 
ATOM     83  C   UNL A   1      46.502  28.726  36.197  1.00  0.00     0.059 A 
ATOM     84  F   UNL A   1      45.690  30.450  34.827  1.00  0.00    -0.206 F 
ATOM     85  C   UNL A   1      46.249  27.604  36.986  1.00  0.00     0.060 A 
BRANCH  85  86
ATOM     86  S   UNL A   1      47.610  26.720  37.778  1.00  0.00     0.124 S 
ATOM     87  O   UNL A   1      47.148  25.339  37.699  1.00  0.00    -0.237 OA
ATOM     88  O   UNL A   1      48.740  27.068  36.921  1.00  0.00    -0.237 OA
ATOM     89  O   UNL A   1      47.648  27.299  39.118  1.00  0.00    -0.744 OA
ENDBRANCH  85  86
ENDBRANCH  53  78
BRANCH  65  90
ATOM     90  C   UNL A   1      39.584  33.808  37.745  1.00  0.00     0.058 A 
ATOM     91  C   UNL A   1      38.749  33.327  38.767  1.00  0.00     0.135 A 
ATOM     92  C   UNL A   1      40.276  35.008  37.978  1.00  0.00     0.135 A 
ATOM     93  F   UNL A   1      38.056  32.191  38.594  1.00  0.00    -0.206 F 
ATOM     94  C   UNL A   1      38.593  34.019  39.965  1.00  0.00     0.059 A 
ATOM     95  C   UNL A   1      40.155  35.703  39.178  1.00  0.00     0.059 A 
ATOM     96  F   UNL A   1      41.091  35.511  37.036  1.00  0.00    -0.206 F 
ATOM     97  C   UNL A   1      39.303  35.205  40.163  1.00  0.00     0.060 A 
BRANCH  97  98
ATOM     98  S   UNL A   1      39.122  36.072  41.736  1.00  0.00     0.124 S 
ATOM     99  O   UNL A   1      37.828  35.580  42.197  1.00  0.00    -0.237 OA
ATOM    100  O   UNL A   1      40.282  35.603  42.488  1.00  0.00    -0.237 OA
ATOM    101  O   UNL A   1      39.159  37.481  41.355  1.00  0.00    -0.744 OA
ENDBRANCH  97  98
ENDBRANCH  65  90
ENDBRANCH  39  40
ENDBRANCH  31  34
ENDBRANCH  29  30
ENDBRANCH  28  29
ENDBRANCH   1  28
TORSDOF 18
ENDMDL
MODEL 3
REMARK VINA RESULT:     -11.3      0.966      2.033
REMARK SMILES COc1ccc2c(c1OC)C(=O)O[C@@H]2Nc1nonc1C(=O)NCCCCNC(=O)c1ccc(-c2c3nc(c(-c4c(F)cc(S(=O)(=O)[O-])cc4F)c4ccc([nH]4)c(-c4c(F)cc(S(=O)(=O)[O-])cc4F)c4nc(c(-c5c(F)cc(S(=O)(=O)[O-])cc5F)c5ccc2[nH]5)C=C4)C=C3)cc1
REMARK SMILES IDX 25 1 24 2 23 3 21 4 22 5 20 7 16 8 17 9 18 10 19 11 15 12
REMARK SMILES IDX 14 14 3 15 4 16 8 17 5 18 7 19 6 20 11 21 12 22 13 23 2 24
REMARK SMILES IDX 1 25 9 26 10 27 26 28 27 29 28 30 29 31 30 33 31 34 32 35
REMARK SMILES IDX 96 36 33 37 95 38 34 39 35 40 36 41 89 42 37 43 94 44 88 45
REMARK SMILES IDX 90 46 38 47 93 48 87 49 86 50 39 52 73 53 52 54 72 55 53 56
REMARK SMILES IDX 56 57 71 58 91 59 54 60 55 61 70 63 92 64 57 65 40 66 41 67
REMARK SMILES IDX 50 68 42 69 43 70 49 71 51 72 44 73 45 74 46 75 47 76 48 77
REMARK SMILES IDX 74 78 75 79 84 80 76 81 77 82 83 83 85 84 78 85 79 86 80 87
REMARK SMILES IDX 81 88 82 89 58 90 59 91 68 92 60 93 61 94 67 95 69 96 62 97
REMARK SMILES IDX 63 98 64 99 65 100 66 101
REMARK H PARENT 23 6 15 13 28 32 90 51 56 62
REMARK Flexibility Score: inf
ROOT
ATOM      1  C   UNL A   1      33.257  27.424  26.487  1.00  0.00     0.023 C 
ENDROOT
BRANCH   1   2
ATOM      2  C   UNL A   1      31.822  27.794  26.891  1.00  0.00     0.116 C 
BRANCH   2   3
ATOM      3  N   UNL A   1      30.905  26.672  26.973  1.00  0.00    -0.350 N 
ATOM      4  C   UNL A   1      30.277  25.987  25.948  1.00  0.00     0.277 C 
ATOM      5  O   UNL A   1      29.529  25.061  26.267  1.00  0.00    -0.267 OA
ATOM      6  H   UNL A   1      30.700  26.356  27.883  1.00  0.00     0.163 HD
BRANCH   4   7
ATOM      7  C   UNL A   1      30.484  26.345  24.546  1.00  0.00     0.216 A 
ATOM      8  C   UNL A   1      30.829  25.585  23.399  1.00  0.00     0.207 A 
ATOM      9  N   UNL A   1      30.970  26.399  22.354  1.00  0.00    -0.031 NA
ATOM     10  O   UNL A   1      30.610  27.653  22.812  1.00  0.00    -0.242 OA
ATOM     11  N   UNL A   1      30.296  27.619  24.158  1.00  0.00    -0.042 NA
BRANCH   8  12
ATOM     12  N   UNL A   1      31.059  24.255  23.307  1.00  0.00    -0.326 N 
ATOM     13  H   UNL A   1      30.374  23.618  23.613  1.00  0.00     0.166 HD
BRANCH  12  14
ATOM     14  C   UNL A   1      32.304  23.760  22.762  1.00  0.00     0.307 C 
ATOM     15  C   UNL A   1      33.371  20.020  24.408  1.00  0.00     0.161 A 
ATOM     16  C   UNL A   1      32.456  20.013  23.348  1.00  0.00     0.051 A 
ATOM     17  C   UNL A   1      34.007  21.228  24.816  1.00  0.00     0.175 A 
ATOM     18  C   UNL A   1      32.079  21.198  22.736  1.00  0.00     0.014 A 
ATOM     19  C   UNL A   1      33.579  22.406  24.208  1.00  0.00     0.114 A 
ATOM     20  C   UNL A   1      32.607  22.386  23.214  1.00  0.00     0.032 A 
ATOM     21  C   UNL A   1      33.992  23.810  24.336  1.00  0.00     0.344 C 
ATOM     22  O   UNL A   1      34.755  24.327  25.133  1.00  0.00    -0.246 OA
ATOM     23  O   UNL A   1      33.333  24.527  23.383  1.00  0.00    -0.434 OA
BRANCH  15  24
ATOM     24  O   UNL A   1      33.723  18.836  25.014  1.00  0.00    -0.493 OA
ATOM     25  C   UNL A   1      32.661  18.087  25.624  1.00  0.00     0.278 C 
ENDBRANCH  15  24
BRANCH  17  26
ATOM     26  O   UNL A   1      35.026  21.080  25.711  1.00  0.00    -0.492 OA
ATOM     27  C   UNL A   1      36.379  21.131  25.273  1.00  0.00     0.278 C 
ENDBRANCH  17  26
ENDBRANCH  12  14
ENDBRANCH   8  12
ENDBRANCH   4   7
ENDBRANCH   2   3
ENDBRANCH   1   2
BRANCH   1  28
ATOM     28  C   UNL A   1      34.317  28.548  26.523  1.00  0.00     0.023 C 
BRANCH  28  29
ATOM     29  C   UNL A   1      33.802  29.998  26.553  1.00  0.00     0.116 C 
BRANCH  29  30
ATOM     30  N   UNL A   1      33.706  30.628  27.859  1.00  0.00    -0.352 N 
ATOM     31  C   UNL A   1      34.698  31.099  28.704  1.00  0.00     0.251 C 
ATOM     32  H   UNL A   1      32.788  30.739  28.198  1.00  0.00     0.163 HD
ATOM     33  O   UNL A   1      34.410  31.998  29.494  1.00  0.00    -0.269 OA
BRANCH  31  34
ATOM     34  C   UNL A   1      36.059  30.502  28.791  1.00  0.00     0.039 A 
ATOM     35  C   UNL A   1      36.905  30.622  27.690  1.00  0.00     0.014 A 
ATOM     36  C   UNL A   1      36.492  29.708  29.844  1.00  0.00     0.014 A 
ATOM     37  C   UNL A   1      38.193  30.048  27.705  1.00  0.00     0.010 A 
ATOM     38  C   UNL A   1      37.809  29.204  29.900  1.00  0.00     0.010 A 
ATOM     39  C   UNL A   1      38.707  29.397  28.847  1.00  0.00    -0.014 A 
BRANCH  39  40
ATOM     40  C   UNL A   1      40.173  29.054  28.955  1.00  0.00     0.031 A 
ATOM     41  C   UNL A   1      40.764  27.713  28.552  1.00  0.00     0.074 A 
ATOM     42  C   UNL A   1      41.012  29.957  29.517  1.00  0.00     0.049 A 
ATOM     43  N   UNL A   1      42.023  27.329  28.566  1.00  0.00    -0.248 NA
ATOM     44  C   UNL A   1      39.837  26.656  28.129  1.00  0.00     0.031 C 
ATOM     45  C   UNL A   1      40.606  31.235  30.108  1.00  0.00     0.029 A 
ATOM     46  N   UNL A   1      42.380  29.953  29.676  1.00  0.00    -0.354 N 
ATOM     47  C   UNL A   1      42.033  25.990  28.176  1.00  0.00     0.074 A 
ATOM     48  C   UNL A   1      40.645  25.611  28.003  1.00  0.00     0.031 C 
ATOM     49  C   UNL A   1      41.694  31.926  30.474  1.00  0.00     0.029 A 
ATOM     50  C   UNL A   1      42.881  31.126  30.195  1.00  0.00     0.049 A 
ATOM     51  H   UNL A   1      42.948  29.184  29.438  1.00  0.00     0.167 HD
ATOM     52  C   UNL A   1      43.084  25.158  27.946  1.00  0.00     0.037 A 
ATOM     53  C   UNL A   1      44.147  31.541  30.414  1.00  0.00     0.037 A 
ATOM     54  C   UNL A   1      44.474  25.534  28.070  1.00  0.00     0.049 A 
ATOM     55  C   UNL A   1      45.301  30.643  30.071  1.00  0.00     0.074 A 
ATOM     56  C   UNL A   1      45.599  24.788  27.752  1.00  0.00     0.029 A 
ATOM     57  N   UNL A   1      44.931  26.752  28.545  1.00  0.00    -0.354 N 
ATOM     58  N   UNL A   1      45.282  29.427  29.582  1.00  0.00    -0.248 NA
ATOM     59  C   UNL A   1      46.651  31.179  30.301  1.00  0.00     0.031 C 
ATOM     60  C   UNL A   1      46.735  25.544  28.065  1.00  0.00     0.029 A 
ATOM     61  C   UNL A   1      46.319  26.776  28.538  1.00  0.00     0.049 A 
ATOM     62  H   UNL A   1      44.356  27.493  28.843  1.00  0.00     0.167 HD
ATOM     63  C   UNL A   1      46.615  29.065  29.419  1.00  0.00     0.074 A 
ATOM     64  C   UNL A   1      47.414  30.193  29.850  1.00  0.00     0.031 C 
ATOM     65  C   UNL A   1      47.123  27.898  28.954  1.00  0.00     0.037 A 
BRANCH  52  66
ATOM     66  C   UNL A   1      42.779  23.751  27.487  1.00  0.00     0.058 A 
ATOM     67  C   UNL A   1      42.535  22.718  28.410  1.00  0.00     0.135 A 
ATOM     68  C   UNL A   1      42.681  23.434  26.121  1.00  0.00     0.135 A 
ATOM     69  F   UNL A   1      42.604  22.961  29.728  1.00  0.00    -0.206 F 
ATOM     70  C   UNL A   1      42.268  21.416  27.998  1.00  0.00     0.059 A 
ATOM     71  C   UNL A   1      42.380  22.143  25.687  1.00  0.00     0.059 A 
ATOM     72  F   UNL A   1      42.874  24.381  25.190  1.00  0.00    -0.206 F 
ATOM     73  C   UNL A   1      42.201  21.136  26.633  1.00  0.00     0.060 A 
BRANCH  73  74
ATOM     74  S   UNL A   1      41.884  19.434  26.118  1.00  0.00     0.124 S 
ATOM     75  O   UNL A   1      42.760  19.315  24.956  1.00  0.00    -0.237 OA
ATOM     76  O   UNL A   1      42.286  18.668  27.294  1.00  0.00    -0.237 OA
ATOM     77  O   UNL A   1      40.453  19.427  25.828  1.00  0.00    -0.744 OA
ENDBRANCH  73  74
ENDBRANCH  52  66
BRANCH  53  78
ATOM     78  C   UNL A   1      44.391  32.917  30.925  1.00  0.00     0.058 A 
ATOM     79  C   UNL A   1      44.499  33.996  30.036  1.00  0.00     0.135 A 
ATOM     80  C   UNL A   1      44.498  33.184  32.298  1.00  0.00     0.135 A 
ATOM     81  F   UNL A   1      44.407  33.789  28.713  1.00  0.00    -0.206 F 
ATOM     82  C   UNL A   1      44.722  35.293  30.487  1.00  0.00     0.059 A 
ATOM     83  C   UNL A   1      44.695  34.477  32.774  1.00  0.00     0.059 A 
ATOM     84  F   UNL A   1      44.378  32.189  33.189  1.00  0.00    -0.206 F 
ATOM     85  C   UNL A   1      44.815  35.523  31.860  1.00  0.00     0.060 A 
BRANCH  85  86
ATOM     86  S   UNL A   1      45.051  37.218  32.437  1.00  0.00     0.124 S 
ATOM     87  O   UNL A   1      46.183  37.064  33.343  1.00  0.00    -0.237 OA
ATOM     88  O   UNL A   1      45.320  37.930  31.191  1.00  0.00    -0.237 OA
ATOM     89  O   UNL A   1      43.774  37.536  33.068  1.00  0.00    -0.744 OA
ENDBRANCH  85  86
ENDBRANCH  53  78
BRANCH  65  90
ATOM     90  C   UNL A   1      48.620  27.783  28.842  1.00  0.00     0.058 A 
ATOM     91  C   UNL A   1      49.313  28.205  27.695  1.00  0.00     0.135 A 
ATOM     92  C   UNL A   1      49.377  27.280  29.913  1.00  0.00     0.135 A 
ATOM     93  F   UNL A   1      48.639  28.683  26.637  1.00  0.00    -0.206 F 
ATOM     94  C   UNL A   1      50.699  28.113  27.607  1.00  0.00     0.059 A 
ATOM     95  C   UNL A   1      50.767  27.204  29.856  1.00  0.00     0.059 A 
ATOM     96  F   UNL A   1      48.767  26.866  31.036  1.00  0.00    -0.206 F 
ATOM     97  C   UNL A   1      51.418  27.614  28.695  1.00  0.00     0.060 A 
BRANCH  97  98
ATOM     98  S   UNL A   1      53.219  27.538  28.582  1.00  0.00     0.124 S 
ATOM     99  O   UNL A   1      53.588  28.929  28.816  1.00  0.00    -0.237 OA
ATOM    100  O   UNL A   1      53.560  26.604  29.651  1.00  0.00    -0.237 OA
ATOM    101  O   UNL A   1      53.454  27.043  27.228  1.00  0.00    -0.744 OA
ENDBRANCH  97  98
ENDBRANCH  65  90
ENDBRANCH  39  40
ENDBRANCH  31  34
ENDBRANCH  29  30
ENDBRANCH  28  29
ENDBRANCH   1  28
TORSDOF 18
ENDMDL
