MODEL 1
REMARK VINA RESULT:     -11.9      0.000      0.000
REMARK SMILES O=C(NCCCCNC(=O)c1cccnc1C[N@@H+]1CCC[C@H]1c1ccccn1)c1ccc(-c2c3nc(c(-c4c(F)cc(S(=O)(=O)[O-])cc4F)c4ccc([nH]4)c(-c4c(F)cc(S(=O)(=O)[O-])cc4F)c4nc(c(-c5c(F)cc(S(=O)(=O)[O-])cc5F)c5ccc2[nH]5)C=C4)C=C3)cc1
REMARK SMILES IDX 5 1 4 2 3 3 1 4 2 5 29 7 30 8 94 9 31 10 93 11 32 12 33 13
REMARK SMILES IDX 34 14 87 15 35 16 92 17 86 18 88 19 36 20 91 21 85 22 84 23
REMARK SMILES IDX 37 25 71 26 50 27 70 28 51 29 54 30 69 31 89 32 52 33 53 34
REMARK SMILES IDX 68 36 90 37 55 38 38 39 39 40 48 41 40 42 41 43 47 44 49 45
REMARK SMILES IDX 42 46 43 47 44 48 45 49 46 50 72 51 73 52 82 53 74 54 75 55
REMARK SMILES IDX 81 56 83 57 76 58 77 59 78 60 79 61 80 62 56 63 57 64 66 65
REMARK SMILES IDX 58 66 59 67 65 68 67 69 60 70 61 71 62 72 63 73 64 74 6 75
REMARK SMILES IDX 7 76 8 77 9 78 10 80 11 81 12 82 16 83 13 84 15 85 14 86
REMARK SMILES IDX 17 87 18 88 19 89 22 90 20 92 21 93 23 94 24 95 28 96 25 97
REMARK SMILES IDX 27 98 26 99
REMARK H PARENT 3 6 88 24 54 35 8 79 18 91
REMARK Flexibility Score: inf
ROOT
ATOM      1  C   UNL A   1      37.206  23.756  26.073  1.00  0.00     0.023 C 
ENDROOT
BRANCH   1   2
ATOM      2  C   UNL A   1      38.491  24.062  26.830  1.00  0.00     0.116 C 
BRANCH   2   3
ATOM      3  N   UNL A   1      39.604  24.422  25.960  1.00  0.00    -0.352 N 
ATOM      4  O   UNL A   1      41.370  25.620  25.226  1.00  0.00    -0.269 OA
ATOM      5  C   UNL A   1      40.574  25.384  26.130  1.00  0.00     0.251 C 
ATOM      6  H   UNL A   1      39.672  23.900  25.127  1.00  0.00     0.163 HD
BRANCH   5   7
ATOM      7  C   UNL A   1      40.625  26.159  27.390  1.00  0.00     0.039 A 
ATOM      8  C   UNL A   1      39.784  25.833  28.455  1.00  0.00     0.014 A 
ATOM      9  C   UNL A   1      41.488  27.253  27.491  1.00  0.00     0.014 A 
ATOM     10  C   UNL A   1      39.654  26.714  29.521  1.00  0.00     0.010 A 
ATOM     11  C   UNL A   1      41.435  28.078  28.620  1.00  0.00     0.010 A 
ATOM     12  C   UNL A   1      40.477  27.849  29.620  1.00  0.00    -0.014 A 
BRANCH  12  13
ATOM     13  C   UNL A   1      40.318  28.756  30.788  1.00  0.00     0.031 A 
ATOM     14  C   UNL A   1      41.235  28.665  31.982  1.00  0.00     0.074 A 
ATOM     15  C   UNL A   1      39.367  29.712  30.742  1.00  0.00     0.049 A 
ATOM     16  N   UNL A   1      41.265  29.415  33.055  1.00  0.00    -0.248 NA
ATOM     17  C   UNL A   1      42.240  27.591  31.979  1.00  0.00     0.031 C 
ATOM     18  C   UNL A   1      38.411  29.893  29.646  1.00  0.00     0.029 A 
ATOM     19  N   UNL A   1      39.063  30.724  31.616  1.00  0.00    -0.354 N 
ATOM     20  C   UNL A   1      42.268  28.892  33.865  1.00  0.00     0.074 A 
ATOM     21  C   UNL A   1      42.807  27.742  33.169  1.00  0.00     0.031 C 
ATOM     22  C   UNL A   1      37.672  30.987  29.881  1.00  0.00     0.029 A 
ATOM     23  C   UNL A   1      38.053  31.545  31.173  1.00  0.00     0.049 A 
ATOM     24  H   UNL A   1      39.524  30.852  32.475  1.00  0.00     0.167 HD
ATOM     25  C   UNL A   1      42.705  29.333  35.070  1.00  0.00     0.037 A 
ATOM     26  C   UNL A   1      37.483  32.622  31.746  1.00  0.00     0.037 A 
ATOM     27  C   UNL A   1      42.180  30.495  35.743  1.00  0.00     0.049 A 
ATOM     28  C   UNL A   1      37.983  33.086  33.083  1.00  0.00     0.074 A 
ATOM     29  C   UNL A   1      42.585  31.048  36.946  1.00  0.00     0.029 A 
ATOM     30  N   UNL A   1      41.138  31.282  35.277  1.00  0.00    -0.354 N 
ATOM     31  N   UNL A   1      38.953  32.595  33.816  1.00  0.00    -0.248 NA
ATOM     32  C   UNL A   1      37.310  34.251  33.673  1.00  0.00     0.031 C 
ATOM     33  C   UNL A   1      41.756  32.138  37.231  1.00  0.00     0.029 A 
ATOM     34  C   UNL A   1      40.870  32.302  36.177  1.00  0.00     0.049 A 
ATOM     35  H   UNL A   1      40.658  31.139  34.429  1.00  0.00     0.167 HD
ATOM     36  C   UNL A   1      39.025  33.407  34.942  1.00  0.00     0.074 A 
ATOM     37  C   UNL A   1      38.009  34.428  34.785  1.00  0.00     0.031 C 
ATOM     38  C   UNL A   1      39.860  33.316  36.007  1.00  0.00     0.037 A 
BRANCH  25  39
ATOM     39  C   UNL A   1      43.789  28.545  35.759  1.00  0.00     0.058 A 
ATOM     40  C   UNL A   1      45.152  28.829  35.570  1.00  0.00     0.135 A 
ATOM     41  C   UNL A   1      43.457  27.518  36.659  1.00  0.00     0.135 A 
ATOM     42  F   UNL A   1      45.530  29.791  34.714  1.00  0.00    -0.206 F 
ATOM     43  C   UNL A   1      46.145  28.104  36.225  1.00  0.00     0.059 A 
ATOM     44  C   UNL A   1      44.433  26.799  37.346  1.00  0.00     0.059 A 
ATOM     45  F   UNL A   1      42.171  27.205  36.882  1.00  0.00    -0.206 F 
ATOM     46  C   UNL A   1      45.775  27.089  37.110  1.00  0.00     0.060 A 
BRANCH  46  47
ATOM     47  S   UNL A   1      47.075  26.157  37.947  1.00  0.00     0.124 S 
ATOM     48  O   UNL A   1      48.111  27.175  38.099  1.00  0.00    -0.237 OA
ATOM     49  O   UNL A   1      46.415  25.738  39.180  1.00  0.00    -0.237 OA
ATOM     50  O   UNL A   1      47.383  25.083  37.009  1.00  0.00    -0.744 OA
ENDBRANCH  46  47
ENDBRANCH  25  39
BRANCH  26  51
ATOM     51  C   UNL A   1      36.382  33.335  31.046  1.00  0.00     0.058 A 
ATOM     52  C   UNL A   1      35.062  33.262  31.512  1.00  0.00     0.135 A 
ATOM     53  C   UNL A   1      36.633  34.123  29.910  1.00  0.00     0.135 A 
ATOM     54  F   UNL A   1      34.771  32.520  32.592  1.00  0.00    -0.206 F 
ATOM     55  C   UNL A   1      34.025  33.932  30.870  1.00  0.00     0.059 A 
ATOM     56  C   UNL A   1      35.619  34.826  29.270  1.00  0.00     0.059 A 
ATOM     57  F   UNL A   1      37.883  34.241  29.436  1.00  0.00    -0.206 F 
ATOM     58  C   UNL A   1      34.316  34.715  29.751  1.00  0.00     0.060 A 
BRANCH  58  59
ATOM     59  S   UNL A   1      32.972  35.618  28.952  1.00  0.00     0.124 S 
ATOM     60  O   UNL A   1      32.357  34.572  28.143  1.00  0.00    -0.237 OA
ATOM     61  O   UNL A   1      32.194  36.084  30.095  1.00  0.00    -0.237 OA
ATOM     62  O   UNL A   1      33.667  36.664  28.209  1.00  0.00    -0.744 OA
ENDBRANCH  58  59
ENDBRANCH  26  51
BRANCH  38  63
ATOM     63  C   UNL A   1      39.736  34.377  37.066  1.00  0.00     0.058 A 
ATOM     64  C   UNL A   1      38.974  34.182  38.229  1.00  0.00     0.135 A 
ATOM     65  C   UNL A   1      40.411  35.600  36.923  1.00  0.00     0.135 A 
ATOM     66  F   UNL A   1      38.303  33.032  38.412  1.00  0.00    -0.206 F 
ATOM     67  C   UNL A   1      38.853  35.176  39.194  1.00  0.00     0.059 A 
ATOM     68  C   UNL A   1      40.329  36.597  37.890  1.00  0.00     0.059 A 
ATOM     69  F   UNL A   1      41.163  35.835  35.836  1.00  0.00    -0.206 F 
ATOM     70  C   UNL A   1      39.533  36.382  39.014  1.00  0.00     0.060 A 
BRANCH  70  71
ATOM     71  S   UNL A   1      39.380  37.662  40.278  1.00  0.00     0.124 S 
ATOM     72  O   UNL A   1      40.731  38.212  40.304  1.00  0.00    -0.237 OA
ATOM     73  O   UNL A   1      38.352  38.533  39.719  1.00  0.00    -0.237 OA
ATOM     74  O   UNL A   1      38.982  36.916  41.468  1.00  0.00    -0.744 OA
ENDBRANCH  70  71
ENDBRANCH  38  63
ENDBRANCH  12  13
ENDBRANCH   5   7
ENDBRANCH   2   3
ENDBRANCH   1   2
BRANCH   1  75
ATOM     75  C   UNL A   1      37.374  22.914  24.813  1.00  0.00     0.023 C 
BRANCH  75  76
ATOM     76  C   UNL A   1      36.102  22.249  24.296  1.00  0.00     0.116 C 
BRANCH  76  77
ATOM     77  N   UNL A   1      35.453  22.998  23.232  1.00  0.00    -0.352 N 
ATOM     78  C   UNL A   1      34.178  23.504  23.193  1.00  0.00     0.253 C 
ATOM     79  H   UNL A   1      36.000  23.164  22.432  1.00  0.00     0.163 HD
ATOM     80  O   UNL A   1      33.774  24.138  22.224  1.00  0.00    -0.269 OA
BRANCH  78  81
ATOM     81  C   UNL A   1      33.293  23.309  24.351  1.00  0.00     0.067 A 
ATOM     82  C   UNL A   1      32.537  22.130  24.418  1.00  0.00     0.017 A 
ATOM     83  C   UNL A   1      33.208  24.238  25.390  1.00  0.00     0.107 A 
ATOM     84  C   UNL A   1      31.671  21.928  25.483  1.00  0.00     0.021 A 
ATOM     85  N   UNL A   1      32.381  24.016  26.457  1.00  0.00    -0.254 NA
ATOM     86  C   UNL A   1      31.628  22.892  26.469  1.00  0.00     0.111 A 
BRANCH  83  87
ATOM     87  C   UNL A   1      34.015  25.533  25.421  1.00  0.00     0.321 C 
BRANCH  87  88
ATOM     88  N   UNL A   1      33.293  26.812  25.238  1.00  0.00    -0.322 N 
ATOM     89  C   UNL A   1      32.244  26.789  24.224  1.00  0.00     0.263 C 
ATOM     90  C   UNL A   1      34.175  27.963  24.972  1.00  0.00     0.234 C 
ATOM     91  H   UNL A   1      32.848  26.930  26.148  1.00  0.00     0.349 HD
ATOM     92  C   UNL A   1      32.803  27.496  23.005  1.00  0.00     0.068 C 
ATOM     93  C   UNL A   1      33.912  28.395  23.524  1.00  0.00     0.078 C 
BRANCH  90  94
ATOM     94  C   UNL A   1      33.974  29.117  25.954  1.00  0.00     0.098 A 
ATOM     95  C   UNL A   1      34.959  29.477  26.877  1.00  0.00     0.030 A 
ATOM     96  N   UNL A   1      32.769  29.747  25.915  1.00  0.00    -0.255 NA
ATOM     97  C   UNL A   1      34.708  30.509  27.777  1.00  0.00     0.004 A 
ATOM     98  C   UNL A   1      32.560  30.756  26.790  1.00  0.00     0.111 A 
ATOM     99  C   UNL A   1      33.487  31.166  27.733  1.00  0.00     0.020 A 
ENDBRANCH  90  94
ENDBRANCH  87  88
ENDBRANCH  83  87
ENDBRANCH  78  81
ENDBRANCH  76  77
ENDBRANCH  75  76
ENDBRANCH   1  75
TORSDOF 17
ENDMDL
MODEL 2
REMARK VINA RESULT:     -11.9      6.828     12.010
REMARK SMILES O=C(NCCCCNC(=O)c1cccnc1C[N@@H+]1CCC[C@H]1c1ccccn1)c1ccc(-c2c3nc(c(-c4c(F)cc(S(=O)(=O)[O-])cc4F)c4ccc([nH]4)c(-c4c(F)cc(S(=O)(=O)[O-])cc4F)c4nc(c(-c5c(F)cc(S(=O)(=O)[O-])cc5F)c5ccc2[nH]5)C=C4)C=C3)cc1
REMARK SMILES IDX 5 1 4 2 3 3 1 4 2 5 29 7 30 8 94 9 31 10 93 11 32 12 33 13
REMARK SMILES IDX 34 14 87 15 35 16 92 17 86 18 88 19 36 20 91 21 85 22 84 23
REMARK SMILES IDX 37 25 71 26 50 27 70 28 51 29 54 30 69 31 89 32 52 33 53 34
REMARK SMILES IDX 68 36 90 37 55 38 38 39 39 40 48 41 40 42 41 43 47 44 49 45
REMARK SMILES IDX 42 46 43 47 44 48 45 49 46 50 72 51 73 52 82 53 74 54 75 55
REMARK SMILES IDX 81 56 83 57 76 58 77 59 78 60 79 61 80 62 56 63 57 64 66 65
REMARK SMILES IDX 58 66 59 67 65 68 67 69 60 70 61 71 62 72 63 73 64 74 6 75
REMARK SMILES IDX 7 76 8 77 9 78 10 80 11 81 12 82 16 83 13 84 15 85 14 86
REMARK SMILES IDX 17 87 18 88 19 89 22 90 20 92 21 93 23 94 24 95 28 96 25 97
REMARK SMILES IDX 27 98 26 99
REMARK H PARENT 3 6 88 24 54 35 8 79 18 91
REMARK Flexibility Score: inf
ROOT
ATOM      1  C   UNL A   1      34.294  31.498  27.632  1.00  0.00     0.023 C 
ENDROOT
BRANCH   1   2
ATOM      2  C   UNL A   1      35.641  31.265  28.302  1.00  0.00     0.116 C 
BRANCH   2   3
ATOM      3  N   UNL A   1      35.531  30.770  29.669  1.00  0.00    -0.352 N 
ATOM      4  O   UNL A   1      36.169  29.716  31.559  1.00  0.00    -0.269 OA
ATOM      5  C   UNL A   1      36.484  30.174  30.465  1.00  0.00     0.251 C 
ATOM      6  H   UNL A   1      34.644  30.878  30.084  1.00  0.00     0.163 HD
BRANCH   5   7
ATOM      7  C   UNL A   1      37.875  30.052  29.977  1.00  0.00     0.039 A 
ATOM      8  C   UNL A   1      38.139  29.960  28.610  1.00  0.00     0.014 A 
ATOM      9  C   UNL A   1      38.923  29.981  30.898  1.00  0.00     0.014 A 
ATOM     10  C   UNL A   1      39.406  29.587  28.180  1.00  0.00     0.010 A 
ATOM     11  C   UNL A   1      40.224  29.716  30.452  1.00  0.00     0.010 A 
ATOM     12  C   UNL A   1      40.467  29.460  29.093  1.00  0.00    -0.014 A 
BRANCH  12  13
ATOM     13  C   UNL A   1      41.813  29.078  28.588  1.00  0.00     0.031 A 
ATOM     14  C   UNL A   1      42.951  30.068  28.564  1.00  0.00     0.074 A 
ATOM     15  C   UNL A   1      42.022  27.803  28.200  1.00  0.00     0.049 A 
ATOM     16  N   UNL A   1      44.197  29.879  28.206  1.00  0.00    -0.248 NA
ATOM     17  C   UNL A   1      42.655  31.446  28.983  1.00  0.00     0.031 C 
ATOM     18  C   UNL A   1      40.997  26.756  28.168  1.00  0.00     0.029 A 
ATOM     19  N   UNL A   1      43.162  27.161  27.789  1.00  0.00    -0.354 N 
ATOM     20  C   UNL A   1      44.825  31.115  28.330  1.00  0.00     0.074 A 
ATOM     21  C   UNL A   1      43.815  32.053  28.773  1.00  0.00     0.031 C 
ATOM     22  C   UNL A   1      41.565  25.592  27.822  1.00  0.00     0.029 A 
ATOM     23  C   UNL A   1      42.978  25.821  27.542  1.00  0.00     0.049 A 
ATOM     24  H   UNL A   1      44.028  27.615  27.682  1.00  0.00     0.167 HD
ATOM     25  C   UNL A   1      46.123  31.434  28.105  1.00  0.00     0.037 A 
ATOM     26  C   UNL A   1      43.843  24.879  27.124  1.00  0.00     0.037 A 
ATOM     27  C   UNL A   1      47.128  30.487  27.690  1.00  0.00     0.049 A 
ATOM     28  C   UNL A   1      45.274  25.262  26.876  1.00  0.00     0.074 A 
ATOM     29  C   UNL A   1      48.479  30.705  27.477  1.00  0.00     0.029 A 
ATOM     30  N   UNL A   1      46.896  29.146  27.422  1.00  0.00    -0.354 N 
ATOM     31  N   UNL A   1      45.853  26.428  27.031  1.00  0.00    -0.248 NA
ATOM     32  C   UNL A   1      46.169  24.200  26.399  1.00  0.00     0.031 C 
ATOM     33  C   UNL A   1      49.053  29.508  27.033  1.00  0.00     0.029 A 
ATOM     34  C   UNL A   1      48.072  28.529  27.024  1.00  0.00     0.049 A 
ATOM     35  H   UNL A   1      46.023  28.698  27.502  1.00  0.00     0.167 HD
ATOM     36  C   UNL A   1      47.188  26.235  26.694  1.00  0.00     0.074 A 
ATOM     37  C   UNL A   1      47.330  24.837  26.342  1.00  0.00     0.031 C 
ATOM     38  C   UNL A   1      48.203  27.135  26.681  1.00  0.00     0.037 A 
BRANCH  25  39
ATOM     39  C   UNL A   1      46.535  32.874  28.276  1.00  0.00     0.058 A 
ATOM     40  C   UNL A   1      47.050  33.363  29.488  1.00  0.00     0.135 A 
ATOM     41  C   UNL A   1      46.456  33.768  27.195  1.00  0.00     0.135 A 
ATOM     42  F   UNL A   1      47.139  32.559  30.559  1.00  0.00    -0.206 F 
ATOM     43  C   UNL A   1      47.443  34.692  29.629  1.00  0.00     0.059 A 
ATOM     44  C   UNL A   1      46.868  35.094  27.306  1.00  0.00     0.059 A 
ATOM     45  F   UNL A   1      45.975  33.356  26.011  1.00  0.00    -0.206 F 
ATOM     46  C   UNL A   1      47.345  35.550  28.533  1.00  0.00     0.060 A 
BRANCH  46  47
ATOM     47  S   UNL A   1      47.855  37.271  28.734  1.00  0.00     0.124 S 
ATOM     48  O   UNL A   1      46.738  37.979  28.115  1.00  0.00    -0.237 OA
ATOM     49  O   UNL A   1      47.958  37.399  30.185  1.00  0.00    -0.237 OA
ATOM     50  O   UNL A   1      49.119  37.340  28.010  1.00  0.00    -0.744 OA
ENDBRANCH  46  47
ENDBRANCH  25  39
BRANCH  26  51
ATOM     51  C   UNL A   1      43.374  23.482  26.922  1.00  0.00     0.058 A 
ATOM     52  C   UNL A   1      43.177  22.964  25.634  1.00  0.00     0.135 A 
ATOM     53  C   UNL A   1      43.138  22.631  28.014  1.00  0.00     0.135 A 
ATOM     54  F   UNL A   1      43.387  23.740  24.559  1.00  0.00    -0.206 F 
ATOM     55  C   UNL A   1      42.747  21.656  25.434  1.00  0.00     0.059 A 
ATOM     56  C   UNL A   1      42.737  21.312  27.838  1.00  0.00     0.059 A 
ATOM     57  F   UNL A   1      43.331  23.073  29.267  1.00  0.00    -0.206 F 
ATOM     58  C   UNL A   1      42.533  20.837  26.544  1.00  0.00     0.060 A 
BRANCH  58  59
ATOM     59  S   UNL A   1      42.020  19.127  26.273  1.00  0.00     0.124 S 
ATOM     60  O   UNL A   1      42.224  18.547  27.595  1.00  0.00    -0.237 OA
ATOM     61  O   UNL A   1      40.632  19.287  25.852  1.00  0.00    -0.237 OA
ATOM     62  O   UNL A   1      42.932  18.665  25.232  1.00  0.00    -0.744 OA
ENDBRANCH  58  59
ENDBRANCH  26  51
BRANCH  38  63
ATOM     63  C   UNL A   1      49.568  26.621  26.314  1.00  0.00     0.058 A 
ATOM     64  C   UNL A   1      50.097  26.773  25.022  1.00  0.00     0.135 A 
ATOM     65  C   UNL A   1      50.367  25.986  27.278  1.00  0.00     0.135 A 
ATOM     66  F   UNL A   1      49.371  27.367  24.061  1.00  0.00    -0.206 F 
ATOM     67  C   UNL A   1      51.354  26.280  24.690  1.00  0.00     0.059 A 
ATOM     68  C   UNL A   1      51.639  25.512  26.976  1.00  0.00     0.059 A 
ATOM     69  F   UNL A   1      49.914  25.825  28.532  1.00  0.00    -0.206 F 
ATOM     70  C   UNL A   1      52.117  25.648  25.674  1.00  0.00     0.060 A 
BRANCH  70  71
ATOM     71  S   UNL A   1      53.753  25.021  25.234  1.00  0.00     0.124 S 
ATOM     72  O   UNL A   1      54.544  25.433  26.389  1.00  0.00    -0.237 OA
ATOM     73  O   UNL A   1      53.515  23.587  25.108  1.00  0.00    -0.237 OA
ATOM     74  O   UNL A   1      54.056  25.713  23.986  1.00  0.00    -0.744 OA
ENDBRANCH  70  71
ENDBRANCH  38  63
ENDBRANCH  12  13
ENDBRANCH   5   7
ENDBRANCH   2   3
ENDBRANCH   1   2
BRANCH   1  75
ATOM     75  C   UNL A   1      33.515  30.238  27.275  1.00  0.00     0.023 C 
BRANCH  75  76
ATOM     76  C   UNL A   1      34.361  29.049  26.832  1.00  0.00     0.116 C 
BRANCH  76  77
ATOM     77  N   UNL A   1      34.399  28.875  25.389  1.00  0.00    -0.352 N 
ATOM     78  C   UNL A   1      33.954  27.815  24.640  1.00  0.00     0.253 C 
ATOM     79  H   UNL A   1      34.798  29.617  24.880  1.00  0.00     0.163 HD
ATOM     80  O   UNL A   1      34.037  27.820  23.417  1.00  0.00    -0.269 OA
BRANCH  78  81
ATOM     81  C   UNL A   1      33.337  26.666  25.319  1.00  0.00     0.067 A 
ATOM     82  C   UNL A   1      34.128  25.534  25.562  1.00  0.00     0.017 A 
ATOM     83  C   UNL A   1      32.009  26.681  25.752  1.00  0.00     0.107 A 
ATOM     84  C   UNL A   1      33.568  24.422  26.175  1.00  0.00     0.021 A 
ATOM     85  N   UNL A   1      31.472  25.596  26.391  1.00  0.00    -0.254 NA
ATOM     86  C   UNL A   1      32.247  24.501  26.568  1.00  0.00     0.111 A 
BRANCH  83  87
ATOM     87  C   UNL A   1      31.081  27.877  25.561  1.00  0.00     0.321 C 
BRANCH  87  88
ATOM     88  N   UNL A   1      30.207  27.901  24.367  1.00  0.00    -0.322 N 
ATOM     89  C   UNL A   1      29.928  26.594  23.780  1.00  0.00     0.263 C 
ATOM     90  C   UNL A   1      30.681  28.800  23.298  1.00  0.00     0.234 C 
ATOM     91  H   UNL A   1      29.337  28.265  24.754  1.00  0.00     0.349 HD
ATOM     92  C   UNL A   1      30.792  26.480  22.540  1.00  0.00     0.068 C 
ATOM     93  C   UNL A   1      31.107  27.907  22.127  1.00  0.00     0.078 C 
BRANCH  90  94
ATOM     94  C   UNL A   1      29.638  29.834  22.874  1.00  0.00     0.098 A 
ATOM     95  C   UNL A   1      29.226  30.856  23.733  1.00  0.00     0.030 A 
ATOM     96  N   UNL A   1      29.099  29.682  21.635  1.00  0.00    -0.255 NA
ATOM     97  C   UNL A   1      28.243  31.748  23.311  1.00  0.00     0.004 A 
ATOM     98  C   UNL A   1      28.157  30.572  21.247  1.00  0.00     0.111 A 
ATOM     99  C   UNL A   1      27.698  31.608  22.042  1.00  0.00     0.020 A 
ENDBRANCH  90  94
ENDBRANCH  87  88
ENDBRANCH  83  87
ENDBRANCH  78  81
ENDBRANCH  76  77
ENDBRANCH  75  76
ENDBRANCH   1  75
TORSDOF 17
ENDMDL
MODEL 3
REMARK VINA RESULT:     -11.7      5.177     10.071
REMARK SMILES O=C(NCCCCNC(=O)c1cccnc1C[N@@H+]1CCC[C@H]1c1ccccn1)c1ccc(-c2c3nc(c(-c4c(F)cc(S(=O)(=O)[O-])cc4F)c4ccc([nH]4)c(-c4c(F)cc(S(=O)(=O)[O-])cc4F)c4nc(c(-c5c(F)cc(S(=O)(=O)[O-])cc5F)c5ccc2[nH]5)C=C4)C=C3)cc1
REMARK SMILES IDX 5 1 4 2 3 3 1 4 2 5 29 7 30 8 94 9 31 10 93 11 32 12 33 13
REMARK SMILES IDX 34 14 87 15 35 16 92 17 86 18 88 19 36 20 91 21 85 22 84 23
REMARK SMILES IDX 37 25 71 26 50 27 70 28 51 29 54 30 69 31 89 32 52 33 53 34
REMARK SMILES IDX 68 36 90 37 55 38 38 39 39 40 48 41 40 42 41 43 47 44 49 45
REMARK SMILES IDX 42 46 43 47 44 48 45 49 46 50 72 51 73 52 82 53 74 54 75 55
REMARK SMILES IDX 81 56 83 57 76 58 77 59 78 60 79 61 80 62 56 63 57 64 66 65
REMARK SMILES IDX 58 66 59 67 65 68 67 69 60 70 61 71 62 72 63 73 64 74 6 75
REMARK SMILES IDX 7 76 8 77 9 78 10 80 11 81 12 82 16 83 13 84 15 85 14 86
REMARK SMILES IDX 17 87 18 88 19 89 22 90 20 92 21 93 23 94 24 95 28 96 25 97
REMARK SMILES IDX 27 98 26 99
REMARK H PARENT 3 6 88 24 54 35 8 79 18 91
REMARK Flexibility Score: inf
ROOT
ATOM      1  C   UNL A   1      33.082  28.611  25.627  1.00  0.00     0.023 C 
ENDROOT
BRANCH   1   2
ATOM      2  C   UNL A   1      33.895  28.659  26.914  1.00  0.00     0.116 C 
BRANCH   2   3
ATOM      3  N   UNL A   1      33.772  29.922  27.631  1.00  0.00    -0.352 N 
ATOM      4  O   UNL A   1      34.368  31.588  29.030  1.00  0.00    -0.269 OA
ATOM      5  C   UNL A   1      34.697  30.583  28.408  1.00  0.00     0.251 C 
ATOM      6  H   UNL A   1      32.898  30.369  27.546  1.00  0.00     0.163 HD
BRANCH   5   7
ATOM      7  C   UNL A   1      36.073  30.050  28.523  1.00  0.00     0.039 A 
ATOM      8  C   UNL A   1      36.531  29.530  29.733  1.00  0.00     0.014 A 
ATOM      9  C   UNL A   1      36.929  30.115  27.420  1.00  0.00     0.014 A 
ATOM     10  C   UNL A   1      37.887  29.277  29.902  1.00  0.00     0.010 A 
ATOM     11  C   UNL A   1      38.273  29.751  27.563  1.00  0.00     0.010 A 
ATOM     12  C   UNL A   1      38.778  29.384  28.820  1.00  0.00    -0.014 A 
BRANCH  12  13
ATOM     13  C   UNL A   1      40.218  29.085  29.039  1.00  0.00     0.031 A 
ATOM     14  C   UNL A   1      40.814  27.759  28.637  1.00  0.00     0.074 A 
ATOM     15  C   UNL A   1      41.008  30.048  29.557  1.00  0.00     0.049 A 
ATOM     16  N   UNL A   1      42.060  27.361  28.709  1.00  0.00    -0.248 NA
ATOM     17  C   UNL A   1      39.897  26.745  28.095  1.00  0.00     0.031 C 
ATOM     18  C   UNL A   1      40.547  31.368  29.996  1.00  0.00     0.029 A 
ATOM     19  N   UNL A   1      42.361  30.082  29.776  1.00  0.00    -0.354 N 
ATOM     20  C   UNL A   1      42.073  26.048  28.249  1.00  0.00     0.074 A 
ATOM     21  C   UNL A   1      40.705  25.707  27.923  1.00  0.00     0.031 C 
ATOM     22  C   UNL A   1      41.603  32.104  30.369  1.00  0.00     0.029 A 
ATOM     23  C   UNL A   1      42.807  31.289  30.263  1.00  0.00     0.049 A 
ATOM     24  H   UNL A   1      42.957  29.319  29.600  1.00  0.00     0.167 HD
ATOM     25  C   UNL A   1      43.128  25.210  28.103  1.00  0.00     0.037 A 
ATOM     26  C   UNL A   1      44.046  31.695  30.600  1.00  0.00     0.037 A 
ATOM     27  C   UNL A   1      44.493  25.567  28.405  1.00  0.00     0.049 A 
ATOM     28  C   UNL A   1      45.195  30.744  30.434  1.00  0.00     0.074 A 
ATOM     29  C   UNL A   1      45.637  24.803  28.251  1.00  0.00     0.029 A 
ATOM     30  N   UNL A   1      44.899  26.788  28.924  1.00  0.00    -0.354 N 
ATOM     31  N   UNL A   1      45.190  29.518  29.967  1.00  0.00    -0.248 NA
ATOM     32  C   UNL A   1      46.520  31.231  30.840  1.00  0.00     0.031 C 
ATOM     33  C   UNL A   1      46.727  25.542  28.722  1.00  0.00     0.029 A 
ATOM     34  C   UNL A   1      46.272  26.790  29.117  1.00  0.00     0.049 A 
ATOM     35  H   UNL A   1      44.300  27.543  29.126  1.00  0.00     0.167 HD
ATOM     36  C   UNL A   1      46.514  29.096  29.999  1.00  0.00     0.074 A 
ATOM     37  C   UNL A   1      47.292  30.203  30.518  1.00  0.00     0.031 C 
ATOM     38  C   UNL A   1      47.036  27.900  29.629  1.00  0.00     0.037 A 
BRANCH  25  39
ATOM     39  C   UNL A   1      42.855  23.809  27.619  1.00  0.00     0.058 A 
ATOM     40  C   UNL A   1      42.600  22.750  28.506  1.00  0.00     0.135 A 
ATOM     41  C   UNL A   1      42.802  23.532  26.243  1.00  0.00     0.135 A 
ATOM     42  F   UNL A   1      42.649  22.951  29.832  1.00  0.00    -0.206 F 
ATOM     43  C   UNL A   1      42.333  21.462  28.046  1.00  0.00     0.059 A 
ATOM     44  C   UNL A   1      42.510  22.258  25.760  1.00  0.00     0.059 A 
ATOM     45  F   UNL A   1      43.033  24.506  25.348  1.00  0.00    -0.206 F 
ATOM     46  C   UNL A   1      42.292  21.226  26.671  1.00  0.00     0.060 A 
BRANCH  46  47
ATOM     47  S   UNL A   1      41.948  19.551  26.092  1.00  0.00     0.124 S 
ATOM     48  O   UNL A   1      40.515  19.626  25.821  1.00  0.00    -0.237 OA
ATOM     49  O   UNL A   1      42.808  19.443  24.918  1.00  0.00    -0.237 OA
ATOM     50  O   UNL A   1      42.330  18.714  27.224  1.00  0.00    -0.744 OA
ENDBRANCH  46  47
ENDBRANCH  25  39
BRANCH  26  51
ATOM     51  C   UNL A   1      44.255  33.072  31.121  1.00  0.00     0.058 A 
ATOM     52  C   UNL A   1      44.251  33.333  32.499  1.00  0.00     0.135 A 
ATOM     53  C   UNL A   1      44.487  34.150  30.251  1.00  0.00     0.135 A 
ATOM     54  F   UNL A   1      44.031  32.336  33.370  1.00  0.00    -0.206 F 
ATOM     55  C   UNL A   1      44.454  34.615  32.998  1.00  0.00     0.059 A 
ATOM     56  C   UNL A   1      44.723  35.434  30.727  1.00  0.00     0.059 A 
ATOM     57  F   UNL A   1      44.520  33.949  28.924  1.00  0.00    -0.206 F 
ATOM     58  C   UNL A   1      44.693  35.659  32.102  1.00  0.00     0.060 A 
BRANCH  58  59
ATOM     59  S   UNL A   1      45.002  37.313  32.760  1.00  0.00     0.124 S 
ATOM     60  O   UNL A   1      46.116  37.755  31.929  1.00  0.00    -0.237 OA
ATOM     61  O   UNL A   1      43.725  37.979  32.526  1.00  0.00    -0.237 OA
ATOM     62  O   UNL A   1      45.320  37.060  34.161  1.00  0.00    -0.744 OA
ENDBRANCH  58  59
ENDBRANCH  26  51
BRANCH  38  63
ATOM     63  C   UNL A   1      48.529  27.744  29.731  1.00  0.00     0.058 A 
ATOM     64  C   UNL A   1      49.386  28.091  28.675  1.00  0.00     0.135 A 
ATOM     65  C   UNL A   1      49.110  27.260  30.914  1.00  0.00     0.135 A 
ATOM     66  F   UNL A   1      48.881  28.552  27.519  1.00  0.00    -0.206 F 
ATOM     67  C   UNL A   1      50.764  27.928  28.774  1.00  0.00     0.059 A 
ATOM     68  C   UNL A   1      50.488  27.117  31.046  1.00  0.00     0.059 A 
ATOM     69  F   UNL A   1      48.338  26.925  31.959  1.00  0.00    -0.206 F 
ATOM     70  C   UNL A   1      51.305  27.437  29.963  1.00  0.00     0.060 A 
BRANCH  70  71
ATOM     71  S   UNL A   1      53.096  27.240  30.085  1.00  0.00     0.124 S 
ATOM     72  O   UNL A   1      53.317  26.056  29.261  1.00  0.00    -0.237 OA
ATOM     73  O   UNL A   1      53.588  28.498  29.532  1.00  0.00    -0.237 OA
ATOM     74  O   UNL A   1      53.320  27.061  31.516  1.00  0.00    -0.744 OA
ENDBRANCH  70  71
ENDBRANCH  38  63
ENDBRANCH  12  13
ENDBRANCH   5   7
ENDBRANCH   2   3
ENDBRANCH   1   2
BRANCH   1  75
ATOM     75  C   UNL A   1      33.878  28.817  24.343  1.00  0.00     0.023 C 
BRANCH  75  76
ATOM     76  C   UNL A   1      33.062  28.785  23.056  1.00  0.00     0.116 C 
BRANCH  76  77
ATOM     77  N   UNL A   1      33.488  27.748  22.129  1.00  0.00    -0.352 N 
ATOM     78  C   UNL A   1      33.180  26.411  22.138  1.00  0.00     0.253 C 
ATOM     79  H   UNL A   1      34.076  28.044  21.399  1.00  0.00     0.163 HD
ATOM     80  O   UNL A   1      33.602  25.655  21.270  1.00  0.00    -0.269 OA
BRANCH  78  81
ATOM     81  C   UNL A   1      32.299  25.884  23.191  1.00  0.00     0.067 A 
ATOM     82  C   UNL A   1      30.914  25.916  22.975  1.00  0.00     0.017 A 
ATOM     83  C   UNL A   1      32.796  25.333  24.373  1.00  0.00     0.107 A 
ATOM     84  C   UNL A   1      30.054  25.453  23.960  1.00  0.00     0.021 A 
ATOM     85  N   UNL A   1      31.945  24.842  25.326  1.00  0.00    -0.254 NA
ATOM     86  C   UNL A   1      30.613  24.930  25.109  1.00  0.00     0.111 A 
BRANCH  83  87
ATOM     87  C   UNL A   1      34.287  25.228  24.683  1.00  0.00     0.321 C 
BRANCH  87  88
ATOM     88  N   UNL A   1      34.836  23.900  25.036  1.00  0.00    -0.322 N 
ATOM     89  C   UNL A   1      36.125  23.927  25.719  1.00  0.00     0.263 C 
ATOM     90  C   UNL A   1      34.932  22.971  23.895  1.00  0.00     0.234 C 
ATOM     91  H   UNL A   1      34.138  23.555  25.695  1.00  0.00     0.349 HD
ATOM     92  C   UNL A   1      37.170  23.541  24.692  1.00  0.00     0.068 C 
ATOM     93  C   UNL A   1      36.426  22.759  23.623  1.00  0.00     0.078 C 
BRANCH  90  94
ATOM     94  C   UNL A   1      34.205  21.648  24.131  1.00  0.00     0.098 A 
ATOM     95  C   UNL A   1      32.839  21.504  23.874  1.00  0.00     0.030 A 
ATOM     96  N   UNL A   1      34.944  20.631  24.647  1.00  0.00    -0.255 NA
ATOM     97  C   UNL A   1      32.217  20.289  24.147  1.00  0.00     0.004 A 
ATOM     98  C   UNL A   1      34.316  19.457  24.886  1.00  0.00     0.111 A 
ATOM     99  C   UNL A   1      32.968  19.241  24.659  1.00  0.00     0.020 A 
ENDBRANCH  90  94
ENDBRANCH  87  88
ENDBRANCH  83  87
ENDBRANCH  78  81
ENDBRANCH  76  77
ENDBRANCH  75  76
ENDBRANCH   1  75
TORSDOF 17
ENDMDL
