MODEL 1
REMARK VINA RESULT:     -13.1      0.000      0.000
REMARK SMILES CCCC1CN(c2cc(C(=O)NCCCCNC(=O)c3ccc(-c4c5nc(c(-c6c(F)cc(S(=O)(=O)[O-])cc6F)c6ccc([nH]6)c(-c6c(F)cc(S(=O)(=O)[O-])cc6F)c6nc(c(-c7c(F)cc(S(=O)(=O)[O-])cc7F)c7ccc4[nH]7)C=C6)C=C5)cc3)ccc2C)C1
REMARK SMILES IDX 14 1 13 2 12 3 10 4 11 5 9 7 7 8 8 9 88 10 87 11 89 12 86 13
REMARK SMILES IDX 6 14 4 15 5 16 90 17 3 18 2 19 1 20 15 21 16 22 17 23 18 24
REMARK SMILES IDX 19 26 20 27 21 28 85 29 22 30 84 31 23 32 24 33 25 34 78 35
REMARK SMILES IDX 26 36 83 37 77 38 79 39 27 40 82 41 76 42 75 43 28 45 62 46
REMARK SMILES IDX 41 47 61 48 42 49 45 50 60 51 80 52 43 53 44 54 59 56 81 57
REMARK SMILES IDX 46 58 29 59 30 60 39 61 31 62 32 63 38 64 40 65 33 66 34 67
REMARK SMILES IDX 35 68 36 69 37 70 63 71 64 72 73 73 65 74 66 75 72 76 74 77
REMARK SMILES IDX 67 78 68 79 69 80 70 81 71 82 47 83 48 84 57 85 49 86 50 87
REMARK SMILES IDX 56 88 58 89 51 90 52 91 53 92 54 93 55 94
REMARK H PARENT 12 6 17 25 79 44 45 55
REMARK Flexibility Score: inf
ROOT
ATOM      1  C   UNL A   1      32.619  29.671  25.286  1.00  0.00     0.023 C 
ENDROOT
BRANCH   1   2
ATOM      2  C   UNL A   1      31.214  29.981  24.764  1.00  0.00     0.116 C 
BRANCH   2   3
ATOM      3  N   UNL A   1      30.905  29.370  23.470  1.00  0.00    -0.352 N 
ATOM      4  C   UNL A   1      30.694  28.067  23.073  1.00  0.00     0.251 C 
ATOM      5  O   UNL A   1      30.527  27.832  21.877  1.00  0.00    -0.269 OA
ATOM      6  H   UNL A   1      30.835  30.020  22.735  1.00  0.00     0.163 HD
BRANCH   4   7
ATOM      7  C   UNL A   1      30.722  26.931  24.026  1.00  0.00     0.041 A 
ATOM      8  C   UNL A   1      31.797  24.938  24.908  1.00  0.00     0.040 A 
ATOM      9  C   UNL A   1      31.863  26.160  24.227  1.00  0.00     0.040 A 
ATOM     10  C   UNL A   1      30.618  24.611  25.607  1.00  0.00    -0.028 A 
ATOM     11  C   UNL A   1      29.520  25.486  25.550  1.00  0.00     0.006 A 
ATOM     12  C   UNL A   1      30.517  23.399  26.491  1.00  0.00     0.046 C 
ATOM     13  C   UNL A   1      29.558  26.617  24.733  1.00  0.00     0.014 A 
BRANCH   8  14
ATOM     14  N   UNL A   1      32.842  23.993  24.753  1.00  0.00    -0.371 N 
ATOM     15  C   UNL A   1      34.868  23.656  24.354  1.00  0.00     0.028 C 
ATOM     16  C   UNL A   1      33.612  23.934  23.532  1.00  0.00     0.122 C 
ATOM     17  C   UNL A   1      33.986  23.775  25.601  1.00  0.00     0.122 C 
BRANCH  15  18
ATOM     18  C   UNL A   1      35.720  22.418  24.090  1.00  0.00     0.007 C 
BRANCH  18  19
ATOM     19  C   UNL A   1      37.219  22.545  24.356  1.00  0.00    -0.003 C 
ATOM     20  C   UNL A   1      37.585  23.192  25.681  1.00  0.00     0.004 C 
ENDBRANCH  18  19
ENDBRANCH  15  18
ENDBRANCH   8  14
ENDBRANCH   4   7
ENDBRANCH   2   3
ENDBRANCH   1   2
BRANCH   1  21
ATOM     21  C   UNL A   1      32.965  30.265  26.646  1.00  0.00     0.023 C 
BRANCH  21  22
ATOM     22  C   UNL A   1      34.392  29.994  27.107  1.00  0.00     0.116 C 
BRANCH  22  23
ATOM     23  N   UNL A   1      35.116  31.189  27.517  1.00  0.00    -0.352 N 
ATOM     24  C   UNL A   1      36.334  31.260  28.177  1.00  0.00     0.251 C 
ATOM     25  H   UNL A   1      34.689  32.049  27.300  1.00  0.00     0.163 HD
ATOM     26  O   UNL A   1      36.750  32.296  28.660  1.00  0.00    -0.269 OA
BRANCH  24  27
ATOM     27  C   UNL A   1      37.169  30.039  28.176  1.00  0.00     0.039 A 
ATOM     28  C   UNL A   1      37.206  29.285  29.354  1.00  0.00     0.014 A 
ATOM     29  C   UNL A   1      38.091  29.823  27.156  1.00  0.00     0.014 A 
ATOM     30  C   UNL A   1      38.295  28.453  29.599  1.00  0.00     0.010 A 
ATOM     31  C   UNL A   1      39.216  29.077  27.440  1.00  0.00     0.010 A 
ATOM     32  C   UNL A   1      39.342  28.433  28.682  1.00  0.00    -0.014 A 
BRANCH  32  33
ATOM     33  C   UNL A   1      40.644  27.831  28.946  1.00  0.00     0.031 A 
ATOM     34  C   UNL A   1      40.888  26.417  28.585  1.00  0.00     0.074 A 
ATOM     35  C   UNL A   1      41.656  28.606  29.392  1.00  0.00     0.049 A 
ATOM     36  N   UNL A   1      41.899  25.715  28.969  1.00  0.00    -0.248 NA
ATOM     37  C   UNL A   1      39.939  25.653  27.786  1.00  0.00     0.031 C 
ATOM     38  C   UNL A   1      43.083  28.306  29.347  1.00  0.00     0.029 A 
ATOM     39  N   UNL A   1      41.569  29.762  30.171  1.00  0.00    -0.354 N 
ATOM     40  C   UNL A   1      41.889  24.527  28.268  1.00  0.00     0.074 A 
ATOM     41  C   UNL A   1      40.608  24.512  27.607  1.00  0.00     0.031 C 
ATOM     42  C   UNL A   1      43.720  29.080  30.239  1.00  0.00     0.029 A 
ATOM     43  C   UNL A   1      42.705  29.782  31.004  1.00  0.00     0.049 A 
ATOM     44  H   UNL A   1      40.850  30.435  30.143  1.00  0.00     0.167 HD
ATOM     45  C   UNL A   1      43.026  23.767  28.237  1.00  0.00     0.037 A 
ATOM     46  C   UNL A   1      42.580  29.705  32.362  1.00  0.00     0.037 A 
ATOM     47  C   UNL A   1      44.014  24.288  29.188  1.00  0.00     0.049 A 
ATOM     48  C   UNL A   1      43.211  28.472  32.970  1.00  0.00     0.074 A 
ATOM     49  C   UNL A   1      45.121  25.109  29.043  1.00  0.00     0.029 A 
ATOM     50  N   UNL A   1      43.747  24.230  30.554  1.00  0.00    -0.354 N 
ATOM     51  N   UNL A   1      43.554  27.414  32.288  1.00  0.00    -0.248 NA
ATOM     52  C   UNL A   1      43.502  28.331  34.395  1.00  0.00     0.031 C 
ATOM     53  C   UNL A   1      45.459  25.620  30.322  1.00  0.00     0.029 A 
ATOM     54  C   UNL A   1      44.580  25.086  31.249  1.00  0.00     0.049 A 
ATOM     55  H   UNL A   1      43.059  23.658  30.967  1.00  0.00     0.167 HD
ATOM     56  C   UNL A   1      44.065  26.464  33.133  1.00  0.00     0.074 A 
ATOM     57  C   UNL A   1      44.036  27.096  34.440  1.00  0.00     0.031 C 
ATOM     58  C   UNL A   1      44.462  25.232  32.694  1.00  0.00     0.037 A 
BRANCH  45  59
ATOM     59  C   UNL A   1      43.359  22.747  27.152  1.00  0.00     0.058 A 
ATOM     60  C   UNL A   1      42.654  21.521  27.079  1.00  0.00     0.135 A 
ATOM     61  C   UNL A   1      44.406  22.856  26.214  1.00  0.00     0.135 A 
ATOM     62  F   UNL A   1      41.566  21.292  27.827  1.00  0.00    -0.206 F 
ATOM     63  C   UNL A   1      43.032  20.464  26.242  1.00  0.00     0.059 A 
ATOM     64  C   UNL A   1      44.833  21.800  25.402  1.00  0.00     0.059 A 
ATOM     65  F   UNL A   1      45.033  24.012  25.987  1.00  0.00    -0.206 F 
ATOM     66  C   UNL A   1      44.150  20.597  25.432  1.00  0.00     0.060 A 
BRANCH  66  67
ATOM     67  S   UNL A   1      44.679  19.209  24.412  1.00  0.00     0.124 S 
ATOM     68  O   UNL A   1      44.466  19.723  23.062  1.00  0.00    -0.237 OA
ATOM     69  O   UNL A   1      46.071  19.045  24.817  1.00  0.00    -0.237 OA
ATOM     70  O   UNL A   1      43.781  18.129  24.811  1.00  0.00    -0.744 OA
ENDBRANCH  66  67
ENDBRANCH  45  59
BRANCH  46  71
ATOM     71  C   UNL A   1      41.376  30.416  32.875  1.00  0.00     0.058 A 
ATOM     72  C   UNL A   1      40.245  29.632  33.181  1.00  0.00     0.135 A 
ATOM     73  C   UNL A   1      41.474  31.678  33.480  1.00  0.00     0.135 A 
ATOM     74  F   UNL A   1      40.095  28.421  32.618  1.00  0.00    -0.206 F 
ATOM     75  C   UNL A   1      39.347  30.001  34.174  1.00  0.00     0.059 A 
ATOM     76  C   UNL A   1      40.576  32.073  34.476  1.00  0.00     0.059 A 
ATOM     77  F   UNL A   1      42.523  32.472  33.222  1.00  0.00    -0.206 F 
ATOM     78  C   UNL A   1      39.567  31.191  34.865  1.00  0.00     0.060 A 
BRANCH  78  79
ATOM     79  S   UNL A   1      38.639  31.446  36.398  1.00  0.00     0.124 S 
ATOM     80  O   UNL A   1      38.184  30.093  36.704  1.00  0.00    -0.237 OA
ATOM     81  O   UNL A   1      39.679  31.976  37.281  1.00  0.00    -0.237 OA
ATOM     82  O   UNL A   1      37.600  32.390  36.007  1.00  0.00    -0.744 OA
ENDBRANCH  78  79
ENDBRANCH  46  71
BRANCH  58  83
ATOM     83  C   UNL A   1      44.860  24.077  33.580  1.00  0.00     0.058 A 
ATOM     84  C   UNL A   1      43.966  23.090  34.029  1.00  0.00     0.135 A 
ATOM     85  C   UNL A   1      46.222  23.856  33.893  1.00  0.00     0.135 A 
ATOM     86  F   UNL A   1      42.665  23.130  33.704  1.00  0.00    -0.206 F 
ATOM     87  C   UNL A   1      44.380  21.997  34.793  1.00  0.00     0.059 A 
ATOM     88  C   UNL A   1      46.665  22.745  34.607  1.00  0.00     0.059 A 
ATOM     89  F   UNL A   1      47.176  24.715  33.502  1.00  0.00    -0.206 F 
ATOM     90  C   UNL A   1      45.732  21.832  35.078  1.00  0.00     0.060 A 
BRANCH  90  91
ATOM     91  S   UNL A   1      46.287  20.395  36.014  1.00  0.00     0.124 S 
ATOM     92  O   UNL A   1      45.694  19.303  35.249  1.00  0.00    -0.237 OA
ATOM     93  O   UNL A   1      47.743  20.498  35.939  1.00  0.00    -0.237 OA
ATOM     94  O   UNL A   1      45.720  20.623  37.338  1.00  0.00    -0.744 OA
ENDBRANCH  90  91
ENDBRANCH  58  83
ENDBRANCH  32  33
ENDBRANCH  24  27
ENDBRANCH  22  23
ENDBRANCH  21  22
ENDBRANCH   1  21
TORSDOF 17
ENDMDL
MODEL 2
REMARK VINA RESULT:     -12.6      1.454      2.119
REMARK SMILES CCCC1CN(c2cc(C(=O)NCCCCNC(=O)c3ccc(-c4c5nc(c(-c6c(F)cc(S(=O)(=O)[O-])cc6F)c6ccc([nH]6)c(-c6c(F)cc(S(=O)(=O)[O-])cc6F)c6nc(c(-c7c(F)cc(S(=O)(=O)[O-])cc7F)c7ccc4[nH]7)C=C6)C=C5)cc3)ccc2C)C1
REMARK SMILES IDX 14 1 13 2 12 3 10 4 11 5 9 7 7 8 8 9 88 10 87 11 89 12 86 13
REMARK SMILES IDX 6 14 4 15 5 16 90 17 3 18 2 19 1 20 15 21 16 22 17 23 18 24
REMARK SMILES IDX 19 26 20 27 21 28 85 29 22 30 84 31 23 32 24 33 25 34 78 35
REMARK SMILES IDX 26 36 83 37 77 38 79 39 27 40 82 41 76 42 75 43 28 45 62 46
REMARK SMILES IDX 41 47 61 48 42 49 45 50 60 51 80 52 43 53 44 54 59 56 81 57
REMARK SMILES IDX 46 58 29 59 30 60 39 61 31 62 32 63 38 64 40 65 33 66 34 67
REMARK SMILES IDX 35 68 36 69 37 70 63 71 64 72 73 73 65 74 66 75 72 76 74 77
REMARK SMILES IDX 67 78 68 79 69 80 70 81 71 82 47 83 48 84 57 85 49 86 50 87
REMARK SMILES IDX 56 88 58 89 51 90 52 91 53 92 54 93 55 94
REMARK H PARENT 12 6 17 25 79 44 45 55
REMARK Flexibility Score: inf
ROOT
ATOM      1  C   UNL A   1      32.634  29.463  25.382  1.00  0.00     0.023 C 
ENDROOT
BRANCH   1   2
ATOM      2  C   UNL A   1      32.088  28.213  24.688  1.00  0.00     0.116 C 
BRANCH   2   3
ATOM      3  N   UNL A   1      31.264  27.360  25.546  1.00  0.00    -0.352 N 
ATOM      4  C   UNL A   1      31.404  26.065  25.994  1.00  0.00     0.251 C 
ATOM      5  O   UNL A   1      30.494  25.566  26.655  1.00  0.00    -0.269 OA
ATOM      6  H   UNL A   1      30.444  27.800  25.867  1.00  0.00     0.163 HD
BRANCH   4   7
ATOM      7  C   UNL A   1      32.582  25.229  25.656  1.00  0.00     0.041 A 
ATOM      8  C   UNL A   1      33.598  23.048  25.312  1.00  0.00     0.040 A 
ATOM      9  C   UNL A   1      32.468  23.875  25.354  1.00  0.00     0.040 A 
ATOM     10  C   UNL A   1      34.876  23.640  25.330  1.00  0.00    -0.028 A 
ATOM     11  C   UNL A   1      34.985  25.036  25.455  1.00  0.00     0.006 A 
ATOM     12  C   UNL A   1      36.136  22.844  25.131  1.00  0.00     0.046 C 
ATOM     13  C   UNL A   1      33.848  25.820  25.657  1.00  0.00     0.014 A 
BRANCH   8  14
ATOM     14  N   UNL A   1      33.441  21.643  25.411  1.00  0.00    -0.371 N 
ATOM     15  C   UNL A   1      33.009  19.846  24.432  1.00  0.00     0.028 C 
ATOM     16  C   UNL A   1      32.206  21.006  25.013  1.00  0.00     0.122 C 
ATOM     17  C   UNL A   1      34.270  20.607  24.851  1.00  0.00     0.122 C 
BRANCH  15  18
ATOM     18  C   UNL A   1      32.752  18.410  24.883  1.00  0.00     0.007 C 
BRANCH  18  19
ATOM     19  C   UNL A   1      32.756  17.337  23.796  1.00  0.00    -0.003 C 
ATOM     20  C   UNL A   1      32.555  17.852  22.381  1.00  0.00     0.004 C 
ENDBRANCH  18  19
ENDBRANCH  15  18
ENDBRANCH   8  14
ENDBRANCH   4   7
ENDBRANCH   2   3
ENDBRANCH   1   2
BRANCH   1  21
ATOM     21  C   UNL A   1      34.042  29.342  25.951  1.00  0.00     0.023 C 
BRANCH  21  22
ATOM     22  C   UNL A   1      34.177  29.797  27.400  1.00  0.00     0.116 C 
BRANCH  22  23
ATOM     23  N   UNL A   1      34.936  31.029  27.562  1.00  0.00    -0.352 N 
ATOM     24  C   UNL A   1      36.225  31.175  28.055  1.00  0.00     0.251 C 
ATOM     25  H   UNL A   1      34.480  31.858  27.289  1.00  0.00     0.163 HD
ATOM     26  O   UNL A   1      36.688  32.261  28.347  1.00  0.00    -0.269 OA
BRANCH  24  27
ATOM     27  C   UNL A   1      37.063  29.957  28.110  1.00  0.00     0.039 A 
ATOM     28  C   UNL A   1      37.156  29.297  29.340  1.00  0.00     0.014 A 
ATOM     29  C   UNL A   1      37.938  29.663  27.069  1.00  0.00     0.014 A 
ATOM     30  C   UNL A   1      38.258  28.486  29.599  1.00  0.00     0.010 A 
ATOM     31  C   UNL A   1      39.077  28.940  27.358  1.00  0.00     0.010 A 
ATOM     32  C   UNL A   1      39.263  28.395  28.638  1.00  0.00    -0.014 A 
BRANCH  32  33
ATOM     33  C   UNL A   1      40.577  27.814  28.889  1.00  0.00     0.031 A 
ATOM     34  C   UNL A   1      40.837  26.401  28.537  1.00  0.00     0.074 A 
ATOM     35  C   UNL A   1      41.584  28.609  29.313  1.00  0.00     0.049 A 
ATOM     36  N   UNL A   1      41.865  25.718  28.912  1.00  0.00    -0.248 NA
ATOM     37  C   UNL A   1      39.888  25.616  27.758  1.00  0.00     0.031 C 
ATOM     38  C   UNL A   1      43.014  28.330  29.249  1.00  0.00     0.029 A 
ATOM     39  N   UNL A   1      41.490  29.771  30.083  1.00  0.00    -0.354 N 
ATOM     40  C   UNL A   1      41.862  24.524  28.221  1.00  0.00     0.074 A 
ATOM     41  C   UNL A   1      40.571  24.483  27.579  1.00  0.00     0.031 C 
ATOM     42  C   UNL A   1      43.652  29.122  30.125  1.00  0.00     0.029 A 
ATOM     43  C   UNL A   1      42.638  29.814  30.899  1.00  0.00     0.049 A 
ATOM     44  H   UNL A   1      40.761  30.432  30.060  1.00  0.00     0.167 HD
ATOM     45  C   UNL A   1      43.010  23.781  28.180  1.00  0.00     0.037 A 
ATOM     46  C   UNL A   1      42.534  29.748  32.260  1.00  0.00     0.037 A 
ATOM     47  C   UNL A   1      44.003  24.325  29.112  1.00  0.00     0.049 A 
ATOM     48  C   UNL A   1      43.192  28.530  32.869  1.00  0.00     0.074 A 
ATOM     49  C   UNL A   1      45.096  25.161  28.943  1.00  0.00     0.029 A 
ATOM     50  N   UNL A   1      43.758  24.275  30.481  1.00  0.00    -0.354 N 
ATOM     51  N   UNL A   1      43.541  27.471  32.191  1.00  0.00    -0.248 NA
ATOM     52  C   UNL A   1      43.506  28.406  34.290  1.00  0.00     0.031 C 
ATOM     53  C   UNL A   1      45.445  25.688  30.213  1.00  0.00     0.029 A 
ATOM     54  C   UNL A   1      44.588  25.150  31.157  1.00  0.00     0.049 A 
ATOM     55  H   UNL A   1      43.085  23.697  30.909  1.00  0.00     0.167 HD
ATOM     56  C   UNL A   1      44.079  26.536  33.036  1.00  0.00     0.074 A 
ATOM     57  C   UNL A   1      44.060  27.180  34.338  1.00  0.00     0.031 C 
ATOM     58  C   UNL A   1      44.488  25.307  32.602  1.00  0.00     0.037 A 
BRANCH  45  59
ATOM     59  C   UNL A   1      43.342  22.756  27.099  1.00  0.00     0.058 A 
ATOM     60  C   UNL A   1      42.618  21.543  27.014  1.00  0.00     0.135 A 
ATOM     61  C   UNL A   1      44.405  22.849  26.177  1.00  0.00     0.135 A 
ATOM     62  F   UNL A   1      41.515  21.331  27.745  1.00  0.00    -0.206 F 
ATOM     63  C   UNL A   1      42.991  20.480  26.181  1.00  0.00     0.059 A 
ATOM     64  C   UNL A   1      44.827  21.787  25.370  1.00  0.00     0.059 A 
ATOM     65  F   UNL A   1      45.055  23.994  25.961  1.00  0.00    -0.206 F 
ATOM     66  C   UNL A   1      44.124  20.595  25.389  1.00  0.00     0.060 A 
BRANCH  66  67
ATOM     67  S   UNL A   1      44.646  19.200  24.375  1.00  0.00     0.124 S 
ATOM     68  O   UNL A   1      44.387  19.690  23.024  1.00  0.00    -0.237 OA
ATOM     69  O   UNL A   1      46.050  19.062  24.743  1.00  0.00    -0.237 OA
ATOM     70  O   UNL A   1      43.775  18.113  24.816  1.00  0.00    -0.744 OA
ENDBRANCH  66  67
ENDBRANCH  45  59
BRANCH  46  71
ATOM     71  C   UNL A   1      41.327  30.445  32.784  1.00  0.00     0.058 A 
ATOM     72  C   UNL A   1      40.183  29.659  33.027  1.00  0.00     0.135 A 
ATOM     73  C   UNL A   1      41.425  31.673  33.454  1.00  0.00     0.135 A 
ATOM     74  F   UNL A   1      40.031  28.480  32.400  1.00  0.00    -0.206 F 
ATOM     75  C   UNL A   1      39.268  29.987  34.020  1.00  0.00     0.059 A 
ATOM     76  C   UNL A   1      40.512  32.027  34.451  1.00  0.00     0.059 A 
ATOM     77  F   UNL A   1      42.487  32.468  33.258  1.00  0.00    -0.206 F 
ATOM     78  C   UNL A   1      39.486  31.138  34.775  1.00  0.00     0.060 A 
BRANCH  78  79
ATOM     79  S   UNL A   1      38.529  31.325  36.300  1.00  0.00     0.124 S 
ATOM     80  O   UNL A   1      39.438  32.105  37.133  1.00  0.00    -0.237 OA
ATOM     81  O   UNL A   1      37.348  32.040  35.814  1.00  0.00    -0.237 OA
ATOM     82  O   UNL A   1      38.304  29.949  36.725  1.00  0.00    -0.744 OA
ENDBRANCH  78  79
ENDBRANCH  46  71
BRANCH  58  83
ATOM     83  C   UNL A   1      44.917  24.165  33.492  1.00  0.00     0.058 A 
ATOM     84  C   UNL A   1      44.071  23.109  33.872  1.00  0.00     0.135 A 
ATOM     85  C   UNL A   1      46.271  24.035  33.881  1.00  0.00     0.135 A 
ATOM     86  F   UNL A   1      42.792  23.063  33.472  1.00  0.00    -0.206 F 
ATOM     87  C   UNL A   1      44.519  22.034  34.642  1.00  0.00     0.059 A 
ATOM     88  C   UNL A   1      46.751  22.945  34.603  1.00  0.00     0.059 A 
ATOM     89  F   UNL A   1      47.182  24.967  33.560  1.00  0.00    -0.206 F 
ATOM     90  C   UNL A   1      45.860  21.959  35.004  1.00  0.00     0.060 A 
BRANCH  90  91
ATOM     91  S   UNL A   1      46.463  20.547  35.949  1.00  0.00     0.124 S 
ATOM     92  O   UNL A   1      47.863  20.501  35.541  1.00  0.00    -0.237 OA
ATOM     93  O   UNL A   1      46.223  20.952  37.332  1.00  0.00    -0.237 OA
ATOM     94  O   UNL A   1      45.627  19.450  35.473  1.00  0.00    -0.744 OA
ENDBRANCH  90  91
ENDBRANCH  58  83
ENDBRANCH  32  33
ENDBRANCH  24  27
ENDBRANCH  22  23
ENDBRANCH  21  22
ENDBRANCH   1  21
TORSDOF 17
ENDMDL
MODEL 3
REMARK VINA RESULT:     -12.5      1.425      1.974
REMARK SMILES CCCC1CN(c2cc(C(=O)NCCCCNC(=O)c3ccc(-c4c5nc(c(-c6c(F)cc(S(=O)(=O)[O-])cc6F)c6ccc([nH]6)c(-c6c(F)cc(S(=O)(=O)[O-])cc6F)c6nc(c(-c7c(F)cc(S(=O)(=O)[O-])cc7F)c7ccc4[nH]7)C=C6)C=C5)cc3)ccc2C)C1
REMARK SMILES IDX 14 1 13 2 12 3 10 4 11 5 9 7 7 8 8 9 88 10 87 11 89 12 86 13
REMARK SMILES IDX 6 14 4 15 5 16 90 17 3 18 2 19 1 20 15 21 16 22 17 23 18 24
REMARK SMILES IDX 19 26 20 27 21 28 85 29 22 30 84 31 23 32 24 33 25 34 78 35
REMARK SMILES IDX 26 36 83 37 77 38 79 39 27 40 82 41 76 42 75 43 28 45 62 46
REMARK SMILES IDX 41 47 61 48 42 49 45 50 60 51 80 52 43 53 44 54 59 56 81 57
REMARK SMILES IDX 46 58 29 59 30 60 39 61 31 62 32 63 38 64 40 65 33 66 34 67
REMARK SMILES IDX 35 68 36 69 37 70 63 71 64 72 73 73 65 74 66 75 72 76 74 77
REMARK SMILES IDX 67 78 68 79 69 80 70 81 71 82 47 83 48 84 57 85 49 86 50 87
REMARK SMILES IDX 56 88 58 89 51 90 52 91 53 92 54 93 55 94
REMARK H PARENT 12 6 17 25 79 44 45 55
REMARK Flexibility Score: inf
ROOT
ATOM      1  C   UNL A   1      32.620  28.734  25.806  1.00  0.00     0.023 C 
ENDROOT
BRANCH   1   2
ATOM      2  C   UNL A   1      31.877  28.878  24.476  1.00  0.00     0.116 C 
BRANCH   2   3
ATOM      3  N   UNL A   1      32.727  28.733  23.293  1.00  0.00    -0.352 N 
ATOM      4  C   UNL A   1      33.243  27.636  22.638  1.00  0.00     0.251 C 
ATOM      5  O   UNL A   1      34.011  27.819  21.693  1.00  0.00    -0.269 OA
ATOM      6  H   UNL A   1      32.982  29.591  22.885  1.00  0.00     0.163 HD
BRANCH   4   7
ATOM      7  C   UNL A   1      32.958  26.246  23.067  1.00  0.00     0.041 A 
ATOM      8  C   UNL A   1      33.690  24.141  24.037  1.00  0.00     0.040 A 
ATOM      9  C   UNL A   1      33.834  25.524  23.873  1.00  0.00     0.040 A 
ATOM     10  C   UNL A   1      32.508  23.521  23.585  1.00  0.00    -0.028 A 
ATOM     11  C   UNL A   1      31.536  24.294  22.926  1.00  0.00     0.006 A 
ATOM     12  C   UNL A   1      32.201  22.076  23.860  1.00  0.00     0.046 C 
ATOM     13  C   UNL A   1      31.778  25.637  22.634  1.00  0.00     0.014 A 
BRANCH   8  14
ATOM     14  N   UNL A   1      34.786  23.373  24.504  1.00  0.00    -0.371 N 
ATOM     15  C   UNL A   1      36.598  23.343  25.548  1.00  0.00     0.028 C 
ATOM     16  C   UNL A   1      36.141  23.721  24.142  1.00  0.00     0.122 C 
ATOM     17  C   UNL A   1      35.131  23.035  25.861  1.00  0.00     0.122 C 
BRANCH  15  18
ATOM     18  C   UNL A   1      37.698  22.307  25.764  1.00  0.00     0.007 C 
BRANCH  18  19
ATOM     19  C   UNL A   1      37.731  21.126  24.795  1.00  0.00    -0.003 C 
ATOM     20  C   UNL A   1      36.649  20.082  25.015  1.00  0.00     0.004 C 
ENDBRANCH  18  19
ENDBRANCH  15  18
ENDBRANCH   8  14
ENDBRANCH   4   7
ENDBRANCH   2   3
ENDBRANCH   1   2
BRANCH   1  21
ATOM     21  C   UNL A   1      33.806  29.669  26.006  1.00  0.00     0.023 C 
BRANCH  21  22
ATOM     22  C   UNL A   1      34.277  29.789  27.451  1.00  0.00     0.116 C 
BRANCH  22  23
ATOM     23  N   UNL A   1      35.031  31.004  27.726  1.00  0.00    -0.352 N 
ATOM     24  C   UNL A   1      36.299  31.110  28.280  1.00  0.00     0.251 C 
ATOM     25  H   UNL A   1      34.589  31.851  27.488  1.00  0.00     0.163 HD
ATOM     26  O   UNL A   1      36.751  32.173  28.663  1.00  0.00    -0.269 OA
BRANCH  24  27
ATOM     27  C   UNL A   1      37.130  29.887  28.291  1.00  0.00     0.039 A 
ATOM     28  C   UNL A   1      37.209  29.175  29.493  1.00  0.00     0.014 A 
ATOM     29  C   UNL A   1      38.012  29.633  27.246  1.00  0.00     0.014 A 
ATOM     30  C   UNL A   1      38.305  28.349  29.726  1.00  0.00     0.010 A 
ATOM     31  C   UNL A   1      39.146  28.893  27.513  1.00  0.00     0.010 A 
ATOM     32  C   UNL A   1      39.317  28.293  28.772  1.00  0.00    -0.014 A 
BRANCH  32  33
ATOM     33  C   UNL A   1      40.627  27.696  29.008  1.00  0.00     0.031 A 
ATOM     34  C   UNL A   1      40.870  26.284  28.637  1.00  0.00     0.074 A 
ATOM     35  C   UNL A   1      41.644  28.474  29.437  1.00  0.00     0.049 A 
ATOM     36  N   UNL A   1      41.893  25.586  28.999  1.00  0.00    -0.248 NA
ATOM     37  C   UNL A   1      39.909  25.519  27.853  1.00  0.00     0.031 C 
ATOM     38  C   UNL A   1      43.071  28.181  29.363  1.00  0.00     0.029 A 
ATOM     39  N   UNL A   1      41.566  29.627  30.223  1.00  0.00    -0.354 N 
ATOM     40  C   UNL A   1      41.875  24.401  28.293  1.00  0.00     0.074 A 
ATOM     41  C   UNL A   1      40.580  24.381  27.657  1.00  0.00     0.031 C 
ATOM     42  C   UNL A   1      43.722  28.955  30.246  1.00  0.00     0.029 A 
ATOM     43  C   UNL A   1      42.718  29.649  31.033  1.00  0.00     0.049 A 
ATOM     44  H   UNL A   1      40.844  30.296  30.212  1.00  0.00     0.167 HD
ATOM     45  C   UNL A   1      43.014  23.647  28.237  1.00  0.00     0.037 A 
ATOM     46  C   UNL A   1      42.620  29.566  32.393  1.00  0.00     0.037 A 
ATOM     47  C   UNL A   1      44.017  24.168  29.170  1.00  0.00     0.049 A 
ATOM     48  C   UNL A   1      43.269  28.334  32.984  1.00  0.00     0.074 A 
ATOM     49  C   UNL A   1      45.118  24.995  29.007  1.00  0.00     0.029 A 
ATOM     50  N   UNL A   1      43.778  24.104  30.540  1.00  0.00    -0.354 N 
ATOM     51  N   UNL A   1      43.603  27.280  32.291  1.00  0.00    -0.248 NA
ATOM     52  C   UNL A   1      43.588  28.189  34.402  1.00  0.00     0.031 C 
ATOM     53  C   UNL A   1      45.479  25.502  30.281  1.00  0.00     0.029 A 
ATOM     54  C   UNL A   1      44.621  24.961  31.223  1.00  0.00     0.049 A 
ATOM     55  H   UNL A   1      43.101  23.527  30.965  1.00  0.00     0.167 HD
ATOM     56  C   UNL A   1      44.135  26.329  33.122  1.00  0.00     0.074 A 
ATOM     57  C   UNL A   1      44.129  26.956  34.432  1.00  0.00     0.031 C 
ATOM     58  C   UNL A   1      44.530  25.101  32.671  1.00  0.00     0.037 A 
BRANCH  45  59
ATOM     59  C   UNL A   1      43.330  22.632  27.141  1.00  0.00     0.058 A 
ATOM     60  C   UNL A   1      42.615  21.413  27.064  1.00  0.00     0.135 A 
ATOM     61  C   UNL A   1      44.371  22.739  26.197  1.00  0.00     0.135 A 
ATOM     62  F   UNL A   1      41.530  21.187  27.818  1.00  0.00    -0.206 F 
ATOM     63  C   UNL A   1      42.978  20.359  26.216  1.00  0.00     0.059 A 
ATOM     64  C   UNL A   1      44.784  21.687  25.373  1.00  0.00     0.059 A 
ATOM     65  F   UNL A   1      45.007  23.892  25.974  1.00  0.00    -0.206 F 
ATOM     66  C   UNL A   1      44.091  20.489  25.399  1.00  0.00     0.060 A 
BRANCH  66  67
ATOM     67  S   UNL A   1      44.602  19.105  24.364  1.00  0.00     0.124 S 
ATOM     68  O   UNL A   1      45.985  18.903  24.784  1.00  0.00    -0.237 OA
ATOM     69  O   UNL A   1      43.659  18.064  24.758  1.00  0.00    -0.237 OA
ATOM     70  O   UNL A   1      44.437  19.616  23.006  1.00  0.00    -0.744 OA
ENDBRANCH  66  67
ENDBRANCH  45  59
BRANCH  46  71
ATOM     71  C   UNL A   1      41.423  30.269  32.932  1.00  0.00     0.058 A 
ATOM     72  C   UNL A   1      41.515  31.666  33.096  1.00  0.00     0.135 A 
ATOM     73  C   UNL A   1      40.141  29.709  32.835  1.00  0.00     0.135 A 
ATOM     74  F   UNL A   1      42.718  32.252  33.210  1.00  0.00    -0.206 F 
ATOM     75  C   UNL A   1      40.400  32.489  32.987  1.00  0.00     0.059 A 
ATOM     76  C   UNL A   1      39.005  30.518  32.732  1.00  0.00     0.059 A 
ATOM     77  F   UNL A   1      39.990  28.386  32.685  1.00  0.00    -0.206 F 
ATOM     78  C   UNL A   1      39.161  31.905  32.732  1.00  0.00     0.060 A 
BRANCH  78  79
ATOM     79  S   UNL A   1      37.822  32.999  32.198  1.00  0.00     0.124 S 
ATOM     80  O   UNL A   1      37.673  33.881  33.352  1.00  0.00    -0.237 OA
ATOM     81  O   UNL A   1      38.408  33.615  31.007  1.00  0.00    -0.237 OA
ATOM     82  O   UNL A   1      36.716  32.081  31.956  1.00  0.00    -0.744 OA
ENDBRANCH  78  79
ENDBRANCH  46  71
BRANCH  58  83
ATOM     83  C   UNL A   1      44.951  23.944  33.544  1.00  0.00     0.058 A 
ATOM     84  C   UNL A   1      44.090  22.903  33.932  1.00  0.00     0.135 A 
ATOM     85  C   UNL A   1      46.309  23.783  33.906  1.00  0.00     0.135 A 
ATOM     86  F   UNL A   1      42.803  22.887  33.556  1.00  0.00    -0.206 F 
ATOM     87  C   UNL A   1      44.529  21.813  34.686  1.00  0.00     0.059 A 
ATOM     88  C   UNL A   1      46.779  22.677  34.612  1.00  0.00     0.059 A 
ATOM     89  F   UNL A   1      47.232  24.698  33.575  1.00  0.00    -0.206 F 
ATOM     90  C   UNL A   1      45.875  21.707  35.022  1.00  0.00     0.060 A 
BRANCH  90  91
ATOM     91  S   UNL A   1      46.465  20.275  35.945  1.00  0.00     0.124 S 
ATOM     92  O   UNL A   1      47.882  20.592  36.098  1.00  0.00    -0.237 OA
ATOM     93  O   UNL A   1      45.672  20.327  37.171  1.00  0.00    -0.237 OA
ATOM     94  O   UNL A   1      46.157  19.160  35.057  1.00  0.00    -0.744 OA
ENDBRANCH  90  91
ENDBRANCH  58  83
ENDBRANCH  32  33
ENDBRANCH  24  27
ENDBRANCH  22  23
ENDBRANCH  21  22
ENDBRANCH   1  21
TORSDOF 17
ENDMDL
