MODEL 1
REMARK VINA RESULT:     -10.6      0.000      0.000
REMARK SMILES C[NH2+][C@@]1(C(=O)NCCCCNC(=O)c2ccc(-c3c4nc(c(-c5c(F)cc(S(=O)(=O)[O-])cc5F)c5ccc([nH]5)c(-c5c(F)cc(S(=O)(=O)[O-])cc5F)c5nc(c(-c6c(F)cc(S(=O)(=O)[O-])cc6F)c6ccc3[nH]6)C=C5)C=C4)cc2)CC[C@H](SC(C)C)C1
REMARK SMILES IDX 9 1 8 2 7 3 6 4 4 5 5 6 3 8 80 9 87 10 81 11 82 12 2 13 1 14
REMARK SMILES IDX 83 17 84 18 85 19 86 20 10 21 11 22 12 23 13 25 14 26 15 27
REMARK SMILES IDX 79 28 16 29 78 30 17 31 18 32 19 33 72 34 20 35 77 36 71 37
REMARK SMILES IDX 73 38 21 39 76 40 70 41 69 42 22 44 56 45 35 46 55 47 36 48
REMARK SMILES IDX 39 49 54 50 74 51 37 52 38 53 53 55 75 56 40 57 23 58 24 59
REMARK SMILES IDX 33 60 25 61 26 62 32 63 34 64 27 65 28 66 29 67 30 68 31 69
REMARK SMILES IDX 57 70 58 71 67 72 59 73 60 74 66 75 68 76 61 77 62 78 63 79
REMARK SMILES IDX 64 80 65 81 41 82 42 83 51 84 43 85 44 86 50 87 52 88 45 89
REMARK SMILES IDX 46 90 47 91 48 92 49 93
REMARK H PARENT 6 7 2 15 2 16 11 24 73 43 39 54
REMARK Flexibility Score: inf
ROOT
ATOM      1  C   UNL A   1      33.300  28.103  26.964  1.00  0.00     0.023 C 
ENDROOT
BRANCH   1   2
ATOM      2  C   UNL A   1      31.793  27.884  26.919  1.00  0.00     0.023 C 
BRANCH   2   3
ATOM      3  C   UNL A   1      31.334  26.735  26.028  1.00  0.00     0.116 C 
BRANCH   3   4
ATOM      4  N   UNL A   1      31.053  25.528  26.764  1.00  0.00    -0.351 N 
ATOM      5  C   UNL A   1      31.578  24.277  26.698  1.00  0.00     0.281 C 
ATOM      6  O   UNL A   1      31.026  23.443  27.435  1.00  0.00    -0.268 OA
ATOM      7  H   UNL A   1      30.348  25.629  27.443  1.00  0.00     0.163 HD
BRANCH   5   8
ATOM      8  C   UNL A   1      32.764  23.812  25.733  1.00  0.00     0.176 C 
ATOM      9  C   UNL A   1      34.073  24.587  25.926  1.00  0.00     0.080 C 
ATOM     10  C   UNL A   1      32.366  24.001  24.258  1.00  0.00     0.093 C 
ATOM     11  C   UNL A   1      34.275  25.488  24.712  1.00  0.00     0.022 C 
ATOM     12  C   UNL A   1      33.362  24.992  23.596  1.00  0.00     0.054 C 
BRANCH   8  13
ATOM     13  N   UNL A   1      33.047  22.411  26.168  1.00  0.00    -0.336 N 
ATOM     14  C   UNL A   1      33.806  22.199  27.380  1.00  0.00     0.331 C 
ATOM     15  H   UNL A   1      32.147  21.949  26.292  1.00  0.00     0.346 HD
ATOM     16  H   UNL A   1      33.648  22.042  25.432  1.00  0.00     0.346 HD
ENDBRANCH   8  13
BRANCH  12  17
ATOM     17  S   UNL A   1      32.313  26.133  22.590  1.00  0.00    -0.155 SA
BRANCH  17  18
ATOM     18  C   UNL A   1      32.623  27.889  23.031  1.00  0.00     0.040 C 
ATOM     19  C   UNL A   1      33.938  28.545  22.657  1.00  0.00     0.019 C 
ATOM     20  C   UNL A   1      31.433  28.747  22.617  1.00  0.00     0.019 C 
ENDBRANCH  17  18
ENDBRANCH  12  17
ENDBRANCH   5   8
ENDBRANCH   3   4
ENDBRANCH   2   3
ENDBRANCH   1   2
BRANCH   1  21
ATOM     21  C   UNL A   1      33.775  29.478  26.501  1.00  0.00     0.116 C 
BRANCH  21  22
ATOM     22  N   UNL A   1      33.661  30.535  27.501  1.00  0.00    -0.352 N 
ATOM     23  C   UNL A   1      34.583  30.918  28.452  1.00  0.00     0.251 C 
ATOM     24  H   UNL A   1      32.817  31.041  27.495  1.00  0.00     0.163 HD
ATOM     25  O   UNL A   1      34.323  31.812  29.247  1.00  0.00    -0.269 OA
BRANCH  23  26
ATOM     26  C   UNL A   1      35.865  30.187  28.529  1.00  0.00     0.039 A 
ATOM     27  C   UNL A   1      36.723  30.208  27.427  1.00  0.00     0.014 A 
ATOM     28  C   UNL A   1      36.265  29.595  29.729  1.00  0.00     0.014 A 
ATOM     29  C   UNL A   1      38.030  29.738  27.567  1.00  0.00     0.010 A 
ATOM     30  C   UNL A   1      37.591  29.209  29.890  1.00  0.00     0.010 A 
ATOM     31  C   UNL A   1      38.493  29.297  28.818  1.00  0.00    -0.014 A 
BRANCH  31  32
ATOM     32  C   UNL A   1      39.922  28.958  29.047  1.00  0.00     0.031 A 
ATOM     33  C   UNL A   1      40.870  30.006  29.564  1.00  0.00     0.074 A 
ATOM     34  C   UNL A   1      40.387  27.744  28.686  1.00  0.00     0.049 A 
ATOM     35  N   UNL A   1      42.169  29.948  29.700  1.00  0.00    -0.248 NA
ATOM     36  C   UNL A   1      40.283  31.303  29.935  1.00  0.00     0.031 C 
ATOM     37  C   UNL A   1      39.585  26.665  28.103  1.00  0.00     0.029 A 
ATOM     38  N   UNL A   1      41.652  27.217  28.743  1.00  0.00    -0.354 N 
ATOM     39  C   UNL A   1      42.558  31.208  30.137  1.00  0.00     0.074 A 
ATOM     40  C   UNL A   1      41.363  32.021  30.201  1.00  0.00     0.031 C 
ATOM     41  C   UNL A   1      40.372  25.599  27.882  1.00  0.00     0.029 A 
ATOM     42  C   UNL A   1      41.738  25.928  28.274  1.00  0.00     0.049 A 
ATOM     43  H   UNL A   1      42.428  27.717  29.089  1.00  0.00     0.167 HD
ATOM     44  C   UNL A   1      43.796  31.644  30.475  1.00  0.00     0.037 A 
ATOM     45  C   UNL A   1      42.798  25.103  28.170  1.00  0.00     0.037 A 
ATOM     46  C   UNL A   1      44.972  30.815  30.466  1.00  0.00     0.049 A 
ATOM     47  C   UNL A   1      44.148  25.584  28.620  1.00  0.00     0.074 A 
ATOM     48  C   UNL A   1      46.258  31.140  30.860  1.00  0.00     0.029 A 
ATOM     49  N   UNL A   1      45.001  29.492  30.052  1.00  0.00    -0.354 N 
ATOM     50  N   UNL A   1      44.489  26.764  29.082  1.00  0.00    -0.248 NA
ATOM     51  C   UNL A   1      45.258  24.624  28.543  1.00  0.00     0.031 C 
ATOM     52  C   UNL A   1      47.069  30.016  30.671  1.00  0.00     0.029 A 
ATOM     53  C   UNL A   1      46.283  28.985  30.183  1.00  0.00     0.049 A 
ATOM     54  H   UNL A   1      44.226  28.987  29.714  1.00  0.00     0.167 HD
ATOM     55  C   UNL A   1      45.846  26.681  29.370  1.00  0.00     0.074 A 
ATOM     56  C   UNL A   1      46.262  25.333  29.040  1.00  0.00     0.031 C 
ATOM     57  C   UNL A   1      46.673  27.636  29.861  1.00  0.00     0.037 A 
BRANCH  44  58
ATOM     58  C   UNL A   1      43.927  33.078  30.901  1.00  0.00     0.058 A 
ATOM     59  C   UNL A   1      44.106  34.107  29.963  1.00  0.00     0.135 A 
ATOM     60  C   UNL A   1      43.872  33.429  32.259  1.00  0.00     0.135 A 
ATOM     61  F   UNL A   1      44.184  33.822  28.653  1.00  0.00    -0.206 F 
ATOM     62  C   UNL A   1      44.264  35.431  30.358  1.00  0.00     0.059 A 
ATOM     63  C   UNL A   1      44.002  34.751  32.675  1.00  0.00     0.059 A 
ATOM     64  F   UNL A   1      43.704  32.483  33.196  1.00  0.00    -0.206 F 
ATOM     65  C   UNL A   1      44.218  35.742  31.718  1.00  0.00     0.060 A 
BRANCH  65  66
ATOM     66  S   UNL A   1      44.442  37.461  32.220  1.00  0.00     0.124 S 
ATOM     67  O   UNL A   1      44.045  38.171  31.008  1.00  0.00    -0.237 OA
ATOM     68  O   UNL A   1      43.528  37.582  33.351  1.00  0.00    -0.237 OA
ATOM     69  O   UNL A   1      45.860  37.533  32.556  1.00  0.00    -0.744 OA
ENDBRANCH  65  66
ENDBRANCH  44  58
BRANCH  45  70
ATOM     70  C   UNL A   1      42.615  23.720  27.656  1.00  0.00     0.058 A 
ATOM     71  C   UNL A   1      42.589  23.470  26.276  1.00  0.00     0.135 A 
ATOM     72  C   UNL A   1      42.480  22.627  28.524  1.00  0.00     0.135 A 
ATOM     73  F   UNL A   1      42.709  24.486  25.408  1.00  0.00    -0.206 F 
ATOM     74  C   UNL A   1      42.422  22.184  25.772  1.00  0.00     0.059 A 
ATOM     75  C   UNL A   1      42.331  21.328  28.044  1.00  0.00     0.059 A 
ATOM     76  F   UNL A   1      42.517  22.814  29.853  1.00  0.00    -0.206 F 
ATOM     77  C   UNL A   1      42.294  21.119  26.666  1.00  0.00     0.060 A 
BRANCH  77  78
ATOM     78  S   UNL A   1      42.133  19.446  26.003  1.00  0.00     0.124 S 
ATOM     79  O   UNL A   1      40.700  19.370  25.746  1.00  0.00    -0.237 OA
ATOM     80  O   UNL A   1      42.992  19.494  24.824  1.00  0.00    -0.237 OA
ATOM     81  O   UNL A   1      42.626  18.608  27.093  1.00  0.00    -0.744 OA
ENDBRANCH  77  78
ENDBRANCH  45  70
BRANCH  57  82
ATOM     82  C   UNL A   1      48.102  27.248  30.104  1.00  0.00     0.058 A 
ATOM     83  C   UNL A   1      49.118  27.592  29.201  1.00  0.00     0.135 A 
ATOM     84  C   UNL A   1      48.465  26.571  31.280  1.00  0.00     0.135 A 
ATOM     85  F   UNL A   1      48.819  28.233  28.060  1.00  0.00    -0.206 F 
ATOM     86  C   UNL A   1      50.448  27.265  29.448  1.00  0.00     0.059 A 
ATOM     87  C   UNL A   1      49.789  26.251  31.556  1.00  0.00     0.059 A 
ATOM     88  F   UNL A   1      47.528  26.227  32.178  1.00  0.00    -0.206 F 
ATOM     89  C   UNL A   1      50.773  26.594  30.629  1.00  0.00     0.060 A 
BRANCH  89  90
ATOM     90  S   UNL A   1      52.505  26.209  30.961  1.00  0.00     0.124 S 
ATOM     91  O   UNL A   1      52.388  25.000  31.767  1.00  0.00    -0.237 OA
ATOM     92  O   UNL A   1      53.052  26.026  29.619  1.00  0.00    -0.237 OA
ATOM     93  O   UNL A   1      52.984  27.394  31.667  1.00  0.00    -0.744 OA
ENDBRANCH  89  90
ENDBRANCH  57  82
ENDBRANCH  31  32
ENDBRANCH  23  26
ENDBRANCH  21  22
ENDBRANCH   1  21
TORSDOF 17
ENDMDL
MODEL 2
REMARK VINA RESULT:     -10.5      4.090     10.735
REMARK SMILES C[NH2+][C@@]1(C(=O)NCCCCNC(=O)c2ccc(-c3c4nc(c(-c5c(F)cc(S(=O)(=O)[O-])cc5F)c5ccc([nH]5)c(-c5c(F)cc(S(=O)(=O)[O-])cc5F)c5nc(c(-c6c(F)cc(S(=O)(=O)[O-])cc6F)c6ccc3[nH]6)C=C5)C=C4)cc2)CC[C@H](SC(C)C)C1
REMARK SMILES IDX 9 1 8 2 7 3 6 4 4 5 5 6 3 8 80 9 87 10 81 11 82 12 2 13 1 14
REMARK SMILES IDX 83 17 84 18 85 19 86 20 10 21 11 22 12 23 13 25 14 26 15 27
REMARK SMILES IDX 79 28 16 29 78 30 17 31 18 32 19 33 72 34 20 35 77 36 71 37
REMARK SMILES IDX 73 38 21 39 76 40 70 41 69 42 22 44 56 45 35 46 55 47 36 48
REMARK SMILES IDX 39 49 54 50 74 51 37 52 38 53 53 55 75 56 40 57 23 58 24 59
REMARK SMILES IDX 33 60 25 61 26 62 32 63 34 64 27 65 28 66 29 67 30 68 31 69
REMARK SMILES IDX 57 70 58 71 67 72 59 73 60 74 66 75 68 76 61 77 62 78 63 79
REMARK SMILES IDX 64 80 65 81 41 82 42 83 51 84 43 85 44 86 50 87 52 88 45 89
REMARK SMILES IDX 46 90 47 91 48 92 49 93
REMARK H PARENT 6 7 2 15 2 16 11 24 73 43 39 54
REMARK Flexibility Score: inf
ROOT
ATOM      1  C   UNL A   1      40.938  21.363  25.881  1.00  0.00     0.023 C 
ENDROOT
BRANCH   1   2
ATOM      2  C   UNL A   1      42.106  21.975  26.643  1.00  0.00     0.023 C 
BRANCH   2   3
ATOM      3  C   UNL A   1      42.817  23.117  25.925  1.00  0.00     0.116 C 
BRANCH   3   4
ATOM      4  N   UNL A   1      43.180  22.790  24.568  1.00  0.00    -0.351 N 
ATOM      5  C   UNL A   1      44.379  22.548  23.979  1.00  0.00     0.281 C 
ATOM      6  O   UNL A   1      44.328  22.383  22.748  1.00  0.00    -0.268 OA
ATOM      7  H   UNL A   1      42.414  22.732  23.953  1.00  0.00     0.163 HD
BRANCH   5   8
ATOM      8  C   UNL A   1      45.795  22.523  24.718  1.00  0.00     0.176 C 
ATOM      9  C   UNL A   1      45.705  22.485  26.249  1.00  0.00     0.080 C 
ATOM     10  C   UNL A   1      46.611  23.780  24.366  1.00  0.00     0.093 C 
ATOM     11  C   UNL A   1      46.150  23.843  26.784  1.00  0.00     0.022 C 
ATOM     12  C   UNL A   1      46.902  24.568  25.672  1.00  0.00     0.054 C 
BRANCH   8  13
ATOM     13  N   UNL A   1      46.386  21.214  24.309  1.00  0.00    -0.336 N 
ATOM     14  C   UNL A   1      46.128  20.048  25.125  1.00  0.00     0.331 C 
ATOM     15  H   UNL A   1      46.039  21.008  23.373  1.00  0.00     0.346 HD
ATOM     16  H   UNL A   1      47.392  21.359  24.397  1.00  0.00     0.346 HD
ENDBRANCH   8  13
BRANCH  12  17
ATOM     17  S   UNL A   1      46.586  26.338  25.250  1.00  0.00    -0.155 SA
BRANCH  17  18
ATOM     18  C   UNL A   1      45.168  27.011  26.206  1.00  0.00     0.040 C 
ATOM     19  C   UNL A   1      45.111  28.488  26.541  1.00  0.00     0.019 C 
ATOM     20  C   UNL A   1      43.856  26.523  25.602  1.00  0.00     0.019 C 
ENDBRANCH  17  18
ENDBRANCH  12  17
ENDBRANCH   5   8
ENDBRANCH   3   4
ENDBRANCH   2   3
ENDBRANCH   1   2
BRANCH   1  21
ATOM     21  C   UNL A   1      39.576  21.488  26.560  1.00  0.00     0.116 C 
BRANCH  21  22
ATOM     22  N   UNL A   1      38.560  22.181  25.774  1.00  0.00    -0.352 N 
ATOM     23  C   UNL A   1      38.272  23.529  25.743  1.00  0.00     0.251 C 
ATOM     24  H   UNL A   1      38.010  21.612  25.189  1.00  0.00     0.163 HD
ATOM     25  O   UNL A   1      37.359  23.955  25.047  1.00  0.00    -0.269 OA
BRANCH  23  26
ATOM     26  C   UNL A   1      39.047  24.438  26.613  1.00  0.00     0.039 A 
ATOM     27  C   UNL A   1      39.951  25.326  26.027  1.00  0.00     0.014 A 
ATOM     28  C   UNL A   1      38.784  24.494  27.983  1.00  0.00     0.014 A 
ATOM     29  C   UNL A   1      40.504  26.350  26.798  1.00  0.00     0.010 A 
ATOM     30  C   UNL A   1      39.265  25.566  28.726  1.00  0.00     0.010 A 
ATOM     31  C   UNL A   1      40.112  26.518  28.137  1.00  0.00    -0.014 A 
BRANCH  31  32
ATOM     32  C   UNL A   1      40.540  27.696  28.935  1.00  0.00     0.031 A 
ATOM     33  C   UNL A   1      41.861  27.678  29.654  1.00  0.00     0.074 A 
ATOM     34  C   UNL A   1      39.694  28.734  29.100  1.00  0.00     0.049 A 
ATOM     35  N   UNL A   1      42.351  28.544  30.503  1.00  0.00    -0.248 NA
ATOM     36  C   UNL A   1      42.726  26.511  29.419  1.00  0.00     0.031 C 
ATOM     37  C   UNL A   1      38.353  28.840  28.518  1.00  0.00     0.029 A 
ATOM     38  N   UNL A   1      39.830  29.893  29.821  1.00  0.00    -0.354 N 
ATOM     39  C   UNL A   1      43.560  28.010  30.930  1.00  0.00     0.074 A 
ATOM     40  C   UNL A   1      43.709  26.726  30.280  1.00  0.00     0.031 C 
ATOM     41  C   UNL A   1      37.804  30.010  28.882  1.00  0.00     0.029 A 
ATOM     42  C   UNL A   1      38.735  30.722  29.751  1.00  0.00     0.049 A 
ATOM     43  H   UNL A   1      40.638  30.112  30.340  1.00  0.00     0.167 HD
ATOM     44  C   UNL A   1      44.475  28.549  31.771  1.00  0.00     0.037 A 
ATOM     45  C   UNL A   1      38.506  31.920  30.322  1.00  0.00     0.037 A 
ATOM     46  C   UNL A   1      44.350  29.852  32.370  1.00  0.00     0.049 A 
ATOM     47  C   UNL A   1      39.567  32.531  31.193  1.00  0.00     0.074 A 
ATOM     48  C   UNL A   1      45.254  30.519  33.177  1.00  0.00     0.029 A 
ATOM     49  N   UNL A   1      43.256  30.690  32.214  1.00  0.00    -0.354 N 
ATOM     50  N   UNL A   1      40.729  32.035  31.544  1.00  0.00    -0.248 NA
ATOM     51  C   UNL A   1      39.291  33.867  31.741  1.00  0.00     0.031 C 
ATOM     52  C   UNL A   1      44.700  31.756  33.522  1.00  0.00     0.029 A 
ATOM     53  C   UNL A   1      43.463  31.869  32.908  1.00  0.00     0.049 A 
ATOM     54  H   UNL A   1      42.451  30.477  31.688  1.00  0.00     0.167 HD
ATOM     55  C   UNL A   1      41.331  33.005  32.336  1.00  0.00     0.074 A 
ATOM     56  C   UNL A   1      40.411  34.122  32.404  1.00  0.00     0.031 C 
ATOM     57  C   UNL A   1      42.539  32.974  32.952  1.00  0.00     0.037 A 
BRANCH  44  58
ATOM     58  C   UNL A   1      45.698  27.731  32.074  1.00  0.00     0.058 A 
ATOM     59  C   UNL A   1      45.751  26.876  33.185  1.00  0.00     0.135 A 
ATOM     60  C   UNL A   1      46.827  27.800  31.243  1.00  0.00     0.135 A 
ATOM     61  F   UNL A   1      44.703  26.788  34.021  1.00  0.00    -0.206 F 
ATOM     62  C   UNL A   1      46.894  26.145  33.486  1.00  0.00     0.059 A 
ATOM     63  C   UNL A   1      47.974  27.057  31.511  1.00  0.00     0.059 A 
ATOM     64  F   UNL A   1      46.829  28.603  30.168  1.00  0.00    -0.206 F 
ATOM     65  C   UNL A   1      48.004  26.249  32.647  1.00  0.00     0.060 A 
BRANCH  65  66
ATOM     66  S   UNL A   1      49.490  25.309  33.057  1.00  0.00     0.124 S 
ATOM     67  O   UNL A   1      49.993  24.970  31.729  1.00  0.00    -0.237 OA
ATOM     68  O   UNL A   1      50.283  26.280  33.804  1.00  0.00    -0.237 OA
ATOM     69  O   UNL A   1      48.976  24.190  33.840  1.00  0.00    -0.744 OA
ENDBRANCH  65  66
ENDBRANCH  44  58
BRANCH  45  70
ATOM     70  C   UNL A   1      37.234  32.640  30.052  1.00  0.00     0.058 A 
ATOM     71  C   UNL A   1      37.176  33.644  29.075  1.00  0.00     0.135 A 
ATOM     72  C   UNL A   1      36.056  32.332  30.747  1.00  0.00     0.135 A 
ATOM     73  F   UNL A   1      38.280  33.976  28.388  1.00  0.00    -0.206 F 
ATOM     74  C   UNL A   1      35.995  34.329  28.803  1.00  0.00     0.059 A 
ATOM     75  C   UNL A   1      34.858  32.990  30.480  1.00  0.00     0.059 A 
ATOM     76  F   UNL A   1      36.057  31.366  31.680  1.00  0.00    -0.206 F 
ATOM     77  C   UNL A   1      34.841  33.994  29.512  1.00  0.00     0.060 A 
BRANCH  77  78
ATOM     78  S   UNL A   1      33.300  34.850  29.115  1.00  0.00     0.124 S 
ATOM     79  O   UNL A   1      32.730  33.970  28.102  1.00  0.00    -0.237 OA
ATOM     80  O   UNL A   1      32.614  34.869  30.403  1.00  0.00    -0.237 OA
ATOM     81  O   UNL A   1      33.757  36.153  28.638  1.00  0.00    -0.744 OA
ENDBRANCH  77  78
ENDBRANCH  45  70
BRANCH  57  82
ATOM     82  C   UNL A   1      42.947  34.193  33.726  1.00  0.00     0.058 A 
ATOM     83  C   UNL A   1      42.682  34.313  35.097  1.00  0.00     0.135 A 
ATOM     84  C   UNL A   1      43.659  35.227  33.097  1.00  0.00     0.135 A 
ATOM     85  F   UNL A   1      41.998  33.353  35.740  1.00  0.00    -0.206 F 
ATOM     86  C   UNL A   1      43.096  35.428  35.820  1.00  0.00     0.059 A 
ATOM     87  C   UNL A   1      44.099  36.341  33.804  1.00  0.00     0.059 A 
ATOM     88  F   UNL A   1      43.944  35.154  31.788  1.00  0.00    -0.206 F 
ATOM     89  C   UNL A   1      43.804  36.437  35.164  1.00  0.00     0.060 A 
BRANCH  89  90
ATOM     90  S   UNL A   1      44.373  37.861  36.117  1.00  0.00     0.124 S 
ATOM     91  O   UNL A   1      44.010  38.966  35.238  1.00  0.00    -0.237 OA
ATOM     92  O   UNL A   1      43.597  37.748  37.348  1.00  0.00    -0.237 OA
ATOM     93  O   UNL A   1      45.805  37.616  36.264  1.00  0.00    -0.744 OA
ENDBRANCH  89  90
ENDBRANCH  57  82
ENDBRANCH  31  32
ENDBRANCH  23  26
ENDBRANCH  21  22
ENDBRANCH   1  21
TORSDOF 17
ENDMDL
MODEL 3
REMARK VINA RESULT:     -10.5      1.353      2.536
REMARK SMILES C[NH2+][C@@]1(C(=O)NCCCCNC(=O)c2ccc(-c3c4nc(c(-c5c(F)cc(S(=O)(=O)[O-])cc5F)c5ccc([nH]5)c(-c5c(F)cc(S(=O)(=O)[O-])cc5F)c5nc(c(-c6c(F)cc(S(=O)(=O)[O-])cc6F)c6ccc3[nH]6)C=C5)C=C4)cc2)CC[C@H](SC(C)C)C1
REMARK SMILES IDX 9 1 8 2 7 3 6 4 4 5 5 6 3 8 80 9 87 10 81 11 82 12 2 13 1 14
REMARK SMILES IDX 83 17 84 18 85 19 86 20 10 21 11 22 12 23 13 25 14 26 15 27
REMARK SMILES IDX 79 28 16 29 78 30 17 31 18 32 19 33 72 34 20 35 77 36 71 37
REMARK SMILES IDX 73 38 21 39 76 40 70 41 69 42 22 44 56 45 35 46 55 47 36 48
REMARK SMILES IDX 39 49 54 50 74 51 37 52 38 53 53 55 75 56 40 57 23 58 24 59
REMARK SMILES IDX 33 60 25 61 26 62 32 63 34 64 27 65 28 66 29 67 30 68 31 69
REMARK SMILES IDX 57 70 58 71 67 72 59 73 60 74 66 75 68 76 61 77 62 78 63 79
REMARK SMILES IDX 64 80 65 81 41 82 42 83 51 84 43 85 44 86 50 87 52 88 45 89
REMARK SMILES IDX 46 90 47 91 48 92 49 93
REMARK H PARENT 6 7 2 15 2 16 11 24 73 43 39 54
REMARK Flexibility Score: inf
ROOT
ATOM      1  C   UNL A   1      33.044  28.004  27.249  1.00  0.00     0.023 C 
ENDROOT
BRANCH   1   2
ATOM      2  C   UNL A   1      31.542  27.801  27.091  1.00  0.00     0.023 C 
BRANCH   2   3
ATOM      3  C   UNL A   1      31.140  26.633  26.197  1.00  0.00     0.116 C 
BRANCH   3   4
ATOM      4  N   UNL A   1      31.212  25.359  26.868  1.00  0.00    -0.351 N 
ATOM      5  C   UNL A   1      31.772  24.173  26.515  1.00  0.00     0.281 C 
ATOM      6  O   UNL A   1      31.562  23.243  27.311  1.00  0.00    -0.268 OA
ATOM      7  H   UNL A   1      30.772  25.346  27.748  1.00  0.00     0.163 HD
BRANCH   5   8
ATOM      8  C   UNL A   1      32.593  23.891  25.173  1.00  0.00     0.176 C 
ATOM      9  C   UNL A   1      31.726  23.813  23.911  1.00  0.00     0.080 C 
ATOM     10  C   UNL A   1      33.337  22.547  25.268  1.00  0.00     0.093 C 
ATOM     11  C   UNL A   1      31.686  22.358  23.452  1.00  0.00     0.022 C 
ATOM     12  C   UNL A   1      32.825  21.612  24.139  1.00  0.00     0.054 C 
BRANCH   8  13
ATOM     13  N   UNL A   1      33.443  25.109  25.015  1.00  0.00    -0.336 N 
ATOM     14  C   UNL A   1      33.731  25.587  23.681  1.00  0.00     0.331 C 
ATOM     15  H   UNL A   1      32.977  25.867  25.511  1.00  0.00     0.346 HD
ATOM     16  H   UNL A   1      34.353  24.822  25.376  1.00  0.00     0.346 HD
ENDBRANCH   8  13
BRANCH  12  17
ATOM     17  S   UNL A   1      32.592  19.965  24.942  1.00  0.00    -0.155 SA
BRANCH  17  18
ATOM     18  C   UNL A   1      33.372  18.624  23.957  1.00  0.00     0.040 C 
ATOM     19  C   UNL A   1      33.943  17.405  24.654  1.00  0.00     0.019 C 
ATOM     20  C   UNL A   1      32.462  18.233  22.799  1.00  0.00     0.019 C 
ENDBRANCH  17  18
ENDBRANCH  12  17
ENDBRANCH   5   8
ENDBRANCH   3   4
ENDBRANCH   2   3
ENDBRANCH   1   2
BRANCH   1  21
ATOM     21  C   UNL A   1      33.596  29.294  26.648  1.00  0.00     0.116 C 
BRANCH  21  22
ATOM     22  N   UNL A   1      33.533  30.458  27.527  1.00  0.00    -0.352 N 
ATOM     23  C   UNL A   1      34.499  30.936  28.386  1.00  0.00     0.251 C 
ATOM     24  H   UNL A   1      32.691  30.967  27.502  1.00  0.00     0.163 HD
ATOM     25  O   UNL A   1      34.279  31.916  29.087  1.00  0.00    -0.269 OA
BRANCH  23  26
ATOM     26  C   UNL A   1      35.780  30.206  28.487  1.00  0.00     0.039 A 
ATOM     27  C   UNL A   1      36.645  30.203  27.390  1.00  0.00     0.014 A 
ATOM     28  C   UNL A   1      36.173  29.641  29.702  1.00  0.00     0.014 A 
ATOM     29  C   UNL A   1      37.950  29.735  27.548  1.00  0.00     0.010 A 
ATOM     30  C   UNL A   1      37.498  29.259  29.879  1.00  0.00     0.010 A 
ATOM     31  C   UNL A   1      38.406  29.322  28.811  1.00  0.00    -0.014 A 
BRANCH  31  32
ATOM     32  C   UNL A   1      39.833  28.988  29.055  1.00  0.00     0.031 A 
ATOM     33  C   UNL A   1      40.768  30.034  29.599  1.00  0.00     0.074 A 
ATOM     34  C   UNL A   1      40.310  27.782  28.685  1.00  0.00     0.049 A 
ATOM     35  N   UNL A   1      42.065  29.981  29.753  1.00  0.00    -0.248 NA
ATOM     36  C   UNL A   1      40.168  31.323  29.980  1.00  0.00     0.031 C 
ATOM     37  C   UNL A   1      39.523  26.706  28.076  1.00  0.00     0.029 A 
ATOM     38  N   UNL A   1      41.577  27.261  28.753  1.00  0.00    -0.354 N 
ATOM     39  C   UNL A   1      42.441  31.238  30.212  1.00  0.00     0.074 A 
ATOM     40  C   UNL A   1      41.241  32.044  30.270  1.00  0.00     0.031 C 
ATOM     41  C   UNL A   1      40.319  25.648  27.852  1.00  0.00     0.029 A 
ATOM     42  C   UNL A   1      41.677  25.978  28.268  1.00  0.00     0.049 A 
ATOM     43  H   UNL A   1      42.345  27.760  29.116  1.00  0.00     0.167 HD
ATOM     44  C   UNL A   1      43.671  31.675  30.574  1.00  0.00     0.037 A 
ATOM     45  C   UNL A   1      42.743  25.160  28.168  1.00  0.00     0.037 A 
ATOM     46  C   UNL A   1      44.852  30.854  30.570  1.00  0.00     0.049 A 
ATOM     47  C   UNL A   1      44.084  25.644  28.644  1.00  0.00     0.074 A 
ATOM     48  C   UNL A   1      46.131  31.180  30.987  1.00  0.00     0.029 A 
ATOM     49  N   UNL A   1      44.895  29.536  30.139  1.00  0.00    -0.354 N 
ATOM     50  N   UNL A   1      44.411  26.818  29.126  1.00  0.00    -0.248 NA
ATOM     51  C   UNL A   1      45.200  24.690  28.569  1.00  0.00     0.031 C 
ATOM     52  C   UNL A   1      46.951  30.063  30.794  1.00  0.00     0.029 A 
ATOM     53  C   UNL A   1      46.177  29.034  30.281  1.00  0.00     0.049 A 
ATOM     54  H   UNL A   1      44.127  29.032  29.784  1.00  0.00     0.167 HD
ATOM     55  C   UNL A   1      45.765  26.739  29.432  1.00  0.00     0.074 A 
ATOM     56  C   UNL A   1      46.193  25.398  29.090  1.00  0.00     0.031 C 
ATOM     57  C   UNL A   1      46.579  27.691  29.948  1.00  0.00     0.037 A 
BRANCH  44  58
ATOM     58  C   UNL A   1      43.789  33.104  31.021  1.00  0.00     0.058 A 
ATOM     59  C   UNL A   1      43.931  34.152  30.097  1.00  0.00     0.135 A 
ATOM     60  C   UNL A   1      43.757  33.433  32.385  1.00  0.00     0.135 A 
ATOM     61  F   UNL A   1      43.986  33.889  28.781  1.00  0.00    -0.206 F 
ATOM     62  C   UNL A   1      44.076  35.471  30.510  1.00  0.00     0.059 A 
ATOM     63  C   UNL A   1      43.874  34.749  32.821  1.00  0.00     0.059 A 
ATOM     64  F   UNL A   1      43.623  32.469  33.310  1.00  0.00    -0.206 F 
ATOM     65  C   UNL A   1      44.054  35.759  31.875  1.00  0.00     0.060 A 
BRANCH  65  66
ATOM     66  S   UNL A   1      44.261  37.474  32.402  1.00  0.00     0.124 S 
ATOM     67  O   UNL A   1      45.611  37.445  32.955  1.00  0.00    -0.237 OA
ATOM     68  O   UNL A   1      44.105  38.209  31.152  1.00  0.00    -0.237 OA
ATOM     69  O   UNL A   1      43.187  37.660  33.372  1.00  0.00    -0.744 OA
ENDBRANCH  65  66
ENDBRANCH  44  58
BRANCH  45  70
ATOM     70  C   UNL A   1      42.575  23.784  27.633  1.00  0.00     0.058 A 
ATOM     71  C   UNL A   1      42.360  22.703  28.500  1.00  0.00     0.135 A 
ATOM     72  C   UNL A   1      42.609  23.524  26.256  1.00  0.00     0.135 A 
ATOM     73  F   UNL A   1      42.324  22.903  29.826  1.00  0.00    -0.206 F 
ATOM     74  C   UNL A   1      42.197  21.406  28.021  1.00  0.00     0.059 A 
ATOM     75  C   UNL A   1      42.430  22.239  25.751  1.00  0.00     0.059 A 
ATOM     76  F   UNL A   1      42.795  24.529  25.385  1.00  0.00    -0.206 F 
ATOM     77  C   UNL A   1      42.234  21.185  26.644  1.00  0.00     0.060 A 
BRANCH  77  78
ATOM     78  S   UNL A   1      41.966  19.507  26.028  1.00  0.00     0.124 S 
ATOM     79  O   UNL A   1      42.864  19.471  24.880  1.00  0.00    -0.237 OA
ATOM     80  O   UNL A   1      42.359  18.690  27.171  1.00  0.00    -0.237 OA
ATOM     81  O   UNL A   1      40.540  19.491  25.717  1.00  0.00    -0.744 OA
ENDBRANCH  77  78
ENDBRANCH  45  70
BRANCH  57  82
ATOM     82  C   UNL A   1      48.007  27.308  30.205  1.00  0.00     0.058 A 
ATOM     83  C   UNL A   1      49.014  27.553  29.260  1.00  0.00     0.135 A 
ATOM     84  C   UNL A   1      48.379  26.739  31.434  1.00  0.00     0.135 A 
ATOM     85  F   UNL A   1      48.706  28.090  28.068  1.00  0.00    -0.206 F 
ATOM     86  C   UNL A   1      50.343  27.232  29.518  1.00  0.00     0.059 A 
ATOM     87  C   UNL A   1      49.704  26.428  31.720  1.00  0.00     0.059 A 
ATOM     88  F   UNL A   1      47.452  26.493  32.373  1.00  0.00    -0.206 F 
ATOM     89  C   UNL A   1      50.677  26.669  30.751  1.00  0.00     0.060 A 
BRANCH  89  90
ATOM     90  S   UNL A   1      52.410  26.293  31.093  1.00  0.00     0.124 S 
ATOM     91  O   UNL A   1      52.302  25.004  31.766  1.00  0.00    -0.237 OA
ATOM     92  O   UNL A   1      52.998  26.264  29.757  1.00  0.00    -0.237 OA
ATOM     93  O   UNL A   1      52.837  27.408  31.933  1.00  0.00    -0.744 OA
ENDBRANCH  89  90
ENDBRANCH  57  82
ENDBRANCH  31  32
ENDBRANCH  23  26
ENDBRANCH  21  22
ENDBRANCH   1  21
TORSDOF 17
ENDMDL
