MODEL 1
REMARK VINA RESULT:     -13.3      0.000      0.000
REMARK SMILES Cc1c(CC(=O)NCCCCNC(=O)c2ccc(-c3c4nc(c(-c5c(F)cc(S(=O)(=O)[O-])cc5F)c5ccc([nH]5)c(-c5c(F)cc(S(=O)(=O)[O-])cc5F)c5nc(c(-c6c(F)cc(S(=O)(=O)[O-])cc6F)c6ccc3[nH]6)C=C5)C=C4)cc2)c2cc(O)ccc2n1C(=O)c1ccc(Cl)cc1
REMARK SMILES IDX 9 1 8 2 7 3 5 4 6 5 4 7 3 8 1 9 2 10 88 11 81 12 87 13 82 14
REMARK SMILES IDX 86 15 83 16 85 17 89 18 90 19 91 20 92 21 97 22 93 23 96 24
REMARK SMILES IDX 94 25 95 26 84 27 10 29 11 30 12 31 13 32 14 34 15 35 16 36
REMARK SMILES IDX 80 37 17 38 79 39 18 40 19 41 20 42 73 43 21 44 78 45 72 46
REMARK SMILES IDX 74 47 22 48 77 49 71 50 70 51 23 53 57 54 36 55 56 56 37 57
REMARK SMILES IDX 40 58 55 59 75 60 38 61 39 62 54 64 76 65 41 66 24 67 25 68
REMARK SMILES IDX 34 69 26 70 27 71 33 72 35 73 28 74 29 75 30 76 31 77 32 78
REMARK SMILES IDX 58 79 59 80 68 81 60 82 61 83 67 84 69 85 62 86 63 87 64 88
REMARK SMILES IDX 65 89 66 90 42 91 43 92 52 93 44 94 45 95 51 96 53 97 46 98
REMARK SMILES IDX 47 99 48 100 49 101 50 102
REMARK H PARENT 7 6 84 28 12 33 74 52 40 63
REMARK Flexibility Score: inf
ROOT
ATOM      1  C   UNL A   1      31.747  28.381  27.453  1.00  0.00     0.023 C 
ENDROOT
BRANCH   1   2
ATOM      2  C   UNL A   1      31.373  27.264  26.483  1.00  0.00     0.116 C 
BRANCH   2   3
ATOM      3  N   UNL A   1      32.336  27.119  25.411  1.00  0.00    -0.356 N 
ATOM      4  C   UNL A   1      33.234  26.110  25.207  1.00  0.00     0.224 C 
ATOM      5  O   UNL A   1      33.939  26.151  24.196  1.00  0.00    -0.275 OA
ATOM      6  H   UNL A   1      32.345  27.843  24.744  1.00  0.00     0.163 HD
BRANCH   4   7
ATOM      7  C   UNL A   1      33.294  24.933  26.168  1.00  0.00     0.138 C 
BRANCH   7   8
ATOM      8  C   UNL A   1      33.591  23.620  25.498  1.00  0.00    -0.009 A 
ATOM      9  C   UNL A   1      31.289  23.101  24.399  1.00  0.00     0.065 C 
ATOM     10  C   UNL A   1      32.723  22.838  24.744  1.00  0.00     0.028 A 
ATOM     11  N   UNL A   1      33.385  21.657  24.370  1.00  0.00    -0.280 N 
ATOM     12  C   UNL A   1      34.854  22.963  25.499  1.00  0.00     0.008 A 
ATOM     13  C   UNL A   1      34.731  21.790  24.745  1.00  0.00     0.057 A 
ATOM     14  C   UNL A   1      36.104  23.291  26.073  1.00  0.00     0.056 A 
ATOM     15  C   UNL A   1      35.870  20.991  24.499  1.00  0.00     0.031 A 
ATOM     16  C   UNL A   1      37.194  22.448  25.885  1.00  0.00     0.116 A 
ATOM     17  C   UNL A   1      37.089  21.317  25.099  1.00  0.00     0.048 A 
BRANCH  11  18
ATOM     18  C   UNL A   1      32.773  20.544  23.714  1.00  0.00     0.262 C 
ATOM     19  O   UNL A   1      32.107  20.741  22.709  1.00  0.00    -0.268 OA
BRANCH  18  20
ATOM     20  C   UNL A   1      32.909  19.134  24.127  1.00  0.00     0.040 A 
ATOM     21  C   UNL A   1      33.257  18.134  23.212  1.00  0.00     0.015 A 
ATOM     22  C   UNL A   1      32.662  18.824  25.469  1.00  0.00     0.015 A 
ATOM     23  C   UNL A   1      33.269  16.800  23.632  1.00  0.00     0.021 A 
ATOM     24  C   UNL A   1      32.683  17.493  25.883  1.00  0.00     0.021 A 
ATOM     25  C   UNL A   1      32.967  16.485  24.959  1.00  0.00     0.041 A 
ATOM     26  Cl  UNL A   1      32.921  14.843  25.465  1.00  0.00    -0.084 Cl
ENDBRANCH  18  20
ENDBRANCH  11  18
BRANCH  16  27
ATOM     27  O   UNL A   1      38.370  22.781  26.491  1.00  0.00    -0.508 OA
ATOM     28  H   UNL A   1      38.424  22.809  27.426  1.00  0.00     0.293 HD
ENDBRANCH  16  27
ENDBRANCH   7   8
ENDBRANCH   4   7
ENDBRANCH   2   3
ENDBRANCH   1   2
BRANCH   1  29
ATOM     29  C   UNL A   1      32.068  29.726  26.785  1.00  0.00     0.023 C 
BRANCH  29  30
ATOM     30  C   UNL A   1      33.523  30.179  26.928  1.00  0.00     0.116 C 
BRANCH  30  31
ATOM     31  N   UNL A   1      33.713  31.181  27.958  1.00  0.00    -0.352 N 
ATOM     32  C   UNL A   1      34.771  31.600  28.715  1.00  0.00     0.251 C 
ATOM     33  H   UNL A   1      32.886  31.675  28.159  1.00  0.00     0.163 HD
ATOM     34  O   UNL A   1      34.552  32.575  29.439  1.00  0.00    -0.269 OA
BRANCH  32  35
ATOM     35  C   UNL A   1      36.117  30.962  28.750  1.00  0.00     0.039 A 
ATOM     36  C   UNL A   1      36.378  29.604  28.572  1.00  0.00     0.014 A 
ATOM     37  C   UNL A   1      37.198  31.820  29.033  1.00  0.00     0.014 A 
ATOM     38  C   UNL A   1      37.668  29.104  28.727  1.00  0.00     0.010 A 
ATOM     39  C   UNL A   1      38.491  31.326  29.183  1.00  0.00     0.010 A 
ATOM     40  C   UNL A   1      38.718  29.959  29.066  1.00  0.00    -0.014 A 
BRANCH  40  41
ATOM     41  C   UNL A   1      40.038  29.364  29.251  1.00  0.00     0.031 A 
ATOM     42  C   UNL A   1      40.518  29.238  30.660  1.00  0.00     0.074 A 
ATOM     43  C   UNL A   1      40.763  28.859  28.234  1.00  0.00     0.049 A 
ATOM     44  N   UNL A   1      41.572  29.754  31.204  1.00  0.00    -0.248 NA
ATOM     45  C   UNL A   1      39.665  28.494  31.599  1.00  0.00     0.031 C 
ATOM     46  C   UNL A   1      40.346  28.640  26.847  1.00  0.00     0.029 A 
ATOM     47  N   UNL A   1      42.021  28.335  28.266  1.00  0.00    -0.354 N 
ATOM     48  C   UNL A   1      41.620  29.261  32.508  1.00  0.00     0.074 A 
ATOM     49  C   UNL A   1      40.366  28.587  32.731  1.00  0.00     0.031 C 
ATOM     50  C   UNL A   1      41.242  27.833  26.239  1.00  0.00     0.029 A 
ATOM     51  C   UNL A   1      42.353  27.591  27.145  1.00  0.00     0.049 A 
ATOM     52  H   UNL A   1      42.639  28.473  29.020  1.00  0.00     0.167 HD
ATOM     53  C   UNL A   1      42.750  29.295  33.268  1.00  0.00     0.037 A 
ATOM     54  C   UNL A   1      43.424  26.772  27.005  1.00  0.00     0.037 A 
ATOM     55  C   UNL A   1      43.717  30.228  32.756  1.00  0.00     0.049 A 
ATOM     56  C   UNL A   1      44.440  27.194  28.004  1.00  0.00     0.074 A 
ATOM     57  C   UNL A   1      43.733  31.593  32.546  1.00  0.00     0.029 A 
ATOM     58  N   UNL A   1      44.801  29.736  32.073  1.00  0.00    -0.354 N 
ATOM     59  N   UNL A   1      45.086  28.326  27.965  1.00  0.00    -0.248 NA
ATOM     60  C   UNL A   1      44.456  26.515  29.293  1.00  0.00     0.031 C 
ATOM     61  C   UNL A   1      44.516  31.778  31.370  1.00  0.00     0.029 A 
ATOM     62  C   UNL A   1      44.950  30.519  30.955  1.00  0.00     0.049 A 
ATOM     63  H   UNL A   1      45.363  28.971  32.333  1.00  0.00     0.167 HD
ATOM     64  C   UNL A   1      45.237  28.700  29.292  1.00  0.00     0.074 A 
ATOM     65  C   UNL A   1      44.924  27.501  30.062  1.00  0.00     0.031 C 
ATOM     66  C   UNL A   1      45.336  30.013  29.656  1.00  0.00     0.037 A 
BRANCH  53  67
ATOM     67  C   UNL A   1      43.107  28.272  34.321  1.00  0.00     0.058 A 
ATOM     68  C   UNL A   1      43.325  28.677  35.655  1.00  0.00     0.135 A 
ATOM     69  C   UNL A   1      43.516  26.957  34.008  1.00  0.00     0.135 A 
ATOM     70  F   UNL A   1      42.982  29.911  36.060  1.00  0.00    -0.206 F 
ATOM     71  C   UNL A   1      43.968  27.861  36.588  1.00  0.00     0.059 A 
ATOM     72  C   UNL A   1      44.109  26.108  34.938  1.00  0.00     0.059 A 
ATOM     73  F   UNL A   1      43.449  26.472  32.761  1.00  0.00    -0.206 F 
ATOM     74  C   UNL A   1      44.374  26.585  36.211  1.00  0.00     0.060 A 
BRANCH  74  75
ATOM     75  S   UNL A   1      45.328  25.583  37.367  1.00  0.00     0.124 S 
ATOM     76  O   UNL A   1      46.656  26.171  37.230  1.00  0.00    -0.237 OA
ATOM     77  O   UNL A   1      44.642  25.838  38.629  1.00  0.00    -0.237 OA
ATOM     78  O   UNL A   1      45.179  24.230  36.840  1.00  0.00    -0.744 OA
ENDBRANCH  74  75
ENDBRANCH  53  67
BRANCH  54  79
ATOM     79  C   UNL A   1      43.477  25.462  26.305  1.00  0.00     0.058 A 
ATOM     80  C   UNL A   1      44.402  25.227  25.273  1.00  0.00     0.135 A 
ATOM     81  C   UNL A   1      42.814  24.326  26.814  1.00  0.00     0.135 A 
ATOM     82  F   UNL A   1      45.098  26.245  24.745  1.00  0.00    -0.206 F 
ATOM     83  C   UNL A   1      44.691  23.938  24.810  1.00  0.00     0.059 A 
ATOM     84  C   UNL A   1      43.071  23.036  26.356  1.00  0.00     0.059 A 
ATOM     85  F   UNL A   1      41.958  24.420  27.842  1.00  0.00    -0.206 F 
ATOM     86  C   UNL A   1      44.035  22.846  25.375  1.00  0.00     0.060 A 
BRANCH  86  87
ATOM     87  S   UNL A   1      44.532  21.171  24.910  1.00  0.00     0.124 S 
ATOM     88  O   UNL A   1      44.581  21.263  23.455  1.00  0.00    -0.237 OA
ATOM     89  O   UNL A   1      45.819  21.037  25.586  1.00  0.00    -0.237 OA
ATOM     90  O   UNL A   1      43.460  20.337  25.447  1.00  0.00    -0.744 OA
ENDBRANCH  86  87
ENDBRANCH  54  79
BRANCH  66  91
ATOM     91  C   UNL A   1      45.583  31.041  28.582  1.00  0.00     0.058 A 
ATOM     92  C   UNL A   1      44.574  31.572  27.761  1.00  0.00     0.135 A 
ATOM     93  C   UNL A   1      46.849  31.643  28.511  1.00  0.00     0.135 A 
ATOM     94  F   UNL A   1      43.312  31.126  27.842  1.00  0.00    -0.206 F 
ATOM     95  C   UNL A   1      44.818  32.633  26.888  1.00  0.00     0.059 A 
ATOM     96  C   UNL A   1      47.108  32.723  27.671  1.00  0.00     0.059 A 
ATOM     97  F   UNL A   1      47.840  31.223  29.316  1.00  0.00    -0.206 F 
ATOM     98  C   UNL A   1      46.088  33.209  26.856  1.00  0.00     0.060 A 
BRANCH  98  99
ATOM     99  S   UNL A   1      46.361  34.659  25.814  1.00  0.00     0.124 S 
ATOM    100  O   UNL A   1      47.747  34.480  25.393  1.00  0.00    -0.237 OA
ATOM    101  O   UNL A   1      45.355  34.494  24.767  1.00  0.00    -0.237 OA
ATOM    102  O   UNL A   1      46.124  35.782  26.719  1.00  0.00    -0.744 OA
ENDBRANCH  98  99
ENDBRANCH  66  91
ENDBRANCH  40  41
ENDBRANCH  32  35
ENDBRANCH  30  31
ENDBRANCH  29  30
ENDBRANCH   1  29
TORSDOF 18
ENDMDL
MODEL 2
REMARK VINA RESULT:     -13.3      3.538     10.043
REMARK SMILES Cc1c(CC(=O)NCCCCNC(=O)c2ccc(-c3c4nc(c(-c5c(F)cc(S(=O)(=O)[O-])cc5F)c5ccc([nH]5)c(-c5c(F)cc(S(=O)(=O)[O-])cc5F)c5nc(c(-c6c(F)cc(S(=O)(=O)[O-])cc6F)c6ccc3[nH]6)C=C5)C=C4)cc2)c2cc(O)ccc2n1C(=O)c1ccc(Cl)cc1
REMARK SMILES IDX 9 1 8 2 7 3 5 4 6 5 4 7 3 8 1 9 2 10 88 11 81 12 87 13 82 14
REMARK SMILES IDX 86 15 83 16 85 17 89 18 90 19 91 20 92 21 97 22 93 23 96 24
REMARK SMILES IDX 94 25 95 26 84 27 10 29 11 30 12 31 13 32 14 34 15 35 16 36
REMARK SMILES IDX 80 37 17 38 79 39 18 40 19 41 20 42 73 43 21 44 78 45 72 46
REMARK SMILES IDX 74 47 22 48 77 49 71 50 70 51 23 53 57 54 36 55 56 56 37 57
REMARK SMILES IDX 40 58 55 59 75 60 38 61 39 62 54 64 76 65 41 66 24 67 25 68
REMARK SMILES IDX 34 69 26 70 27 71 33 72 35 73 28 74 29 75 30 76 31 77 32 78
REMARK SMILES IDX 58 79 59 80 68 81 60 82 61 83 67 84 69 85 62 86 63 87 64 88
REMARK SMILES IDX 65 89 66 90 42 91 43 92 52 93 44 94 45 95 51 96 53 97 46 98
REMARK SMILES IDX 47 99 48 100 49 101 50 102
REMARK H PARENT 7 6 84 28 12 33 74 52 40 63
REMARK Flexibility Score: inf
ROOT
ATOM      1  C   UNL A   1      35.641  22.666  23.535  1.00  0.00     0.023 C 
ENDROOT
BRANCH   1   2
ATOM      2  C   UNL A   1      34.300  23.396  23.547  1.00  0.00     0.116 C 
BRANCH   2   3
ATOM      3  N   UNL A   1      34.189  24.365  22.477  1.00  0.00    -0.356 N 
ATOM      4  C   UNL A   1      33.153  25.211  22.201  1.00  0.00     0.224 C 
ATOM      5  O   UNL A   1      33.277  26.001  21.263  1.00  0.00    -0.275 OA
ATOM      6  H   UNL A   1      34.961  24.419  21.868  1.00  0.00     0.163 HD
BRANCH   4   7
ATOM      7  C   UNL A   1      31.917  25.222  23.088  1.00  0.00     0.138 C 
BRANCH   7   8
ATOM      8  C   UNL A   1      31.807  26.444  23.956  1.00  0.00    -0.009 A 
ATOM      9  C   UNL A   1      33.320  25.760  25.960  1.00  0.00     0.065 C 
ATOM     10  C   UNL A   1      32.408  26.666  25.189  1.00  0.00     0.028 A 
ATOM     11  N   UNL A   1      31.978  27.906  25.689  1.00  0.00    -0.280 N 
ATOM     12  C   UNL A   1      31.074  27.621  23.630  1.00  0.00     0.008 A 
ATOM     13  C   UNL A   1      31.243  28.538  24.674  1.00  0.00     0.057 A 
ATOM     14  C   UNL A   1      30.291  27.982  22.509  1.00  0.00     0.056 A 
ATOM     15  C   UNL A   1      30.699  29.837  24.562  1.00  0.00     0.031 A 
ATOM     16  C   UNL A   1      29.697  29.239  22.456  1.00  0.00     0.116 A 
ATOM     17  C   UNL A   1      29.904  30.164  23.460  1.00  0.00     0.048 A 
BRANCH  11  18
ATOM     18  C   UNL A   1      32.266  28.411  26.995  1.00  0.00     0.262 C 
ATOM     19  O   UNL A   1      31.791  27.845  27.968  1.00  0.00    -0.268 OA
BRANCH  18  20
ATOM     20  C   UNL A   1      33.142  29.562  27.286  1.00  0.00     0.040 A 
ATOM     21  C   UNL A   1      32.641  30.866  27.343  1.00  0.00     0.015 A 
ATOM     22  C   UNL A   1      34.503  29.308  27.488  1.00  0.00     0.015 A 
ATOM     23  C   UNL A   1      33.529  31.932  27.518  1.00  0.00     0.021 A 
ATOM     24  C   UNL A   1      35.383  30.373  27.669  1.00  0.00     0.021 A 
ATOM     25  C   UNL A   1      34.896  31.681  27.664  1.00  0.00     0.041 A 
ATOM     26  Cl  UNL A   1      36.000  32.990  27.818  1.00  0.00    -0.084 Cl
ENDBRANCH  18  20
ENDBRANCH  11  18
BRANCH  16  27
ATOM     27  O   UNL A   1      28.916  29.531  21.377  1.00  0.00    -0.508 OA
ATOM     28  H   UNL A   1      28.655  30.415  21.213  1.00  0.00     0.293 HD
ENDBRANCH  16  27
ENDBRANCH   7   8
ENDBRANCH   4   7
ENDBRANCH   2   3
ENDBRANCH   1   2
BRANCH   1  29
ATOM     29  C   UNL A   1      36.692  23.248  24.491  1.00  0.00     0.023 C 
BRANCH  29  30
ATOM     30  C   UNL A   1      37.057  22.339  25.668  1.00  0.00     0.116 C 
BRANCH  30  31
ATOM     31  N   UNL A   1      38.429  21.876  25.631  1.00  0.00    -0.352 N 
ATOM     32  C   UNL A   1      39.605  22.295  26.187  1.00  0.00     0.251 C 
ATOM     33  H   UNL A   1      38.541  21.073  25.074  1.00  0.00     0.163 HD
ATOM     34  O   UNL A   1      40.577  21.559  25.992  1.00  0.00    -0.269 OA
BRANCH  32  35
ATOM     35  C   UNL A   1      39.797  23.552  26.963  1.00  0.00     0.039 A 
ATOM     36  C   UNL A   1      38.911  24.629  26.998  1.00  0.00     0.014 A 
ATOM     37  C   UNL A   1      41.007  23.658  27.677  1.00  0.00     0.014 A 
ATOM     38  C   UNL A   1      39.242  25.797  27.678  1.00  0.00     0.010 A 
ATOM     39  C   UNL A   1      41.340  24.822  28.363  1.00  0.00     0.010 A 
ATOM     40  C   UNL A   1      40.470  25.907  28.331  1.00  0.00    -0.014 A 
BRANCH  40  41
ATOM     41  C   UNL A   1      40.771  27.174  28.992  1.00  0.00     0.031 A 
ATOM     42  C   UNL A   1      41.891  27.975  28.414  1.00  0.00     0.074 A 
ATOM     43  C   UNL A   1      40.033  27.664  30.007  1.00  0.00     0.049 A 
ATOM     44  N   UNL A   1      42.990  28.354  28.981  1.00  0.00    -0.248 NA
ATOM     45  C   UNL A   1      41.798  28.337  26.991  1.00  0.00     0.031 C 
ATOM     46  C   UNL A   1      38.752  27.168  30.516  1.00  0.00     0.029 A 
ATOM     47  N   UNL A   1      40.241  28.794  30.740  1.00  0.00    -0.354 N 
ATOM     48  C   UNL A   1      43.654  29.153  28.050  1.00  0.00     0.074 A 
ATOM     49  C   UNL A   1      42.933  29.013  26.811  1.00  0.00     0.031 C 
ATOM     50  C   UNL A   1      38.197  28.110  31.309  1.00  0.00     0.029 A 
ATOM     51  C   UNL A   1      39.136  29.208  31.468  1.00  0.00     0.049 A 
ATOM     52  H   UNL A   1      41.101  29.274  30.751  1.00  0.00     0.167 HD
ATOM     53  C   UNL A   1      44.658  30.008  28.395  1.00  0.00     0.037 A 
ATOM     54  C   UNL A   1      38.978  30.403  32.088  1.00  0.00     0.037 A 
ATOM     55  C   UNL A   1      45.210  29.699  29.686  1.00  0.00     0.049 A 
ATOM     56  C   UNL A   1      40.333  30.971  32.313  1.00  0.00     0.074 A 
ATOM     57  C   UNL A   1      45.859  28.607  30.228  1.00  0.00     0.029 A 
ATOM     58  N   UNL A   1      44.858  30.487  30.754  1.00  0.00    -0.354 N 
ATOM     59  N   UNL A   1      41.215  30.469  33.134  1.00  0.00    -0.248 NA
ATOM     60  C   UNL A   1      40.865  31.888  31.316  1.00  0.00     0.031 C 
ATOM     61  C   UNL A   1      45.431  28.557  31.586  1.00  0.00     0.029 A 
ATOM     62  C   UNL A   1      44.572  29.637  31.793  1.00  0.00     0.049 A 
ATOM     63  H   UNL A   1      44.818  31.470  30.771  1.00  0.00     0.167 HD
ATOM     64  C   UNL A   1      42.439  30.676  32.516  1.00  0.00     0.074 A 
ATOM     65  C   UNL A   1      42.170  31.643  31.456  1.00  0.00     0.031 C 
ATOM     66  C   UNL A   1      43.501  29.847  32.741  1.00  0.00     0.037 A 
BRANCH  53  67
ATOM     67  C   UNL A   1      44.954  31.312  27.691  1.00  0.00     0.058 A 
ATOM     68  C   UNL A   1      46.204  31.510  27.068  1.00  0.00     0.135 A 
ATOM     69  C   UNL A   1      44.162  32.469  27.851  1.00  0.00     0.135 A 
ATOM     70  F   UNL A   1      47.042  30.478  26.873  1.00  0.00    -0.206 F 
ATOM     71  C   UNL A   1      46.662  32.775  26.697  1.00  0.00     0.059 A 
ATOM     72  C   UNL A   1      44.577  33.733  27.439  1.00  0.00     0.059 A 
ATOM     73  F   UNL A   1      42.992  32.444  28.503  1.00  0.00    -0.206 F 
ATOM     74  C   UNL A   1      45.847  33.883  26.907  1.00  0.00     0.060 A 
BRANCH  74  75
ATOM     75  S   UNL A   1      46.490  35.532  26.562  1.00  0.00     0.124 S 
ATOM     76  O   UNL A   1      47.630  35.593  27.469  1.00  0.00    -0.237 OA
ATOM     77  O   UNL A   1      46.805  35.444  25.141  1.00  0.00    -0.237 OA
ATOM     78  O   UNL A   1      45.369  36.405  26.898  1.00  0.00    -0.744 OA
ENDBRANCH  74  75
ENDBRANCH  53  67
BRANCH  54  79
ATOM     79  C   UNL A   1      37.737  31.215  32.185  1.00  0.00     0.058 A 
ATOM     80  C   UNL A   1      37.220  31.606  33.433  1.00  0.00     0.135 A 
ATOM     81  C   UNL A   1      37.185  31.857  31.057  1.00  0.00     0.135 A 
ATOM     82  F   UNL A   1      37.702  31.066  34.563  1.00  0.00    -0.206 F 
ATOM     83  C   UNL A   1      36.253  32.609  33.558  1.00  0.00     0.059 A 
ATOM     84  C   UNL A   1      36.209  32.845  31.156  1.00  0.00     0.059 A 
ATOM     85  F   UNL A   1      37.645  31.612  29.821  1.00  0.00    -0.206 F 
ATOM     86  C   UNL A   1      35.769  33.239  32.412  1.00  0.00     0.060 A 
BRANCH  86  87
ATOM     87  S   UNL A   1      34.658  34.655  32.577  1.00  0.00     0.124 S 
ATOM     88  O   UNL A   1      33.530  34.072  33.295  1.00  0.00    -0.237 OA
ATOM     89  O   UNL A   1      35.477  35.599  33.330  1.00  0.00    -0.237 OA
ATOM     90  O   UNL A   1      34.385  35.036  31.194  1.00  0.00    -0.744 OA
ENDBRANCH  86  87
ENDBRANCH  54  79
BRANCH  66  91
ATOM     91  C   UNL A   1      43.427  28.880  33.895  1.00  0.00     0.058 A 
ATOM     92  C   UNL A   1      43.804  29.201  35.210  1.00  0.00     0.135 A 
ATOM     93  C   UNL A   1      42.779  27.651  33.696  1.00  0.00     0.135 A 
ATOM     94  F   UNL A   1      44.332  30.398  35.504  1.00  0.00    -0.206 F 
ATOM     95  C   UNL A   1      43.574  28.329  36.275  1.00  0.00     0.059 A 
ATOM     96  C   UNL A   1      42.510  26.778  34.749  1.00  0.00     0.059 A 
ATOM     97  F   UNL A   1      42.338  27.312  32.473  1.00  0.00    -0.206 F 
ATOM     98  C   UNL A   1      42.917  27.122  36.036  1.00  0.00     0.060 A 
BRANCH  98  99
ATOM     99  S   UNL A   1      42.514  26.057  37.438  1.00  0.00     0.124 S 
ATOM    100  O   UNL A   1      41.080  26.276  37.590  1.00  0.00    -0.237 OA
ATOM    101  O   UNL A   1      42.904  24.734  36.955  1.00  0.00    -0.237 OA
ATOM    102  O   UNL A   1      43.344  26.582  38.519  1.00  0.00    -0.744 OA
ENDBRANCH  98  99
ENDBRANCH  66  91
ENDBRANCH  40  41
ENDBRANCH  32  35
ENDBRANCH  30  31
ENDBRANCH  29  30
ENDBRANCH   1  29
TORSDOF 18
ENDMDL
MODEL 3
REMARK VINA RESULT:     -13.2      2.468      8.835
REMARK SMILES Cc1c(CC(=O)NCCCCNC(=O)c2ccc(-c3c4nc(c(-c5c(F)cc(S(=O)(=O)[O-])cc5F)c5ccc([nH]5)c(-c5c(F)cc(S(=O)(=O)[O-])cc5F)c5nc(c(-c6c(F)cc(S(=O)(=O)[O-])cc6F)c6ccc3[nH]6)C=C5)C=C4)cc2)c2cc(O)ccc2n1C(=O)c1ccc(Cl)cc1
REMARK SMILES IDX 9 1 8 2 7 3 5 4 6 5 4 7 3 8 1 9 2 10 88 11 81 12 87 13 82 14
REMARK SMILES IDX 86 15 83 16 85 17 89 18 90 19 91 20 92 21 97 22 93 23 96 24
REMARK SMILES IDX 94 25 95 26 84 27 10 29 11 30 12 31 13 32 14 34 15 35 16 36
REMARK SMILES IDX 80 37 17 38 79 39 18 40 19 41 20 42 73 43 21 44 78 45 72 46
REMARK SMILES IDX 74 47 22 48 77 49 71 50 70 51 23 53 57 54 36 55 56 56 37 57
REMARK SMILES IDX 40 58 55 59 75 60 38 61 39 62 54 64 76 65 41 66 24 67 25 68
REMARK SMILES IDX 34 69 26 70 27 71 33 72 35 73 28 74 29 75 30 76 31 77 32 78
REMARK SMILES IDX 58 79 59 80 68 81 60 82 61 83 67 84 69 85 62 86 63 87 64 88
REMARK SMILES IDX 65 89 66 90 42 91 43 92 52 93 44 94 45 95 51 96 53 97 46 98
REMARK SMILES IDX 47 99 48 100 49 101 50 102
REMARK H PARENT 7 6 84 28 12 33 74 52 40 63
REMARK Flexibility Score: inf
ROOT
ATOM      1  C   UNL A   1      40.312  21.638  26.592  1.00  0.00     0.023 C 
ENDROOT
BRANCH   1   2
ATOM      2  C   UNL A   1      38.903  22.221  26.664  1.00  0.00     0.116 C 
BRANCH   2   3
ATOM      3  N   UNL A   1      38.445  22.715  25.382  1.00  0.00    -0.356 N 
ATOM      4  C   UNL A   1      37.204  23.178  25.046  1.00  0.00     0.224 C 
ATOM      5  O   UNL A   1      37.030  23.603  23.901  1.00  0.00    -0.275 OA
ATOM      6  H   UNL A   1      39.113  22.715  24.660  1.00  0.00     0.163 HD
BRANCH   4   7
ATOM      7  C   UNL A   1      36.099  23.237  26.089  1.00  0.00     0.138 C 
BRANCH   7   8
ATOM      8  C   UNL A   1      34.815  22.592  25.646  1.00  0.00    -0.009 A 
ATOM      9  C   UNL A   1      35.698  20.322  24.728  1.00  0.00     0.065 C 
ATOM     10  C   UNL A   1      34.652  21.342  25.058  1.00  0.00     0.028 A 
ATOM     11  N   UNL A   1      33.297  21.167  24.733  1.00  0.00    -0.280 N 
ATOM     12  C   UNL A   1      33.517  23.160  25.791  1.00  0.00     0.008 A 
ATOM     13  C   UNL A   1      32.587  22.243  25.287  1.00  0.00     0.057 A 
ATOM     14  C   UNL A   1      33.062  24.383  26.333  1.00  0.00     0.056 A 
ATOM     15  C   UNL A   1      31.205  22.514  25.397  1.00  0.00     0.031 A 
ATOM     16  C   UNL A   1      31.700  24.664  26.359  1.00  0.00     0.116 A 
ATOM     17  C   UNL A   1      30.776  23.741  25.910  1.00  0.00     0.048 A 
BRANCH  11  18
ATOM     18  C   UNL A   1      32.767  20.070  23.985  1.00  0.00     0.262 C 
ATOM     19  O   UNL A   1      32.169  20.296  22.945  1.00  0.00    -0.268 OA
BRANCH  18  20
ATOM     20  C   UNL A   1      32.916  18.646  24.344  1.00  0.00     0.040 A 
ATOM     21  C   UNL A   1      33.378  17.704  23.419  1.00  0.00     0.015 A 
ATOM     22  C   UNL A   1      32.562  18.263  25.642  1.00  0.00     0.015 A 
ATOM     23  C   UNL A   1      33.400  16.352  23.776  1.00  0.00     0.021 A 
ATOM     24  C   UNL A   1      32.594  16.915  25.994  1.00  0.00     0.021 A 
ATOM     25  C   UNL A   1      32.994  15.963  25.055  1.00  0.00     0.041 A 
ATOM     26  Cl  UNL A   1      32.962  14.298  25.479  1.00  0.00    -0.084 Cl
ENDBRANCH  18  20
ENDBRANCH  11  18
BRANCH  16  27
ATOM     27  O   UNL A   1      31.307  25.873  26.853  1.00  0.00    -0.508 OA
ATOM     28  H   UNL A   1      30.399  26.101  26.867  1.00  0.00     0.293 HD
ENDBRANCH  16  27
ENDBRANCH   7   8
ENDBRANCH   4   7
ENDBRANCH   2   3
ENDBRANCH   1   2
BRANCH   1  29
ATOM     29  C   UNL A   1      40.397  20.252  25.939  1.00  0.00     0.023 C 
BRANCH  29  30
ATOM     30  C   UNL A   1      41.649  19.449  26.306  1.00  0.00     0.116 C 
BRANCH  30  31
ATOM     31  N   UNL A   1      42.746  19.645  25.380  1.00  0.00    -0.352 N 
ATOM     32  C   UNL A   1      43.641  20.649  25.141  1.00  0.00     0.251 C 
ATOM     33  H   UNL A   1      42.878  18.873  24.784  1.00  0.00     0.163 HD
ATOM     34  O   UNL A   1      44.515  20.395  24.306  1.00  0.00    -0.269 OA
BRANCH  32  35
ATOM     35  C   UNL A   1      43.618  21.997  25.774  1.00  0.00     0.039 A 
ATOM     36  C   UNL A   1      44.048  22.296  27.067  1.00  0.00     0.014 A 
ATOM     37  C   UNL A   1      43.068  23.035  24.995  1.00  0.00     0.014 A 
ATOM     38  C   UNL A   1      43.884  23.576  27.590  1.00  0.00     0.010 A 
ATOM     39  C   UNL A   1      42.908  24.318  25.511  1.00  0.00     0.010 A 
ATOM     40  C   UNL A   1      43.283  24.577  26.826  1.00  0.00    -0.014 A 
BRANCH  40  41
ATOM     41  C   UNL A   1      43.108  25.886  27.448  1.00  0.00     0.031 A 
ATOM     42  C   UNL A   1      44.172  26.897  27.178  1.00  0.00     0.074 A 
ATOM     43  C   UNL A   1      42.008  26.221  28.151  1.00  0.00     0.049 A 
ATOM     44  N   UNL A   1      44.942  27.506  28.022  1.00  0.00    -0.248 NA
ATOM     45  C   UNL A   1      44.460  27.216  25.771  1.00  0.00     0.031 C 
ATOM     46  C   UNL A   1      40.756  25.473  28.282  1.00  0.00     0.029 A 
ATOM     47  N   UNL A   1      41.751  27.378  28.823  1.00  0.00    -0.354 N 
ATOM     48  C   UNL A   1      45.693  28.416  27.279  1.00  0.00     0.074 A 
ATOM     49  C   UNL A   1      45.439  28.114  25.893  1.00  0.00     0.031 C 
ATOM     50  C   UNL A   1      39.807  26.286  28.795  1.00  0.00     0.029 A 
ATOM     51  C   UNL A   1      40.414  27.559  29.147  1.00  0.00     0.049 A 
ATOM     52  H   UNL A   1      42.452  28.029  29.058  1.00  0.00     0.167 HD
ATOM     53  C   UNL A   1      46.350  29.467  27.846  1.00  0.00     0.037 A 
ATOM     54  C   UNL A   1      39.839  28.701  29.596  1.00  0.00     0.037 A 
ATOM     55  C   UNL A   1      46.520  29.296  29.263  1.00  0.00     0.049 A 
ATOM     56  C   UNL A   1      40.916  29.543  30.179  1.00  0.00     0.074 A 
ATOM     57  C   UNL A   1      47.168  28.371  30.058  1.00  0.00     0.029 A 
ATOM     58  N   UNL A   1      45.704  30.004  30.109  1.00  0.00    -0.354 N 
ATOM     59  N   UNL A   1      41.577  29.248  31.264  1.00  0.00    -0.248 NA
ATOM     60  C   UNL A   1      41.542  30.541  29.323  1.00  0.00     0.031 C 
ATOM     61  C   UNL A   1      46.355  28.248  31.222  1.00  0.00     0.029 A 
ATOM     62  C   UNL A   1      45.280  29.125  31.074  1.00  0.00     0.049 A 
ATOM     63  H   UNL A   1      45.469  30.957  30.039  1.00  0.00     0.167 HD
ATOM     64  C   UNL A   1      42.867  29.701  31.034  1.00  0.00     0.074 A 
ATOM     65  C   UNL A   1      42.759  30.577  29.872  1.00  0.00     0.031 C 
ATOM     66  C   UNL A   1      43.946  29.116  31.633  1.00  0.00     0.037 A 
BRANCH  53  67
ATOM     67  C   UNL A   1      46.590  30.795  27.167  1.00  0.00     0.058 A 
ATOM     68  C   UNL A   1      47.892  31.336  27.114  1.00  0.00     0.135 A 
ATOM     69  C   UNL A   1      45.547  31.681  26.820  1.00  0.00     0.135 A 
ATOM     70  F   UNL A   1      48.959  30.585  27.433  1.00  0.00    -0.206 F 
ATOM     71  C   UNL A   1      48.132  32.677  26.808  1.00  0.00     0.059 A 
ATOM     72  C   UNL A   1      45.769  33.007  26.459  1.00  0.00     0.059 A 
ATOM     73  F   UNL A   1      44.258  31.329  26.910  1.00  0.00    -0.206 F 
ATOM     74  C   UNL A   1      47.060  33.509  26.502  1.00  0.00     0.060 A 
BRANCH  74  75
ATOM     75  S   UNL A   1      47.351  35.270  26.246  1.00  0.00     0.124 S 
ATOM     76  O   UNL A   1      48.282  35.247  25.124  1.00  0.00    -0.237 OA
ATOM     77  O   UNL A   1      46.008  35.761  25.955  1.00  0.00    -0.237 OA
ATOM     78  O   UNL A   1      47.910  35.706  27.522  1.00  0.00    -0.744 OA
ENDBRANCH  74  75
ENDBRANCH  53  67
BRANCH  54  79
ATOM     79  C   UNL A   1      38.496  29.236  29.250  1.00  0.00     0.058 A 
ATOM     80  C   UNL A   1      37.559  29.550  30.249  1.00  0.00     0.135 A 
ATOM     81  C   UNL A   1      38.202  29.707  27.953  1.00  0.00     0.135 A 
ATOM     82  F   UNL A   1      37.768  29.163  31.517  1.00  0.00    -0.206 F 
ATOM     83  C   UNL A   1      36.426  30.330  29.990  1.00  0.00     0.059 A 
ATOM     84  C   UNL A   1      37.072  30.469  27.668  1.00  0.00     0.059 A 
ATOM     85  F   UNL A   1      39.054  29.523  26.934  1.00  0.00    -0.206 F 
ATOM     86  C   UNL A   1      36.203  30.804  28.698  1.00  0.00     0.060 A 
BRANCH  86  87
ATOM     87  S   UNL A   1      34.845  31.957  28.395  1.00  0.00     0.124 S 
ATOM     88  O   UNL A   1      35.505  33.006  27.624  1.00  0.00    -0.237 OA
ATOM     89  O   UNL A   1      33.896  31.126  27.662  1.00  0.00    -0.237 OA
ATOM     90  O   UNL A   1      34.422  32.344  29.738  1.00  0.00    -0.744 OA
ENDBRANCH  86  87
ENDBRANCH  54  79
BRANCH  66  91
ATOM     91  C   UNL A   1      43.706  28.168  32.781  1.00  0.00     0.058 A 
ATOM     92  C   UNL A   1      43.477  28.584  34.103  1.00  0.00     0.135 A 
ATOM     93  C   UNL A   1      43.517  26.807  32.495  1.00  0.00     0.135 A 
ATOM     94  F   UNL A   1      43.533  29.880  34.439  1.00  0.00    -0.206 F 
ATOM     95  C   UNL A   1      43.105  27.684  35.103  1.00  0.00     0.059 A 
ATOM     96  C   UNL A   1      43.115  25.896  33.469  1.00  0.00     0.059 A 
ATOM     97  F   UNL A   1      43.659  26.358  31.237  1.00  0.00    -0.206 F 
ATOM     98  C   UNL A   1      42.917  26.341  34.775  1.00  0.00     0.060 A 
BRANCH  98  99
ATOM     99  S   UNL A   1      42.317  25.208  36.047  1.00  0.00     0.124 S 
ATOM    100  O   UNL A   1      43.016  25.682  37.237  1.00  0.00    -0.237 OA
ATOM    101  O   UNL A   1      40.875  25.440  36.026  1.00  0.00    -0.237 OA
ATOM    102  O   UNL A   1      42.733  23.895  35.560  1.00  0.00    -0.744 OA
ENDBRANCH  98  99
ENDBRANCH  66  91
ENDBRANCH  40  41
ENDBRANCH  32  35
ENDBRANCH  30  31
ENDBRANCH  29  30
ENDBRANCH   1  29
TORSDOF 18
ENDMDL
