MODEL 1
REMARK VINA RESULT:     -13.1      0.000      0.000
REMARK SMILES O=C(NCCCCNC(=O)c1ccnc(-n2cnnn2)c1)c1ccc(-c2c3nc(c(-c4c(F)cc(S(=O)(=O)[O-])cc4F)c4ccc([nH]4)c(-c4c(F)cc(S(=O)(=O)[O-])cc4F)c4nc(c(-c5c(F)cc(S(=O)(=O)[O-])cc5F)c5ccc2[nH]5)C=C4)C=C3)cc1
REMARK SMILES IDX 4 1 3 2 1 3 2 4 22 6 23 7 87 8 24 9 86 10 25 11 26 12 27 13
REMARK SMILES IDX 80 14 28 15 85 16 79 17 81 18 29 19 84 20 78 21 77 22 30 24
REMARK SMILES IDX 64 25 43 26 63 27 44 28 47 29 62 30 82 31 45 32 46 33 61 35
REMARK SMILES IDX 83 36 48 37 31 38 32 39 41 40 33 41 34 42 40 43 42 44 35 45
REMARK SMILES IDX 36 46 37 47 38 48 39 49 65 50 66 51 75 52 67 53 68 54 74 55
REMARK SMILES IDX 76 56 69 57 70 58 71 59 72 60 73 61 49 62 50 63 59 64 51 65
REMARK SMILES IDX 52 66 58 67 60 68 53 69 54 70 55 71 56 72 57 73 5 74 6 75
REMARK SMILES IDX 7 76 8 77 9 78 10 80 11 81 12 82 21 83 13 84 15 85 14 86
REMARK SMILES IDX 16 87 17 88 20 89 18 90 19 91
REMARK H PARENT 3 5 81 23 47 34 8 79
REMARK Flexibility Score: inf
ROOT
ATOM      1  C   UNL A   1      37.383  23.114  25.033  1.00  0.00     0.116 C 
ENDROOT
BRANCH   1   2
ATOM      2  N   UNL A   1      38.489  22.256  25.402  1.00  0.00    -0.352 N 
ATOM      3  O   UNL A   1      40.156  21.319  26.491  1.00  0.00    -0.269 OA
ATOM      4  C   UNL A   1      39.530  22.362  26.281  1.00  0.00     0.251 C 
ATOM      5  H   UNL A   1      38.490  21.402  24.910  1.00  0.00     0.163 HD
BRANCH   4   6
ATOM      6  C   UNL A   1      39.995  23.625  26.917  1.00  0.00     0.039 A 
ATOM      7  C   UNL A   1      41.154  23.781  27.680  1.00  0.00     0.014 A 
ATOM      8  C   UNL A   1      39.129  24.727  26.777  1.00  0.00     0.014 A 
ATOM      9  C   UNL A   1      41.382  24.965  28.379  1.00  0.00     0.010 A 
ATOM     10  C   UNL A   1      39.357  25.914  27.461  1.00  0.00     0.010 A 
ATOM     11  C   UNL A   1      40.460  26.012  28.303  1.00  0.00    -0.014 A 
BRANCH  11  12
ATOM     12  C   UNL A   1      40.761  27.257  29.003  1.00  0.00     0.031 A 
ATOM     13  C   UNL A   1      41.894  28.027  28.406  1.00  0.00     0.074 A 
ATOM     14  C   UNL A   1      39.990  27.745  29.997  1.00  0.00     0.049 A 
ATOM     15  N   UNL A   1      43.022  28.356  28.949  1.00  0.00    -0.248 NA
ATOM     16  C   UNL A   1      41.817  28.347  26.969  1.00  0.00     0.031 C 
ATOM     17  C   UNL A   1      38.703  27.231  30.477  1.00  0.00     0.029 A 
ATOM     18  N   UNL A   1      40.147  28.880  30.735  1.00  0.00    -0.354 N 
ATOM     19  C   UNL A   1      43.703  29.114  27.995  1.00  0.00     0.074 A 
ATOM     20  C   UNL A   1      42.998  28.925  26.755  1.00  0.00     0.031 C 
ATOM     21  C   UNL A   1      38.098  28.171  31.240  1.00  0.00     0.029 A 
ATOM     22  C   UNL A   1      39.004  29.294  31.415  1.00  0.00     0.049 A 
ATOM     23  H   UNL A   1      41.001  29.368  30.785  1.00  0.00     0.167 HD
ATOM     24  C   UNL A   1      44.660  30.018  28.347  1.00  0.00     0.037 A 
ATOM     25  C   UNL A   1      38.801  30.499  32.013  1.00  0.00     0.037 A 
ATOM     26  C   UNL A   1      45.164  29.748  29.668  1.00  0.00     0.049 A 
ATOM     27  C   UNL A   1      40.143  31.098  32.245  1.00  0.00     0.074 A 
ATOM     28  C   UNL A   1      45.815  28.683  30.261  1.00  0.00     0.029 A 
ATOM     29  N   UNL A   1      44.701  30.522  30.704  1.00  0.00    -0.354 N 
ATOM     30  N   UNL A   1      41.028  30.599  33.064  1.00  0.00    -0.248 NA
ATOM     31  C   UNL A   1      40.672  31.971  31.207  1.00  0.00     0.031 C 
ATOM     32  C   UNL A   1      45.271  28.608  31.576  1.00  0.00     0.029 A 
ATOM     33  C   UNL A   1      44.381  29.672  31.731  1.00  0.00     0.049 A 
ATOM     34  H   UNL A   1      44.615  31.502  30.708  1.00  0.00     0.167 HD
ATOM     35  C   UNL A   1      42.241  30.741  32.404  1.00  0.00     0.074 A 
ATOM     36  C   UNL A   1      41.965  31.648  31.291  1.00  0.00     0.031 C 
ATOM     37  C   UNL A   1      43.286  29.897  32.648  1.00  0.00     0.037 A 
BRANCH  24  38
ATOM     38  C   UNL A   1      44.865  31.357  27.667  1.00  0.00     0.058 A 
ATOM     39  C   UNL A   1      46.043  31.575  26.919  1.00  0.00     0.135 A 
ATOM     40  C   UNL A   1      44.119  32.518  27.966  1.00  0.00     0.135 A 
ATOM     41  F   UNL A   1      46.827  30.546  26.560  1.00  0.00    -0.206 F 
ATOM     42  C   UNL A   1      46.499  32.854  26.592  1.00  0.00     0.059 A 
ATOM     43  C   UNL A   1      44.529  33.798  27.607  1.00  0.00     0.059 A 
ATOM     44  F   UNL A   1      43.003  32.489  28.704  1.00  0.00    -0.206 F 
ATOM     45  C   UNL A   1      45.744  33.960  26.965  1.00  0.00     0.060 A 
BRANCH  45  46
ATOM     46  S   UNL A   1      46.390  35.614  26.663  1.00  0.00     0.124 S 
ATOM     47  O   UNL A   1      45.159  36.388  26.541  1.00  0.00    -0.237 OA
ATOM     48  O   UNL A   1      47.181  35.852  27.865  1.00  0.00    -0.237 OA
ATOM     49  O   UNL A   1      47.160  35.454  25.433  1.00  0.00    -0.744 OA
ENDBRANCH  45  46
ENDBRANCH  24  38
BRANCH  25  50
ATOM     50  C   UNL A   1      37.552  31.315  32.017  1.00  0.00     0.058 A 
ATOM     51  C   UNL A   1      36.951  31.749  33.215  1.00  0.00     0.135 A 
ATOM     52  C   UNL A   1      37.078  31.925  30.838  1.00  0.00     0.135 A 
ATOM     53  F   UNL A   1      37.356  31.248  34.392  1.00  0.00    -0.206 F 
ATOM     54  C   UNL A   1      35.969  32.751  33.243  1.00  0.00     0.059 A 
ATOM     55  C   UNL A   1      36.098  32.918  30.839  1.00  0.00     0.059 A 
ATOM     56  F   UNL A   1      37.623  31.639  29.646  1.00  0.00    -0.206 F 
ATOM     57  C   UNL A   1      35.560  33.343  32.047  1.00  0.00     0.060 A 
BRANCH  57  58
ATOM     58  S   UNL A   1      34.411  34.742  32.081  1.00  0.00     0.124 S 
ATOM     59  O   UNL A   1      35.173  35.741  32.823  1.00  0.00    -0.237 OA
ATOM     60  O   UNL A   1      34.213  35.015  30.662  1.00  0.00    -0.237 OA
ATOM     61  O   UNL A   1      33.244  34.206  32.778  1.00  0.00    -0.744 OA
ENDBRANCH  57  58
ENDBRANCH  25  50
BRANCH  37  62
ATOM     62  C   UNL A   1      43.206  28.967  33.830  1.00  0.00     0.058 A 
ATOM     63  C   UNL A   1      43.450  29.351  35.162  1.00  0.00     0.135 A 
ATOM     64  C   UNL A   1      42.675  27.687  33.621  1.00  0.00     0.135 A 
ATOM     65  F   UNL A   1      43.865  30.591  35.458  1.00  0.00    -0.206 F 
ATOM     66  C   UNL A   1      43.196  28.491  36.232  1.00  0.00     0.059 A 
ATOM     67  C   UNL A   1      42.385  26.824  34.673  1.00  0.00     0.059 A 
ATOM     68  F   UNL A   1      42.364  27.284  32.378  1.00  0.00    -0.206 F 
ATOM     69  C   UNL A   1      42.655  27.230  35.979  1.00  0.00     0.060 A 
BRANCH  69  70
ATOM     70  S   UNL A   1      42.226  26.158  37.367  1.00  0.00     0.124 S 
ATOM     71  O   UNL A   1      43.233  26.521  38.359  1.00  0.00    -0.237 OA
ATOM     72  O   UNL A   1      40.858  26.568  37.674  1.00  0.00    -0.237 OA
ATOM     73  O   UNL A   1      42.352  24.813  36.812  1.00  0.00    -0.744 OA
ENDBRANCH  69  70
ENDBRANCH  37  62
ENDBRANCH  11  12
ENDBRANCH   4   6
ENDBRANCH   1   2
BRANCH   1  74
ATOM     74  C   UNL A   1      36.647  22.682  23.764  1.00  0.00     0.023 C 
BRANCH  74  75
ATOM     75  C   UNL A   1      35.154  22.383  23.942  1.00  0.00     0.023 C 
BRANCH  75  76
ATOM     76  C   UNL A   1      34.797  21.466  25.109  1.00  0.00     0.116 C 
BRANCH  76  77
ATOM     77  N   UNL A   1      33.433  21.662  25.569  1.00  0.00    -0.352 N 
ATOM     78  C   UNL A   1      32.290  21.014  25.183  1.00  0.00     0.251 C 
ATOM     79  H   UNL A   1      33.314  22.359  26.256  1.00  0.00     0.163 HD
ATOM     80  O   UNL A   1      31.190  21.403  25.549  1.00  0.00    -0.269 OA
BRANCH  78  81
ATOM     81  C   UNL A   1      32.368  19.827  24.309  1.00  0.00     0.045 A 
ATOM     82  C   UNL A   1      32.186  19.943  22.933  1.00  0.00     0.034 A 
ATOM     83  C   UNL A   1      32.735  18.609  24.881  1.00  0.00     0.063 A 
ATOM     84  C   UNL A   1      32.379  18.811  22.170  1.00  0.00     0.114 A 
ATOM     85  C   UNL A   1      32.929  17.529  24.030  1.00  0.00     0.157 A 
ATOM     86  N   UNL A   1      32.767  17.624  22.681  1.00  0.00    -0.237 NA
BRANCH  85  87
ATOM     87  N   UNL A   1      33.337  16.284  24.568  1.00  0.00    -0.182 N 
ATOM     88  C   UNL A   1      32.585  15.329  25.202  1.00  0.00     0.254 A 
ATOM     89  N   UNL A   1      34.618  15.851  24.529  1.00  0.00    -0.039 NA
ATOM     90  N   UNL A   1      33.374  14.368  25.625  1.00  0.00    -0.117 NA
ATOM     91  N   UNL A   1      34.636  14.717  25.215  1.00  0.00    -0.024 NA
ENDBRANCH  85  87
ENDBRANCH  78  81
ENDBRANCH  76  77
ENDBRANCH  75  76
ENDBRANCH  74  75
ENDBRANCH   1  74
TORSDOF 15
ENDMDL
MODEL 2
REMARK VINA RESULT:     -13.0      5.099     10.674
REMARK SMILES O=C(NCCCCNC(=O)c1ccnc(-n2cnnn2)c1)c1ccc(-c2c3nc(c(-c4c(F)cc(S(=O)(=O)[O-])cc4F)c4ccc([nH]4)c(-c4c(F)cc(S(=O)(=O)[O-])cc4F)c4nc(c(-c5c(F)cc(S(=O)(=O)[O-])cc5F)c5ccc2[nH]5)C=C4)C=C3)cc1
REMARK SMILES IDX 4 1 3 2 1 3 2 4 22 6 23 7 87 8 24 9 86 10 25 11 26 12 27 13
REMARK SMILES IDX 80 14 28 15 85 16 79 17 81 18 29 19 84 20 78 21 77 22 30 24
REMARK SMILES IDX 64 25 43 26 63 27 44 28 47 29 62 30 82 31 45 32 46 33 61 35
REMARK SMILES IDX 83 36 48 37 31 38 32 39 41 40 33 41 34 42 40 43 42 44 35 45
REMARK SMILES IDX 36 46 37 47 38 48 39 49 65 50 66 51 75 52 67 53 68 54 74 55
REMARK SMILES IDX 76 56 69 57 70 58 71 59 72 60 73 61 49 62 50 63 59 64 51 65
REMARK SMILES IDX 52 66 58 67 60 68 53 69 54 70 55 71 56 72 57 73 5 74 6 75
REMARK SMILES IDX 7 76 8 77 9 78 10 80 11 81 12 82 21 83 13 84 15 85 14 86
REMARK SMILES IDX 16 87 17 88 20 89 18 90 19 91
REMARK H PARENT 3 5 81 23 47 34 8 79
REMARK Flexibility Score: inf
ROOT
ATOM      1  C   UNL A   1      33.377  30.080  26.801  1.00  0.00     0.116 C 
ENDROOT
BRANCH   1   2
ATOM      2  N   UNL A   1      33.508  31.034  27.881  1.00  0.00    -0.352 N 
ATOM      3  O   UNL A   1      34.310  32.513  29.299  1.00  0.00    -0.269 OA
ATOM      4  C   UNL A   1      34.562  31.531  28.596  1.00  0.00     0.251 C 
ATOM      5  H   UNL A   1      32.643  31.412  28.164  1.00  0.00     0.163 HD
BRANCH   4   6
ATOM      6  C   UNL A   1      35.926  30.937  28.646  1.00  0.00     0.039 A 
ATOM      7  C   UNL A   1      36.236  29.582  28.516  1.00  0.00     0.014 A 
ATOM      8  C   UNL A   1      36.969  31.842  28.922  1.00  0.00     0.014 A 
ATOM      9  C   UNL A   1      37.529  29.129  28.770  1.00  0.00     0.010 A 
ATOM     10  C   UNL A   1      38.262  31.398  29.165  1.00  0.00     0.010 A 
ATOM     11  C   UNL A   1      38.529  30.033  29.137  1.00  0.00    -0.014 A 
BRANCH  11  12
ATOM     12  C   UNL A   1      39.884  29.529  29.340  1.00  0.00     0.031 A 
ATOM     13  C   UNL A   1      40.237  29.306  30.775  1.00  0.00     0.074 A 
ATOM     14  C   UNL A   1      40.686  29.149  28.323  1.00  0.00     0.049 A 
ATOM     15  N   UNL A   1      41.174  29.864  31.472  1.00  0.00    -0.248 NA
ATOM     16  C   UNL A   1      39.335  28.457  31.574  1.00  0.00     0.031 C 
ATOM     17  C   UNL A   1      40.352  29.051  26.899  1.00  0.00     0.029 A 
ATOM     18  N   UNL A   1      41.960  28.667  28.361  1.00  0.00    -0.354 N 
ATOM     19  C   UNL A   1      41.118  29.273  32.735  1.00  0.00     0.074 A 
ATOM     20  C   UNL A   1      39.873  28.556  32.789  1.00  0.00     0.031 C 
ATOM     21  C   UNL A   1      41.302  28.327  26.262  1.00  0.00     0.029 A 
ATOM     22  C   UNL A   1      42.373  28.024  27.197  1.00  0.00     0.049 A 
ATOM     23  H   UNL A   1      42.543  28.766  29.148  1.00  0.00     0.167 HD
ATOM     24  C   UNL A   1      42.206  29.232  33.556  1.00  0.00     0.037 A 
ATOM     25  C   UNL A   1      43.478  27.245  27.042  1.00  0.00     0.037 A 
ATOM     26  C   UNL A   1      43.179  30.223  33.174  1.00  0.00     0.049 A 
ATOM     27  C   UNL A   1      44.408  27.588  28.151  1.00  0.00     0.074 A 
ATOM     28  C   UNL A   1      43.178  31.601  33.083  1.00  0.00     0.029 A 
ATOM     29  N   UNL A   1      44.274  29.806  32.458  1.00  0.00    -0.354 N 
ATOM     30  N   UNL A   1      44.983  28.753  28.280  1.00  0.00    -0.248 NA
ATOM     31  C   UNL A   1      44.314  26.798  29.369  1.00  0.00     0.031 C 
ATOM     32  C   UNL A   1      43.950  31.892  31.921  1.00  0.00     0.029 A 
ATOM     33  C   UNL A   1      44.436  30.684  31.418  1.00  0.00     0.049 A 
ATOM     34  H   UNL A   1      44.837  29.023  32.654  1.00  0.00     0.167 HD
ATOM     35  C   UNL A   1      44.938  29.021  29.640  1.00  0.00     0.074 A 
ATOM     36  C   UNL A   1      44.569  27.753  30.267  1.00  0.00     0.031 C 
ATOM     37  C   UNL A   1      44.926  30.303  30.113  1.00  0.00     0.037 A 
BRANCH  24  38
ATOM     38  C   UNL A   1      42.561  28.061  34.450  1.00  0.00     0.058 A 
ATOM     39  C   UNL A   1      42.687  28.272  35.842  1.00  0.00     0.135 A 
ATOM     40  C   UNL A   1      43.075  26.833  33.979  1.00  0.00     0.135 A 
ATOM     41  F   UNL A   1      42.220  29.396  36.409  1.00  0.00    -0.206 F 
ATOM     42  C   UNL A   1      43.369  27.385  36.676  1.00  0.00     0.059 A 
ATOM     43  C   UNL A   1      43.715  25.913  34.802  1.00  0.00     0.059 A 
ATOM     44  F   UNL A   1      43.074  26.500  32.684  1.00  0.00    -0.206 F 
ATOM     45  C   UNL A   1      43.901  26.218  36.138  1.00  0.00     0.060 A 
BRANCH  45  46
ATOM     46  S   UNL A   1      44.895  25.136  37.181  1.00  0.00     0.124 S 
ATOM     47  O   UNL A   1      44.262  25.326  38.481  1.00  0.00    -0.237 OA
ATOM     48  O   UNL A   1      44.688  23.838  36.549  1.00  0.00    -0.237 OA
ATOM     49  O   UNL A   1      46.241  25.685  37.047  1.00  0.00    -0.744 OA
ENDBRANCH  45  46
ENDBRANCH  24  38
BRANCH  25  50
ATOM     50  C   UNL A   1      43.596  25.976  26.266  1.00  0.00     0.058 A 
ATOM     51  C   UNL A   1      44.670  25.739  25.387  1.00  0.00     0.135 A 
ATOM     52  C   UNL A   1      42.806  24.852  26.585  1.00  0.00     0.135 A 
ATOM     53  F   UNL A   1      45.496  26.741  25.046  1.00  0.00    -0.206 F 
ATOM     54  C   UNL A   1      44.964  24.462  24.885  1.00  0.00     0.059 A 
ATOM     55  C   UNL A   1      43.074  23.574  26.094  1.00  0.00     0.059 A 
ATOM     56  F   UNL A   1      41.798  24.945  27.465  1.00  0.00    -0.206 F 
ATOM     57  C   UNL A   1      44.168  23.380  25.260  1.00  0.00     0.060 A 
BRANCH  57  58
ATOM     58  S   UNL A   1      44.626  21.704  24.749  1.00  0.00     0.124 S 
ATOM     59  O   UNL A   1      44.626  21.820  23.295  1.00  0.00    -0.237 OA
ATOM     60  O   UNL A   1      45.932  21.536  25.376  1.00  0.00    -0.237 OA
ATOM     61  O   UNL A   1      43.560  20.875  25.307  1.00  0.00    -0.744 OA
ENDBRANCH  57  58
ENDBRANCH  25  50
BRANCH  37  62
ATOM     62  C   UNL A   1      45.228  31.429  29.160  1.00  0.00     0.058 A 
ATOM     63  C   UNL A   1      46.524  31.832  28.789  1.00  0.00     0.135 A 
ATOM     64  C   UNL A   1      44.156  31.991  28.451  1.00  0.00     0.135 A 
ATOM     65  F   UNL A   1      47.607  31.273  29.348  1.00  0.00    -0.206 F 
ATOM     66  C   UNL A   1      46.740  32.767  27.774  1.00  0.00     0.059 A 
ATOM     67  C   UNL A   1      44.348  32.900  27.416  1.00  0.00     0.059 A 
ATOM     68  F   UNL A   1      42.898  31.601  28.717  1.00  0.00    -0.206 F 
ATOM     69  C   UNL A   1      45.645  33.290  27.086  1.00  0.00     0.060 A 
BRANCH  69  70
ATOM     70  S   UNL A   1      45.927  34.417  25.704  1.00  0.00     0.124 S 
ATOM     71  O   UNL A   1      47.352  34.238  25.446  1.00  0.00    -0.237 OA
ATOM     72  O   UNL A   1      45.027  33.894  24.679  1.00  0.00    -0.237 OA
ATOM     73  O   UNL A   1      45.549  35.721  26.243  1.00  0.00    -0.744 OA
ENDBRANCH  69  70
ENDBRANCH  37  62
ENDBRANCH  11  12
ENDBRANCH   4   6
ENDBRANCH   1   2
BRANCH   1  74
ATOM     74  C   UNL A   1      32.843  28.713  27.230  1.00  0.00     0.023 C 
BRANCH  74  75
ATOM     75  C   UNL A   1      31.952  28.005  26.202  1.00  0.00     0.023 C 
BRANCH  75  76
ATOM     76  C   UNL A   1      31.732  28.753  24.891  1.00  0.00     0.116 C 
BRANCH  76  77
ATOM     77  N   UNL A   1      31.846  27.884  23.732  1.00  0.00    -0.352 N 
ATOM     78  C   UNL A   1      30.887  27.526  22.824  1.00  0.00     0.251 C 
ATOM     79  H   UNL A   1      32.741  27.500  23.579  1.00  0.00     0.163 HD
ATOM     80  O   UNL A   1      31.100  26.656  21.991  1.00  0.00    -0.269 OA
BRANCH  78  81
ATOM     81  C   UNL A   1      29.567  28.186  22.837  1.00  0.00     0.045 A 
ATOM     82  C   UNL A   1      28.462  27.559  23.404  1.00  0.00     0.034 A 
ATOM     83  C   UNL A   1      29.479  29.496  22.365  1.00  0.00     0.063 A 
ATOM     84  C   UNL A   1      27.288  28.279  23.477  1.00  0.00     0.114 A 
ATOM     85  C   UNL A   1      28.263  30.151  22.501  1.00  0.00     0.157 A 
ATOM     86  N   UNL A   1      27.173  29.558  23.063  1.00  0.00    -0.237 NA
BRANCH  85  87
ATOM     87  N   UNL A   1      28.144  31.494  22.067  1.00  0.00    -0.182 N 
ATOM     88  C   UNL A   1      28.422  32.650  22.751  1.00  0.00     0.254 A 
ATOM     89  N   UNL A   1      27.699  31.833  20.836  1.00  0.00    -0.039 NA
ATOM     90  N   UNL A   1      28.085  33.682  22.011  1.00  0.00    -0.117 NA
ATOM     91  N   UNL A   1      27.620  33.156  20.833  1.00  0.00    -0.024 NA
ENDBRANCH  85  87
ENDBRANCH  78  81
ENDBRANCH  76  77
ENDBRANCH  75  76
ENDBRANCH  74  75
ENDBRANCH   1  74
TORSDOF 15
ENDMDL
MODEL 3
REMARK VINA RESULT:     -12.8      3.589      5.923
REMARK SMILES O=C(NCCCCNC(=O)c1ccnc(-n2cnnn2)c1)c1ccc(-c2c3nc(c(-c4c(F)cc(S(=O)(=O)[O-])cc4F)c4ccc([nH]4)c(-c4c(F)cc(S(=O)(=O)[O-])cc4F)c4nc(c(-c5c(F)cc(S(=O)(=O)[O-])cc5F)c5ccc2[nH]5)C=C4)C=C3)cc1
REMARK SMILES IDX 4 1 3 2 1 3 2 4 22 6 23 7 87 8 24 9 86 10 25 11 26 12 27 13
REMARK SMILES IDX 80 14 28 15 85 16 79 17 81 18 29 19 84 20 78 21 77 22 30 24
REMARK SMILES IDX 64 25 43 26 63 27 44 28 47 29 62 30 82 31 45 32 46 33 61 35
REMARK SMILES IDX 83 36 48 37 31 38 32 39 41 40 33 41 34 42 40 43 42 44 35 45
REMARK SMILES IDX 36 46 37 47 38 48 39 49 65 50 66 51 75 52 67 53 68 54 74 55
REMARK SMILES IDX 76 56 69 57 70 58 71 59 72 60 73 61 49 62 50 63 59 64 51 65
REMARK SMILES IDX 52 66 58 67 60 68 53 69 54 70 55 71 56 72 57 73 5 74 6 75
REMARK SMILES IDX 7 76 8 77 9 78 10 80 11 81 12 82 21 83 13 84 15 85 14 86
REMARK SMILES IDX 16 87 17 88 20 89 18 90 19 91
REMARK H PARENT 3 5 81 23 47 34 8 79
REMARK Flexibility Score: inf
ROOT
ATOM      1  C   UNL A   1      41.856  20.831  26.496  1.00  0.00     0.116 C 
ENDROOT
BRANCH   1   2
ATOM      2  N   UNL A   1      40.470  21.176  26.261  1.00  0.00    -0.352 N 
ATOM      3  O   UNL A   1      38.622  22.283  25.809  1.00  0.00    -0.269 OA
ATOM      4  C   UNL A   1      39.755  22.341  26.295  1.00  0.00     0.251 C 
ATOM      5  H   UNL A   1      39.918  20.396  26.021  1.00  0.00     0.163 HD
BRANCH   4   6
ATOM      6  C   UNL A   1      40.204  23.609  26.931  1.00  0.00     0.039 A 
ATOM      7  C   UNL A   1      41.365  23.783  27.687  1.00  0.00     0.014 A 
ATOM      8  C   UNL A   1      39.319  24.697  26.801  1.00  0.00     0.014 A 
ATOM      9  C   UNL A   1      41.578  24.968  28.387  1.00  0.00     0.010 A 
ATOM     10  C   UNL A   1      39.532  25.885  27.487  1.00  0.00     0.010 A 
ATOM     11  C   UNL A   1      40.639  26.000  28.321  1.00  0.00    -0.014 A 
BRANCH  11  12
ATOM     12  C   UNL A   1      40.924  27.248  29.023  1.00  0.00     0.031 A 
ATOM     13  C   UNL A   1      42.057  28.026  28.435  1.00  0.00     0.074 A 
ATOM     14  C   UNL A   1      40.140  27.732  30.008  1.00  0.00     0.049 A 
ATOM     15  N   UNL A   1      43.178  28.364  28.989  1.00  0.00    -0.248 NA
ATOM     16  C   UNL A   1      41.992  28.343  26.997  1.00  0.00     0.031 C 
ATOM     17  C   UNL A   1      38.852  27.208  30.476  1.00  0.00     0.029 A 
ATOM     18  N   UNL A   1      40.281  28.868  30.747  1.00  0.00    -0.354 N 
ATOM     19  C   UNL A   1      43.862  29.125  28.040  1.00  0.00     0.074 A 
ATOM     20  C   UNL A   1      43.171  28.930  26.794  1.00  0.00     0.031 C 
ATOM     21  C   UNL A   1      38.233  28.144  31.232  1.00  0.00     0.029 A 
ATOM     22  C   UNL A   1      39.129  29.274  31.415  1.00  0.00     0.049 A 
ATOM     23  H   UNL A   1      41.131  29.363  30.804  1.00  0.00     0.167 HD
ATOM     24  C   UNL A   1      44.809  30.036  28.400  1.00  0.00     0.037 A 
ATOM     25  C   UNL A   1      38.912  30.478  32.010  1.00  0.00     0.037 A 
ATOM     26  C   UNL A   1      45.302  29.772  29.727  1.00  0.00     0.049 A 
ATOM     27  C   UNL A   1      40.246  31.088  32.254  1.00  0.00     0.074 A 
ATOM     28  C   UNL A   1      45.955  28.712  30.328  1.00  0.00     0.029 A 
ATOM     29  N   UNL A   1      44.824  30.543  30.758  1.00  0.00    -0.354 N 
ATOM     30  N   UNL A   1      41.127  30.596  33.082  1.00  0.00    -0.248 NA
ATOM     31  C   UNL A   1      40.779  31.963  31.220  1.00  0.00     0.031 C 
ATOM     32  C   UNL A   1      45.399  28.634  31.637  1.00  0.00     0.029 A 
ATOM     33  C   UNL A   1      44.499  29.692  31.782  1.00  0.00     0.049 A 
ATOM     34  H   UNL A   1      44.730  31.523  30.760  1.00  0.00     0.167 HD
ATOM     35  C   UNL A   1      42.345  30.746  32.434  1.00  0.00     0.074 A 
ATOM     36  C   UNL A   1      42.074  31.650  31.317  1.00  0.00     0.031 C 
ATOM     37  C   UNL A   1      43.394  29.910  32.688  1.00  0.00     0.037 A 
BRANCH  24  38
ATOM     38  C   UNL A   1      45.011  31.376  27.721  1.00  0.00     0.058 A 
ATOM     39  C   UNL A   1      46.240  31.643  27.079  1.00  0.00     0.135 A 
ATOM     40  C   UNL A   1      44.186  32.503  27.934  1.00  0.00     0.135 A 
ATOM     41  F   UNL A   1      47.101  30.649  26.808  1.00  0.00    -0.206 F 
ATOM     42  C   UNL A   1      46.662  32.939  26.774  1.00  0.00     0.059 A 
ATOM     43  C   UNL A   1      44.566  33.797  27.594  1.00  0.00     0.059 A 
ATOM     44  F   UNL A   1      43.011  32.427  28.569  1.00  0.00    -0.206 F 
ATOM     45  C   UNL A   1      45.825  34.011  27.061  1.00  0.00     0.060 A 
BRANCH  45  46
ATOM     46  S   UNL A   1      46.416  35.692  26.793  1.00  0.00     0.124 S 
ATOM     47  O   UNL A   1      47.405  35.823  27.857  1.00  0.00    -0.237 OA
ATOM     48  O   UNL A   1      46.941  35.613  25.435  1.00  0.00    -0.237 OA
ATOM     49  O   UNL A   1      45.209  36.499  26.948  1.00  0.00    -0.744 OA
ENDBRANCH  45  46
ENDBRANCH  24  38
BRANCH  25  50
ATOM     50  C   UNL A   1      37.656  31.285  32.001  1.00  0.00     0.058 A 
ATOM     51  C   UNL A   1      37.018  31.681  33.192  1.00  0.00     0.135 A 
ATOM     52  C   UNL A   1      37.211  31.926  30.826  1.00  0.00     0.135 A 
ATOM     53  F   UNL A   1      37.392  31.149  34.366  1.00  0.00    -0.206 F 
ATOM     54  C   UNL A   1      36.027  32.675  33.220  1.00  0.00     0.059 A 
ATOM     55  C   UNL A   1      36.224  32.911  30.827  1.00  0.00     0.059 A 
ATOM     56  F   UNL A   1      37.793  31.678  29.643  1.00  0.00    -0.206 F 
ATOM     57  C   UNL A   1      35.648  33.297  32.031  1.00  0.00     0.060 A 
BRANCH  57  58
ATOM     58  S   UNL A   1      34.489  34.687  32.071  1.00  0.00     0.124 S 
ATOM     59  O   UNL A   1      35.241  35.688  32.820  1.00  0.00    -0.237 OA
ATOM     60  O   UNL A   1      34.291  34.967  30.653  1.00  0.00    -0.237 OA
ATOM     61  O   UNL A   1      33.324  34.138  32.762  1.00  0.00    -0.744 OA
ENDBRANCH  57  58
ENDBRANCH  25  50
BRANCH  37  62
ATOM     62  C   UNL A   1      43.310  28.981  33.871  1.00  0.00     0.058 A 
ATOM     63  C   UNL A   1      43.545  29.366  35.203  1.00  0.00     0.135 A 
ATOM     64  C   UNL A   1      42.783  27.699  33.660  1.00  0.00     0.135 A 
ATOM     65  F   UNL A   1      43.955  30.608  35.501  1.00  0.00    -0.206 F 
ATOM     66  C   UNL A   1      43.286  28.506  36.273  1.00  0.00     0.059 A 
ATOM     67  C   UNL A   1      42.489  26.836  34.711  1.00  0.00     0.059 A 
ATOM     68  F   UNL A   1      42.481  27.295  32.415  1.00  0.00    -0.206 F 
ATOM     69  C   UNL A   1      42.750  27.244  36.018  1.00  0.00     0.060 A 
BRANCH  69  70
ATOM     70  S   UNL A   1      42.316  26.172  37.404  1.00  0.00     0.124 S 
ATOM     71  O   UNL A   1      43.263  26.596  38.430  1.00  0.00    -0.237 OA
ATOM     72  O   UNL A   1      40.918  26.520  37.649  1.00  0.00    -0.237 OA
ATOM     73  O   UNL A   1      42.528  24.827  36.876  1.00  0.00    -0.744 OA
ENDBRANCH  69  70
ENDBRANCH  37  62
ENDBRANCH  11  12
ENDBRANCH   4   6
ENDBRANCH   1   2
BRANCH   1  74
ATOM     74  C   UNL A   1      42.057  19.567  27.332  1.00  0.00     0.023 C 
BRANCH  74  75
ATOM     75  C   UNL A   1      42.877  18.459  26.659  1.00  0.00     0.023 C 
BRANCH  75  76
ATOM     76  C   UNL A   1      43.505  18.824  25.318  1.00  0.00     0.116 C 
BRANCH  76  77
ATOM     77  N   UNL A   1      44.955  18.735  25.344  1.00  0.00    -0.352 N 
ATOM     78  C   UNL A   1      45.884  19.722  25.151  1.00  0.00     0.251 C 
ATOM     79  H   UNL A   1      45.321  17.839  25.527  1.00  0.00     0.163 HD
ATOM     80  O   UNL A   1      47.074  19.458  25.046  1.00  0.00    -0.269 OA
BRANCH  78  81
ATOM     81  C   UNL A   1      45.461  21.134  25.062  1.00  0.00     0.045 A 
ATOM     82  C   UNL A   1      44.911  21.640  23.888  1.00  0.00     0.034 A 
ATOM     83  C   UNL A   1      45.525  21.916  26.216  1.00  0.00     0.063 A 
ATOM     84  C   UNL A   1      44.441  22.936  23.913  1.00  0.00     0.114 A 
ATOM     85  C   UNL A   1      45.006  23.202  26.153  1.00  0.00     0.157 A 
ATOM     86  N   UNL A   1      44.454  23.712  25.017  1.00  0.00    -0.237 NA
BRANCH  85  87
ATOM     87  N   UNL A   1      45.019  24.015  27.313  1.00  0.00    -0.182 N 
ATOM     88  C   UNL A   1      45.088  25.381  27.409  1.00  0.00     0.254 A 
ATOM     89  N   UNL A   1      44.970  23.509  28.566  1.00  0.00    -0.039 NA
ATOM     90  N   UNL A   1      45.167  25.722  28.676  1.00  0.00    -0.117 NA
ATOM     91  N   UNL A   1      45.112  24.546  29.379  1.00  0.00    -0.024 NA
ENDBRANCH  85  87
ENDBRANCH  78  81
ENDBRANCH  76  77
ENDBRANCH  75  76
ENDBRANCH  74  75
ENDBRANCH   1  74
TORSDOF 15
ENDMDL
