MODEL 1
REMARK VINA RESULT:     -11.8      0.000      0.000
REMARK SMILES CCC[C@]1(C(=O)NCCCCNC(=O)c2ccc(-c3c4nc(c(-c5c(F)cc(S(=O)(=O)[O-])cc5F)c5ccc([nH]5)c(-c5c(F)cc(S(=O)(=O)[O-])cc5F)c5nc(c(-c6c(F)cc(S(=O)(=O)[O-])cc6F)c6ccc3[nH]6)C=C5)C=C4)cc2)CCCN(C(=O)N[C@H]2CCOC2)C1
REMARK SMILES IDX 10 1 9 2 8 3 7 4 5 5 6 6 4 8 81 9 93 10 82 11 84 12 83 13
REMARK SMILES IDX 3 14 2 15 1 16 85 17 86 18 87 19 88 21 89 22 92 23 90 24
REMARK SMILES IDX 91 25 11 26 12 27 13 28 14 30 15 31 16 32 80 33 17 34 79 35
REMARK SMILES IDX 18 36 19 37 20 38 73 39 21 40 78 41 72 42 74 43 22 44 77 45
REMARK SMILES IDX 71 46 70 47 23 49 57 50 36 51 56 52 37 53 40 54 55 55 75 56
REMARK SMILES IDX 38 57 39 58 54 60 76 61 41 62 24 63 25 64 34 65 26 66 27 67
REMARK SMILES IDX 33 68 35 69 28 70 29 71 30 72 31 73 32 74 58 75 59 76 68 77
REMARK SMILES IDX 60 78 61 79 67 80 69 81 62 82 63 83 64 84 65 85 66 86 42 87
REMARK SMILES IDX 43 88 52 89 44 90 45 91 51 92 53 93 46 94 47 95 48 96 49 97
REMARK SMILES IDX 50 98
REMARK H PARENT 7 7 87 20 12 29 74 48 40 59
REMARK Flexibility Score: inf
ROOT
ATOM      1  C   UNL A   1      35.258  31.419  27.637  1.00  0.00     0.023 C 
ENDROOT
BRANCH   1   2
ATOM      2  C   UNL A   1      33.738  31.550  27.580  1.00  0.00     0.023 C 
BRANCH   2   3
ATOM      3  C   UNL A   1      33.038  30.461  26.771  1.00  0.00     0.116 C 
BRANCH   3   4
ATOM      4  N   UNL A   1      32.342  29.509  27.615  1.00  0.00    -0.356 N 
ATOM      5  C   UNL A   1      31.855  28.257  27.381  1.00  0.00     0.228 C 
ATOM      6  O   UNL A   1      31.380  27.685  28.366  1.00  0.00    -0.274 OA
ATOM      7  H   UNL A   1      32.193  29.827  28.535  1.00  0.00     0.163 HD
BRANCH   5   8
ATOM      8  C   UNL A   1      31.924  27.565  25.982  1.00  0.00     0.067 C 
ATOM      9  C   UNL A   1      30.929  26.378  25.941  1.00  0.00     0.020 C 
ATOM     10  C   UNL A   1      31.647  28.689  24.948  1.00  0.00     0.138 C 
ATOM     11  C   UNL A   1      30.306  26.102  24.576  1.00  0.00     0.023 C 
ATOM     12  N   UNL A   1      31.046  28.266  23.677  1.00  0.00    -0.324 N 
ATOM     13  C   UNL A   1      29.915  27.365  23.826  1.00  0.00     0.121 C 
BRANCH   8  14
ATOM     14  C   UNL A   1      33.405  27.037  25.829  1.00  0.00     0.018 C 
BRANCH  14  15
ATOM     15  C   UNL A   1      33.709  25.721  25.101  1.00  0.00    -0.002 C 
ATOM     16  C   UNL A   1      33.852  25.821  23.598  1.00  0.00     0.004 C 
ENDBRANCH  14  15
ENDBRANCH   8  14
BRANCH  12  17
ATOM     17  C   UNL A   1      31.391  29.004  22.576  1.00  0.00     0.317 C 
ATOM     18  O   UNL A   1      32.477  28.856  22.005  1.00  0.00    -0.249 OA
ATOM     19  N   UNL A   1      30.581  29.904  21.997  1.00  0.00    -0.333 N 
ATOM     20  H   UNL A   1      31.038  30.394  21.275  1.00  0.00     0.165 HD
BRANCH  19  21
ATOM     21  C   UNL A   1      29.209  30.344  22.159  1.00  0.00     0.112 C 
ATOM     22  C   UNL A   1      28.981  31.014  23.503  1.00  0.00     0.056 C 
ATOM     23  C   UNL A   1      28.755  31.459  21.223  1.00  0.00     0.185 C 
ATOM     24  C   UNL A   1      27.677  31.741  23.263  1.00  0.00     0.162 C 
ATOM     25  O   UNL A   1      27.692  32.162  21.893  1.00  0.00    -0.379 OA
ENDBRANCH  19  21
ENDBRANCH  12  17
ENDBRANCH   5   8
ENDBRANCH   3   4
ENDBRANCH   2   3
ENDBRANCH   1   2
BRANCH   1  26
ATOM     26  C   UNL A   1      35.773  30.188  28.374  1.00  0.00     0.116 C 
BRANCH  26  27
ATOM     27  N   UNL A   1      35.591  30.270  29.817  1.00  0.00    -0.352 N 
ATOM     28  C   UNL A   1      36.536  30.142  30.809  1.00  0.00     0.251 C 
ATOM     29  H   UNL A   1      34.671  30.440  30.123  1.00  0.00     0.163 HD
ATOM     30  O   UNL A   1      36.199  30.113  31.986  1.00  0.00    -0.269 OA
BRANCH  28  31
ATOM     31  C   UNL A   1      37.955  30.002  30.425  1.00  0.00     0.039 A 
ATOM     32  C   UNL A   1      38.869  29.531  31.370  1.00  0.00     0.014 A 
ATOM     33  C   UNL A   1      38.360  30.271  29.115  1.00  0.00     0.014 A 
ATOM     34  C   UNL A   1      40.178  29.248  30.976  1.00  0.00     0.010 A 
ATOM     35  C   UNL A   1      39.642  29.920  28.709  1.00  0.00     0.010 A 
ATOM     36  C   UNL A   1      40.561  29.398  29.633  1.00  0.00    -0.014 A 
BRANCH  36  37
ATOM     37  C   UNL A   1      41.912  29.002  29.163  1.00  0.00     0.031 A 
ATOM     38  C   UNL A   1      43.008  30.028  29.081  1.00  0.00     0.074 A 
ATOM     39  C   UNL A   1      42.126  27.743  28.731  1.00  0.00     0.049 A 
ATOM     40  N   UNL A   1      44.216  29.910  28.597  1.00  0.00    -0.248 NA
ATOM     41  C   UNL A   1      42.691  31.376  29.583  1.00  0.00     0.031 C 
ATOM     42  C   UNL A   1      41.129  26.671  28.714  1.00  0.00     0.029 A 
ATOM     43  N   UNL A   1      43.249  27.156  28.206  1.00  0.00    -0.354 N 
ATOM     44  C   UNL A   1      44.797  31.165  28.717  1.00  0.00     0.074 A 
ATOM     45  C   UNL A   1      43.792  32.045  29.276  1.00  0.00     0.031 C 
ATOM     46  C   UNL A   1      41.689  25.555  28.221  1.00  0.00     0.029 A 
ATOM     47  C   UNL A   1      43.071  25.839  27.849  1.00  0.00     0.049 A 
ATOM     48  H   UNL A   1      44.104  27.633  28.093  1.00  0.00     0.167 HD
ATOM     49  C   UNL A   1      46.060  31.546  28.412  1.00  0.00     0.037 A 
ATOM     50  C   UNL A   1      43.922  24.965  27.278  1.00  0.00     0.037 A 
ATOM     51  C   UNL A   1      47.063  30.659  27.885  1.00  0.00     0.049 A 
ATOM     52  C   UNL A   1      45.320  25.411  26.949  1.00  0.00     0.074 A 
ATOM     53  C   UNL A   1      48.390  30.932  27.604  1.00  0.00     0.029 A 
ATOM     54  N   UNL A   1      46.852  29.327  27.564  1.00  0.00    -0.354 N 
ATOM     55  N   UNL A   1      45.872  26.588  27.126  1.00  0.00    -0.248 NA
ATOM     56  C   UNL A   1      46.213  24.412  26.346  1.00  0.00     0.031 C 
ATOM     57  C   UNL A   1      48.972  29.773  27.076  1.00  0.00     0.029 A 
ATOM     58  C   UNL A   1      48.018  28.768  27.069  1.00  0.00     0.049 A 
ATOM     59  H   UNL A   1      45.998  28.848  27.671  1.00  0.00     0.167 HD
ATOM     60  C   UNL A   1      47.181  26.464  26.676  1.00  0.00     0.074 A 
ATOM     61  C   UNL A   1      47.343  25.096  26.230  1.00  0.00     0.031 C 
ATOM     62  C   UNL A   1      48.162  27.400  26.636  1.00  0.00     0.037 A 
BRANCH  49  63
ATOM     63  C   UNL A   1      46.428  32.984  28.650  1.00  0.00     0.058 A 
ATOM     64  C   UNL A   1      46.280  33.955  27.646  1.00  0.00     0.135 A 
ATOM     65  C   UNL A   1      46.908  33.403  29.900  1.00  0.00     0.135 A 
ATOM     66  F   UNL A   1      45.840  33.606  26.426  1.00  0.00    -0.206 F 
ATOM     67  C   UNL A   1      46.624  35.285  27.863  1.00  0.00     0.059 A 
ATOM     68  C   UNL A   1      47.234  34.734  30.149  1.00  0.00     0.059 A 
ATOM     69  F   UNL A   1      47.070  32.516  30.894  1.00  0.00    -0.206 F 
ATOM     70  C   UNL A   1      47.103  35.664  29.119  1.00  0.00     0.060 A 
BRANCH  70  71
ATOM     71  S   UNL A   1      47.544  37.393  29.386  1.00  0.00     0.124 S 
ATOM     72  O   UNL A   1      48.510  37.615  28.315  1.00  0.00    -0.237 OA
ATOM     73  O   UNL A   1      46.261  38.072  29.232  1.00  0.00    -0.237 OA
ATOM     74  O   UNL A   1      48.094  37.399  30.739  1.00  0.00    -0.744 OA
ENDBRANCH  70  71
ENDBRANCH  49  63
BRANCH  50  75
ATOM     75  C   UNL A   1      43.480  23.573  26.998  1.00  0.00     0.058 A 
ATOM     76  C   UNL A   1      43.208  23.155  25.687  1.00  0.00     0.135 A 
ATOM     77  C   UNL A   1      43.334  22.632  28.028  1.00  0.00     0.135 A 
ATOM     78  F   UNL A   1      43.328  24.022  24.670  1.00  0.00    -0.206 F 
ATOM     79  C   UNL A   1      42.793  21.858  25.406  1.00  0.00     0.059 A 
ATOM     80  C   UNL A   1      42.941  21.322  27.770  1.00  0.00     0.059 A 
ATOM     81  F   UNL A   1      43.598  22.977  29.298  1.00  0.00    -0.206 F 
ATOM     82  C   UNL A   1      42.664  20.947  26.456  1.00  0.00     0.060 A 
BRANCH  82  83
ATOM     83  S   UNL A   1      42.174  19.251  26.075  1.00  0.00     0.124 S 
ATOM     84  O   UNL A   1      40.735  19.397  25.885  1.00  0.00    -0.237 OA
ATOM     85  O   UNL A   1      42.951  18.968  24.873  1.00  0.00    -0.237 OA
ATOM     86  O   UNL A   1      42.583  18.509  27.264  1.00  0.00    -0.744 OA
ENDBRANCH  82  83
ENDBRANCH  50  75
BRANCH  62  87
ATOM     87  C   UNL A   1      49.506  26.973  26.116  1.00  0.00     0.058 A 
ATOM     88  C   UNL A   1      50.500  26.475  26.974  1.00  0.00     0.135 A 
ATOM     89  C   UNL A   1      49.780  27.006  24.740  1.00  0.00     0.135 A 
ATOM     90  F   UNL A   1      50.289  26.432  28.298  1.00  0.00    -0.206 F 
ATOM     91  C   UNL A   1      51.726  26.037  26.484  1.00  0.00     0.059 A 
ATOM     92  C   UNL A   1      50.990  26.550  24.226  1.00  0.00     0.059 A 
ATOM     93  F   UNL A   1      48.858  27.465  23.878  1.00  0.00    -0.206 F 
ATOM     94  C   UNL A   1      51.959  26.076  25.108  1.00  0.00     0.060 A 
BRANCH  94  95
ATOM     95  S   UNL A   1      53.538  25.462  24.481  1.00  0.00     0.124 S 
ATOM     96  O   UNL A   1      53.425  24.033  24.751  1.00  0.00    -0.237 OA
ATOM     97  O   UNL A   1      53.488  25.848  23.074  1.00  0.00    -0.237 OA
ATOM     98  O   UNL A   1      54.523  26.178  25.286  1.00  0.00    -0.744 OA
ENDBRANCH  94  95
ENDBRANCH  62  87
ENDBRANCH  36  37
ENDBRANCH  28  31
ENDBRANCH  26  27
ENDBRANCH   1  26
TORSDOF 18
ENDMDL
MODEL 2
REMARK VINA RESULT:     -11.8      3.860      5.598
REMARK SMILES CCC[C@]1(C(=O)NCCCCNC(=O)c2ccc(-c3c4nc(c(-c5c(F)cc(S(=O)(=O)[O-])cc5F)c5ccc([nH]5)c(-c5c(F)cc(S(=O)(=O)[O-])cc5F)c5nc(c(-c6c(F)cc(S(=O)(=O)[O-])cc6F)c6ccc3[nH]6)C=C5)C=C4)cc2)CCCN(C(=O)N[C@H]2CCOC2)C1
REMARK SMILES IDX 10 1 9 2 8 3 7 4 5 5 6 6 4 8 81 9 93 10 82 11 84 12 83 13
REMARK SMILES IDX 3 14 2 15 1 16 85 17 86 18 87 19 88 21 89 22 92 23 90 24
REMARK SMILES IDX 91 25 11 26 12 27 13 28 14 30 15 31 16 32 80 33 17 34 79 35
REMARK SMILES IDX 18 36 19 37 20 38 73 39 21 40 78 41 72 42 74 43 22 44 77 45
REMARK SMILES IDX 71 46 70 47 23 49 57 50 36 51 56 52 37 53 40 54 55 55 75 56
REMARK SMILES IDX 38 57 39 58 54 60 76 61 41 62 24 63 25 64 34 65 26 66 27 67
REMARK SMILES IDX 33 68 35 69 28 70 29 71 30 72 31 73 32 74 58 75 59 76 68 77
REMARK SMILES IDX 60 78 61 79 67 80 69 81 62 82 63 83 64 84 65 85 66 86 42 87
REMARK SMILES IDX 43 88 52 89 44 90 45 91 51 92 53 93 46 94 47 95 48 96 49 97
REMARK SMILES IDX 50 98
REMARK H PARENT 7 7 87 20 12 29 74 48 40 59
REMARK Flexibility Score: inf
ROOT
ATOM      1  C   UNL A   1      33.387  27.684  26.732  1.00  0.00     0.023 C 
ENDROOT
BRANCH   1   2
ATOM      2  C   UNL A   1      31.877  27.747  26.951  1.00  0.00     0.023 C 
BRANCH   2   3
ATOM      3  C   UNL A   1      31.061  26.897  25.980  1.00  0.00     0.116 C 
BRANCH   3   4
ATOM      4  N   UNL A   1      30.582  25.671  26.590  1.00  0.00    -0.356 N 
ATOM      5  C   UNL A   1      30.982  24.372  26.478  1.00  0.00     0.228 C 
ATOM      6  O   UNL A   1      30.393  23.575  27.215  1.00  0.00    -0.274 OA
ATOM      7  H   UNL A   1      29.822  25.801  27.202  1.00  0.00     0.163 HD
BRANCH   5   8
ATOM      8  C   UNL A   1      32.131  23.914  25.523  1.00  0.00     0.067 C 
ATOM      9  C   UNL A   1      33.481  23.950  26.282  1.00  0.00     0.020 C 
ATOM     10  C   UNL A   1      31.707  22.512  25.006  1.00  0.00     0.138 C 
ATOM     11  C   UNL A   1      34.494  22.894  25.853  1.00  0.00     0.023 C 
ATOM     12  N   UNL A   1      32.797  21.605  24.629  1.00  0.00    -0.324 N 
ATOM     13  C   UNL A   1      33.872  21.529  25.605  1.00  0.00     0.121 C 
BRANCH   8  14
ATOM     14  C   UNL A   1      32.148  24.951  24.332  1.00  0.00     0.018 C 
BRANCH  14  15
ATOM     15  C   UNL A   1      33.468  25.437  23.720  1.00  0.00    -0.002 C 
ATOM     16  C   UNL A   1      33.347  26.544  22.696  1.00  0.00     0.004 C 
ENDBRANCH  14  15
ENDBRANCH   8  14
BRANCH  12  17
ATOM     17  C   UNL A   1      32.521  20.726  23.615  1.00  0.00     0.317 C 
ATOM     18  O   UNL A   1      32.104  21.106  22.516  1.00  0.00    -0.249 OA
ATOM     19  N   UNL A   1      32.719  19.401  23.701  1.00  0.00    -0.333 N 
ATOM     20  H   UNL A   1      32.379  18.929  22.906  1.00  0.00     0.165 HD
BRANCH  19  21
ATOM     21  C   UNL A   1      33.301  18.484  24.661  1.00  0.00     0.112 C 
ATOM     22  C   UNL A   1      32.318  17.407  25.089  1.00  0.00     0.056 C 
ATOM     23  C   UNL A   1      34.441  17.615  24.142  1.00  0.00     0.185 C 
ATOM     24  C   UNL A   1      33.241  16.379  25.702  1.00  0.00     0.162 C 
ATOM     25  O   UNL A   1      34.457  16.419  24.944  1.00  0.00    -0.379 OA
ENDBRANCH  19  21
ENDBRANCH  12  17
ENDBRANCH   5   8
ENDBRANCH   3   4
ENDBRANCH   2   3
ENDBRANCH   1   2
BRANCH   1  26
ATOM     26  C   UNL A   1      33.998  28.922  26.087  1.00  0.00     0.116 C 
BRANCH  26  27
ATOM     27  N   UNL A   1      33.773  30.137  26.858  1.00  0.00    -0.352 N 
ATOM     28  C   UNL A   1      34.575  30.700  27.825  1.00  0.00     0.251 C 
ATOM     29  H   UNL A   1      32.937  30.619  26.663  1.00  0.00     0.163 HD
ATOM     30  O   UNL A   1      34.183  31.662  28.473  1.00  0.00    -0.269 OA
BRANCH  28  31
ATOM     31  C   UNL A   1      35.897  30.098  28.091  1.00  0.00     0.039 A 
ATOM     32  C   UNL A   1      36.885  30.172  27.107  1.00  0.00     0.014 A 
ATOM     33  C   UNL A   1      36.172  29.526  29.336  1.00  0.00     0.014 A 
ATOM     34  C   UNL A   1      38.181  29.746  27.404  1.00  0.00     0.010 A 
ATOM     35  C   UNL A   1      37.478  29.171  29.652  1.00  0.00     0.010 A 
ATOM     36  C   UNL A   1      38.496  29.284  28.694  1.00  0.00    -0.014 A 
BRANCH  36  37
ATOM     37  C   UNL A   1      39.887  28.928  29.070  1.00  0.00     0.031 A 
ATOM     38  C   UNL A   1      40.769  29.949  29.733  1.00  0.00     0.074 A 
ATOM     39  C   UNL A   1      40.380  27.718  28.738  1.00  0.00     0.049 A 
ATOM     40  N   UNL A   1      42.038  29.871  30.039  1.00  0.00    -0.248 NA
ATOM     41  C   UNL A   1      40.147  31.241  30.069  1.00  0.00     0.031 C 
ATOM     42  C   UNL A   1      39.638  26.660  28.048  1.00  0.00     0.029 A 
ATOM     43  N   UNL A   1      41.628  27.179  28.920  1.00  0.00    -0.354 N 
ATOM     44  C   UNL A   1      42.372  31.104  30.584  1.00  0.00     0.074 A 
ATOM     45  C   UNL A   1      41.185  31.930  30.523  1.00  0.00     0.031 C 
ATOM     46  C   UNL A   1      40.439  25.595  27.881  1.00  0.00     0.029 A 
ATOM     47  C   UNL A   1      41.762  25.906  28.415  1.00  0.00     0.049 A 
ATOM     48  H   UNL A   1      42.362  27.659  29.369  1.00  0.00     0.167 HD
ATOM     49  C   UNL A   1      43.554  31.505  31.109  1.00  0.00     0.037 A 
ATOM     50  C   UNL A   1      42.831  25.088  28.375  1.00  0.00     0.037 A 
ATOM     51  C   UNL A   1      44.722  30.668  31.194  1.00  0.00     0.049 A 
ATOM     52  C   UNL A   1      44.133  25.555  28.966  1.00  0.00     0.074 A 
ATOM     53  C   UNL A   1      45.947  30.959  31.765  1.00  0.00     0.029 A 
ATOM     54  N   UNL A   1      44.809  29.377  30.695  1.00  0.00    -0.354 N 
ATOM     55  N   UNL A   1      44.415  26.704  29.533  1.00  0.00    -0.248 NA
ATOM     56  C   UNL A   1      45.262  24.616  28.914  1.00  0.00     0.031 C 
ATOM     57  C   UNL A   1      46.789  29.856  31.580  1.00  0.00     0.029 A 
ATOM     58  C   UNL A   1      46.073  28.863  30.929  1.00  0.00     0.049 A 
ATOM     59  H   UNL A   1      44.079  28.897  30.241  1.00  0.00     0.167 HD
ATOM     60  C   UNL A   1      45.746  26.617  29.925  1.00  0.00     0.074 A 
ATOM     61  C   UNL A   1      46.210  25.300  29.541  1.00  0.00     0.031 C 
ATOM     62  C   UNL A   1      46.515  27.546  30.546  1.00  0.00     0.037 A 
BRANCH  49  63
ATOM     63  C   UNL A   1      43.637  32.909  31.640  1.00  0.00     0.058 A 
ATOM     64  C   UNL A   1      44.030  33.981  30.822  1.00  0.00     0.135 A 
ATOM     65  C   UNL A   1      43.296  33.192  32.972  1.00  0.00     0.135 A 
ATOM     66  F   UNL A   1      44.382  33.763  29.544  1.00  0.00    -0.206 F 
ATOM     67  C   UNL A   1      44.111  35.279  31.314  1.00  0.00     0.059 A 
ATOM     68  C   UNL A   1      43.344  34.488  33.478  1.00  0.00     0.059 A 
ATOM     69  F   UNL A   1      42.915  32.204  33.797  1.00  0.00    -0.206 F 
ATOM     70  C   UNL A   1      43.768  35.522  32.645  1.00  0.00     0.060 A 
BRANCH  70  71
ATOM     71  S   UNL A   1      43.878  37.212  33.268  1.00  0.00     0.124 S 
ATOM     72  O   UNL A   1      42.695  37.286  34.118  1.00  0.00    -0.237 OA
ATOM     73  O   UNL A   1      45.160  37.206  33.967  1.00  0.00    -0.237 OA
ATOM     74  O   UNL A   1      43.833  38.025  32.056  1.00  0.00    -0.744 OA
ENDBRANCH  70  71
ENDBRANCH  49  63
BRANCH  50  75
ATOM     75  C   UNL A   1      42.710  23.735  27.771  1.00  0.00     0.058 A 
ATOM     76  C   UNL A   1      42.807  23.557  26.383  1.00  0.00     0.135 A 
ATOM     77  C   UNL A   1      42.509  22.595  28.564  1.00  0.00     0.135 A 
ATOM     78  F   UNL A   1      42.993  24.617  25.583  1.00  0.00    -0.206 F 
ATOM     79  C   UNL A   1      42.696  22.299  25.800  1.00  0.00     0.059 A 
ATOM     80  C   UNL A   1      42.417  21.324  28.007  1.00  0.00     0.059 A 
ATOM     81  F   UNL A   1      42.426  22.710  29.899  1.00  0.00    -0.206 F 
ATOM     82  C   UNL A   1      42.502  21.187  26.621  1.00  0.00     0.060 A 
BRANCH  82  83
ATOM     83  S   UNL A   1      42.409  19.552  25.858  1.00  0.00     0.124 S 
ATOM     84  O   UNL A   1      42.775  18.687  26.974  1.00  0.00    -0.237 OA
ATOM     85  O   UNL A   1      41.015  19.490  25.432  1.00  0.00    -0.237 OA
ATOM     86  O   UNL A   1      43.383  19.634  24.775  1.00  0.00    -0.744 OA
ENDBRANCH  82  83
ENDBRANCH  50  75
BRANCH  62  87
ATOM     87  C   UNL A   1      47.930  27.163  30.876  1.00  0.00     0.058 A 
ATOM     88  C   UNL A   1      48.264  26.573  32.105  1.00  0.00     0.135 A 
ATOM     89  C   UNL A   1      48.952  27.335  29.929  1.00  0.00     0.135 A 
ATOM     90  F   UNL A   1      47.324  26.396  33.046  1.00  0.00    -0.206 F 
ATOM     91  C   UNL A   1      49.567  26.178  32.388  1.00  0.00     0.059 A 
ATOM     92  C   UNL A   1      50.257  26.925  30.182  1.00  0.00     0.059 A 
ATOM     93  F   UNL A   1      48.682  27.886  28.735  1.00  0.00    -0.206 F 
ATOM     94  C   UNL A   1      50.556  26.356  31.419  1.00  0.00     0.060 A 
BRANCH  94  95
ATOM     95  S   UNL A   1      52.235  25.797  31.782  1.00  0.00     0.124 S 
ATOM     96  O   UNL A   1      52.586  26.643  32.917  1.00  0.00    -0.237 OA
ATOM     97  O   UNL A   1      52.036  24.382  32.082  1.00  0.00    -0.237 OA
ATOM     98  O   UNL A   1      52.958  26.073  30.545  1.00  0.00    -0.744 OA
ENDBRANCH  94  95
ENDBRANCH  62  87
ENDBRANCH  36  37
ENDBRANCH  28  31
ENDBRANCH  26  27
ENDBRANCH   1  26
TORSDOF 18
ENDMDL
MODEL 3
REMARK VINA RESULT:     -11.7      5.326      7.393
REMARK SMILES CCC[C@]1(C(=O)NCCCCNC(=O)c2ccc(-c3c4nc(c(-c5c(F)cc(S(=O)(=O)[O-])cc5F)c5ccc([nH]5)c(-c5c(F)cc(S(=O)(=O)[O-])cc5F)c5nc(c(-c6c(F)cc(S(=O)(=O)[O-])cc6F)c6ccc3[nH]6)C=C5)C=C4)cc2)CCCN(C(=O)N[C@H]2CCOC2)C1
REMARK SMILES IDX 10 1 9 2 8 3 7 4 5 5 6 6 4 8 81 9 93 10 82 11 84 12 83 13
REMARK SMILES IDX 3 14 2 15 1 16 85 17 86 18 87 19 88 21 89 22 92 23 90 24
REMARK SMILES IDX 91 25 11 26 12 27 13 28 14 30 15 31 16 32 80 33 17 34 79 35
REMARK SMILES IDX 18 36 19 37 20 38 73 39 21 40 78 41 72 42 74 43 22 44 77 45
REMARK SMILES IDX 71 46 70 47 23 49 57 50 36 51 56 52 37 53 40 54 55 55 75 56
REMARK SMILES IDX 38 57 39 58 54 60 76 61 41 62 24 63 25 64 34 65 26 66 27 67
REMARK SMILES IDX 33 68 35 69 28 70 29 71 30 72 31 73 32 74 58 75 59 76 68 77
REMARK SMILES IDX 60 78 61 79 67 80 69 81 62 82 63 83 64 84 65 85 66 86 42 87
REMARK SMILES IDX 43 88 52 89 44 90 45 91 51 92 53 93 46 94 47 95 48 96 49 97
REMARK SMILES IDX 50 98
REMARK H PARENT 7 7 87 20 12 29 74 48 40 59
REMARK Flexibility Score: inf
ROOT
ATOM      1  C   UNL A   1      33.547  27.540  26.511  1.00  0.00     0.023 C 
ENDROOT
BRANCH   1   2
ATOM      2  C   UNL A   1      32.044  27.573  26.773  1.00  0.00     0.023 C 
BRANCH   2   3
ATOM      3  C   UNL A   1      31.250  26.492  26.042  1.00  0.00     0.116 C 
BRANCH   3   4
ATOM      4  N   UNL A   1      31.169  25.260  26.801  1.00  0.00    -0.356 N 
ATOM      5  C   UNL A   1      31.683  24.014  26.590  1.00  0.00     0.228 C 
ATOM      6  O   UNL A   1      31.482  23.201  27.496  1.00  0.00    -0.274 OA
ATOM      7  H   UNL A   1      30.641  25.336  27.629  1.00  0.00     0.163 HD
BRANCH   5   8
ATOM      8  C   UNL A   1      32.506  23.638  25.316  1.00  0.00     0.067 C 
ATOM      9  C   UNL A   1      34.020  23.714  25.637  1.00  0.00     0.020 C 
ATOM     10  C   UNL A   1      31.996  22.235  24.891  1.00  0.00     0.138 C 
ATOM     11  C   UNL A   1      34.893  22.718  24.879  1.00  0.00     0.023 C 
ATOM     12  N   UNL A   1      32.953  21.390  24.166  1.00  0.00    -0.324 N 
ATOM     13  C   UNL A   1      34.273  21.334  24.771  1.00  0.00     0.121 C 
BRANCH   8  14
ATOM     14  C   UNL A   1      32.128  24.710  24.220  1.00  0.00     0.018 C 
BRANCH  14  15
ATOM     15  C   UNL A   1      33.061  25.001  23.037  1.00  0.00    -0.002 C 
ATOM     16  C   UNL A   1      33.408  26.458  22.820  1.00  0.00     0.004 C 
ENDBRANCH  14  15
ENDBRANCH   8  14
BRANCH  12  17
ATOM     17  C   UNL A   1      32.415  20.530  23.245  1.00  0.00     0.317 C 
ATOM     18  O   UNL A   1      31.794  20.935  22.257  1.00  0.00    -0.249 OA
ATOM     19  N   UNL A   1      32.551  19.196  23.302  1.00  0.00    -0.333 N 
ATOM     20  H   UNL A   1      32.022  18.746  22.603  1.00  0.00     0.165 HD
BRANCH  19  21
ATOM     21  C   UNL A   1      33.272  18.245  24.124  1.00  0.00     0.112 C 
ATOM     22  C   UNL A   1      32.395  17.654  25.214  1.00  0.00     0.056 C 
ATOM     23  C   UNL A   1      33.724  16.969  23.423  1.00  0.00     0.185 C 
ATOM     24  C   UNL A   1      33.195  16.437  25.622  1.00  0.00     0.162 C 
ATOM     25  O   UNL A   1      33.827  15.948  24.432  1.00  0.00    -0.379 OA
ENDBRANCH  19  21
ENDBRANCH  12  17
ENDBRANCH   5   8
ENDBRANCH   3   4
ENDBRANCH   2   3
ENDBRANCH   1   2
BRANCH   1  26
ATOM     26  C   UNL A   1      34.092  28.728  25.726  1.00  0.00     0.116 C 
BRANCH  26  27
ATOM     27  N   UNL A   1      33.748  30.012  26.322  1.00  0.00    -0.352 N 
ATOM     28  C   UNL A   1      34.375  30.673  27.354  1.00  0.00     0.251 C 
ATOM     29  H   UNL A   1      32.965  30.466  25.937  1.00  0.00     0.163 HD
ATOM     30  O   UNL A   1      33.886  31.692  27.825  1.00  0.00    -0.269 OA
BRANCH  28  31
ATOM     31  C   UNL A   1      35.625  30.110  27.904  1.00  0.00     0.039 A 
ATOM     32  C   UNL A   1      36.829  30.358  27.243  1.00  0.00     0.014 A 
ATOM     33  C   UNL A   1      35.606  29.398  29.107  1.00  0.00     0.014 A 
ATOM     34  C   UNL A   1      38.030  29.963  27.835  1.00  0.00     0.010 A 
ATOM     35  C   UNL A   1      36.806  29.072  29.728  1.00  0.00     0.010 A 
ATOM     36  C   UNL A   1      38.029  29.358  29.103  1.00  0.00    -0.014 A 
BRANCH  36  37
ATOM     37  C   UNL A   1      39.294  29.027  29.805  1.00  0.00     0.031 A 
ATOM     38  C   UNL A   1      39.727  29.841  30.992  1.00  0.00     0.074 A 
ATOM     39  C   UNL A   1      40.092  28.054  29.321  1.00  0.00     0.049 A 
ATOM     40  N   UNL A   1      40.844  29.784  31.669  1.00  0.00    -0.248 NA
ATOM     41  C   UNL A   1      38.793  30.878  31.459  1.00  0.00     0.031 C 
ATOM     42  C   UNL A   1      39.804  27.227  28.146  1.00  0.00     0.029 A 
ATOM     43  N   UNL A   1      41.316  27.605  29.747  1.00  0.00    -0.354 N 
ATOM     44  C   UNL A   1      40.756  30.785  32.629  1.00  0.00     0.074 A 
ATOM     45  C   UNL A   1      39.498  31.467  32.415  1.00  0.00     0.031 C 
ATOM     46  C   UNL A   1      40.814  26.363  27.957  1.00  0.00     0.029 A 
ATOM     47  C   UNL A   1      41.838  26.597  28.969  1.00  0.00     0.049 A 
ATOM     48  H   UNL A   1      41.779  27.970  30.536  1.00  0.00     0.167 HD
ATOM     49  C   UNL A   1      41.634  31.093  33.613  1.00  0.00     0.037 A 
ATOM     50  C   UNL A   1      43.014  25.945  29.056  1.00  0.00     0.037 A 
ATOM     51  C   UNL A   1      42.869  30.391  33.839  1.00  0.00     0.049 A 
ATOM     52  C   UNL A   1      43.971  26.304  30.159  1.00  0.00     0.074 A 
ATOM     53  C   UNL A   1      43.796  30.584  34.847  1.00  0.00     0.029 A 
ATOM     54  N   UNL A   1      43.350  29.359  33.046  1.00  0.00    -0.354 N 
ATOM     55  N   UNL A   1      43.845  27.214  31.096  1.00  0.00    -0.248 NA
ATOM     56  C   UNL A   1      45.230  25.548  30.220  1.00  0.00     0.031 C 
ATOM     57  C   UNL A   1      44.856  29.693  34.644  1.00  0.00     0.029 A 
ATOM     58  C   UNL A   1      44.569  28.917  33.532  1.00  0.00     0.049 A 
ATOM     59  H   UNL A   1      42.892  28.994  32.255  1.00  0.00     0.167 HD
ATOM     60  C   UNL A   1      44.996  27.124  31.869  1.00  0.00     0.074 A 
ATOM     61  C   UNL A   1      45.803  26.065  31.299  1.00  0.00     0.031 C 
ATOM     62  C   UNL A   1      45.354  27.855  32.954  1.00  0.00     0.037 A 
BRANCH  49  63
ATOM     63  C   UNL A   1      41.280  32.235  34.525  1.00  0.00     0.058 A 
ATOM     64  C   UNL A   1      41.689  33.549  34.246  1.00  0.00     0.135 A 
ATOM     65  C   UNL A   1      40.504  32.020  35.674  1.00  0.00     0.135 A 
ATOM     66  F   UNL A   1      42.447  33.808  33.169  1.00  0.00    -0.206 F 
ATOM     67  C   UNL A   1      41.367  34.606  35.092  1.00  0.00     0.059 A 
ATOM     68  C   UNL A   1      40.147  33.066  36.520  1.00  0.00     0.059 A 
ATOM     69  F   UNL A   1      40.089  30.783  35.987  1.00  0.00    -0.206 F 
ATOM     70  C   UNL A   1      40.596  34.353  36.228  1.00  0.00     0.060 A 
BRANCH  70  71
ATOM     71  S   UNL A   1      40.186  35.734  37.315  1.00  0.00     0.124 S 
ATOM     72  O   UNL A   1      41.467  35.980  37.969  1.00  0.00    -0.237 OA
ATOM     73  O   UNL A   1      39.751  36.758  36.369  1.00  0.00    -0.237 OA
ATOM     74  O   UNL A   1      39.136  35.192  38.173  1.00  0.00    -0.744 OA
ENDBRANCH  70  71
ENDBRANCH  49  63
BRANCH  50  75
ATOM     75  C   UNL A   1      43.342  24.872  28.081  1.00  0.00     0.058 A 
ATOM     76  C   UNL A   1      43.006  23.536  28.341  1.00  0.00     0.135 A 
ATOM     77  C   UNL A   1      43.984  25.160  26.866  1.00  0.00     0.135 A 
ATOM     78  F   UNL A   1      42.397  23.211  29.491  1.00  0.00    -0.206 F 
ATOM     79  C   UNL A   1      43.306  22.519  27.441  1.00  0.00     0.059 A 
ATOM     80  C   UNL A   1      44.275  24.164  25.940  1.00  0.00     0.059 A 
ATOM     81  F   UNL A   1      44.312  26.425  26.562  1.00  0.00    -0.206 F 
ATOM     82  C   UNL A   1      43.941  22.844  26.240  1.00  0.00     0.060 A 
BRANCH  82  83
ATOM     83  S   UNL A   1      44.280  21.524  25.055  1.00  0.00     0.124 S 
ATOM     84  O   UNL A   1      43.196  20.590  25.339  1.00  0.00    -0.237 OA
ATOM     85  O   UNL A   1      44.200  22.227  23.779  1.00  0.00    -0.237 OA
ATOM     86  O   UNL A   1      45.617  21.074  25.431  1.00  0.00    -0.744 OA
ENDBRANCH  82  83
ENDBRANCH  50  75
BRANCH  62  87
ATOM     87  C   UNL A   1      46.662  27.519  33.615  1.00  0.00     0.058 A 
ATOM     88  C   UNL A   1      47.853  28.171  33.260  1.00  0.00     0.135 A 
ATOM     89  C   UNL A   1      46.711  26.577  34.654  1.00  0.00     0.135 A 
ATOM     90  F   UNL A   1      47.859  29.073  32.267  1.00  0.00    -0.206 F 
ATOM     91  C   UNL A   1      49.052  27.890  33.906  1.00  0.00     0.059 A 
ATOM     92  C   UNL A   1      47.894  26.299  35.330  1.00  0.00     0.059 A 
ATOM     93  F   UNL A   1      45.597  25.933  35.037  1.00  0.00    -0.206 F 
ATOM     94  C   UNL A   1      49.061  26.954  34.942  1.00  0.00     0.060 A 
BRANCH  94  95
ATOM     95  S   UNL A   1      50.616  26.632  35.803  1.00  0.00     0.124 S 
ATOM     96  O   UNL A   1      50.437  25.246  36.222  1.00  0.00    -0.237 OA
ATOM     97  O   UNL A   1      51.607  26.855  34.755  1.00  0.00    -0.237 OA
ATOM     98  O   UNL A   1      50.618  27.619  36.878  1.00  0.00    -0.744 OA
ENDBRANCH  94  95
ENDBRANCH  62  87
ENDBRANCH  36  37
ENDBRANCH  28  31
ENDBRANCH  26  27
ENDBRANCH   1  26
TORSDOF 18
ENDMDL
