MODEL 1
REMARK VINA RESULT:     -13.2      0.000      0.000
REMARK SMILES O=C(NC1(C(=O)NCCCCNC(=O)c2ccc(-c3c4nc(c(-c5c(F)cc(S(=O)(=O)[O-])cc5F)c5ccc([nH]5)c(-c5c(F)cc(S(=O)(=O)[O-])cc5F)c5nc(c(-c6c(F)cc(S(=O)(=O)[O-])cc6F)c6ccc3[nH]6)C=C5)C=C4)cc2)Cc2ccccc2C1)OCC1c2ccccc2-c2ccccc21
REMARK SMILES IDX 9 1 8 2 7 3 5 4 6 5 4 7 81 8 88 9 82 10 87 11 83 12 86 13
REMARK SMILES IDX 84 14 85 15 3 16 1 17 2 18 89 20 90 21 91 22 92 23 103 24
REMARK SMILES IDX 93 25 97 26 98 27 102 28 94 29 96 30 99 31 101 32 95 33
REMARK SMILES IDX 100 34 10 35 11 36 12 37 13 38 14 40 15 41 16 42 80 43 17 44
REMARK SMILES IDX 79 45 18 46 19 47 20 48 73 49 21 50 78 51 72 52 74 53 22 54
REMARK SMILES IDX 77 55 71 56 70 57 23 59 57 60 36 61 56 62 37 63 40 64 55 65
REMARK SMILES IDX 75 66 38 67 39 68 54 70 76 71 41 72 24 73 25 74 34 75 26 76
REMARK SMILES IDX 27 77 33 78 35 79 28 80 29 81 30 82 31 83 32 84 58 85 59 86
REMARK SMILES IDX 68 87 60 88 61 89 67 90 69 91 62 92 63 93 64 94 65 95 66 96
REMARK SMILES IDX 42 97 43 98 52 99 44 100 45 101 51 102 53 103 46 104 47 105
REMARK SMILES IDX 48 106 49 107 50 108
REMARK H PARENT 7 6 3 19 12 39 74 58 40 69
REMARK Flexibility Score: inf
ROOT
ATOM      1  C   UNL A   1      31.829  29.565  25.633  1.00  0.00     0.023 C 
ENDROOT
BRANCH   1   2
ATOM      2  C   UNL A   1      31.814  29.055  24.191  1.00  0.00     0.116 C 
BRANCH   2   3
ATOM      3  N   UNL A   1      30.583  28.364  23.870  1.00  0.00    -0.354 N 
ATOM      4  C   UNL A   1      30.293  27.068  23.600  1.00  0.00     0.246 C 
ATOM      5  O   UNL A   1      29.079  26.830  23.492  1.00  0.00    -0.272 OA
ATOM      6  H   UNL A   1      29.797  28.956  23.841  1.00  0.00     0.163 HD
BRANCH   4   7
ATOM      7  C   UNL A   1      31.328  25.895  23.546  1.00  0.00     0.130 C 
ATOM      8  C   UNL A   1      30.593  24.516  23.589  1.00  0.00     0.075 C 
ATOM      9  C   UNL A   1      32.375  25.830  24.675  1.00  0.00     0.075 C 
ATOM     10  C   UNL A   1      30.957  23.946  24.929  1.00  0.00    -0.042 A 
ATOM     11  C   UNL A   1      31.917  24.725  25.562  1.00  0.00    -0.042 A 
ATOM     12  C   UNL A   1      30.472  22.809  25.551  1.00  0.00     0.004 A 
ATOM     13  C   UNL A   1      32.390  24.420  26.827  1.00  0.00     0.004 A 
ATOM     14  C   UNL A   1      30.944  22.489  26.831  1.00  0.00     0.000 A 
ATOM     15  C   UNL A   1      31.890  23.298  27.472  1.00  0.00     0.000 A 
BRANCH   7  16
ATOM     16  N   UNL A   1      31.955  26.072  22.207  1.00  0.00    -0.306 N 
ATOM     17  O   UNL A   1      33.198  25.526  20.406  1.00  0.00    -0.225 OA
ATOM     18  C   UNL A   1      32.694  25.197  21.464  1.00  0.00     0.408 C 
ATOM     19  H   UNL A   1      31.816  26.956  21.795  1.00  0.00     0.168 HD
BRANCH  18  20
ATOM     20  O   UNL A   1      32.672  23.919  21.932  1.00  0.00    -0.449 OA
BRANCH  20  21
ATOM     21  C   UNL A   1      33.928  23.588  22.531  1.00  0.00     0.248 C 
BRANCH  21  22
ATOM     22  C   UNL A   1      33.837  22.800  23.861  1.00  0.00     0.088 C 
ATOM     23  C   UNL A   1      33.514  21.307  23.848  1.00  0.00    -0.029 A 
ATOM     24  C   UNL A   1      35.202  22.802  24.566  1.00  0.00    -0.029 A 
ATOM     25  C   UNL A   1      32.406  20.651  23.335  1.00  0.00     0.005 A 
ATOM     26  C   UNL A   1      34.523  20.583  24.529  1.00  0.00    -0.014 A 
ATOM     27  C   UNL A   1      35.596  21.487  24.877  1.00  0.00    -0.014 A 
ATOM     28  C   UNL A   1      36.040  23.882  24.810  1.00  0.00     0.005 A 
ATOM     29  C   UNL A   1      32.304  19.266  23.525  1.00  0.00     0.000 A 
ATOM     30  C   UNL A   1      34.396  19.222  24.761  1.00  0.00     0.009 A 
ATOM     31  C   UNL A   1      36.879  21.230  25.331  1.00  0.00     0.009 A 
ATOM     32  C   UNL A   1      37.330  23.623  25.272  1.00  0.00     0.000 A 
ATOM     33  C   UNL A   1      33.281  18.560  24.245  1.00  0.00     0.001 A 
ATOM     34  C   UNL A   1      37.754  22.306  25.507  1.00  0.00     0.001 A 
ENDBRANCH  21  22
ENDBRANCH  20  21
ENDBRANCH  18  20
ENDBRANCH   7  16
ENDBRANCH   4   7
ENDBRANCH   2   3
ENDBRANCH   1   2
BRANCH   1  35
ATOM     35  C   UNL A   1      32.287  28.550  26.668  1.00  0.00     0.023 C 
BRANCH  35  36
ATOM     36  C   UNL A   1      33.573  28.915  27.388  1.00  0.00     0.116 C 
BRANCH  36  37
ATOM     37  N   UNL A   1      33.583  30.238  28.001  1.00  0.00    -0.352 N 
ATOM     38  C   UNL A   1      34.666  30.857  28.597  1.00  0.00     0.251 C 
ATOM     39  H   UNL A   1      32.736  30.740  27.987  1.00  0.00     0.163 HD
ATOM     40  O   UNL A   1      34.557  31.951  29.137  1.00  0.00    -0.269 OA
BRANCH  38  41
ATOM     41  C   UNL A   1      35.951  30.123  28.612  1.00  0.00     0.039 A 
ATOM     42  C   UNL A   1      36.784  30.179  27.493  1.00  0.00     0.014 A 
ATOM     43  C   UNL A   1      36.399  29.547  29.802  1.00  0.00     0.014 A 
ATOM     44  C   UNL A   1      38.109  29.747  27.606  1.00  0.00     0.010 A 
ATOM     45  C   UNL A   1      37.742  29.231  29.943  1.00  0.00     0.010 A 
ATOM     46  C   UNL A   1      38.616  29.327  28.848  1.00  0.00    -0.014 A 
BRANCH  46  47
ATOM     47  C   UNL A   1      40.050  28.978  29.034  1.00  0.00     0.031 A 
ATOM     48  C   UNL A   1      41.007  30.020  29.553  1.00  0.00     0.074 A 
ATOM     49  C   UNL A   1      40.511  27.768  28.655  1.00  0.00     0.049 A 
ATOM     50  N   UNL A   1      42.307  29.960  29.679  1.00  0.00    -0.248 NA
ATOM     51  C   UNL A   1      40.430  31.320  29.937  1.00  0.00     0.031 C 
ATOM     52  C   UNL A   1      39.705  26.695  28.065  1.00  0.00     0.029 A 
ATOM     53  N   UNL A   1      41.777  27.236  28.698  1.00  0.00    -0.354 N 
ATOM     54  C   UNL A   1      42.701  31.218  30.124  1.00  0.00     0.074 A 
ATOM     55  C   UNL A   1      41.514  32.039  30.180  1.00  0.00     0.031 C 
ATOM     56  C   UNL A   1      40.487  25.627  27.836  1.00  0.00     0.029 A 
ATOM     57  C   UNL A   1      41.857  25.946  28.224  1.00  0.00     0.049 A 
ATOM     58  H   UNL A   1      42.557  27.732  29.037  1.00  0.00     0.167 HD
ATOM     59  C   UNL A   1      43.933  31.641  30.489  1.00  0.00     0.037 A 
ATOM     60  C   UNL A   1      42.913  25.116  28.116  1.00  0.00     0.037 A 
ATOM     61  C   UNL A   1      45.100  30.802  30.493  1.00  0.00     0.049 A 
ATOM     62  C   UNL A   1      44.265  25.593  28.575  1.00  0.00     0.074 A 
ATOM     63  C   UNL A   1      46.380  31.109  30.920  1.00  0.00     0.029 A 
ATOM     64  N   UNL A   1      45.126  29.483  30.062  1.00  0.00    -0.354 N 
ATOM     65  N   UNL A   1      44.606  26.765  29.057  1.00  0.00    -0.248 NA
ATOM     66  C   UNL A   1      45.377  24.635  28.485  1.00  0.00     0.031 C 
ATOM     67  C   UNL A   1      47.187  29.984  30.716  1.00  0.00     0.029 A 
ATOM     68  C   UNL A   1      46.401  28.966  30.204  1.00  0.00     0.049 A 
ATOM     69  H   UNL A   1      44.351  28.990  29.706  1.00  0.00     0.167 HD
ATOM     70  C   UNL A   1      45.961  26.674  29.355  1.00  0.00     0.074 A 
ATOM     71  C   UNL A   1      46.377  25.331  29.008  1.00  0.00     0.031 C 
ATOM     72  C   UNL A   1      46.788  27.618  29.869  1.00  0.00     0.037 A 
BRANCH  59  73
ATOM     73  C   UNL A   1      44.074  33.069  30.942  1.00  0.00     0.058 A 
ATOM     74  C   UNL A   1      44.406  34.095  30.043  1.00  0.00     0.135 A 
ATOM     75  C   UNL A   1      43.853  33.419  32.283  1.00  0.00     0.135 A 
ATOM     76  F   UNL A   1      44.647  33.814  28.752  1.00  0.00    -0.206 F 
ATOM     77  C   UNL A   1      44.547  35.413  30.463  1.00  0.00     0.059 A 
ATOM     78  C   UNL A   1      43.958  34.737  32.719  1.00  0.00     0.059 A 
ATOM     79  F   UNL A   1      43.534  32.478  33.185  1.00  0.00    -0.206 F 
ATOM     80  C   UNL A   1      44.322  35.724  31.804  1.00  0.00     0.060 A 
BRANCH  80  81
ATOM     81  S   UNL A   1      44.502  37.441  32.332  1.00  0.00     0.124 S 
ATOM     82  O   UNL A   1      43.490  37.530  33.379  1.00  0.00    -0.237 OA
ATOM     83  O   UNL A   1      45.888  37.484  32.785  1.00  0.00    -0.237 OA
ATOM     84  O   UNL A   1      44.219  38.200  31.118  1.00  0.00    -0.744 OA
ENDBRANCH  80  81
ENDBRANCH  59  73
BRANCH  60  85
ATOM     85  C   UNL A   1      42.733  23.736  27.587  1.00  0.00     0.058 A 
ATOM     86  C   UNL A   1      42.439  22.668  28.447  1.00  0.00     0.135 A 
ATOM     87  C   UNL A   1      42.848  23.456  26.216  1.00  0.00     0.135 A 
ATOM     88  F   UNL A   1      42.324  22.882  29.767  1.00  0.00    -0.206 F 
ATOM     89  C   UNL A   1      42.287  21.368  27.974  1.00  0.00     0.059 A 
ATOM     90  C   UNL A   1      42.677  22.169  25.715  1.00  0.00     0.059 A 
ATOM     91  F   UNL A   1      43.111  24.445  25.348  1.00  0.00    -0.206 F 
ATOM     92  C   UNL A   1      42.408  21.128  26.605  1.00  0.00     0.060 A 
BRANCH  92  93
ATOM     93  S   UNL A   1      42.167  19.445  25.994  1.00  0.00     0.124 S 
ATOM     94  O   UNL A   1      40.737  19.439  25.710  1.00  0.00    -0.237 OA
ATOM     95  O   UNL A   1      43.050  19.410  24.833  1.00  0.00    -0.237 OA
ATOM     96  O   UNL A   1      42.592  18.617  27.120  1.00  0.00    -0.744 OA
ENDBRANCH  92  93
ENDBRANCH  60  85
BRANCH  72  97
ATOM     97  C   UNL A   1      48.214  27.224  30.130  1.00  0.00     0.058 A 
ATOM     98  C   UNL A   1      49.242  27.535  29.229  1.00  0.00     0.135 A 
ATOM     99  C   UNL A   1      48.562  26.585  31.331  1.00  0.00     0.135 A 
ATOM    100  F   UNL A   1      48.960  28.142  28.065  1.00  0.00    -0.206 F 
ATOM    101  C   UNL A   1      50.567  27.211  29.500  1.00  0.00     0.059 A 
ATOM    102  C   UNL A   1      49.884  26.273  31.635  1.00  0.00     0.059 A 
ATOM    103  F   UNL A   1      47.616  26.275  32.232  1.00  0.00    -0.206 F 
ATOM    104  C   UNL A   1      50.878  26.582  30.708  1.00  0.00     0.060 A 
BRANCH 104 105
ATOM    105  S   UNL A   1      52.605  26.203  31.067  1.00  0.00     0.124 S 
ATOM    106  O   UNL A   1      52.479  24.998  31.881  1.00  0.00    -0.237 OA
ATOM    107  O   UNL A   1      53.169  26.012  29.735  1.00  0.00    -0.237 OA
ATOM    108  O   UNL A   1      53.074  27.392  31.774  1.00  0.00    -0.744 OA
ENDBRANCH 104 105
ENDBRANCH  72  97
ENDBRANCH  46  47
ENDBRANCH  38  41
ENDBRANCH  36  37
ENDBRANCH  35  36
ENDBRANCH   1  35
TORSDOF 18
ENDMDL
MODEL 2
REMARK VINA RESULT:     -12.6      0.574      7.833
REMARK SMILES O=C(NC1(C(=O)NCCCCNC(=O)c2ccc(-c3c4nc(c(-c5c(F)cc(S(=O)(=O)[O-])cc5F)c5ccc([nH]5)c(-c5c(F)cc(S(=O)(=O)[O-])cc5F)c5nc(c(-c6c(F)cc(S(=O)(=O)[O-])cc6F)c6ccc3[nH]6)C=C5)C=C4)cc2)Cc2ccccc2C1)OCC1c2ccccc2-c2ccccc21
REMARK SMILES IDX 9 1 8 2 7 3 5 4 6 5 4 7 81 8 88 9 82 10 87 11 83 12 86 13
REMARK SMILES IDX 84 14 85 15 3 16 1 17 2 18 89 20 90 21 91 22 92 23 103 24
REMARK SMILES IDX 93 25 97 26 98 27 102 28 94 29 96 30 99 31 101 32 95 33
REMARK SMILES IDX 100 34 10 35 11 36 12 37 13 38 14 40 15 41 16 42 80 43 17 44
REMARK SMILES IDX 79 45 18 46 19 47 20 48 73 49 21 50 78 51 72 52 74 53 22 54
REMARK SMILES IDX 77 55 71 56 70 57 23 59 57 60 36 61 56 62 37 63 40 64 55 65
REMARK SMILES IDX 75 66 38 67 39 68 54 70 76 71 41 72 24 73 25 74 34 75 26 76
REMARK SMILES IDX 27 77 33 78 35 79 28 80 29 81 30 82 31 83 32 84 58 85 59 86
REMARK SMILES IDX 68 87 60 88 61 89 67 90 69 91 62 92 63 93 64 94 65 95 66 96
REMARK SMILES IDX 42 97 43 98 52 99 44 100 45 101 51 102 53 103 46 104 47 105
REMARK SMILES IDX 48 106 49 107 50 108
REMARK H PARENT 7 6 3 19 12 39 74 58 40 69
REMARK Flexibility Score: inf
ROOT
ATOM      1  C   UNL A   1      31.848  29.261  25.947  1.00  0.00     0.023 C 
ENDROOT
BRANCH   1   2
ATOM      2  C   UNL A   1      31.820  28.986  24.443  1.00  0.00     0.116 C 
BRANCH   2   3
ATOM      3  N   UNL A   1      30.599  28.327  24.031  1.00  0.00    -0.354 N 
ATOM      4  C   UNL A   1      30.312  27.051  23.675  1.00  0.00     0.246 C 
ATOM      5  O   UNL A   1      29.101  26.831  23.503  1.00  0.00    -0.272 OA
ATOM      6  H   UNL A   1      29.820  28.927  24.005  1.00  0.00     0.163 HD
BRANCH   4   7
ATOM      7  C   UNL A   1      31.340  25.873  23.597  1.00  0.00     0.130 C 
ATOM      8  C   UNL A   1      30.597  24.498  23.627  1.00  0.00     0.075 C 
ATOM      9  C   UNL A   1      32.395  25.787  24.717  1.00  0.00     0.075 C 
ATOM     10  C   UNL A   1      30.969  23.908  24.957  1.00  0.00    -0.042 A 
ATOM     11  C   UNL A   1      31.938  24.673  25.592  1.00  0.00    -0.042 A 
ATOM     12  C   UNL A   1      30.483  22.765  25.567  1.00  0.00     0.004 A 
ATOM     13  C   UNL A   1      32.420  24.348  26.849  1.00  0.00     0.004 A 
ATOM     14  C   UNL A   1      30.963  22.425  26.839  1.00  0.00     0.000 A 
ATOM     15  C   UNL A   1      31.919  23.220  27.483  1.00  0.00     0.000 A 
BRANCH   7  16
ATOM     16  N   UNL A   1      31.957  26.065  22.255  1.00  0.00    -0.306 N 
ATOM     17  O   UNL A   1      33.185  25.539  20.438  1.00  0.00    -0.225 OA
ATOM     18  C   UNL A   1      32.688  25.198  21.496  1.00  0.00     0.408 C 
ATOM     19  H   UNL A   1      31.816  26.954  21.854  1.00  0.00     0.168 HD
BRANCH  18  20
ATOM     20  O   UNL A   1      32.669  23.914  21.950  1.00  0.00    -0.449 OA
BRANCH  20  21
ATOM     21  C   UNL A   1      33.932  23.572  22.527  1.00  0.00     0.248 C 
BRANCH  21  22
ATOM     22  C   UNL A   1      33.856  22.797  23.866  1.00  0.00     0.088 C 
ATOM     23  C   UNL A   1      33.535  21.303  23.871  1.00  0.00    -0.029 A 
ATOM     24  C   UNL A   1      35.229  22.808  24.556  1.00  0.00    -0.029 A 
ATOM     25  C   UNL A   1      32.423  20.641  23.376  1.00  0.00     0.005 A 
ATOM     26  C   UNL A   1      34.553  20.588  24.547  1.00  0.00    -0.014 A 
ATOM     27  C   UNL A   1      35.629  21.496  24.875  1.00  0.00    -0.014 A 
ATOM     28  C   UNL A   1      36.068  23.892  24.780  1.00  0.00     0.005 A 
ATOM     29  C   UNL A   1      32.325  19.257  23.581  1.00  0.00     0.000 A 
ATOM     30  C   UNL A   1      34.430  19.228  24.794  1.00  0.00     0.009 A 
ATOM     31  C   UNL A   1      36.916  21.245  25.317  1.00  0.00     0.009 A 
ATOM     32  C   UNL A   1      37.364  23.639  25.230  1.00  0.00     0.000 A 
ATOM     33  C   UNL A   1      33.311  18.560  24.297  1.00  0.00     0.001 A 
ATOM     34  C   UNL A   1      37.792  22.324  25.473  1.00  0.00     0.001 A 
ENDBRANCH  21  22
ENDBRANCH  20  21
ENDBRANCH  18  20
ENDBRANCH   7  16
ENDBRANCH   4   7
ENDBRANCH   2   3
ENDBRANCH   1   2
BRANCH   1  35
ATOM     35  C   UNL A   1      32.680  28.284  26.764  1.00  0.00     0.023 C 
BRANCH  35  36
ATOM     36  C   UNL A   1      34.010  28.834  27.248  1.00  0.00     0.116 C 
BRANCH  36  37
ATOM     37  N   UNL A   1      33.927  30.088  27.986  1.00  0.00    -0.352 N 
ATOM     38  C   UNL A   1      34.954  30.700  28.680  1.00  0.00     0.251 C 
ATOM     39  H   UNL A   1      33.055  30.545  27.989  1.00  0.00     0.163 HD
ATOM     40  O   UNL A   1      34.767  31.728  29.320  1.00  0.00    -0.269 OA
BRANCH  38  41
ATOM     41  C   UNL A   1      36.276  30.036  28.672  1.00  0.00     0.039 A 
ATOM     42  C   UNL A   1      37.052  30.068  27.512  1.00  0.00     0.014 A 
ATOM     43  C   UNL A   1      36.810  29.555  29.870  1.00  0.00     0.014 A 
ATOM     44  C   UNL A   1      38.402  29.713  27.583  1.00  0.00     0.010 A 
ATOM     45  C   UNL A   1      38.174  29.317  29.960  1.00  0.00     0.010 A 
ATOM     46  C   UNL A   1      38.989  29.394  28.820  1.00  0.00    -0.014 A 
BRANCH  46  47
ATOM     47  C   UNL A   1      40.447  29.131  28.953  1.00  0.00     0.031 A 
ATOM     48  C   UNL A   1      40.996  27.779  28.576  1.00  0.00     0.074 A 
ATOM     49  C   UNL A   1      41.260  30.062  29.494  1.00  0.00     0.049 A 
ATOM     50  N   UNL A   1      42.206  27.307  28.722  1.00  0.00    -0.248 NA
ATOM     51  C   UNL A   1      40.044  26.812  28.000  1.00  0.00     0.031 C 
ATOM     52  C   UNL A   1      40.843  31.383  29.974  1.00  0.00     0.029 A 
ATOM     53  N   UNL A   1      42.611  30.037  29.744  1.00  0.00    -0.354 N 
ATOM     54  C   UNL A   1      42.150  25.986  28.289  1.00  0.00     0.074 A 
ATOM     55  C   UNL A   1      40.776  25.711  27.940  1.00  0.00     0.031 C 
ATOM     56  C   UNL A   1      41.919  32.051  30.424  1.00  0.00     0.029 A 
ATOM     57  C   UNL A   1      43.095  31.197  30.305  1.00  0.00     0.049 A 
ATOM     58  H   UNL A   1      43.181  29.261  29.541  1.00  0.00     0.167 HD
ATOM     59  C   UNL A   1      43.159  25.093  28.156  1.00  0.00     0.037 A 
ATOM     60  C   UNL A   1      44.346  31.534  30.678  1.00  0.00     0.037 A 
ATOM     61  C   UNL A   1      44.535  25.391  28.444  1.00  0.00     0.049 A 
ATOM     62  C   UNL A   1      45.460  30.541  30.476  1.00  0.00     0.074 A 
ATOM     63  C   UNL A   1      45.646  24.584  28.270  1.00  0.00     0.029 A 
ATOM     64  N   UNL A   1      44.992  26.598  28.954  1.00  0.00    -0.354 N 
ATOM     65  N   UNL A   1      45.399  29.320  30.000  1.00  0.00    -0.248 NA
ATOM     66  C   UNL A   1      46.814  30.972  30.852  1.00  0.00     0.031 C 
ATOM     67  C   UNL A   1      46.771  25.293  28.704  1.00  0.00     0.029 A 
ATOM     68  C   UNL A   1      46.366  26.555  29.109  1.00  0.00     0.049 A 
ATOM     69  H   UNL A   1      44.423  27.370  29.174  1.00  0.00     0.167 HD
ATOM     70  C   UNL A   1      46.708  28.849  29.992  1.00  0.00     0.074 A 
ATOM     71  C   UNL A   1      47.540  29.919  30.501  1.00  0.00     0.031 C 
ATOM     72  C   UNL A   1      47.178  27.640  29.599  1.00  0.00     0.037 A 
BRANCH  59  73
ATOM     73  C   UNL A   1      42.811  23.719  27.653  1.00  0.00     0.058 A 
ATOM     74  C   UNL A   1      42.515  22.667  28.535  1.00  0.00     0.135 A 
ATOM     75  C   UNL A   1      42.752  23.456  26.276  1.00  0.00     0.135 A 
ATOM     76  F   UNL A   1      42.575  22.858  29.862  1.00  0.00    -0.206 F 
ATOM     77  C   UNL A   1      42.205  21.394  28.070  1.00  0.00     0.059 A 
ATOM     78  C   UNL A   1      42.413  22.196  25.788  1.00  0.00     0.059 A 
ATOM     79  F   UNL A   1      43.027  24.424  25.388  1.00  0.00    -0.206 F 
ATOM     80  C   UNL A   1      42.157  21.168  26.693  1.00  0.00     0.060 A 
BRANCH  80  81
ATOM     81  S   UNL A   1      41.745  19.511  26.107  1.00  0.00     0.124 S 
ATOM     82  O   UNL A   1      42.631  19.384  24.955  1.00  0.00    -0.237 OA
ATOM     83  O   UNL A   1      42.081  18.680  27.258  1.00  0.00    -0.237 OA
ATOM     84  O   UNL A   1      40.322  19.604  25.798  1.00  0.00    -0.744 OA
ENDBRANCH  80  81
ENDBRANCH  59  73
BRANCH  60  85
ATOM     85  C   UNL A   1      44.623  32.882  31.246  1.00  0.00     0.058 A 
ATOM     86  C   UNL A   1      44.953  33.960  30.412  1.00  0.00     0.135 A 
ATOM     87  C   UNL A   1      44.562  33.122  32.628  1.00  0.00     0.135 A 
ATOM     88  F   UNL A   1      45.030  33.781  29.084  1.00  0.00    -0.206 F 
ATOM     89  C   UNL A   1      45.235  35.223  30.924  1.00  0.00     0.059 A 
ATOM     90  C   UNL A   1      44.816  34.382  33.164  1.00  0.00     0.059 A 
ATOM     91  F   UNL A   1      44.234  32.129  33.468  1.00  0.00    -0.206 F 
ATOM     92  C   UNL A   1      45.164  35.424  32.303  1.00  0.00     0.060 A 
BRANCH  92  93
ATOM     93  S   UNL A   1      45.490  37.077  32.957  1.00  0.00     0.124 S 
ATOM     94  O   UNL A   1      46.110  36.767  34.239  1.00  0.00    -0.237 OA
ATOM     95  O   UNL A   1      46.371  37.641  31.939  1.00  0.00    -0.237 OA
ATOM     96  O   UNL A   1      44.160  37.677  33.026  1.00  0.00    -0.744 OA
ENDBRANCH  92  93
ENDBRANCH  60  85
BRANCH  72  97
ATOM     97  C   UNL A   1      48.663  27.420  29.661  1.00  0.00     0.058 A 
ATOM     98  C   UNL A   1      49.495  27.689  28.564  1.00  0.00     0.135 A 
ATOM     99  C   UNL A   1      49.266  26.997  30.857  1.00  0.00     0.135 A 
ATOM    100  F   UNL A   1      48.966  28.091  27.398  1.00  0.00    -0.206 F 
ATOM    101  C   UNL A   1      50.874  27.530  28.644  1.00  0.00     0.059 A 
ATOM    102  C   UNL A   1      50.645  26.856  30.967  1.00  0.00     0.059 A 
ATOM    103  F   UNL A   1      48.514  26.737  31.939  1.00  0.00    -0.206 F 
ATOM    104  C   UNL A   1      51.440  27.115  29.852  1.00  0.00     0.060 A 
BRANCH 104 105
ATOM    105  S   UNL A   1      53.234  26.953  29.956  1.00  0.00     0.124 S 
ATOM    106  O   UNL A   1      53.643  28.338  30.168  1.00  0.00    -0.237 OA
ATOM    107  O   UNL A   1      53.403  26.061  31.099  1.00  0.00    -0.237 OA
ATOM    108  O   UNL A   1      53.600  26.381  28.663  1.00  0.00    -0.744 OA
ENDBRANCH 104 105
ENDBRANCH  72  97
ENDBRANCH  46  47
ENDBRANCH  38  41
ENDBRANCH  36  37
ENDBRANCH  35  36
ENDBRANCH   1  35
TORSDOF 18
ENDMDL
MODEL 3
REMARK VINA RESULT:     -12.2      4.434      5.615
REMARK SMILES O=C(NC1(C(=O)NCCCCNC(=O)c2ccc(-c3c4nc(c(-c5c(F)cc(S(=O)(=O)[O-])cc5F)c5ccc([nH]5)c(-c5c(F)cc(S(=O)(=O)[O-])cc5F)c5nc(c(-c6c(F)cc(S(=O)(=O)[O-])cc6F)c6ccc3[nH]6)C=C5)C=C4)cc2)Cc2ccccc2C1)OCC1c2ccccc2-c2ccccc21
REMARK SMILES IDX 9 1 8 2 7 3 5 4 6 5 4 7 81 8 88 9 82 10 87 11 83 12 86 13
REMARK SMILES IDX 84 14 85 15 3 16 1 17 2 18 89 20 90 21 91 22 92 23 103 24
REMARK SMILES IDX 93 25 97 26 98 27 102 28 94 29 96 30 99 31 101 32 95 33
REMARK SMILES IDX 100 34 10 35 11 36 12 37 13 38 14 40 15 41 16 42 80 43 17 44
REMARK SMILES IDX 79 45 18 46 19 47 20 48 73 49 21 50 78 51 72 52 74 53 22 54
REMARK SMILES IDX 77 55 71 56 70 57 23 59 57 60 36 61 56 62 37 63 40 64 55 65
REMARK SMILES IDX 75 66 38 67 39 68 54 70 76 71 41 72 24 73 25 74 34 75 26 76
REMARK SMILES IDX 27 77 33 78 35 79 28 80 29 81 30 82 31 83 32 84 58 85 59 86
REMARK SMILES IDX 68 87 60 88 61 89 67 90 69 91 62 92 63 93 64 94 65 95 66 96
REMARK SMILES IDX 42 97 43 98 52 99 44 100 45 101 51 102 53 103 46 104 47 105
REMARK SMILES IDX 48 106 49 107 50 108
REMARK H PARENT 7 6 3 19 12 39 74 58 40 69
REMARK Flexibility Score: inf
ROOT
ATOM      1  C   UNL A   1      32.948  29.788  27.244  1.00  0.00     0.023 C 
ENDROOT
BRANCH   1   2
ATOM      2  C   UNL A   1      33.047  28.840  26.047  1.00  0.00     0.116 C 
BRANCH   2   3
ATOM      3  N   UNL A   1      31.781  28.696  25.360  1.00  0.00    -0.354 N 
ATOM      4  C   UNL A   1      31.238  27.697  24.623  1.00  0.00     0.246 C 
ATOM      5  O   UNL A   1      30.056  27.892  24.293  1.00  0.00    -0.272 OA
ATOM      6  H   UNL A   1      31.196  29.483  25.446  1.00  0.00     0.163 HD
BRANCH   4   7
ATOM      7  C   UNL A   1      31.929  26.332  24.289  1.00  0.00     0.130 C 
ATOM      8  C   UNL A   1      30.858  25.203  24.132  1.00  0.00     0.075 C 
ATOM      9  C   UNL A   1      32.941  25.788  25.315  1.00  0.00     0.075 C 
ATOM     10  C   UNL A   1      31.084  24.313  25.319  1.00  0.00    -0.042 A 
ATOM     11  C   UNL A   1      32.226  24.687  26.016  1.00  0.00    -0.042 A 
ATOM     12  C   UNL A   1      30.330  23.239  25.757  1.00  0.00     0.004 A 
ATOM     13  C   UNL A   1      32.625  24.035  27.171  1.00  0.00     0.004 A 
ATOM     14  C   UNL A   1      30.724  22.571  26.924  1.00  0.00     0.000 A 
ATOM     15  C   UNL A   1      31.860  22.974  27.635  1.00  0.00     0.000 A 
BRANCH   7  16
ATOM     16  N   UNL A   1      32.556  26.598  22.964  1.00  0.00    -0.306 N 
ATOM     17  O   UNL A   1      33.579  26.110  21.015  1.00  0.00    -0.225 OA
ATOM     18  C   UNL A   1      33.026  25.723  22.028  1.00  0.00     0.408 C 
ATOM     19  H   UNL A   1      32.646  27.549  22.729  1.00  0.00     0.168 HD
BRANCH  18  20
ATOM     20  O   UNL A   1      32.679  24.427  22.259  1.00  0.00    -0.449 OA
BRANCH  20  21
ATOM     21  C   UNL A   1      33.839  23.649  22.568  1.00  0.00     0.248 C 
BRANCH  21  22
ATOM     22  C   UNL A   1      33.747  22.817  23.871  1.00  0.00     0.088 C 
ATOM     23  C   UNL A   1      33.415  21.327  23.809  1.00  0.00    -0.029 A 
ATOM     24  C   UNL A   1      35.114  22.788  24.572  1.00  0.00    -0.029 A 
ATOM     25  C   UNL A   1      32.302  20.695  23.277  1.00  0.00     0.005 A 
ATOM     26  C   UNL A   1      34.422  20.576  24.462  1.00  0.00    -0.014 A 
ATOM     27  C   UNL A   1      35.501  21.461  24.837  1.00  0.00    -0.014 A 
ATOM     28  C   UNL A   1      35.958  23.856  24.850  1.00  0.00     0.005 A 
ATOM     29  C   UNL A   1      32.193  19.305  23.421  1.00  0.00     0.000 A 
ATOM     30  C   UNL A   1      34.288  19.208  24.648  1.00  0.00     0.009 A 
ATOM     31  C   UNL A   1      36.783  21.182  25.279  1.00  0.00     0.009 A 
ATOM     32  C   UNL A   1      37.248  23.574  25.299  1.00  0.00     0.000 A 
ATOM     33  C   UNL A   1      33.169  18.570  24.114  1.00  0.00     0.001 A 
ATOM     34  C   UNL A   1      37.665  22.247  25.488  1.00  0.00     0.001 A 
ENDBRANCH  21  22
ENDBRANCH  20  21
ENDBRANCH  18  20
ENDBRANCH   7  16
ENDBRANCH   4   7
ENDBRANCH   2   3
ENDBRANCH   1   2
BRANCH   1  35
ATOM     35  C   UNL A   1      32.681  31.242  26.891  1.00  0.00     0.023 C 
BRANCH  35  36
ATOM     36  C   UNL A   1      33.500  32.248  27.681  1.00  0.00     0.116 C 
BRANCH  36  37
ATOM     37  N   UNL A   1      32.910  33.575  27.791  1.00  0.00    -0.352 N 
ATOM     38  C   UNL A   1      33.288  34.571  28.672  1.00  0.00     0.251 C 
ATOM     39  H   UNL A   1      32.169  33.784  27.176  1.00  0.00     0.163 HD
ATOM     40  O   UNL A   1      32.687  35.637  28.726  1.00  0.00    -0.269 OA
BRANCH  38  41
ATOM     41  C   UNL A   1      34.411  34.280  29.592  1.00  0.00     0.039 A 
ATOM     42  C   UNL A   1      34.150  33.657  30.813  1.00  0.00     0.014 A 
ATOM     43  C   UNL A   1      35.724  34.456  29.150  1.00  0.00     0.014 A 
ATOM     44  C   UNL A   1      35.212  33.115  31.544  1.00  0.00     0.010 A 
ATOM     45  C   UNL A   1      36.758  33.815  29.817  1.00  0.00     0.010 A 
ATOM     46  C   UNL A   1      36.517  33.136  31.022  1.00  0.00    -0.014 A 
BRANCH  46  47
ATOM     47  C   UNL A   1      37.650  32.462  31.712  1.00  0.00     0.031 A 
ATOM     48  C   UNL A   1      38.126  32.985  33.043  1.00  0.00     0.074 A 
ATOM     49  C   UNL A   1      38.307  31.449  31.111  1.00  0.00     0.049 A 
ATOM     50  N   UNL A   1      39.161  32.620  33.753  1.00  0.00    -0.248 NA
ATOM     51  C   UNL A   1      37.362  34.099  33.631  1.00  0.00     0.031 C 
ATOM     52  C   UNL A   1      37.999  30.897  29.788  1.00  0.00     0.029 A 
ATOM     53  N   UNL A   1      39.384  30.705  31.529  1.00  0.00    -0.354 N 
ATOM     54  C   UNL A   1      39.189  33.478  34.848  1.00  0.00     0.074 A 
ATOM     55  C   UNL A   1      38.110  34.423  34.673  1.00  0.00     0.031 C 
ATOM     56  C   UNL A   1      38.841  29.885  29.522  1.00  0.00     0.029 A 
ATOM     57  C   UNL A   1      39.774  29.736  30.633  1.00  0.00     0.049 A 
ATOM     58  H   UNL A   1      39.836  30.851  32.392  1.00  0.00     0.167 HD
ATOM     59  C   UNL A   1      40.013  33.458  35.921  1.00  0.00     0.037 A 
ATOM     60  C   UNL A   1      40.770  28.830  30.699  1.00  0.00     0.037 A 
ATOM     61  C   UNL A   1      41.043  32.476  36.121  1.00  0.00     0.049 A 
ATOM     62  C   UNL A   1      41.644  28.796  31.926  1.00  0.00     0.074 A 
ATOM     63  C   UNL A   1      41.882  32.318  37.210  1.00  0.00     0.029 A 
ATOM     64  N   UNL A   1      41.367  31.475  35.217  1.00  0.00    -0.354 N 
ATOM     65  N   UNL A   1      41.611  29.573  32.983  1.00  0.00    -0.248 NA
ATOM     66  C   UNL A   1      42.684  27.759  31.975  1.00  0.00     0.031 C 
ATOM     67  C   UNL A   1      42.735  31.240  36.950  1.00  0.00     0.029 A 
ATOM     68  C   UNL A   1      42.398  30.701  35.719  1.00  0.00     0.049 A 
ATOM     69  H   UNL A   1      40.928  31.337  34.346  1.00  0.00     0.167 HD
ATOM     70  C   UNL A   1      42.604  29.099  33.834  1.00  0.00     0.074 A 
ATOM     71  C   UNL A   1      43.214  27.963  33.173  1.00  0.00     0.031 C 
ATOM     72  C   UNL A   1      42.977  29.562  35.052  1.00  0.00     0.037 A 
BRANCH  59  73
ATOM     73  C   UNL A   1      39.812  34.514  36.973  1.00  0.00     0.058 A 
ATOM     74  C   UNL A   1      39.007  34.285  38.100  1.00  0.00     0.135 A 
ATOM     75  C   UNL A   1      40.448  35.761  36.865  1.00  0.00     0.135 A 
ATOM     76  F   UNL A   1      38.360  33.117  38.245  1.00  0.00    -0.206 F 
ATOM     77  C   UNL A   1      38.812  35.265  39.067  1.00  0.00     0.059 A 
ATOM     78  C   UNL A   1      40.292  36.746  37.837  1.00  0.00     0.059 A 
ATOM     79  F   UNL A   1      41.227  36.035  35.807  1.00  0.00    -0.206 F 
ATOM     80  C   UNL A   1      39.459  36.494  38.926  1.00  0.00     0.060 A 
BRANCH  80  81
ATOM     81  S   UNL A   1      39.202  37.752  40.194  1.00  0.00     0.124 S 
ATOM     82  O   UNL A   1      38.858  36.932  41.351  1.00  0.00    -0.237 OA
ATOM     83  O   UNL A   1      40.503  38.410  40.249  1.00  0.00    -0.237 OA
ATOM     84  O   UNL A   1      38.116  38.562  39.653  1.00  0.00    -0.744 OA
ENDBRANCH  80  81
ENDBRANCH  59  73
BRANCH  60  85
ATOM     85  C   UNL A   1      40.976  27.856  29.592  1.00  0.00     0.058 A 
ATOM     86  C   UNL A   1      42.064  27.981  28.717  1.00  0.00     0.135 A 
ATOM     87  C   UNL A   1      40.094  26.783  29.388  1.00  0.00     0.135 A 
ATOM     88  F   UNL A   1      42.932  28.993  28.866  1.00  0.00    -0.206 F 
ATOM     89  C   UNL A   1      42.262  27.092  27.664  1.00  0.00     0.059 A 
ATOM     90  C   UNL A   1      40.284  25.866  28.357  1.00  0.00     0.059 A 
ATOM     91  F   UNL A   1      39.047  26.607  30.209  1.00  0.00    -0.206 F 
ATOM     92  C   UNL A   1      41.366  26.037  27.493  1.00  0.00     0.060 A 
BRANCH  92  93
ATOM     93  S   UNL A   1      41.654  24.863  26.150  1.00  0.00     0.124 S 
ATOM     94  O   UNL A   1      43.008  24.409  26.444  1.00  0.00    -0.237 OA
ATOM     95  O   UNL A   1      40.592  23.886  26.363  1.00  0.00    -0.237 OA
ATOM     96  O   UNL A   1      41.508  25.684  24.951  1.00  0.00    -0.744 OA
ENDBRANCH  92  93
ENDBRANCH  60  85
BRANCH  72  97
ATOM     97  C   UNL A   1      44.066  28.819  35.773  1.00  0.00     0.058 A 
ATOM     98  C   UNL A   1      45.413  29.194  35.663  1.00  0.00     0.135 A 
ATOM     99  C   UNL A   1      43.746  27.760  36.637  1.00  0.00     0.135 A 
ATOM    100  F   UNL A   1      45.770  30.198  34.846  1.00  0.00    -0.206 F 
ATOM    101  C   UNL A   1      46.409  28.533  36.372  1.00  0.00     0.059 A 
ATOM    102  C   UNL A   1      44.723  27.101  37.376  1.00  0.00     0.059 A 
ATOM    103  F   UNL A   1      42.469  27.370  36.786  1.00  0.00    -0.206 F 
ATOM    104  C   UNL A   1      46.054  27.488  37.228  1.00  0.00     0.060 A 
BRANCH 104 105
ATOM    105  S   UNL A   1      47.351  26.665  38.175  1.00  0.00     0.124 S 
ATOM    106  O   UNL A   1      47.888  27.771  38.962  1.00  0.00    -0.237 OA
ATOM    107  O   UNL A   1      46.604  25.658  38.922  1.00  0.00    -0.237 OA
ATOM    108  O   UNL A   1      48.242  26.139  37.144  1.00  0.00    -0.744 OA
ENDBRANCH 104 105
ENDBRANCH  72  97
ENDBRANCH  46  47
ENDBRANCH  38  41
ENDBRANCH  36  37
ENDBRANCH  35  36
ENDBRANCH   1  35
TORSDOF 18
ENDMDL
