MODEL 1
REMARK VINA RESULT:     -13.5      0.000      0.000
REMARK SMILES COc1ccc(-c2cc(Cl)cc3c2O[C@@H](C(F)(F)F)C(C(=O)NCCCCNC(=O)c2ccc(-c4c5nc(c(-c6c(F)cc(S(=O)(=O)[O-])cc6F)c6ccc([nH]6)c(-c6c(F)cc(S(=O)(=O)[O-])cc6F)c6nc(c(-c7c(F)cc(S(=O)(=O)[O-])cc7F)c7ccc4[nH]7)C=C6)C=C5)cc2)=C3)cc1C
REMARK SMILES IDX 26 1 25 2 24 3 23 4 21 5 22 6 20 8 7 9 8 10 13 11 9 12 12 13
REMARK SMILES IDX 14 14 10 15 11 16 97 17 15 18 6 19 3 20 4 21 99 22 5 23
REMARK SMILES IDX 98 24 100 25 2 26 1 27 16 28 17 29 18 30 19 31 27 32 28 33
REMARK SMILES IDX 29 34 30 36 31 37 32 38 96 39 33 40 95 41 34 42 35 43 36 44
REMARK SMILES IDX 89 45 37 46 94 47 88 48 90 49 38 50 93 51 87 52 86 53 39 55
REMARK SMILES IDX 73 56 52 57 72 58 53 59 56 60 71 61 91 62 54 63 55 64 70 66
REMARK SMILES IDX 92 67 57 68 40 69 41 70 50 71 42 72 43 73 49 74 51 75 44 76
REMARK SMILES IDX 45 77 46 78 47 79 48 80 74 81 75 82 84 83 76 84 77 85 83 86
REMARK SMILES IDX 85 87 78 88 79 89 80 90 81 91 82 92 58 93 59 94 68 95 60 96
REMARK SMILES IDX 61 97 67 98 69 99 62 100 63 101 64 102 65 103 66 104
REMARK H PARENT 23 7 28 35 90 54 56 65
REMARK Flexibility Score: inf
ROOT
ATOM      1  C   UNL A   1      34.516  21.404  25.951  1.00  0.00     0.023 C 
ENDROOT
BRANCH   1   2
ATOM      2  C   UNL A   1      33.521  22.694  26.235  1.00  0.00     0.023 C 
BRANCH   2   3
ATOM      3  C   UNL A   1      33.433  24.102  25.503  1.00  0.00     0.116 C 
BRANCH   3   4
ATOM      4  N   UNL A   1      32.732  25.344  25.991  1.00  0.00    -0.352 N 
ATOM      5  C   UNL A   1      31.397  25.794  26.022  1.00  0.00     0.251 C 
ATOM      6  O   UNL A   1      31.079  26.683  26.820  1.00  0.00    -0.270 OA
ATOM      7  H   UNL A   1      33.357  25.998  26.379  1.00  0.00     0.163 HD
BRANCH   5   8
ATOM      8  C   UNL A   1      30.280  25.347  25.010  1.00  0.00     0.067 C 
ATOM      9  C   UNL A   1      31.153  28.834  23.619  1.00  0.00     0.026 A 
ATOM     10  C   UNL A   1      30.199  29.664  22.969  1.00  0.00     0.033 A 
ATOM     11  C   UNL A   1      30.819  27.477  23.668  1.00  0.00     0.135 A 
ATOM     12  C   UNL A   1      28.929  29.187  22.636  1.00  0.00     0.042 A 
ATOM     13  C   UNL A   1      29.450  27.194  23.833  1.00  0.00     0.019 A 
ATOM     14  O   UNL A   1      31.698  26.342  23.489  1.00  0.00    -0.475 OA
ATOM     15  Cl  UNL A   1      27.811  30.213  21.823  1.00  0.00    -0.084 Cl
ATOM     16  C   UNL A   1      28.517  27.961  23.142  1.00  0.00     0.032 A 
ATOM     17  C   UNL A   1      29.139  26.050  24.765  1.00  0.00     0.025 C 
ATOM     18  C   UNL A   1      30.886  25.100  23.673  1.00  0.00     0.314 C 
BRANCH   9  19
ATOM     19  C   UNL A   1      31.898  29.550  24.719  1.00  0.00    -0.014 A 
ATOM     20  C   UNL A   1      33.222  30.488  27.069  1.00  0.00     0.121 A 
ATOM     21  C   UNL A   1      31.998  31.029  26.645  1.00  0.00     0.047 A 
ATOM     22  C   UNL A   1      33.824  29.473  26.327  1.00  0.00    -0.008 A 
ATOM     23  C   UNL A   1      31.343  30.570  25.484  1.00  0.00     0.013 A 
ATOM     24  C   UNL A   1      33.175  29.056  25.139  1.00  0.00     0.016 A 
ATOM     25  C   UNL A   1      35.092  28.795  26.772  1.00  0.00     0.048 C 
BRANCH  20  26
ATOM     26  O   UNL A   1      33.684  30.903  28.293  1.00  0.00    -0.496 OA
ATOM     27  C   UNL A   1      34.450  32.108  28.238  1.00  0.00     0.278 C 
ENDBRANCH  20  26
ENDBRANCH   9  19
BRANCH  18  28
ATOM     28  C   UNL A   1      31.086  23.554  23.672  1.00  0.00     0.429 C 
ATOM     29  F   UNL A   1      30.192  23.012  22.782  1.00  0.00    -0.167 F 
ATOM     30  F   UNL A   1      32.302  23.147  23.262  1.00  0.00    -0.167 F 
ATOM     31  F   UNL A   1      30.794  22.931  24.840  1.00  0.00    -0.167 F 
ENDBRANCH  18  28
ENDBRANCH   5   8
ENDBRANCH   3   4
ENDBRANCH   2   3
ENDBRANCH   1   2
BRANCH   1  32
ATOM     32  C   UNL A   1      36.116  21.586  25.929  1.00  0.00     0.116 C 
BRANCH  32  33
ATOM     33  N   UNL A   1      37.112  22.843  26.440  1.00  0.00    -0.352 N 
ATOM     34  C   UNL A   1      38.445  23.478  26.620  1.00  0.00     0.251 C 
ATOM     35  H   UNL A   1      36.484  23.503  26.815  1.00  0.00     0.163 HD
ATOM     36  O   UNL A   1      38.337  24.727  26.576  1.00  0.00    -0.269 OA
BRANCH  34  37
ATOM     37  C   UNL A   1      40.021  23.046  26.762  1.00  0.00     0.039 A 
ATOM     38  C   UNL A   1      40.678  22.827  28.035  1.00  0.00     0.014 A 
ATOM     39  C   UNL A   1      40.955  23.038  25.738  1.00  0.00     0.014 A 
ATOM     40  C   UNL A   1      42.096  23.212  28.254  1.00  0.00     0.010 A 
ATOM     41  C   UNL A   1      42.348  23.350  25.952  1.00  0.00     0.010 A 
ATOM     42  C   UNL A   1      42.855  23.750  27.191  1.00  0.00    -0.014 A 
BRANCH  42  43
ATOM     43  C   UNL A   1      43.818  24.991  27.206  1.00  0.00     0.031 A 
ATOM     44  C   UNL A   1      45.271  24.796  27.169  1.00  0.00     0.074 A 
ATOM     45  C   UNL A   1      43.580  26.320  26.922  1.00  0.00     0.049 A 
ATOM     46  N   UNL A   1      46.142  25.269  28.002  1.00  0.00    -0.248 NA
ATOM     47  C   UNL A   1      45.846  24.092  26.036  1.00  0.00     0.031 C 
ATOM     48  C   UNL A   1      44.435  27.527  26.834  1.00  0.00     0.029 A 
ATOM     49  N   UNL A   1      42.394  26.954  26.646  1.00  0.00    -0.354 N 
ATOM     50  C   UNL A   1      47.356  25.187  27.334  1.00  0.00     0.074 A 
ATOM     51  C   UNL A   1      47.144  24.186  26.312  1.00  0.00     0.031 C 
ATOM     52  C   UNL A   1      43.681  28.639  27.044  1.00  0.00     0.029 A 
ATOM     53  C   UNL A   1      42.324  28.203  27.267  1.00  0.00     0.049 A 
ATOM     54  H   UNL A   1      41.682  26.577  26.081  1.00  0.00     0.167 HD
ATOM     55  C   UNL A   1      48.297  26.188  27.388  1.00  0.00     0.037 A 
ATOM     56  C   UNL A   1      41.505  28.318  28.366  1.00  0.00     0.037 A 
ATOM     57  C   UNL A   1      47.763  27.404  28.042  1.00  0.00     0.049 A 
ATOM     58  C   UNL A   1      42.378  28.326  29.637  1.00  0.00     0.074 A 
ATOM     59  C   UNL A   1      47.503  28.713  27.653  1.00  0.00     0.029 A 
ATOM     60  N   UNL A   1      47.118  27.274  29.256  1.00  0.00    -0.354 N 
ATOM     61  N   UNL A   1      43.677  28.466  29.560  1.00  0.00    -0.248 NA
ATOM     62  C   UNL A   1      41.973  28.180  31.041  1.00  0.00     0.031 C 
ATOM     63  C   UNL A   1      46.657  29.326  28.639  1.00  0.00     0.029 A 
ATOM     64  C   UNL A   1      46.424  28.400  29.639  1.00  0.00     0.049 A 
ATOM     65  H   UNL A   1      47.151  26.452  29.798  1.00  0.00     0.167 HD
ATOM     66  C   UNL A   1      44.285  28.333  30.770  1.00  0.00     0.074 A 
ATOM     67  C   UNL A   1      43.164  28.195  31.686  1.00  0.00     0.031 C 
ATOM     68  C   UNL A   1      45.652  28.334  30.883  1.00  0.00     0.037 A 
BRANCH  55  69
ATOM     69  C   UNL A   1      49.613  26.160  26.601  1.00  0.00     0.058 A 
ATOM     70  C   UNL A   1      50.731  25.424  27.052  1.00  0.00     0.135 A 
ATOM     71  C   UNL A   1      49.815  26.769  25.339  1.00  0.00     0.135 A 
ATOM     72  F   UNL A   1      50.670  24.667  28.156  1.00  0.00    -0.206 F 
ATOM     73  C   UNL A   1      51.949  25.372  26.360  1.00  0.00     0.059 A 
ATOM     74  C   UNL A   1      51.042  26.806  24.672  1.00  0.00     0.059 A 
ATOM     75  F   UNL A   1      48.801  27.262  24.618  1.00  0.00    -0.206 F 
ATOM     76  C   UNL A   1      52.106  26.086  25.180  1.00  0.00     0.060 A 
BRANCH  76  77
ATOM     77  S   UNL A   1      53.648  25.964  24.256  1.00  0.00     0.124 S 
ATOM     78  O   UNL A   1      53.178  25.845  22.880  1.00  0.00    -0.237 OA
ATOM     79  O   UNL A   1      54.308  27.220  24.597  1.00  0.00    -0.237 OA
ATOM     80  O   UNL A   1      54.280  24.764  24.800  1.00  0.00    -0.744 OA
ENDBRANCH  76  77
ENDBRANCH  55  69
BRANCH  56  81
ATOM     81  C   UNL A   1      40.113  27.646  28.098  1.00  0.00     0.058 A 
ATOM     82  C   UNL A   1      39.739  26.682  29.072  1.00  0.00     0.135 A 
ATOM     83  C   UNL A   1      39.111  28.565  27.896  1.00  0.00     0.135 A 
ATOM     84  F   UNL A   1      40.294  25.463  29.029  1.00  0.00    -0.206 F 
ATOM     85  C   UNL A   1      38.902  26.975  30.180  1.00  0.00     0.059 A 
ATOM     86  C   UNL A   1      38.327  28.881  29.030  1.00  0.00     0.059 A 
ATOM     87  F   UNL A   1      39.253  29.479  26.921  1.00  0.00    -0.206 F 
ATOM     88  C   UNL A   1      38.270  28.201  30.228  1.00  0.00     0.060 A 
BRANCH  88  89
ATOM     89  S   UNL A   1      37.775  29.169  31.924  1.00  0.00     0.124 S 
ATOM     90  O   UNL A   1      37.629  28.154  32.965  1.00  0.00    -0.237 OA
ATOM     91  O   UNL A   1      38.872  30.054  32.128  1.00  0.00    -0.237 OA
ATOM     92  O   UNL A   1      36.542  29.889  31.618  1.00  0.00    -0.744 OA
ENDBRANCH  88  89
ENDBRANCH  56  81
BRANCH  68  93
ATOM     93  C   UNL A   1      46.424  28.255  32.179  1.00  0.00     0.058 A 
ATOM     94  C   UNL A   1      46.541  27.067  32.911  1.00  0.00     0.135 A 
ATOM     95  C   UNL A   1      46.931  29.417  32.818  1.00  0.00     0.135 A 
ATOM     96  F   UNL A   1      46.029  25.918  32.442  1.00  0.00    -0.206 F 
ATOM     97  C   UNL A   1      47.169  27.025  34.160  1.00  0.00     0.059 A 
ATOM     98  C   UNL A   1      47.494  29.411  34.086  1.00  0.00     0.059 A 
ATOM     99  F   UNL A   1      46.944  30.617  32.225  1.00  0.00    -0.206 F 
ATOM    100  C   UNL A   1      47.645  28.203  34.737  1.00  0.00     0.060 A 
BRANCH 100 101
ATOM    101  S   UNL A   1      48.487  28.152  36.326  1.00  0.00     0.124 S 
ATOM    102  O   UNL A   1      47.725  27.144  37.056  1.00  0.00    -0.237 OA
ATOM    103  O   UNL A   1      49.835  27.759  35.924  1.00  0.00    -0.237 OA
ATOM    104  O   UNL A   1      48.356  29.516  36.831  1.00  0.00    -0.744 OA
ENDBRANCH 100 101
ENDBRANCH  68  93
ENDBRANCH  42  43
ENDBRANCH  34  37
ENDBRANCH  32  33
ENDBRANCH   1  32
TORSDOF 17
ENDMDL
MODEL 2
REMARK VINA RESULT:     -13.1      2.447      3.353
REMARK SMILES COc1ccc(-c2cc(Cl)cc3c2O[C@@H](C(F)(F)F)C(C(=O)NCCCCNC(=O)c2ccc(-c4c5nc(c(-c6c(F)cc(S(=O)(=O)[O-])cc6F)c6ccc([nH]6)c(-c6c(F)cc(S(=O)(=O)[O-])cc6F)c6nc(c(-c7c(F)cc(S(=O)(=O)[O-])cc7F)c7ccc4[nH]7)C=C6)C=C5)cc2)=C3)cc1C
REMARK SMILES IDX 26 1 25 2 24 3 23 4 21 5 22 6 20 8 7 9 8 10 13 11 9 12 12 13
REMARK SMILES IDX 14 14 10 15 11 16 97 17 15 18 6 19 3 20 4 21 99 22 5 23
REMARK SMILES IDX 98 24 100 25 2 26 1 27 16 28 17 29 18 30 19 31 27 32 28 33
REMARK SMILES IDX 29 34 30 36 31 37 32 38 96 39 33 40 95 41 34 42 35 43 36 44
REMARK SMILES IDX 89 45 37 46 94 47 88 48 90 49 38 50 93 51 87 52 86 53 39 55
REMARK SMILES IDX 73 56 52 57 72 58 53 59 56 60 71 61 91 62 54 63 55 64 70 66
REMARK SMILES IDX 92 67 57 68 40 69 41 70 50 71 42 72 43 73 49 74 51 75 44 76
REMARK SMILES IDX 45 77 46 78 47 79 48 80 74 81 75 82 84 83 76 84 77 85 83 86
REMARK SMILES IDX 85 87 78 88 79 89 80 90 81 91 82 92 58 93 59 94 68 95 60 96
REMARK SMILES IDX 61 97 67 98 69 99 62 100 63 101 64 102 65 103 66 104
REMARK H PARENT 23 7 28 35 90 54 56 65
REMARK Flexibility Score: inf
ROOT
ATOM      1  C   UNL A   1      35.931  22.617  24.794  1.00  0.00     0.023 C 
ENDROOT
BRANCH   1   2
ATOM      2  C   UNL A   1      35.210  23.772  25.733  1.00  0.00     0.023 C 
BRANCH   2   3
ATOM      3  C   UNL A   1      33.675  24.008  26.068  1.00  0.00     0.116 C 
BRANCH   3   4
ATOM      4  N   UNL A   1      32.993  25.322  26.354  1.00  0.00    -0.352 N 
ATOM      5  C   UNL A   1      31.672  25.803  26.269  1.00  0.00     0.251 C 
ATOM      6  O   UNL A   1      31.349  26.800  26.925  1.00  0.00    -0.270 OA
ATOM      7  H   UNL A   1      33.621  26.008  26.676  1.00  0.00     0.163 HD
BRANCH   5   8
ATOM      8  C   UNL A   1      30.581  25.249  25.281  1.00  0.00     0.067 C 
ATOM      9  C   UNL A   1      31.248  28.718  23.739  1.00  0.00     0.026 A 
ATOM     10  C   UNL A   1      30.247  29.463  23.057  1.00  0.00     0.033 A 
ATOM     11  C   UNL A   1      30.994  27.348  23.847  1.00  0.00     0.135 A 
ATOM     12  C   UNL A   1      29.007  28.900  22.749  1.00  0.00     0.042 A 
ATOM     13  C   UNL A   1      29.644  26.993  24.029  1.00  0.00     0.019 A 
ATOM     14  O   UNL A   1      31.937  26.259  23.713  1.00  0.00    -0.475 OA
ATOM     15  Cl  UNL A   1      27.830  29.824  21.897  1.00  0.00    -0.084 Cl
ATOM     16  C   UNL A   1      28.667  27.674  23.309  1.00  0.00     0.032 A 
ATOM     17  C   UNL A   1      29.401  25.875  25.009  1.00  0.00     0.025 C 
ATOM     18  C   UNL A   1      31.199  24.981  23.953  1.00  0.00     0.314 C 
BRANCH   9  19
ATOM     19  C   UNL A   1      31.952  29.523  24.804  1.00  0.00    -0.014 A 
ATOM     20  C   UNL A   1      33.209  30.642  27.112  1.00  0.00     0.121 A 
ATOM     21  C   UNL A   1      31.972  31.112  26.643  1.00  0.00     0.047 A 
ATOM     22  C   UNL A   1      33.857  29.608  26.436  1.00  0.00    -0.008 A 
ATOM     23  C   UNL A   1      31.350  30.564  25.503  1.00  0.00     0.013 A 
ATOM     24  C   UNL A   1      33.240  29.100  25.267  1.00  0.00     0.016 A 
ATOM     25  C   UNL A   1      35.143  29.004  26.935  1.00  0.00     0.048 C 
BRANCH  20  26
ATOM     26  O   UNL A   1      33.638  31.142  28.316  1.00  0.00    -0.496 OA
ATOM     27  C   UNL A   1      34.381  32.358  28.198  1.00  0.00     0.278 C 
ENDBRANCH  20  26
ENDBRANCH   9  19
BRANCH  18  28
ATOM     28  C   UNL A   1      31.488  23.451  24.018  1.00  0.00     0.429 C 
ATOM     29  F   UNL A   1      30.666  22.825  23.114  1.00  0.00    -0.167 F 
ATOM     30  F   UNL A   1      32.742  23.103  23.672  1.00  0.00    -0.167 F 
ATOM     31  F   UNL A   1      31.184  22.852  25.196  1.00  0.00    -0.167 F 
ENDBRANCH  18  28
ENDBRANCH   5   8
ENDBRANCH   3   4
ENDBRANCH   2   3
ENDBRANCH   1   2
BRANCH   1  32
ATOM     32  C   UNL A   1      37.144  21.726  25.367  1.00  0.00     0.116 C 
BRANCH  32  33
ATOM     33  N   UNL A   1      38.587  22.146  26.125  1.00  0.00    -0.352 N 
ATOM     34  C   UNL A   1      39.453  23.094  26.877  1.00  0.00     0.251 C 
ATOM     35  H   UNL A   1      39.153  21.349  26.011  1.00  0.00     0.163 HD
ATOM     36  O   UNL A   1      40.252  22.460  27.607  1.00  0.00    -0.269 OA
BRANCH  34  37
ATOM     37  C   UNL A   1      39.618  24.708  27.117  1.00  0.00     0.039 A 
ATOM     38  C   UNL A   1      40.133  25.617  26.113  1.00  0.00     0.014 A 
ATOM     39  C   UNL A   1      39.492  25.365  28.332  1.00  0.00     0.014 A 
ATOM     40  C   UNL A   1      40.988  26.775  26.478  1.00  0.00     0.010 A 
ATOM     41  C   UNL A   1      40.274  26.530  28.672  1.00  0.00     0.010 A 
ATOM     42  C   UNL A   1      41.265  27.050  27.835  1.00  0.00    -0.014 A 
BRANCH  42  43
ATOM     43  C   UNL A   1      42.641  27.420  28.498  1.00  0.00     0.031 A 
ATOM     44  C   UNL A   1      43.860  26.700  28.116  1.00  0.00     0.074 A 
ATOM     45  C   UNL A   1      43.036  28.550  29.185  1.00  0.00     0.049 A 
ATOM     46  N   UNL A   1      44.687  26.094  28.906  1.00  0.00    -0.248 NA
ATOM     47  C   UNL A   1      44.276  26.736  26.724  1.00  0.00     0.031 C 
ATOM     48  C   UNL A   1      44.318  29.010  29.766  1.00  0.00     0.029 A 
ATOM     49  N   UNL A   1      42.293  29.636  29.577  1.00  0.00    -0.354 N 
ATOM     50  C   UNL A   1      45.851  25.955  28.163  1.00  0.00     0.074 A 
ATOM     51  C   UNL A   1      45.423  26.065  26.786  1.00  0.00     0.031 C 
ATOM     52  C   UNL A   1      44.076  29.904  30.761  1.00  0.00     0.029 A 
ATOM     53  C   UNL A   1      42.645  30.061  30.859  1.00  0.00     0.049 A 
ATOM     54  H   UNL A   1      41.600  30.063  29.023  1.00  0.00     0.167 HD
ATOM     55  C   UNL A   1      47.100  26.156  28.703  1.00  0.00     0.037 A 
ATOM     56  C   UNL A   1      41.772  29.778  31.882  1.00  0.00     0.037 A 
ATOM     57  C   UNL A   1      47.019  26.737  30.062  1.00  0.00     0.049 A 
ATOM     58  C   UNL A   1      42.329  28.593  32.697  1.00  0.00     0.074 A 
ATOM     59  C   UNL A   1      47.405  27.931  30.660  1.00  0.00     0.029 A 
ATOM     60  N   UNL A   1      46.178  26.148  30.984  1.00  0.00    -0.354 N 
ATOM     61  N   UNL A   1      43.559  28.179  32.526  1.00  0.00    -0.248 NA
ATOM     62  C   UNL A   1      41.661  27.770  33.714  1.00  0.00     0.031 C 
ATOM     63  C   UNL A   1      46.735  28.048  31.926  1.00  0.00     0.029 A 
ATOM     64  C   UNL A   1      45.964  26.915  32.108  1.00  0.00     0.049 A 
ATOM     65  H   UNL A   1      45.767  25.263  30.851  1.00  0.00     0.167 HD
ATOM     66  C   UNL A   1      43.831  27.057  33.245  1.00  0.00     0.074 A 
ATOM     67  C   UNL A   1      42.615  26.857  34.016  1.00  0.00     0.031 C 
ATOM     68  C   UNL A   1      45.030  26.402  33.115  1.00  0.00     0.037 A 
BRANCH  55  69
ATOM     69  C   UNL A   1      48.399  26.083  27.891  1.00  0.00     0.058 A 
ATOM     70  C   UNL A   1      48.662  26.979  26.831  1.00  0.00     0.135 A 
ATOM     71  C   UNL A   1      49.476  25.205  28.162  1.00  0.00     0.135 A 
ATOM     72  F   UNL A   1      47.814  27.972  26.529  1.00  0.00    -0.206 F 
ATOM     73  C   UNL A   1      49.837  26.946  26.067  1.00  0.00     0.059 A 
ATOM     74  C   UNL A   1      50.617  25.093  27.365  1.00  0.00     0.059 A 
ATOM     75  F   UNL A   1      49.540  24.488  29.290  1.00  0.00    -0.206 F 
ATOM     76  C   UNL A   1      50.803  25.983  26.325  1.00  0.00     0.060 A 
BRANCH  76  77
ATOM     77  S   UNL A   1      52.343  25.984  25.390  1.00  0.00     0.124 S 
ATOM     78  O   UNL A   1      51.922  26.517  24.098  1.00  0.00    -0.237 OA
ATOM     79  O   UNL A   1      53.187  26.861  26.195  1.00  0.00    -0.237 OA
ATOM     80  O   UNL A   1      52.741  24.578  25.380  1.00  0.00    -0.744 OA
ENDBRANCH  76  77
ENDBRANCH  55  69
BRANCH  56  81
ATOM     81  C   UNL A   1      40.297  30.115  31.468  1.00  0.00     0.058 A 
ATOM     82  C   UNL A   1      39.322  29.263  32.052  1.00  0.00     0.135 A 
ATOM     83  C   UNL A   1      39.982  31.439  31.660  1.00  0.00     0.135 A 
ATOM     84  F   UNL A   1      39.143  28.036  31.547  1.00  0.00    -0.206 F 
ATOM     85  C   UNL A   1      38.608  29.590  33.234  1.00  0.00     0.059 A 
ATOM     86  C   UNL A   1      39.321  31.745  32.872  1.00  0.00     0.059 A 
ATOM     87  F   UNL A   1      40.737  32.381  31.069  1.00  0.00    -0.206 F 
ATOM     88  C   UNL A   1      38.725  30.864  33.750  1.00  0.00     0.060 A 
BRANCH  88  89
ATOM     89  S   UNL A   1      38.564  31.329  35.703  1.00  0.00     0.124 S 
ATOM     90  O   UNL A   1      39.746  32.115  36.052  1.00  0.00    -0.237 OA
ATOM     91  O   UNL A   1      37.344  32.061  35.767  1.00  0.00    -0.237 OA
ATOM     92  O   UNL A   1      38.471  30.052  36.404  1.00  0.00    -0.744 OA
ENDBRANCH  88  89
ENDBRANCH  56  81
BRANCH  68  93
ATOM     93  C   UNL A   1      45.457  25.190  33.909  1.00  0.00     0.058 A 
ATOM     94  C   UNL A   1      46.479  25.242  34.865  1.00  0.00     0.135 A 
ATOM     95  C   UNL A   1      44.968  23.891  33.611  1.00  0.00     0.135 A 
ATOM     96  F   UNL A   1      47.073  26.406  35.173  1.00  0.00    -0.206 F 
ATOM     97  C   UNL A   1      46.939  24.096  35.521  1.00  0.00     0.059 A 
ATOM     98  C   UNL A   1      45.457  22.734  34.198  1.00  0.00     0.059 A 
ATOM     99  F   UNL A   1      43.954  23.682  32.761  1.00  0.00    -0.206 F 
ATOM    100  C   UNL A   1      46.419  22.846  35.182  1.00  0.00     0.060 A 
BRANCH 100 101
ATOM    101  S   UNL A   1      46.978  21.372  36.047  1.00  0.00     0.124 S 
ATOM    102  O   UNL A   1      48.294  21.771  36.534  1.00  0.00    -0.237 OA
ATOM    103  O   UNL A   1      45.943  21.226  37.066  1.00  0.00    -0.237 OA
ATOM    104  O   UNL A   1      46.985  20.344  35.010  1.00  0.00    -0.744 OA
ENDBRANCH 100 101
ENDBRANCH  68  93
ENDBRANCH  42  43
ENDBRANCH  34  37
ENDBRANCH  32  33
ENDBRANCH   1  32
TORSDOF 17
ENDMDL
MODEL 3
REMARK VINA RESULT:     -12.9      3.575      7.341
REMARK SMILES COc1ccc(-c2cc(Cl)cc3c2O[C@@H](C(F)(F)F)C(C(=O)NCCCCNC(=O)c2ccc(-c4c5nc(c(-c6c(F)cc(S(=O)(=O)[O-])cc6F)c6ccc([nH]6)c(-c6c(F)cc(S(=O)(=O)[O-])cc6F)c6nc(c(-c7c(F)cc(S(=O)(=O)[O-])cc7F)c7ccc4[nH]7)C=C6)C=C5)cc2)=C3)cc1C
REMARK SMILES IDX 26 1 25 2 24 3 23 4 21 5 22 6 20 8 7 9 8 10 13 11 9 12 12 13
REMARK SMILES IDX 14 14 10 15 11 16 97 17 15 18 6 19 3 20 4 21 99 22 5 23
REMARK SMILES IDX 98 24 100 25 2 26 1 27 16 28 17 29 18 30 19 31 27 32 28 33
REMARK SMILES IDX 29 34 30 36 31 37 32 38 96 39 33 40 95 41 34 42 35 43 36 44
REMARK SMILES IDX 89 45 37 46 94 47 88 48 90 49 38 50 93 51 87 52 86 53 39 55
REMARK SMILES IDX 73 56 52 57 72 58 53 59 56 60 71 61 91 62 54 63 55 64 70 66
REMARK SMILES IDX 92 67 57 68 40 69 41 70 50 71 42 72 43 73 49 74 51 75 44 76
REMARK SMILES IDX 45 77 46 78 47 79 48 80 74 81 75 82 84 83 76 84 77 85 83 86
REMARK SMILES IDX 85 87 78 88 79 89 80 90 81 91 82 92 58 93 59 94 68 95 60 96
REMARK SMILES IDX 61 97 67 98 69 99 62 100 63 101 64 102 65 103 66 104
REMARK H PARENT 23 7 28 35 90 54 56 65
REMARK Flexibility Score: inf
ROOT
ATOM      1  C   UNL A   1      37.121  23.693  25.292  1.00  0.00     0.023 C 
ENDROOT
BRANCH   1   2
ATOM      2  C   UNL A   1      35.635  23.778  26.013  1.00  0.00     0.023 C 
BRANCH   2   3
ATOM      3  C   UNL A   1      34.257  24.339  25.456  1.00  0.00     0.116 C 
BRANCH   3   4
ATOM      4  N   UNL A   1      33.428  25.461  26.027  1.00  0.00    -0.352 N 
ATOM      5  C   UNL A   1      32.050  25.717  26.165  1.00  0.00     0.251 C 
ATOM      6  O   UNL A   1      31.671  26.538  27.009  1.00  0.00    -0.270 OA
ATOM      7  H   UNL A   1      33.983  26.189  26.389  1.00  0.00     0.163 HD
BRANCH   5   8
ATOM      8  C   UNL A   1      30.934  25.137  25.222  1.00  0.00     0.067 C 
ATOM      9  C   UNL A   1      31.265  28.713  23.823  1.00  0.00     0.026 A 
ATOM     10  C   UNL A   1      30.173  29.418  23.246  1.00  0.00     0.033 A 
ATOM     11  C   UNL A   1      31.109  27.324  23.876  1.00  0.00     0.135 A 
ATOM     12  C   UNL A   1      28.955  28.785  22.989  1.00  0.00     0.042 A 
ATOM     13  C   UNL A   1      29.802  26.868  24.125  1.00  0.00     0.019 A 
ATOM     14  O   UNL A   1      32.112  26.312  23.625  1.00  0.00    -0.475 OA
ATOM     15  Cl  UNL A   1      27.665  29.664  22.264  1.00  0.00    -0.084 Cl
ATOM     16  C   UNL A   1      28.735  27.514  23.505  1.00  0.00     0.032 A 
ATOM     17  C   UNL A   1      29.700  25.691  25.060  1.00  0.00     0.025 C 
ATOM     18  C   UNL A   1      31.478  24.976  23.845  1.00  0.00     0.314 C 
BRANCH   9  19
ATOM     19  C   UNL A   1      31.984  29.513  24.881  1.00  0.00    -0.014 A 
ATOM     20  C   UNL A   1      33.264  30.627  27.178  1.00  0.00     0.121 A 
ATOM     21  C   UNL A   1      32.035  31.114  26.709  1.00  0.00     0.047 A 
ATOM     22  C   UNL A   1      33.893  29.577  26.509  1.00  0.00    -0.008 A 
ATOM     23  C   UNL A   1      31.401  30.569  25.573  1.00  0.00     0.013 A 
ATOM     24  C   UNL A   1      33.266  29.072  25.345  1.00  0.00     0.016 A 
ATOM     25  C   UNL A   1      35.169  28.955  27.010  1.00  0.00     0.048 C 
BRANCH  20  26
ATOM     26  O   UNL A   1      33.704  31.128  28.378  1.00  0.00    -0.496 OA
ATOM     27  C   UNL A   1      34.383  32.381  28.260  1.00  0.00     0.278 C 
ENDBRANCH  20  26
ENDBRANCH   9  19
BRANCH  18  28
ATOM     28  C   UNL A   1      31.871  23.468  23.811  1.00  0.00     0.429 C 
ATOM     29  F   UNL A   1      30.979  22.815  22.998  1.00  0.00    -0.167 F 
ATOM     30  F   UNL A   1      33.089  23.218  23.293  1.00  0.00    -0.167 F 
ATOM     31  F   UNL A   1      31.765  22.814  24.994  1.00  0.00    -0.167 F 
ENDBRANCH  18  28
ENDBRANCH   5   8
ENDBRANCH   3   4
ENDBRANCH   2   3
ENDBRANCH   1   2
BRANCH   1  32
ATOM     32  C   UNL A   1      38.469  23.742  26.171  1.00  0.00     0.116 C 
BRANCH  32  33
ATOM     33  N   UNL A   1      38.964  24.764  27.414  1.00  0.00    -0.352 N 
ATOM     34  C   UNL A   1      39.472  26.064  27.927  1.00  0.00     0.251 C 
ATOM     35  H   UNL A   1      38.868  24.212  28.224  1.00  0.00     0.163 HD
ATOM     36  O   UNL A   1      39.049  26.262  29.091  1.00  0.00    -0.269 OA
BRANCH  34  37
ATOM     37  C   UNL A   1      40.333  27.359  27.404  1.00  0.00     0.039 A 
ATOM     38  C   UNL A   1      40.905  27.456  26.077  1.00  0.00     0.014 A 
ATOM     39  C   UNL A   1      40.791  28.402  28.196  1.00  0.00     0.014 A 
ATOM     40  C   UNL A   1      42.218  28.109  25.842  1.00  0.00     0.010 A 
ATOM     41  C   UNL A   1      42.035  29.086  27.938  1.00  0.00     0.010 A 
ATOM     42  C   UNL A   1      42.911  28.711  26.915  1.00  0.00    -0.014 A 
BRANCH  42  43
ATOM     43  C   UNL A   1      44.435  28.604  27.279  1.00  0.00     0.031 A 
ATOM     44  C   UNL A   1      45.305  29.778  27.158  1.00  0.00     0.074 A 
ATOM     45  C   UNL A   1      45.121  27.666  28.024  1.00  0.00     0.049 A 
ATOM     46  N   UNL A   1      46.413  29.863  26.493  1.00  0.00    -0.248 NA
ATOM     47  C   UNL A   1      44.981  30.961  27.937  1.00  0.00     0.031 C 
ATOM     48  C   UNL A   1      46.525  27.533  28.478  1.00  0.00     0.029 A 
ATOM     49  N   UNL A   1      44.672  26.491  28.574  1.00  0.00    -0.354 N 
ATOM     50  C   UNL A   1      47.059  30.974  27.017  1.00  0.00     0.074 A 
ATOM     51  C   UNL A   1      46.008  31.752  27.634  1.00  0.00     0.031 C 
ATOM     52  C   UNL A   1      46.807  26.225  28.716  1.00  0.00     0.029 A 
ATOM     53  C   UNL A   1      45.612  25.469  28.435  1.00  0.00     0.049 A 
ATOM     54  H   UNL A   1      43.797  26.383  29.013  1.00  0.00     0.167 HD
ATOM     55  C   UNL A   1      48.412  30.994  27.262  1.00  0.00     0.037 A 
ATOM     56  C   UNL A   1      45.355  24.496  27.497  1.00  0.00     0.037 A 
ATOM     57  C   UNL A   1      49.013  29.650  27.107  1.00  0.00     0.049 A 
ATOM     58  C   UNL A   1      46.238  24.755  26.260  1.00  0.00     0.074 A 
ATOM     59  C   UNL A   1      49.647  28.739  27.945  1.00  0.00     0.029 A 
ATOM     60  N   UNL A   1      48.734  28.926  25.966  1.00  0.00    -0.354 N 
ATOM     61  N   UNL A   1      47.222  25.616  26.304  1.00  0.00    -0.248 NA
ATOM     62  C   UNL A   1      46.155  24.158  24.920  1.00  0.00     0.031 C 
ATOM     63  C   UNL A   1      49.689  27.462  27.289  1.00  0.00     0.029 A 
ATOM     64  C   UNL A   1      49.104  27.602  26.043  1.00  0.00     0.049 A 
ATOM     65  H   UNL A   1      48.308  29.320  25.169  1.00  0.00     0.167 HD
ATOM     66  C   UNL A   1      47.810  25.792  25.090  1.00  0.00     0.074 A 
ATOM     67  C   UNL A   1      47.130  24.818  24.251  1.00  0.00     0.031 C 
ATOM     68  C   UNL A   1      48.786  26.738  24.903  1.00  0.00     0.037 A 
BRANCH  55  69
ATOM     69  C   UNL A   1      49.141  32.177  27.909  1.00  0.00     0.058 A 
ATOM     70  C   UNL A   1      49.468  32.185  29.283  1.00  0.00     0.135 A 
ATOM     71  C   UNL A   1      49.631  33.307  27.210  1.00  0.00     0.135 A 
ATOM     72  F   UNL A   1      49.209  31.130  30.069  1.00  0.00    -0.206 F 
ATOM     73  C   UNL A   1      50.136  33.246  29.910  1.00  0.00     0.059 A 
ATOM     74  C   UNL A   1      50.220  34.415  27.824  1.00  0.00     0.059 A 
ATOM     75  F   UNL A   1      49.678  33.349  25.873  1.00  0.00    -0.206 F 
ATOM     76  C   UNL A   1      50.489  34.371  29.178  1.00  0.00     0.060 A 
BRANCH  76  77
ATOM     77  S   UNL A   1      51.408  35.704  29.969  1.00  0.00     0.124 S 
ATOM     78  O   UNL A   1      50.891  36.885  29.287  1.00  0.00    -0.237 OA
ATOM     79  O   UNL A   1      51.018  35.554  31.367  1.00  0.00    -0.237 OA
ATOM     80  O   UNL A   1      52.803  35.381  29.676  1.00  0.00    -0.744 OA
ENDBRANCH  76  77
ENDBRANCH  55  69
BRANCH  56  81
ATOM     81  C   UNL A   1      43.868  24.005  27.595  1.00  0.00     0.058 A 
ATOM     82  C   UNL A   1      43.181  23.989  26.352  1.00  0.00     0.135 A 
ATOM     83  C   UNL A   1      43.750  22.800  28.245  1.00  0.00     0.135 A 
ATOM     84  F   UNL A   1      42.727  25.142  25.844  1.00  0.00    -0.206 F 
ATOM     85  C   UNL A   1      43.059  22.829  25.542  1.00  0.00     0.059 A 
ATOM     86  C   UNL A   1      43.686  21.656  27.417  1.00  0.00     0.059 A 
ATOM     87  F   UNL A   1      44.242  22.681  29.491  1.00  0.00    -0.206 F 
ATOM     88  C   UNL A   1      43.465  21.615  26.056  1.00  0.00     0.060 A 
BRANCH  88  89
ATOM     89  S   UNL A   1      44.178  20.086  24.956  1.00  0.00     0.124 S 
ATOM     90  O   UNL A   1      45.316  19.532  25.685  1.00  0.00    -0.237 OA
ATOM     91  O   UNL A   1      43.065  19.202  24.862  1.00  0.00    -0.237 OA
ATOM     92  O   UNL A   1      44.527  20.664  23.660  1.00  0.00    -0.744 OA
ENDBRANCH  88  89
ENDBRANCH  56  81
BRANCH  68  93
ATOM     93  C   UNL A   1      49.545  26.972  23.618  1.00  0.00     0.058 A 
ATOM     94  C   UNL A   1      50.923  26.746  23.509  1.00  0.00     0.135 A 
ATOM     95  C   UNL A   1      48.940  27.596  22.496  1.00  0.00     0.135 A 
ATOM     96  F   UNL A   1      51.618  26.232  24.537  1.00  0.00    -0.206 F 
ATOM     97  C   UNL A   1      51.637  27.063  22.349  1.00  0.00     0.059 A 
ATOM     98  C   UNL A   1      49.641  27.982  21.363  1.00  0.00     0.059 A 
ATOM     99  F   UNL A   1      47.623  27.826  22.424  1.00  0.00    -0.206 F 
ATOM    100  C   UNL A   1      50.985  27.678  21.280  1.00  0.00     0.060 A 
BRANCH 100 101
ATOM    101  S   UNL A   1      51.887  28.054  19.770  1.00  0.00     0.124 S 
ATOM    102  O   UNL A   1      51.250  27.176  18.794  1.00  0.00    -0.237 OA
ATOM    103  O   UNL A   1      51.607  29.480  19.616  1.00  0.00    -0.237 OA
ATOM    104  O   UNL A   1      53.269  27.719  20.099  1.00  0.00    -0.744 OA
ENDBRANCH 100 101
ENDBRANCH  68  93
ENDBRANCH  42  43
ENDBRANCH  34  37
ENDBRANCH  32  33
ENDBRANCH   1  32
TORSDOF 17
ENDMDL
