MODEL 1
REMARK VINA RESULT:     -11.9      0.000      0.000
REMARK SMILES C[C@H]1OCC[C@@H]1C(=O)Nc1ccc(Cl)c(C(=O)NCCCCNC(=O)c2ccc(-c3c4nc(c(-c5c(F)cc(S(=O)(=O)[O-])cc5F)c5ccc([nH]5)c(-c5c(F)cc(S(=O)(=O)[O-])cc5F)c5nc(c(-c6c(F)cc(S(=O)(=O)[O-])cc6F)c6ccc3[nH]6)C=C5)C=C4)cc2)c1
REMARK SMILES IDX 21 1 20 2 19 3 18 4 16 5 17 6 15 8 10 9 11 10 92 11 12 12
REMARK SMILES IDX 13 13 14 14 9 15 7 16 8 17 6 19 1 20 2 21 3 22 4 23 5 24
REMARK SMILES IDX 22 25 23 26 24 27 25 29 26 30 27 31 91 32 28 33 90 34 29 35
REMARK SMILES IDX 30 36 31 37 84 38 32 39 89 40 83 41 85 42 33 43 88 44 82 45
REMARK SMILES IDX 81 46 34 48 68 49 47 50 67 51 48 52 51 53 66 54 86 55 49 56
REMARK SMILES IDX 50 57 65 59 87 60 52 61 35 62 36 63 45 64 37 65 38 66 44 67
REMARK SMILES IDX 46 68 39 69 40 70 41 71 42 72 43 73 69 74 70 75 79 76 71 77
REMARK SMILES IDX 72 78 78 79 80 80 73 81 74 82 75 83 76 84 77 85 53 86 54 87
REMARK SMILES IDX 63 88 55 89 56 90 62 91 64 92 57 93 58 94 59 95 60 96 61 97
REMARK H PARENT 18 7 9 18 23 28 85 47 51 58
REMARK Flexibility Score: inf
ROOT
ATOM      1  C   UNL A   1      32.690  29.151  25.712  1.00  0.00     0.023 C 
ENDROOT
BRANCH   1   2
ATOM      2  C   UNL A   1      33.411  29.221  24.372  1.00  0.00     0.023 C 
BRANCH   2   3
ATOM      3  C   UNL A   1      32.586  28.881  23.142  1.00  0.00     0.116 C 
BRANCH   3   4
ATOM      4  N   UNL A   1      33.151  27.893  22.240  1.00  0.00    -0.352 N 
ATOM      5  C   UNL A   1      33.248  26.524  22.396  1.00  0.00     0.252 C 
ATOM      6  O   UNL A   1      33.693  25.843  21.473  1.00  0.00    -0.269 OA
ATOM      7  H   UNL A   1      33.517  28.250  21.399  1.00  0.00     0.163 HD
BRANCH   5   8
ATOM      8  C   UNL A   1      32.956  25.867  23.694  1.00  0.00     0.060 A 
ATOM      9  C   UNL A   1      33.822  24.599  25.564  1.00  0.00     0.042 A 
ATOM     10  C   UNL A   1      32.694  24.931  26.299  1.00  0.00     0.028 A 
ATOM     11  C   UNL A   1      34.024  25.194  24.320  1.00  0.00     0.041 A 
ATOM     12  C   UNL A   1      31.611  25.523  25.663  1.00  0.00     0.023 A 
ATOM     13  C   UNL A   1      31.704  25.848  24.313  1.00  0.00     0.053 A 
ATOM     14  Cl  UNL A   1      30.208  26.022  23.466  1.00  0.00    -0.083 Cl
BRANCH   9  15
ATOM     15  N   UNL A   1      34.726  23.649  26.041  1.00  0.00    -0.326 N 
ATOM     16  C   UNL A   1      34.737  22.294  25.823  1.00  0.00     0.230 C 
ATOM     17  O   UNL A   1      35.528  21.621  26.499  1.00  0.00    -0.274 OA
ATOM     18  H   UNL A   1      35.452  23.996  26.608  1.00  0.00     0.169 HD
BRANCH  16  19
ATOM     19  C   UNL A   1      33.913  21.578  24.733  1.00  0.00     0.110 C 
ATOM     20  C   UNL A   1      31.760  22.258  23.559  1.00  0.00     0.039 C 
ATOM     21  C   UNL A   1      32.399  21.749  24.849  1.00  0.00     0.127 C 
ATOM     22  O   UNL A   1      31.859  20.446  25.115  1.00  0.00    -0.378 OA
ATOM     23  C   UNL A   1      32.756  19.469  24.586  1.00  0.00     0.161 C 
ATOM     24  C   UNL A   1      34.140  20.090  24.556  1.00  0.00     0.044 C 
ENDBRANCH  16  19
ENDBRANCH   9  15
ENDBRANCH   5   8
ENDBRANCH   3   4
ENDBRANCH   2   3
ENDBRANCH   1   2
BRANCH   1  25
ATOM     25  C   UNL A   1      33.562  29.101  26.964  1.00  0.00     0.116 C 
BRANCH  25  26
ATOM     26  N   UNL A   1      33.609  30.348  27.716  1.00  0.00    -0.352 N 
ATOM     27  C   UNL A   1      34.629  30.898  28.461  1.00  0.00     0.251 C 
ATOM     28  H   UNL A   1      32.783  30.883  27.687  1.00  0.00     0.163 HD
ATOM     29  O   UNL A   1      34.447  31.951  29.067  1.00  0.00    -0.269 OA
BRANCH  27  30
ATOM     30  C   UNL A   1      35.923  30.192  28.580  1.00  0.00     0.039 A 
ATOM     31  C   UNL A   1      36.780  30.169  27.476  1.00  0.00     0.014 A 
ATOM     32  C   UNL A   1      36.318  29.612  29.787  1.00  0.00     0.014 A 
ATOM     33  C   UNL A   1      38.081  29.683  27.622  1.00  0.00     0.010 A 
ATOM     34  C   UNL A   1      37.639  29.205  29.953  1.00  0.00     0.010 A 
ATOM     35  C   UNL A   1      38.542  29.263  28.880  1.00  0.00    -0.014 A 
BRANCH  35  36
ATOM     36  C   UNL A   1      39.976  28.946  29.117  1.00  0.00     0.031 A 
ATOM     37  C   UNL A   1      40.916  30.006  29.616  1.00  0.00     0.074 A 
ATOM     38  C   UNL A   1      40.448  27.728  28.779  1.00  0.00     0.049 A 
ATOM     39  N   UNL A   1      42.216  29.955  29.758  1.00  0.00    -0.248 NA
ATOM     40  C   UNL A   1      40.322  31.303  29.975  1.00  0.00     0.031 C 
ATOM     41  C   UNL A   1      39.649  26.630  28.230  1.00  0.00     0.029 A 
ATOM     42  N   UNL A   1      41.721  27.215  28.825  1.00  0.00    -0.354 N 
ATOM     43  C   UNL A   1      42.597  31.215  30.201  1.00  0.00     0.074 A 
ATOM     44  C   UNL A   1      41.397  32.022  30.265  1.00  0.00     0.031 C 
ATOM     45  C   UNL A   1      40.444  25.571  28.008  1.00  0.00     0.029 A 
ATOM     46  C   UNL A   1      41.817  25.926  28.353  1.00  0.00     0.049 A 
ATOM     47  H   UNL A   1      42.494  27.722  29.164  1.00  0.00     0.167 HD
ATOM     48  C   UNL A   1      43.833  31.653  30.542  1.00  0.00     0.037 A 
ATOM     49  C   UNL A   1      42.888  25.124  28.199  1.00  0.00     0.037 A 
ATOM     50  C   UNL A   1      45.019  30.839  30.507  1.00  0.00     0.049 A 
ATOM     51  C   UNL A   1      44.249  25.633  28.584  1.00  0.00     0.074 A 
ATOM     52  C   UNL A   1      46.302  31.169  30.906  1.00  0.00     0.029 A 
ATOM     53  N   UNL A   1      45.069  29.530  30.047  1.00  0.00    -0.354 N 
ATOM     54  N   UNL A   1      44.582  26.808  29.064  1.00  0.00    -0.248 NA
ATOM     55  C   UNL A   1      45.381  24.712  28.407  1.00  0.00     0.031 C 
ATOM     56  C   UNL A   1      47.135  30.075  30.652  1.00  0.00     0.029 A 
ATOM     57  C   UNL A   1      46.365  29.049  30.130  1.00  0.00     0.049 A 
ATOM     58  H   UNL A   1      44.297  29.020  29.710  1.00  0.00     0.167 HD
ATOM     59  C   UNL A   1      45.957  26.761  29.260  1.00  0.00     0.074 A 
ATOM     60  C   UNL A   1      46.393  25.439  28.861  1.00  0.00     0.031 C 
ATOM     61  C   UNL A   1      46.783  27.728  29.730  1.00  0.00     0.037 A 
BRANCH  48  62
ATOM     62  C   UNL A   1      43.963  33.082  30.991  1.00  0.00     0.058 A 
ATOM     63  C   UNL A   1      44.228  34.116  30.079  1.00  0.00     0.135 A 
ATOM     64  C   UNL A   1      43.792  33.426  32.341  1.00  0.00     0.135 A 
ATOM     65  F   UNL A   1      44.414  33.840  28.778  1.00  0.00    -0.206 F 
ATOM     66  C   UNL A   1      44.347  35.438  30.493  1.00  0.00     0.059 A 
ATOM     67  C   UNL A   1      43.883  34.745  32.774  1.00  0.00     0.059 A 
ATOM     68  F   UNL A   1      43.538  32.476  33.254  1.00  0.00    -0.206 F 
ATOM     69  C   UNL A   1      44.177  35.743  31.845  1.00  0.00     0.060 A 
BRANCH  69  70
ATOM     70  S   UNL A   1      44.336  37.463  32.368  1.00  0.00     0.124 S 
ATOM     71  O   UNL A   1      44.070  38.171  31.120  1.00  0.00    -0.237 OA
ATOM     72  O   UNL A   1      43.302  37.577  33.393  1.00  0.00    -0.237 OA
ATOM     73  O   UNL A   1      45.709  37.544  32.857  1.00  0.00    -0.744 OA
ENDBRANCH  69  70
ENDBRANCH  48  62
BRANCH  49  74
ATOM     74  C   UNL A   1      42.714  23.748  27.662  1.00  0.00     0.058 A 
ATOM     75  C   UNL A   1      42.534  22.658  28.525  1.00  0.00     0.135 A 
ATOM     76  C   UNL A   1      42.703  23.498  26.281  1.00  0.00     0.135 A 
ATOM     77  F   UNL A   1      42.544  22.846  29.854  1.00  0.00    -0.206 F 
ATOM     78  C   UNL A   1      42.360  21.365  28.041  1.00  0.00     0.059 A 
ATOM     79  C   UNL A   1      42.508  22.218  25.772  1.00  0.00     0.059 A 
ATOM     80  F   UNL A   1      42.855  24.511  25.413  1.00  0.00    -0.206 F 
ATOM     81  C   UNL A   1      42.346  21.156  26.661  1.00  0.00     0.060 A 
BRANCH  81  82
ATOM     82  S   UNL A   1      42.061  19.484  26.040  1.00  0.00     0.124 S 
ATOM     83  O   UNL A   1      40.616  19.488  25.842  1.00  0.00    -0.237 OA
ATOM     84  O   UNL A   1      42.873  19.463  24.828  1.00  0.00    -0.237 OA
ATOM     85  O   UNL A   1      42.549  18.638  27.125  1.00  0.00    -0.744 OA
ENDBRANCH  81  82
ENDBRANCH  49  74
BRANCH  61  86
ATOM     86  C   UNL A   1      48.241  27.392  29.854  1.00  0.00     0.058 A 
ATOM     87  C   UNL A   1      49.145  27.655  28.813  1.00  0.00     0.135 A 
ATOM     88  C   UNL A   1      48.752  26.866  31.051  1.00  0.00     0.135 A 
ATOM     89  F   UNL A   1      48.705  28.148  27.645  1.00  0.00    -0.206 F 
ATOM     90  C   UNL A   1      50.504  27.397  28.951  1.00  0.00     0.059 A 
ATOM     91  C   UNL A   1      50.111  26.622  31.219  1.00  0.00     0.059 A 
ATOM     92  F   UNL A   1      47.930  26.604  32.080  1.00  0.00    -0.206 F 
ATOM     93  C   UNL A   1      50.980  26.884  30.160  1.00  0.00     0.060 A 
BRANCH  93  94
ATOM     94  S   UNL A   1      52.753  26.606  30.346  1.00  0.00     0.124 S 
ATOM     95  O   UNL A   1      52.780  25.526  31.326  1.00  0.00    -0.237 OA
ATOM     96  O   UNL A   1      53.158  26.243  28.991  1.00  0.00    -0.237 OA
ATOM     97  O   UNL A   1      53.252  27.895  30.817  1.00  0.00    -0.744 OA
ENDBRANCH  93  94
ENDBRANCH  61  86
ENDBRANCH  35  36
ENDBRANCH  27  30
ENDBRANCH  25  26
ENDBRANCH   1  25
TORSDOF 16
ENDMDL
MODEL 2
REMARK VINA RESULT:     -11.7      1.256      1.870
REMARK SMILES C[C@H]1OCC[C@@H]1C(=O)Nc1ccc(Cl)c(C(=O)NCCCCNC(=O)c2ccc(-c3c4nc(c(-c5c(F)cc(S(=O)(=O)[O-])cc5F)c5ccc([nH]5)c(-c5c(F)cc(S(=O)(=O)[O-])cc5F)c5nc(c(-c6c(F)cc(S(=O)(=O)[O-])cc6F)c6ccc3[nH]6)C=C5)C=C4)cc2)c1
REMARK SMILES IDX 21 1 20 2 19 3 18 4 16 5 17 6 15 8 10 9 11 10 92 11 12 12
REMARK SMILES IDX 13 13 14 14 9 15 7 16 8 17 6 19 1 20 2 21 3 22 4 23 5 24
REMARK SMILES IDX 22 25 23 26 24 27 25 29 26 30 27 31 91 32 28 33 90 34 29 35
REMARK SMILES IDX 30 36 31 37 84 38 32 39 89 40 83 41 85 42 33 43 88 44 82 45
REMARK SMILES IDX 81 46 34 48 68 49 47 50 67 51 48 52 51 53 66 54 86 55 49 56
REMARK SMILES IDX 50 57 65 59 87 60 52 61 35 62 36 63 45 64 37 65 38 66 44 67
REMARK SMILES IDX 46 68 39 69 40 70 41 71 42 72 43 73 69 74 70 75 79 76 71 77
REMARK SMILES IDX 72 78 78 79 80 80 73 81 74 82 75 83 76 84 77 85 53 86 54 87
REMARK SMILES IDX 63 88 55 89 56 90 62 91 64 92 57 93 58 94 59 95 60 96 61 97
REMARK H PARENT 18 7 9 18 23 28 85 47 51 58
REMARK Flexibility Score: inf
ROOT
ATOM      1  C   UNL A   1      32.258  27.935  27.564  1.00  0.00     0.023 C 
ENDROOT
BRANCH   1   2
ATOM      2  C   UNL A   1      31.280  27.568  26.455  1.00  0.00     0.023 C 
BRANCH   2   3
ATOM      3  C   UNL A   1      31.071  26.084  26.202  1.00  0.00     0.116 C 
BRANCH   3   4
ATOM      4  N   UNL A   1      30.600  25.716  24.878  1.00  0.00    -0.352 N 
ATOM      5  C   UNL A   1      30.987  24.660  24.077  1.00  0.00     0.252 C 
ATOM      6  O   UNL A   1      30.407  24.469  23.009  1.00  0.00    -0.269 OA
ATOM      7  H   UNL A   1      29.907  26.303  24.499  1.00  0.00     0.163 HD
BRANCH   5   8
ATOM      8  C   UNL A   1      32.173  23.830  24.404  1.00  0.00     0.060 A 
ATOM      9  C   UNL A   1      33.001  21.678  25.136  1.00  0.00     0.042 A 
ATOM     10  C   UNL A   1      34.265  22.020  24.678  1.00  0.00     0.028 A 
ATOM     11  C   UNL A   1      31.926  22.520  24.859  1.00  0.00     0.041 A 
ATOM     12  C   UNL A   1      34.527  23.331  24.305  1.00  0.00     0.023 A 
ATOM     13  C   UNL A   1      33.498  24.266  24.320  1.00  0.00     0.053 A 
ATOM     14  Cl  UNL A   1      33.975  25.924  24.420  1.00  0.00    -0.083 Cl
BRANCH   9  15
ATOM     15  N   UNL A   1      32.810  20.527  25.902  1.00  0.00    -0.326 N 
ATOM     16  C   UNL A   1      32.857  19.215  25.501  1.00  0.00     0.230 C 
ATOM     17  O   UNL A   1      32.472  18.364  26.314  1.00  0.00    -0.274 OA
ATOM     18  H   UNL A   1      32.616  20.676  26.855  1.00  0.00     0.169 HD
BRANCH  16  19
ATOM     19  C   UNL A   1      33.449  18.733  24.161  1.00  0.00     0.110 C 
ATOM     20  C   UNL A   1      32.402  18.556  21.847  1.00  0.00     0.039 C 
ATOM     21  C   UNL A   1      32.475  17.976  23.258  1.00  0.00     0.127 C 
ATOM     22  O   UNL A   1      32.975  16.635  23.150  1.00  0.00    -0.378 OA
ATOM     23  C   UNL A   1      34.386  16.661  23.363  1.00  0.00     0.161 C 
ATOM     24  C   UNL A   1      34.695  17.874  24.221  1.00  0.00     0.044 C 
ENDBRANCH  16  19
ENDBRANCH   9  15
ENDBRANCH   5   8
ENDBRANCH   3   4
ENDBRANCH   2   3
ENDBRANCH   1   2
BRANCH   1  25
ATOM     25  C   UNL A   1      33.498  28.727  27.157  1.00  0.00     0.116 C 
BRANCH  25  26
ATOM     26  N   UNL A   1      33.585  30.056  27.748  1.00  0.00    -0.352 N 
ATOM     27  C   UNL A   1      34.646  30.690  28.356  1.00  0.00     0.251 C 
ATOM     28  H   UNL A   1      32.756  30.586  27.704  1.00  0.00     0.163 HD
ATOM     29  O   UNL A   1      34.496  31.810  28.839  1.00  0.00    -0.269 OA
BRANCH  27  30
ATOM     30  C   UNL A   1      35.948  30.001  28.480  1.00  0.00     0.039 A 
ATOM     31  C   UNL A   1      36.830  30.030  27.396  1.00  0.00     0.014 A 
ATOM     32  C   UNL A   1      36.325  29.385  29.675  1.00  0.00     0.014 A 
ATOM     33  C   UNL A   1      38.135  29.559  27.555  1.00  0.00     0.010 A 
ATOM     34  C   UNL A   1      37.649  28.994  29.857  1.00  0.00     0.010 A 
ATOM     35  C   UNL A   1      38.575  29.103  28.808  1.00  0.00    -0.014 A 
BRANCH  35  36
ATOM     36  C   UNL A   1      40.008  28.800  29.068  1.00  0.00     0.031 A 
ATOM     37  C   UNL A   1      40.928  29.867  29.588  1.00  0.00     0.074 A 
ATOM     38  C   UNL A   1      40.499  27.590  28.730  1.00  0.00     0.049 A 
ATOM     39  N   UNL A   1      42.225  29.830  29.751  1.00  0.00    -0.248 NA
ATOM     40  C   UNL A   1      40.313  31.156  29.945  1.00  0.00     0.031 C 
ATOM     41  C   UNL A   1      39.722  26.486  28.161  1.00  0.00     0.029 A 
ATOM     42  N   UNL A   1      41.777  27.090  28.794  1.00  0.00    -0.354 N 
ATOM     43  C   UNL A   1      42.585  31.091  30.208  1.00  0.00     0.074 A 
ATOM     44  C   UNL A   1      41.376  31.884  30.257  1.00  0.00     0.031 C 
ATOM     45  C   UNL A   1      40.532  25.438  27.945  1.00  0.00     0.029 A 
ATOM     46  C   UNL A   1      41.894  25.806  28.316  1.00  0.00     0.049 A 
ATOM     47  H   UNL A   1      42.539  27.604  29.149  1.00  0.00     0.167 HD
ATOM     48  C   UNL A   1      43.811  31.541  30.572  1.00  0.00     0.037 A 
ATOM     49  C   UNL A   1      42.977  25.017  28.175  1.00  0.00     0.037 A 
ATOM     50  C   UNL A   1      45.006  30.740  30.553  1.00  0.00     0.049 A 
ATOM     51  C   UNL A   1      44.326  25.538  28.586  1.00  0.00     0.074 A 
ATOM     52  C   UNL A   1      46.278  31.082  30.975  1.00  0.00     0.029 A 
ATOM     53  N   UNL A   1      45.078  29.435  30.085  1.00  0.00    -0.354 N 
ATOM     54  N   UNL A   1      44.637  26.713  29.078  1.00  0.00    -0.248 NA
ATOM     55  C   UNL A   1      45.471  24.631  28.421  1.00  0.00     0.031 C 
ATOM     56  C   UNL A   1      47.128  29.999  30.728  1.00  0.00     0.029 A 
ATOM     57  C   UNL A   1      46.377  28.967  30.187  1.00  0.00     0.049 A 
ATOM     58  H   UNL A   1      44.317  28.919  29.733  1.00  0.00     0.167 HD
ATOM     59  C   UNL A   1      46.010  26.681  29.297  1.00  0.00     0.074 A 
ATOM     60  C   UNL A   1      46.467  25.366  28.897  1.00  0.00     0.031 C 
ATOM     61  C   UNL A   1      46.817  27.654  29.786  1.00  0.00     0.037 A 
BRANCH  48  62
ATOM     62  C   UNL A   1      43.917  32.968  31.032  1.00  0.00     0.058 A 
ATOM     63  C   UNL A   1      44.086  34.022  30.120  1.00  0.00     0.135 A 
ATOM     64  C   UNL A   1      43.819  33.290  32.395  1.00  0.00     0.135 A 
ATOM     65  F   UNL A   1      44.201  33.768  28.806  1.00  0.00    -0.206 F 
ATOM     66  C   UNL A   1      44.184  35.343  30.544  1.00  0.00     0.059 A 
ATOM     67  C   UNL A   1      43.890  34.607  32.840  1.00  0.00     0.059 A 
ATOM     68  F   UNL A   1      43.657  32.321  33.309  1.00  0.00    -0.206 F 
ATOM     69  C   UNL A   1      44.088  35.625  31.908  1.00  0.00     0.060 A 
BRANCH  69  70
ATOM     70  S   UNL A   1      44.218  37.344  32.444  1.00  0.00     0.124 S 
ATOM     71  O   UNL A   1      43.183  37.406  33.471  1.00  0.00    -0.237 OA
ATOM     72  O   UNL A   1      45.594  37.419  32.927  1.00  0.00    -0.237 OA
ATOM     73  O   UNL A   1      43.944  38.101  31.228  1.00  0.00    -0.744 OA
ENDBRANCH  69  70
ENDBRANCH  48  62
BRANCH  49  74
ATOM     74  C   UNL A   1      42.828  23.642  27.626  1.00  0.00     0.058 A 
ATOM     75  C   UNL A   1      42.529  22.562  28.469  1.00  0.00     0.135 A 
ATOM     76  C   UNL A   1      42.959  23.385  26.253  1.00  0.00     0.135 A 
ATOM     77  F   UNL A   1      42.401  22.758  29.790  1.00  0.00    -0.206 F 
ATOM     78  C   UNL A   1      42.375  21.271  27.973  1.00  0.00     0.059 A 
ATOM     79  C   UNL A   1      42.787  22.107  25.730  1.00  0.00     0.059 A 
ATOM     80  F   UNL A   1      43.227  24.388  25.403  1.00  0.00    -0.206 F 
ATOM     81  C   UNL A   1      42.504  21.054  26.600  1.00  0.00     0.060 A 
BRANCH  81  82
ATOM     82  S   UNL A   1      42.245  19.386  25.958  1.00  0.00     0.124 S 
ATOM     83  O   UNL A   1      40.795  19.349  25.814  1.00  0.00    -0.237 OA
ATOM     84  O   UNL A   1      43.011  19.412  24.715  1.00  0.00    -0.237 OA
ATOM     85  O   UNL A   1      42.800  18.535  27.007  1.00  0.00    -0.744 OA
ENDBRANCH  81  82
ENDBRANCH  49  74
BRANCH  61  86
ATOM     86  C   UNL A   1      48.277  27.333  29.933  1.00  0.00     0.058 A 
ATOM     87  C   UNL A   1      49.208  27.687  28.943  1.00  0.00     0.135 A 
ATOM     88  C   UNL A   1      48.759  26.728  31.104  1.00  0.00     0.135 A 
ATOM     89  F   UNL A   1      48.795  28.258  27.801  1.00  0.00    -0.206 F 
ATOM     90  C   UNL A   1      50.566  27.442  29.106  1.00  0.00     0.059 A 
ATOM     91  C   UNL A   1      50.117  26.495  31.297  1.00  0.00     0.059 A 
ATOM     92  F   UNL A   1      47.910  26.377  32.083  1.00  0.00    -0.206 F 
ATOM     93  C   UNL A   1      51.013  26.849  30.290  1.00  0.00     0.060 A 
BRANCH  93  94
ATOM     94  S   UNL A   1      52.785  26.586  30.512  1.00  0.00     0.124 S 
ATOM     95  O   UNL A   1      53.211  27.879  31.035  1.00  0.00    -0.237 OA
ATOM     96  O   UNL A   1      52.822  25.476  31.460  1.00  0.00    -0.237 OA
ATOM     97  O   UNL A   1      53.252  26.267  29.166  1.00  0.00    -0.744 OA
ENDBRANCH  93  94
ENDBRANCH  61  86
ENDBRANCH  35  36
ENDBRANCH  27  30
ENDBRANCH  25  26
ENDBRANCH   1  25
TORSDOF 16
ENDMDL
MODEL 3
REMARK VINA RESULT:     -11.6      4.936     10.561
REMARK SMILES C[C@H]1OCC[C@@H]1C(=O)Nc1ccc(Cl)c(C(=O)NCCCCNC(=O)c2ccc(-c3c4nc(c(-c5c(F)cc(S(=O)(=O)[O-])cc5F)c5ccc([nH]5)c(-c5c(F)cc(S(=O)(=O)[O-])cc5F)c5nc(c(-c6c(F)cc(S(=O)(=O)[O-])cc6F)c6ccc3[nH]6)C=C5)C=C4)cc2)c1
REMARK SMILES IDX 21 1 20 2 19 3 18 4 16 5 17 6 15 8 10 9 11 10 92 11 12 12
REMARK SMILES IDX 13 13 14 14 9 15 7 16 8 17 6 19 1 20 2 21 3 22 4 23 5 24
REMARK SMILES IDX 22 25 23 26 24 27 25 29 26 30 27 31 91 32 28 33 90 34 29 35
REMARK SMILES IDX 30 36 31 37 84 38 32 39 89 40 83 41 85 42 33 43 88 44 82 45
REMARK SMILES IDX 81 46 34 48 68 49 47 50 67 51 48 52 51 53 66 54 86 55 49 56
REMARK SMILES IDX 50 57 65 59 87 60 52 61 35 62 36 63 45 64 37 65 38 66 44 67
REMARK SMILES IDX 46 68 39 69 40 70 41 71 42 72 43 73 69 74 70 75 79 76 71 77
REMARK SMILES IDX 72 78 78 79 80 80 73 81 74 82 75 83 76 84 77 85 53 86 54 87
REMARK SMILES IDX 63 88 55 89 56 90 62 91 64 92 57 93 58 94 59 95 60 96 61 97
REMARK H PARENT 18 7 9 18 23 28 85 47 51 58
REMARK Flexibility Score: inf
ROOT
ATOM      1  C   UNL A   1      37.600  23.651  25.463  1.00  0.00     0.023 C 
ENDROOT
BRANCH   1   2
ATOM      2  C   UNL A   1      37.288  22.365  24.706  1.00  0.00     0.023 C 
BRANCH   2   3
ATOM      3  C   UNL A   1      36.087  21.571  25.190  1.00  0.00     0.116 C 
BRANCH   3   4
ATOM      4  N   UNL A   1      35.495  21.998  26.447  1.00  0.00    -0.352 N 
ATOM      5  C   UNL A   1      34.367  22.763  26.664  1.00  0.00     0.252 C 
ATOM      6  O   UNL A   1      33.979  22.952  27.816  1.00  0.00    -0.269 OA
ATOM      7  H   UNL A   1      35.966  21.700  27.257  1.00  0.00     0.163 HD
BRANCH   5   8
ATOM      8  C   UNL A   1      33.685  23.475  25.554  1.00  0.00     0.060 A 
ATOM      9  C   UNL A   1      33.621  25.440  24.143  1.00  0.00     0.042 A 
ATOM     10  C   UNL A   1      32.794  24.765  23.258  1.00  0.00     0.028 A 
ATOM     11  C   UNL A   1      34.189  24.745  25.209  1.00  0.00     0.041 A 
ATOM     12  C   UNL A   1      32.235  23.551  23.632  1.00  0.00     0.023 A 
ATOM     13  C   UNL A   1      32.575  22.989  24.859  1.00  0.00     0.053 A 
ATOM     14  Cl  UNL A   1      31.459  21.841  25.508  1.00  0.00    -0.083 Cl
BRANCH   9  15
ATOM     15  N   UNL A   1      33.850  26.809  23.998  1.00  0.00    -0.326 N 
ATOM     16  C   UNL A   1      33.028  27.855  24.337  1.00  0.00     0.230 C 
ATOM     17  O   UNL A   1      33.361  28.982  23.946  1.00  0.00    -0.274 OA
ATOM     18  H   UNL A   1      34.715  27.058  23.600  1.00  0.00     0.169 HD
BRANCH  16  19
ATOM     19  C   UNL A   1      31.790  27.731  25.250  1.00  0.00     0.110 C 
ATOM     20  C   UNL A   1      31.501  28.197  27.735  1.00  0.00     0.039 C 
ATOM     21  C   UNL A   1      32.080  27.263  26.675  1.00  0.00     0.127 C 
ATOM     22  O   UNL A   1      31.438  25.987  26.825  1.00  0.00    -0.378 OA
ATOM     23  C   UNL A   1      30.341  25.925  25.914  1.00  0.00     0.161 C 
ATOM     24  C   UNL A   1      30.652  26.860  24.760  1.00  0.00     0.044 C 
ENDBRANCH  16  19
ENDBRANCH   9  15
ENDBRANCH   5   8
ENDBRANCH   3   4
ENDBRANCH   2   3
ENDBRANCH   1   2
BRANCH   1  25
ATOM     25  C   UNL A   1      38.593  23.549  26.617  1.00  0.00     0.116 C 
BRANCH  25  26
ATOM     26  N   UNL A   1      39.993  23.599  26.215  1.00  0.00    -0.352 N 
ATOM     27  C   UNL A   1      40.968  24.529  26.504  1.00  0.00     0.251 C 
ATOM     28  H   UNL A   1      40.290  22.851  25.648  1.00  0.00     0.163 HD
ATOM     29  O   UNL A   1      42.090  24.411  26.019  1.00  0.00    -0.269 OA
BRANCH  27  30
ATOM     30  C   UNL A   1      40.648  25.699  27.349  1.00  0.00     0.039 A 
ATOM     31  C   UNL A   1      39.713  25.549  28.377  1.00  0.00     0.014 A 
ATOM     32  C   UNL A   1      41.307  26.916  27.172  1.00  0.00     0.014 A 
ATOM     33  C   UNL A   1      39.539  26.576  29.308  1.00  0.00     0.010 A 
ATOM     34  C   UNL A   1      41.195  27.905  28.146  1.00  0.00     0.010 A 
ATOM     35  C   UNL A   1      40.331  27.734  29.239  1.00  0.00    -0.014 A 
BRANCH  35  36
ATOM     36  C   UNL A   1      40.327  28.746  30.329  1.00  0.00     0.031 A 
ATOM     37  C   UNL A   1      41.231  28.587  31.517  1.00  0.00     0.074 A 
ATOM     38  C   UNL A   1      39.427  29.751  30.294  1.00  0.00     0.049 A 
ATOM     39  N   UNL A   1      41.276  29.289  32.620  1.00  0.00    -0.248 NA
ATOM     40  C   UNL A   1      42.192  27.473  31.474  1.00  0.00     0.031 C 
ATOM     41  C   UNL A   1      38.454  29.984  29.224  1.00  0.00     0.029 A 
ATOM     42  N   UNL A   1      39.167  30.755  31.195  1.00  0.00    -0.354 N 
ATOM     43  C   UNL A   1      42.251  28.693  33.409  1.00  0.00     0.074 A 
ATOM     44  C   UNL A   1      42.744  27.546  32.677  1.00  0.00     0.031 C 
ATOM     45  C   UNL A   1      37.719  31.066  29.520  1.00  0.00     0.029 A 
ATOM     46  C   UNL A   1      38.133  31.581  30.821  1.00  0.00     0.049 A 
ATOM     47  H   UNL A   1      39.675  30.872  32.031  1.00  0.00     0.167 HD
ATOM     48  C   UNL A   1      42.707  29.079  34.626  1.00  0.00     0.037 A 
ATOM     49  C   UNL A   1      37.569  32.625  31.459  1.00  0.00     0.037 A 
ATOM     50  C   UNL A   1      42.237  30.238  35.336  1.00  0.00     0.049 A 
ATOM     51  C   UNL A   1      38.092  33.034  32.807  1.00  0.00     0.074 A 
ATOM     52  C   UNL A   1      42.690  30.753  36.538  1.00  0.00     0.029 A 
ATOM     53  N   UNL A   1      41.204  31.064  34.912  1.00  0.00    -0.354 N 
ATOM     54  N   UNL A   1      39.061  32.497  33.510  1.00  0.00    -0.248 NA
ATOM     55  C   UNL A   1      37.448  34.187  33.452  1.00  0.00     0.031 C 
ATOM     56  C   UNL A   1      41.908  31.868  36.859  1.00  0.00     0.029 A 
ATOM     57  C   UNL A   1      40.992  32.070  35.839  1.00  0.00     0.049 A 
ATOM     58  H   UNL A   1      40.699  30.950  34.075  1.00  0.00     0.167 HD
ATOM     59  C   UNL A   1      39.152  33.256  34.671  1.00  0.00     0.074 A 
ATOM     60  C   UNL A   1      38.151  34.297  34.571  1.00  0.00     0.031 C 
ATOM     61  C   UNL A   1      39.992  33.101  35.724  1.00  0.00     0.037 A 
BRANCH  48  62
ATOM     62  C   UNL A   1      43.779  28.239  35.263  1.00  0.00     0.058 A 
ATOM     63  C   UNL A   1      43.462  27.151  36.092  1.00  0.00     0.135 A 
ATOM     64  C   UNL A   1      45.136  28.504  35.018  1.00  0.00     0.135 A 
ATOM     65  F   UNL A   1      42.181  26.863  36.370  1.00  0.00    -0.206 F 
ATOM     66  C   UNL A   1      44.453  26.373  36.681  1.00  0.00     0.059 A 
ATOM     67  C   UNL A   1      46.143  27.724  35.577  1.00  0.00     0.059 A 
ATOM     68  F   UNL A   1      45.493  29.532  34.233  1.00  0.00    -0.206 F 
ATOM     69  C   UNL A   1      45.792  26.670  36.420  1.00  0.00     0.060 A 
BRANCH  69  70
ATOM     70  S   UNL A   1      47.067  25.652  37.193  1.00  0.00     0.124 S 
ATOM     71  O   UNL A   1      46.738  25.800  38.607  1.00  0.00    -0.237 OA
ATOM     72  O   UNL A   1      46.809  24.335  36.618  1.00  0.00    -0.237 OA
ATOM     73  O   UNL A   1      48.311  26.285  36.767  1.00  0.00    -0.744 OA
ENDBRANCH  69  70
ENDBRANCH  48  62
BRANCH  49  74
ATOM     74  C   UNL A   1      36.447  33.365  30.822  1.00  0.00     0.058 A 
ATOM     75  C   UNL A   1      35.140  33.252  31.317  1.00  0.00     0.135 A 
ATOM     76  C   UNL A   1      36.659  34.213  29.724  1.00  0.00     0.135 A 
ATOM     77  F   UNL A   1      34.886  32.448  32.361  1.00  0.00    -0.206 F 
ATOM     78  C   UNL A   1      34.079  33.944  30.741  1.00  0.00     0.059 A 
ATOM     79  C   UNL A   1      35.619  34.933  29.145  1.00  0.00     0.059 A 
ATOM     80  F   UNL A   1      37.895  34.368  29.223  1.00  0.00    -0.206 F 
ATOM     81  C   UNL A   1      34.330  34.785  29.655  1.00  0.00     0.060 A 
BRANCH  81  82
ATOM     82  S   UNL A   1      32.957  35.724  28.951  1.00  0.00     0.124 S 
ATOM     83  O   UNL A   1      33.659  36.825  28.301  1.00  0.00    -0.237 OA
ATOM     84  O   UNL A   1      32.338  34.746  28.062  1.00  0.00    -0.237 OA
ATOM     85  O   UNL A   1      32.163  36.084  30.122  1.00  0.00    -0.744 OA
ENDBRANCH  81  82
ENDBRANCH  49  74
BRANCH  61  86
ATOM     86  C   UNL A   1      39.878  34.090  36.850  1.00  0.00     0.058 A 
ATOM     87  C   UNL A   1      40.490  35.351  36.781  1.00  0.00     0.135 A 
ATOM     88  C   UNL A   1      39.093  33.799  37.977  1.00  0.00     0.135 A 
ATOM     89  F   UNL A   1      41.259  35.672  35.729  1.00  0.00    -0.206 F 
ATOM     90  C   UNL A   1      40.336  36.287  37.797  1.00  0.00     0.059 A 
ATOM     91  C   UNL A   1      38.907  34.730  38.994  1.00  0.00     0.059 A 
ATOM     92  F   UNL A   1      38.480  32.609  38.086  1.00  0.00    -0.206 F 
ATOM     93  C   UNL A   1      39.538  35.969  38.899  1.00  0.00     0.060 A 
BRANCH  93  94
ATOM     94  S   UNL A   1      39.301  37.213  40.186  1.00  0.00     0.124 S 
ATOM     95  O   UNL A   1      40.679  37.552  40.524  1.00  0.00    -0.237 OA
ATOM     96  O   UNL A   1      38.546  38.249  39.487  1.00  0.00    -0.237 OA
ATOM     97  O   UNL A   1      38.559  36.496  41.219  1.00  0.00    -0.744 OA
ENDBRANCH  93  94
ENDBRANCH  61  86
ENDBRANCH  35  36
ENDBRANCH  27  30
ENDBRANCH  25  26
ENDBRANCH   1  25
TORSDOF 16
ENDMDL
