MODEL 1
REMARK VINA RESULT:     -12.1      0.000      0.000
REMARK SMILES CC1=C2C(=O)N(C[C@H]3CCCO3)C(=O)N=C2S[C@@H]1C(=O)NCCCCNC(=O)c1ccc(-c2c3nc(c(-c4c(F)cc(S(=O)(=O)[O-])cc4F)c4ccc([nH]4)c(-c4c(F)cc(S(=O)(=O)[O-])cc4F)c4nc(c(-c5c(F)cc(S(=O)(=O)[O-])cc5F)c5ccc2[nH]5)C=C4)C=C3)cc1
REMARK SMILES IDX 24 1 23 2 22 3 21 4 19 5 20 6 18 8 1 9 2 10 3 11 4 12 16 13
REMARK SMILES IDX 17 14 5 15 6 16 15 17 13 18 14 19 7 20 8 21 9 22 12 23 10 24
REMARK SMILES IDX 11 25 25 26 26 27 27 28 28 30 29 31 30 32 94 33 31 34 93 35
REMARK SMILES IDX 32 36 33 37 34 38 87 39 35 40 92 41 86 42 88 43 36 44 91 45
REMARK SMILES IDX 85 46 84 47 37 49 71 50 50 51 70 52 51 53 54 54 69 55 89 56
REMARK SMILES IDX 52 57 53 58 68 60 90 61 55 62 38 63 39 64 48 65 40 66 41 67
REMARK SMILES IDX 47 68 49 69 42 70 43 71 44 72 45 73 46 74 72 75 73 76 82 77
REMARK SMILES IDX 74 78 75 79 81 80 83 81 76 82 77 83 78 84 79 85 80 86 56 87
REMARK SMILES IDX 57 88 66 89 58 90 59 91 65 92 67 93 60 94 61 95 62 96 63 97
REMARK SMILES IDX 64 98
REMARK H PARENT 21 7 26 29 88 48 54 59
REMARK Flexibility Score: inf
ROOT
ATOM      1  C   UNL A   1      33.778  28.309  25.756  1.00  0.00     0.023 C 
ENDROOT
BRANCH   1   2
ATOM      2  C   UNL A   1      33.118  29.339  24.839  1.00  0.00     0.023 C 
BRANCH   2   3
ATOM      3  C   UNL A   1      33.001  28.894  23.386  1.00  0.00     0.116 C 
BRANCH   3   4
ATOM      4  N   UNL A   1      31.668  29.121  22.860  1.00  0.00    -0.355 N 
ATOM      5  C   UNL A   1      30.712  28.251  22.426  1.00  0.00     0.237 C 
ATOM      6  O   UNL A   1      29.656  28.739  22.009  1.00  0.00    -0.273 OA
ATOM      7  H   UNL A   1      31.408  30.069  22.807  1.00  0.00     0.163 HD
BRANCH   5   8
ATOM      8  C   UNL A   1      30.861  26.727  22.514  1.00  0.00     0.169 C 
ATOM      9  C   UNL A   1      30.365  26.576  25.051  1.00  0.00     0.042 C 
ATOM     10  C   UNL A   1      31.232  26.227  23.880  1.00  0.00    -0.035 C 
ATOM     11  C   UNL A   1      32.331  25.461  23.931  1.00  0.00     0.073 C 
ATOM     12  C   UNL A   1      32.930  24.819  25.090  1.00  0.00     0.264 C 
ATOM     13  C   UNL A   1      32.960  25.225  22.649  1.00  0.00     0.116 C 
ATOM     14  S   UNL A   1      32.140  26.085  21.376  1.00  0.00    -0.087 SA
ATOM     15  O   UNL A   1      32.597  25.148  26.217  1.00  0.00    -0.268 OA
ATOM     16  N   UNL A   1      33.838  23.837  24.770  1.00  0.00    -0.256 N 
ATOM     17  N   UNL A   1      33.984  24.483  22.457  1.00  0.00    -0.186 NA
ATOM     18  C   UNL A   1      34.486  23.770  23.525  1.00  0.00     0.351 C 
ATOM     19  O   UNL A   1      35.476  23.058  23.372  1.00  0.00    -0.246 OA
BRANCH  16  20
ATOM     20  C   UNL A   1      34.024  22.735  25.715  1.00  0.00     0.163 C 
BRANCH  20  21
ATOM     21  C   UNL A   1      32.869  21.745  25.996  1.00  0.00     0.138 C 
ATOM     22  C   UNL A   1      31.898  21.416  24.866  1.00  0.00     0.036 C 
ATOM     23  O   UNL A   1      33.511  20.455  26.225  1.00  0.00    -0.376 OA
ATOM     24  C   UNL A   1      32.702  20.495  23.986  1.00  0.00     0.031 C 
ATOM     25  C   UNL A   1      33.430  19.667  25.019  1.00  0.00     0.160 C 
ENDBRANCH  20  21
ENDBRANCH  16  20
ENDBRANCH   5   8
ENDBRANCH   3   4
ENDBRANCH   2   3
ENDBRANCH   1   2
BRANCH   1  26
ATOM     26  C   UNL A   1      33.530  28.516  27.248  1.00  0.00     0.116 C 
BRANCH  26  27
ATOM     27  N   UNL A   1      33.474  29.918  27.635  1.00  0.00    -0.352 N 
ATOM     28  C   UNL A   1      34.462  30.690  28.198  1.00  0.00     0.251 C 
ATOM     29  H   UNL A   1      32.616  30.373  27.470  1.00  0.00     0.163 HD
ATOM     30  O   UNL A   1      34.220  31.837  28.558  1.00  0.00    -0.269 OA
BRANCH  28  31
ATOM     31  C   UNL A   1      35.803  30.107  28.400  1.00  0.00     0.039 A 
ATOM     32  C   UNL A   1      36.694  30.079  27.325  1.00  0.00     0.014 A 
ATOM     33  C   UNL A   1      36.193  29.642  29.659  1.00  0.00     0.014 A 
ATOM     34  C   UNL A   1      38.009  29.659  27.534  1.00  0.00     0.010 A 
ATOM     35  C   UNL A   1      37.519  29.278  29.877  1.00  0.00     0.010 A 
ATOM     36  C   UNL A   1      38.441  29.296  28.820  1.00  0.00    -0.014 A 
BRANCH  36  37
ATOM     37  C   UNL A   1      39.862  28.961  29.086  1.00  0.00     0.031 A 
ATOM     38  C   UNL A   1      40.794  30.004  29.636  1.00  0.00     0.074 A 
ATOM     39  C   UNL A   1      40.328  27.740  28.757  1.00  0.00     0.049 A 
ATOM     40  N   UNL A   1      42.083  29.933  29.841  1.00  0.00    -0.248 NA
ATOM     41  C   UNL A   1      40.202  31.308  29.979  1.00  0.00     0.031 C 
ATOM     42  C   UNL A   1      39.534  26.659  28.165  1.00  0.00     0.029 A 
ATOM     43  N   UNL A   1      41.588  27.205  28.858  1.00  0.00    -0.354 N 
ATOM     44  C   UNL A   1      42.460  31.180  30.322  1.00  0.00     0.074 A 
ATOM     45  C   UNL A   1      41.270  32.004  30.339  1.00  0.00     0.031 C 
ATOM     46  C   UNL A   1      40.321  25.590  27.967  1.00  0.00     0.029 A 
ATOM     47  C   UNL A   1      41.681  25.916  28.386  1.00  0.00     0.049 A 
ATOM     48  H   UNL A   1      42.354  27.697  29.233  1.00  0.00     0.167 HD
ATOM     49  C   UNL A   1      43.683  31.594  30.732  1.00  0.00     0.037 A 
ATOM     50  C   UNL A   1      42.744  25.095  28.292  1.00  0.00     0.037 A 
ATOM     51  C   UNL A   1      44.858  30.763  30.742  1.00  0.00     0.049 A 
ATOM     52  C   UNL A   1      44.087  25.574  28.772  1.00  0.00     0.074 A 
ATOM     53  C   UNL A   1      46.131  31.077  31.184  1.00  0.00     0.029 A 
ATOM     54  N   UNL A   1      44.902  29.450  30.296  1.00  0.00    -0.354 N 
ATOM     55  N   UNL A   1      44.414  26.742  29.269  1.00  0.00    -0.248 NA
ATOM     56  C   UNL A   1      45.203  24.621  28.684  1.00  0.00     0.031 C 
ATOM     57  C   UNL A   1      46.952  29.961  30.983  1.00  0.00     0.029 A 
ATOM     58  C   UNL A   1      46.182  28.943  30.445  1.00  0.00     0.049 A 
ATOM     59  H   UNL A   1      44.136  28.952  29.927  1.00  0.00     0.167 HD
ATOM     60  C   UNL A   1      45.769  26.659  29.569  1.00  0.00     0.074 A 
ATOM     61  C   UNL A   1      46.197  25.322  29.213  1.00  0.00     0.031 C 
ATOM     62  C   UNL A   1      46.586  27.606  30.092  1.00  0.00     0.037 A 
BRANCH  49  63
ATOM     63  C   UNL A   1      43.808  33.007  31.224  1.00  0.00     0.058 A 
ATOM     64  C   UNL A   1      43.603  33.329  32.575  1.00  0.00     0.135 A 
ATOM     65  C   UNL A   1      44.181  34.040  30.351  1.00  0.00     0.135 A 
ATOM     66  F   UNL A   1      43.229  32.381  33.447  1.00  0.00    -0.206 F 
ATOM     67  C   UNL A   1      43.744  34.632  33.040  1.00  0.00     0.059 A 
ATOM     68  C   UNL A   1      44.348  35.348  30.798  1.00  0.00     0.059 A 
ATOM     69  F   UNL A   1      44.385  33.785  29.049  1.00  0.00    -0.206 F 
ATOM     70  C   UNL A   1      44.117  35.635  32.144  1.00  0.00     0.060 A 
BRANCH  70  71
ATOM     71  S   UNL A   1      44.311  37.319  32.764  1.00  0.00     0.124 S 
ATOM     72  O   UNL A   1      43.849  38.104  31.623  1.00  0.00    -0.237 OA
ATOM     73  O   UNL A   1      43.434  37.327  33.932  1.00  0.00    -0.237 OA
ATOM     74  O   UNL A   1      45.738  37.413  33.055  1.00  0.00    -0.744 OA
ENDBRANCH  70  71
ENDBRANCH  49  63
BRANCH  50  75
ATOM     75  C   UNL A   1      42.584  23.729  27.731  1.00  0.00     0.058 A 
ATOM     76  C   UNL A   1      42.375  22.625  28.569  1.00  0.00     0.135 A 
ATOM     77  C   UNL A   1      42.642  23.500  26.347  1.00  0.00     0.135 A 
ATOM     78  F   UNL A   1      42.317  22.796  29.899  1.00  0.00    -0.206 F 
ATOM     79  C   UNL A   1      42.253  21.337  28.061  1.00  0.00     0.059 A 
ATOM     80  C   UNL A   1      42.502  22.223  25.813  1.00  0.00     0.059 A 
ATOM     81  F   UNL A   1      42.821  24.526  25.502  1.00  0.00    -0.206 F 
ATOM     82  C   UNL A   1      42.322  21.145  26.680  1.00  0.00     0.060 A 
BRANCH  82  83
ATOM     83  S   UNL A   1      42.132  19.474  26.021  1.00  0.00     0.124 S 
ATOM     84  O   UNL A   1      42.982  19.528  24.838  1.00  0.00    -0.237 OA
ATOM     85  O   UNL A   1      42.621  18.649  27.122  1.00  0.00    -0.237 OA
ATOM     86  O   UNL A   1      40.697  19.379  25.768  1.00  0.00    -0.744 OA
ENDBRANCH  82  83
ENDBRANCH  50  75
BRANCH  62  87
ATOM     87  C   UNL A   1      48.017  27.222  30.333  1.00  0.00     0.058 A 
ATOM     88  C   UNL A   1      48.987  27.344  29.327  1.00  0.00     0.135 A 
ATOM     89  C   UNL A   1      48.430  26.774  31.597  1.00  0.00     0.135 A 
ATOM     90  F   UNL A   1      48.639  27.762  28.100  1.00  0.00    -0.206 F 
ATOM     91  C   UNL A   1      50.319  27.018  29.561  1.00  0.00     0.059 A 
ATOM     92  C   UNL A   1      49.760  26.462  31.860  1.00  0.00     0.059 A 
ATOM     93  F   UNL A   1      47.540  26.648  32.594  1.00  0.00    -0.206 F 
ATOM     94  C   UNL A   1      50.695  26.578  30.832  1.00  0.00     0.060 A 
BRANCH  94  95
ATOM     95  S   UNL A   1      52.433  26.191  31.138  1.00  0.00     0.124 S 
ATOM     96  O   UNL A   1      52.334  24.888  31.788  1.00  0.00    -0.237 OA
ATOM     97  O   UNL A   1      52.996  26.185  29.791  1.00  0.00    -0.237 OA
ATOM     98  O   UNL A   1      52.878  27.288  31.991  1.00  0.00    -0.744 OA
ENDBRANCH  94  95
ENDBRANCH  62  87
ENDBRANCH  36  37
ENDBRANCH  28  31
ENDBRANCH  26  27
ENDBRANCH   1  26
TORSDOF 16
ENDMDL
MODEL 2
REMARK VINA RESULT:     -11.4      2.510      3.229
REMARK SMILES CC1=C2C(=O)N(C[C@H]3CCCO3)C(=O)N=C2S[C@@H]1C(=O)NCCCCNC(=O)c1ccc(-c2c3nc(c(-c4c(F)cc(S(=O)(=O)[O-])cc4F)c4ccc([nH]4)c(-c4c(F)cc(S(=O)(=O)[O-])cc4F)c4nc(c(-c5c(F)cc(S(=O)(=O)[O-])cc5F)c5ccc2[nH]5)C=C4)C=C3)cc1
REMARK SMILES IDX 24 1 23 2 22 3 21 4 19 5 20 6 18 8 1 9 2 10 3 11 4 12 16 13
REMARK SMILES IDX 17 14 5 15 6 16 15 17 13 18 14 19 7 20 8 21 9 22 12 23 10 24
REMARK SMILES IDX 11 25 25 26 26 27 27 28 28 30 29 31 30 32 94 33 31 34 93 35
REMARK SMILES IDX 32 36 33 37 34 38 87 39 35 40 92 41 86 42 88 43 36 44 91 45
REMARK SMILES IDX 85 46 84 47 37 49 71 50 50 51 70 52 51 53 54 54 69 55 89 56
REMARK SMILES IDX 52 57 53 58 68 60 90 61 55 62 38 63 39 64 48 65 40 66 41 67
REMARK SMILES IDX 47 68 49 69 42 70 43 71 44 72 45 73 46 74 72 75 73 76 82 77
REMARK SMILES IDX 74 78 75 79 81 80 83 81 76 82 77 83 78 84 79 85 80 86 56 87
REMARK SMILES IDX 57 88 66 89 58 90 59 91 65 92 67 93 60 94 61 95 62 96 63 97
REMARK SMILES IDX 64 98
REMARK H PARENT 21 7 26 29 88 48 54 59
REMARK Flexibility Score: inf
ROOT
ATOM      1  C   UNL A   1      34.347  28.687  26.808  1.00  0.00     0.023 C 
ENDROOT
BRANCH   1   2
ATOM      2  C   UNL A   1      33.399  29.630  26.067  1.00  0.00     0.023 C 
BRANCH   2   3
ATOM      3  C   UNL A   1      33.081  29.198  24.641  1.00  0.00     0.116 C 
BRANCH   3   4
ATOM      4  N   UNL A   1      31.730  29.559  24.257  1.00  0.00    -0.355 N 
ATOM      5  C   UNL A   1      30.705  28.810  23.761  1.00  0.00     0.237 C 
ATOM      6  O   UNL A   1      29.649  29.401  23.507  1.00  0.00    -0.273 OA
ATOM      7  H   UNL A   1      31.515  30.513  24.377  1.00  0.00     0.163 HD
BRANCH   5   8
ATOM      8  C   UNL A   1      30.782  27.287  23.591  1.00  0.00     0.169 C 
ATOM      9  C   UNL A   1      30.879  26.760  26.125  1.00  0.00     0.042 C 
ATOM     10  C   UNL A   1      31.431  26.577  24.743  1.00  0.00    -0.035 C 
ATOM     11  C   UNL A   1      32.465  25.788  24.421  1.00  0.00     0.073 C 
ATOM     12  C   UNL A   1      33.279  24.963  25.300  1.00  0.00     0.264 C 
ATOM     13  C   UNL A   1      32.765  25.738  23.005  1.00  0.00     0.116 C 
ATOM     14  S   UNL A   1      31.723  26.800  22.101  1.00  0.00    -0.087 SA
ATOM     15  O   UNL A   1      33.235  25.122  26.509  1.00  0.00    -0.268 OA
ATOM     16  N   UNL A   1      34.030  24.022  24.635  1.00  0.00    -0.256 N 
ATOM     17  N   UNL A   1      33.673  25.011  22.471  1.00  0.00    -0.186 NA
ATOM     18  C   UNL A   1      34.367  24.133  23.275  1.00  0.00     0.351 C 
ATOM     19  O   UNL A   1      35.252  23.431  22.790  1.00  0.00    -0.246 OA
BRANCH  16  20
ATOM     20  C   UNL A   1      34.366  22.785  25.340  1.00  0.00     0.163 C 
BRANCH  20  21
ATOM     21  C   UNL A   1      33.249  21.809  25.779  1.00  0.00     0.138 C 
ATOM     22  C   UNL A   1      32.048  21.612  24.859  1.00  0.00     0.036 C 
ATOM     23  O   UNL A   1      33.862  20.484  25.761  1.00  0.00    -0.376 OA
ATOM     24  C   UNL A   1      32.605  20.750  23.757  1.00  0.00     0.031 C 
ATOM     25  C   UNL A   1      33.492  19.810  24.541  1.00  0.00     0.160 C 
ENDBRANCH  20  21
ENDBRANCH  16  20
ENDBRANCH   5   8
ENDBRANCH   3   4
ENDBRANCH   2   3
ENDBRANCH   1   2
BRANCH   1  26
ATOM     26  C   UNL A   1      35.539  29.363  27.481  1.00  0.00     0.116 C 
BRANCH  26  27
ATOM     27  N   UNL A   1      35.306  29.683  28.882  1.00  0.00    -0.352 N 
ATOM     28  C   UNL A   1      36.226  29.802  29.896  1.00  0.00     0.251 C 
ATOM     29  H   UNL A   1      34.367  29.834  29.135  1.00  0.00     0.163 HD
ATOM     30  O   UNL A   1      35.854  29.980  31.051  1.00  0.00    -0.269 OA
BRANCH  28  31
ATOM     31  C   UNL A   1      37.664  29.671  29.583  1.00  0.00     0.039 A 
ATOM     32  C   UNL A   1      38.558  29.414  30.623  1.00  0.00     0.014 A 
ATOM     33  C   UNL A   1      38.113  29.747  28.262  1.00  0.00     0.014 A 
ATOM     34  C   UNL A   1      39.897  29.151  30.329  1.00  0.00     0.010 A 
ATOM     35  C   UNL A   1      39.435  29.428  27.965  1.00  0.00     0.010 A 
ATOM     36  C   UNL A   1      40.335  29.114  28.995  1.00  0.00    -0.014 A 
BRANCH  36  37
ATOM     37  C   UNL A   1      41.724  28.720  28.653  1.00  0.00     0.031 A 
ATOM     38  C   UNL A   1      42.814  29.755  28.610  1.00  0.00     0.074 A 
ATOM     39  C   UNL A   1      41.985  27.445  28.305  1.00  0.00     0.049 A 
ATOM     40  N   UNL A   1      44.060  29.624  28.239  1.00  0.00    -0.248 NA
ATOM     41  C   UNL A   1      42.447  31.121  29.015  1.00  0.00     0.031 C 
ATOM     42  C   UNL A   1      41.000  26.360  28.256  1.00  0.00     0.029 A 
ATOM     43  N   UNL A   1      43.155  26.844  27.911  1.00  0.00    -0.354 N 
ATOM     44  C   UNL A   1      44.624  30.889  28.352  1.00  0.00     0.074 A 
ATOM     45  C   UNL A   1      43.572  31.783  28.786  1.00  0.00     0.031 C 
ATOM     46  C   UNL A   1      41.608  25.228  27.866  1.00  0.00     0.029 A 
ATOM     47  C   UNL A   1      43.017  25.510  27.607  1.00  0.00     0.049 A 
ATOM     48  H   UNL A   1      44.012  27.324  27.851  1.00  0.00     0.167 HD
ATOM     49  C   UNL A   1      45.906  31.265  28.134  1.00  0.00     0.037 A 
ATOM     50  C   UNL A   1      43.921  24.618  27.159  1.00  0.00     0.037 A 
ATOM     51  C   UNL A   1      46.957  30.367  27.731  1.00  0.00     0.049 A 
ATOM     52  C   UNL A   1      45.343  25.059  26.943  1.00  0.00     0.074 A 
ATOM     53  C   UNL A   1      48.298  30.645  27.532  1.00  0.00     0.029 A 
ATOM     54  N   UNL A   1      46.786  29.015  27.474  1.00  0.00    -0.354 N 
ATOM     55  N   UNL A   1      45.868  26.250  27.101  1.00  0.00    -0.248 NA
ATOM     56  C   UNL A   1      46.296  24.034  26.493  1.00  0.00     0.031 C 
ATOM     57  C   UNL A   1      48.935  29.465  27.130  1.00  0.00     0.029 A 
ATOM     58  C   UNL A   1      47.995  28.447  27.111  1.00  0.00     0.049 A 
ATOM     59  H   UNL A   1      45.931  28.530  27.540  1.00  0.00     0.167 HD
ATOM     60  C   UNL A   1      47.216  26.114  26.788  1.00  0.00     0.074 A 
ATOM     61  C   UNL A   1      47.429  24.723  26.446  1.00  0.00     0.031 C 
ATOM     62  C   UNL A   1      48.189  27.057  26.783  1.00  0.00     0.037 A 
BRANCH  49  63
ATOM     63  C   UNL A   1      46.251  32.711  28.346  1.00  0.00     0.058 A 
ATOM     64  C   UNL A   1      46.713  33.176  29.588  1.00  0.00     0.135 A 
ATOM     65  C   UNL A   1      46.162  33.632  27.291  1.00  0.00     0.135 A 
ATOM     66  F   UNL A   1      46.799  32.340  30.633  1.00  0.00    -0.206 F 
ATOM     67  C   UNL A   1      47.058  34.510  29.781  1.00  0.00     0.059 A 
ATOM     68  C   UNL A   1      46.522  34.967  27.455  1.00  0.00     0.059 A 
ATOM     69  F   UNL A   1      45.722  33.239  26.084  1.00  0.00    -0.206 F 
ATOM     70  C   UNL A   1      46.959  35.397  28.708  1.00  0.00     0.060 A 
BRANCH  70  71
ATOM     71  S   UNL A   1      47.424  37.122  28.969  1.00  0.00     0.124 S 
ATOM     72  O   UNL A   1      48.640  37.219  28.168  1.00  0.00    -0.237 OA
ATOM     73  O   UNL A   1      46.265  37.842  28.449  1.00  0.00    -0.237 OA
ATOM     74  O   UNL A   1      47.615  37.208  30.414  1.00  0.00    -0.744 OA
ENDBRANCH  70  71
ENDBRANCH  49  63
BRANCH  50  75
ATOM     75  C   UNL A   1      43.516  23.214  26.895  1.00  0.00     0.058 A 
ATOM     76  C   UNL A   1      43.213  22.341  27.949  1.00  0.00     0.135 A 
ATOM     77  C   UNL A   1      43.430  22.716  25.586  1.00  0.00     0.135 A 
ATOM     78  F   UNL A   1      43.286  22.772  29.218  1.00  0.00    -0.206 F 
ATOM     79  C   UNL A   1      42.861  21.015  27.720  1.00  0.00     0.059 A 
ATOM     80  C   UNL A   1      43.059  21.400  25.329  1.00  0.00     0.059 A 
ATOM     81  F   UNL A   1      43.691  23.517  24.542  1.00  0.00    -0.206 F 
ATOM     82  C   UNL A   1      42.790  20.552  26.404  1.00  0.00     0.060 A 
BRANCH  82  83
ATOM     83  S   UNL A   1      42.303  18.839  26.108  1.00  0.00     0.124 S 
ATOM     84  O   UNL A   1      40.894  18.992  25.767  1.00  0.00    -0.237 OA
ATOM     85  O   UNL A   1      43.186  18.450  25.013  1.00  0.00    -0.237 OA
ATOM     86  O   UNL A   1      42.580  18.190  27.386  1.00  0.00    -0.744 OA
ENDBRANCH  82  83
ENDBRANCH  50  75
BRANCH  62  87
ATOM     87  C   UNL A   1      49.576  26.611  26.420  1.00  0.00     0.058 A 
ATOM     88  C   UNL A   1      50.412  25.987  27.358  1.00  0.00     0.135 A 
ATOM     89  C   UNL A   1      50.054  26.766  25.110  1.00  0.00     0.135 A 
ATOM     90  F   UNL A   1      50.002  25.823  28.625  1.00  0.00    -0.206 F 
ATOM     91  C   UNL A   1      51.685  25.547  27.014  1.00  0.00     0.059 A 
ATOM     92  C   UNL A   1      51.316  26.314  24.738  1.00  0.00     0.059 A 
ATOM     93  F   UNL A   1      49.288  27.350  24.175  1.00  0.00    -0.206 F 
ATOM     94  C   UNL A   1      52.128  25.714  25.700  1.00  0.00     0.060 A 
BRANCH  94  95
ATOM     95  S   UNL A   1      53.769  25.107  25.252  1.00  0.00     0.124 S 
ATOM     96  O   UNL A   1      54.600  25.716  26.285  1.00  0.00    -0.237 OA
ATOM     97  O   UNL A   1      53.604  23.659  25.344  1.00  0.00    -0.237 OA
ATOM     98  O   UNL A   1      53.963  25.623  23.901  1.00  0.00    -0.744 OA
ENDBRANCH  94  95
ENDBRANCH  62  87
ENDBRANCH  36  37
ENDBRANCH  28  31
ENDBRANCH  26  27
ENDBRANCH   1  26
TORSDOF 16
ENDMDL
MODEL 3
REMARK VINA RESULT:     -11.4      0.435      8.136
REMARK SMILES CC1=C2C(=O)N(C[C@H]3CCCO3)C(=O)N=C2S[C@@H]1C(=O)NCCCCNC(=O)c1ccc(-c2c3nc(c(-c4c(F)cc(S(=O)(=O)[O-])cc4F)c4ccc([nH]4)c(-c4c(F)cc(S(=O)(=O)[O-])cc4F)c4nc(c(-c5c(F)cc(S(=O)(=O)[O-])cc5F)c5ccc2[nH]5)C=C4)C=C3)cc1
REMARK SMILES IDX 24 1 23 2 22 3 21 4 19 5 20 6 18 8 1 9 2 10 3 11 4 12 16 13
REMARK SMILES IDX 17 14 5 15 6 16 15 17 13 18 14 19 7 20 8 21 9 22 12 23 10 24
REMARK SMILES IDX 11 25 25 26 26 27 27 28 28 30 29 31 30 32 94 33 31 34 93 35
REMARK SMILES IDX 32 36 33 37 34 38 87 39 35 40 92 41 86 42 88 43 36 44 91 45
REMARK SMILES IDX 85 46 84 47 37 49 71 50 50 51 70 52 51 53 54 54 69 55 89 56
REMARK SMILES IDX 52 57 53 58 68 60 90 61 55 62 38 63 39 64 48 65 40 66 41 67
REMARK SMILES IDX 47 68 49 69 42 70 43 71 44 72 45 73 46 74 72 75 73 76 82 77
REMARK SMILES IDX 74 78 75 79 81 80 83 81 76 82 77 83 78 84 79 85 80 86 56 87
REMARK SMILES IDX 57 88 66 89 58 90 59 91 65 92 67 93 60 94 61 95 62 96 63 97
REMARK SMILES IDX 64 98
REMARK H PARENT 21 7 26 29 88 48 54 59
REMARK Flexibility Score: inf
ROOT
ATOM      1  C   UNL A   1      34.012  28.189  25.719  1.00  0.00     0.023 C 
ENDROOT
BRANCH   1   2
ATOM      2  C   UNL A   1      33.241  29.211  24.884  1.00  0.00     0.023 C 
BRANCH   2   3
ATOM      3  C   UNL A   1      33.192  28.888  23.395  1.00  0.00     0.116 C 
BRANCH   3   4
ATOM      4  N   UNL A   1      31.867  29.093  22.843  1.00  0.00    -0.355 N 
ATOM      5  C   UNL A   1      30.933  28.207  22.394  1.00  0.00     0.237 C 
ATOM      6  O   UNL A   1      29.877  28.677  21.956  1.00  0.00    -0.273 OA
ATOM      7  H   UNL A   1      31.593  30.036  22.782  1.00  0.00     0.163 HD
BRANCH   5   8
ATOM      8  C   UNL A   1      31.104  26.685  22.491  1.00  0.00     0.169 C 
ATOM      9  C   UNL A   1      30.329  26.503  24.955  1.00  0.00     0.042 C 
ATOM     10  C   UNL A   1      31.330  26.183  23.886  1.00  0.00    -0.035 C 
ATOM     11  C   UNL A   1      32.432  25.439  24.057  1.00  0.00     0.073 C 
ATOM     12  C   UNL A   1      32.911  24.801  25.272  1.00  0.00     0.264 C 
ATOM     13  C   UNL A   1      33.206  25.227  22.852  1.00  0.00     0.116 C 
ATOM     14  S   UNL A   1      32.516  26.079  21.499  1.00  0.00    -0.087 SA
ATOM     15  O   UNL A   1      32.446  25.114  26.357  1.00  0.00    -0.268 OA
ATOM     16  N   UNL A   1      33.871  23.841  25.051  1.00  0.00    -0.256 N 
ATOM     17  N   UNL A   1      34.262  24.508  22.773  1.00  0.00    -0.186 NA
ATOM     18  C   UNL A   1      34.655  23.797  23.886  1.00  0.00     0.351 C 
ATOM     19  O   UNL A   1      35.672  23.107  23.841  1.00  0.00    -0.246 OA
BRANCH  16  20
ATOM     20  C   UNL A   1      33.973  22.736  26.005  1.00  0.00     0.163 C 
BRANCH  20  21
ATOM     21  C   UNL A   1      32.864  21.658  26.073  1.00  0.00     0.138 C 
ATOM     22  C   UNL A   1      31.912  21.514  24.889  1.00  0.00     0.036 C 
ATOM     23  O   UNL A   1      33.565  20.378  26.053  1.00  0.00    -0.376 OA
ATOM     24  C   UNL A   1      32.761  20.820  23.856  1.00  0.00     0.031 C 
ATOM     25  C   UNL A   1      33.524  19.839  24.716  1.00  0.00     0.160 C 
ENDBRANCH  20  21
ENDBRANCH  16  20
ENDBRANCH   5   8
ENDBRANCH   3   4
ENDBRANCH   2   3
ENDBRANCH   1   2
BRANCH   1  26
ATOM     26  C   UNL A   1      33.829  28.315  27.229  1.00  0.00     0.116 C 
BRANCH  26  27
ATOM     27  N   UNL A   1      33.687  29.692  27.681  1.00  0.00    -0.352 N 
ATOM     28  C   UNL A   1      34.632  30.503  28.262  1.00  0.00     0.251 C 
ATOM     29  H   UNL A   1      32.798  30.094  27.551  1.00  0.00     0.163 HD
ATOM     30  O   UNL A   1      34.321  31.614  28.679  1.00  0.00    -0.269 OA
BRANCH  28  31
ATOM     31  C   UNL A   1      36.013  30.002  28.416  1.00  0.00     0.039 A 
ATOM     32  C   UNL A   1      36.883  30.084  27.327  1.00  0.00     0.014 A 
ATOM     33  C   UNL A   1      36.457  29.508  29.645  1.00  0.00     0.014 A 
ATOM     34  C   UNL A   1      38.227  29.744  27.495  1.00  0.00     0.010 A 
ATOM     35  C   UNL A   1      37.808  29.224  29.825  1.00  0.00     0.010 A 
ATOM     36  C   UNL A   1      38.707  29.353  28.756  1.00  0.00    -0.014 A 
BRANCH  36  37
ATOM     37  C   UNL A   1      40.151  29.103  28.984  1.00  0.00     0.031 A 
ATOM     38  C   UNL A   1      40.748  27.764  28.653  1.00  0.00     0.074 A 
ATOM     39  C   UNL A   1      40.906  30.058  29.562  1.00  0.00     0.049 A 
ATOM     40  N   UNL A   1      41.959  27.324  28.871  1.00  0.00    -0.248 NA
ATOM     41  C   UNL A   1      39.857  26.781  28.014  1.00  0.00     0.031 C 
ATOM     42  C   UNL A   1      40.429  31.380  29.979  1.00  0.00     0.029 A 
ATOM     43  N   UNL A   1      42.233  30.060  29.916  1.00  0.00    -0.354 N 
ATOM     44  C   UNL A   1      41.975  26.014  28.411  1.00  0.00     0.074 A 
ATOM     45  C   UNL A   1      40.640  25.715  27.939  1.00  0.00     0.031 C 
ATOM     46  C   UNL A   1      41.449  32.067  30.520  1.00  0.00     0.029 A 
ATOM     47  C   UNL A   1      42.643  31.226  30.518  1.00  0.00     0.049 A 
ATOM     48  H   UNL A   1      42.834  29.298  29.753  1.00  0.00     0.167 HD
ATOM     49  C   UNL A   1      43.014  25.146  28.366  1.00  0.00     0.037 A 
ATOM     50  C   UNL A   1      43.841  31.575  31.023  1.00  0.00     0.037 A 
ATOM     51  C   UNL A   1      44.348  25.456  28.808  1.00  0.00     0.049 A 
ATOM     52  C   UNL A   1      44.983  30.598  30.944  1.00  0.00     0.074 A 
ATOM     53  C   UNL A   1      45.479  24.660  28.759  1.00  0.00     0.029 A 
ATOM     54  N   UNL A   1      44.733  26.663  29.374  1.00  0.00    -0.354 N 
ATOM     55  N   UNL A   1      44.991  29.380  30.461  1.00  0.00    -0.248 NA
ATOM     56  C   UNL A   1      46.280  31.047  31.472  1.00  0.00     0.031 C 
ATOM     57  C   UNL A   1      46.544  25.377  29.318  1.00  0.00     0.029 A 
ATOM     58  C   UNL A   1      46.082  26.629  29.686  1.00  0.00     0.049 A 
ATOM     59  H   UNL A   1      44.136  27.430  29.532  1.00  0.00     0.167 HD
ATOM     60  C   UNL A   1      46.295  28.921  30.610  1.00  0.00     0.074 A 
ATOM     61  C   UNL A   1      47.051  29.999  31.215  1.00  0.00     0.031 C 
ATOM     62  C   UNL A   1      46.819  27.717  30.279  1.00  0.00     0.037 A 
BRANCH  49  63
ATOM     63  C   UNL A   1      42.754  23.780  27.800  1.00  0.00     0.058 A 
ATOM     64  C   UNL A   1      42.505  22.679  28.635  1.00  0.00     0.135 A 
ATOM     65  C   UNL A   1      42.708  23.576  26.412  1.00  0.00     0.135 A 
ATOM     66  F   UNL A   1      42.554  22.818  29.968  1.00  0.00    -0.206 F 
ATOM     67  C   UNL A   1      42.238  21.418  28.113  1.00  0.00     0.059 A 
ATOM     68  C   UNL A   1      42.422  22.327  25.867  1.00  0.00     0.059 A 
ATOM     69  F   UNL A   1      42.944  24.595  25.569  1.00  0.00    -0.206 F 
ATOM     70  C   UNL A   1      42.198  21.252  26.728  1.00  0.00     0.060 A 
BRANCH  70  71
ATOM     71  S   UNL A   1      41.836  19.612  26.065  1.00  0.00     0.124 S 
ATOM     72  O   UNL A   1      42.770  19.539  24.945  1.00  0.00    -0.237 OA
ATOM     73  O   UNL A   1      42.138  18.741  27.198  1.00  0.00    -0.237 OA
ATOM     74  O   UNL A   1      40.425  19.696  25.702  1.00  0.00    -0.744 OA
ENDBRANCH  70  71
ENDBRANCH  49  63
BRANCH  50  75
ATOM     75  C   UNL A   1      44.031  32.913  31.639  1.00  0.00     0.058 A 
ATOM     76  C   UNL A   1      43.863  33.102  33.018  1.00  0.00     0.135 A 
ATOM     77  C   UNL A   1      44.378  34.029  30.861  1.00  0.00     0.135 A 
ATOM     78  F   UNL A   1      43.527  32.065  33.800  1.00  0.00    -0.206 F 
ATOM     79  C   UNL A   1      44.009  34.354  33.605  1.00  0.00     0.059 A 
ATOM     80  C   UNL A   1      44.550  35.287  31.428  1.00  0.00     0.059 A 
ATOM     81  F   UNL A   1      44.568  33.895  29.540  1.00  0.00    -0.206 F 
ATOM     82  C   UNL A   1      44.349  35.444  32.799  1.00  0.00     0.060 A 
BRANCH  82  83
ATOM     83  S   UNL A   1      44.567  37.062  33.569  1.00  0.00     0.124 S 
ATOM     84  O   UNL A   1      45.621  37.638  32.743  1.00  0.00    -0.237 OA
ATOM     85  O   UNL A   1      43.242  37.657  33.421  1.00  0.00    -0.237 OA
ATOM     86  O   UNL A   1      44.945  36.729  34.940  1.00  0.00    -0.744 OA
ENDBRANCH  82  83
ENDBRANCH  50  75
BRANCH  62  87
ATOM     87  C   UNL A   1      48.283  27.508  30.538  1.00  0.00     0.058 A 
ATOM     88  C   UNL A   1      48.741  26.947  31.740  1.00  0.00     0.135 A 
ATOM     89  C   UNL A   1      49.232  27.828  29.556  1.00  0.00     0.135 A 
ATOM     90  F   UNL A   1      47.871  26.631  32.712  1.00  0.00    -0.206 F 
ATOM     91  C   UNL A   1      50.095  26.726  31.967  1.00  0.00     0.059 A 
ATOM     92  C   UNL A   1      50.590  27.596  29.752  1.00  0.00     0.059 A 
ATOM     93  F   UNL A   1      48.842  28.360  28.386  1.00  0.00    -0.206 F 
ATOM     94  C   UNL A   1      51.012  27.054  30.966  1.00  0.00     0.060 A 
BRANCH  94  95
ATOM     95  S   UNL A   1      52.765  26.729  31.254  1.00  0.00     0.124 S 
ATOM     96  O   UNL A   1      53.185  27.957  31.922  1.00  0.00    -0.237 OA
ATOM     97  O   UNL A   1      52.730  25.534  32.090  1.00  0.00    -0.237 OA
ATOM     98  O   UNL A   1      53.297  26.530  29.910  1.00  0.00    -0.744 OA
ENDBRANCH  94  95
ENDBRANCH  62  87
ENDBRANCH  36  37
ENDBRANCH  28  31
ENDBRANCH  26  27
ENDBRANCH   1  26
TORSDOF 16
ENDMDL
