MODEL 1
REMARK VINA RESULT:     -11.9      0.000      0.000
REMARK SMILES C[C@@H](C(=O)NCCCCNC(=O)c1ccc(-c2c3nc(c(-c4c(F)cc(S(=O)(=O)[O-])cc4F)c4ccc([nH]4)c(-c4c(F)cc(S(=O)(=O)[O-])cc4F)c4nc(c(-c5c(F)cc(S(=O)(=O)[O-])cc5F)c5ccc2[nH]5)C=C4)C=C3)cc1)c1ccc(C[C@H]2CCC[C@H]2O)cc1
REMARK SMILES IDX 7 1 6 2 5 3 3 4 4 5 2 7 1 8 79 9 80 10 91 11 81 12 90 13
REMARK SMILES IDX 82 14 83 15 84 16 85 17 88 18 86 19 87 20 89 21 8 23 9 24
REMARK SMILES IDX 10 25 11 26 12 28 13 29 14 30 78 31 15 32 77 33 16 34 17 35
REMARK SMILES IDX 18 36 71 37 19 38 76 39 70 40 72 41 20 42 75 43 69 44 68 45
REMARK SMILES IDX 21 47 55 48 34 49 54 50 35 51 38 52 53 53 73 54 36 55 37 56
REMARK SMILES IDX 52 58 74 59 39 60 22 61 23 62 32 63 24 64 25 65 31 66 33 67
REMARK SMILES IDX 26 68 27 69 28 70 29 71 30 72 56 73 57 74 66 75 58 76 59 77
REMARK SMILES IDX 65 78 67 79 60 80 61 81 62 82 63 83 64 84 40 85 41 86 50 87
REMARK SMILES IDX 42 88 43 89 49 90 51 91 44 92 45 93 46 94 47 95 48 96
REMARK H PARENT 5 6 89 22 10 27 72 46 38 57
REMARK Flexibility Score: inf
ROOT
ATOM      1  C   UNL A   1      32.067  27.169  25.728  1.00  0.00     0.023 C 
ENDROOT
BRANCH   1   2
ATOM      2  C   UNL A   1      33.169  26.416  24.973  1.00  0.00     0.116 C 
BRANCH   2   3
ATOM      3  N   UNL A   1      33.378  26.995  23.662  1.00  0.00    -0.356 N 
ATOM      4  C   UNL A   1      33.304  26.394  22.437  1.00  0.00     0.227 C 
ATOM      5  O   UNL A   1      33.982  26.903  21.543  1.00  0.00    -0.274 OA
ATOM      6  H   UNL A   1      33.603  27.952  23.652  1.00  0.00     0.163 HD
BRANCH   4   7
ATOM      7  C   UNL A   1      32.428  25.141  22.252  1.00  0.00     0.105 C 
ATOM      8  C   UNL A   1      30.994  25.482  22.674  1.00  0.00     0.023 C 
BRANCH   7   9
ATOM      9  C   UNL A   1      32.908  23.861  22.949  1.00  0.00    -0.036 A 
ATOM     10  C   UNL A   1      32.050  22.950  23.576  1.00  0.00     0.005 A 
ATOM     11  C   UNL A   1      34.287  23.582  23.001  1.00  0.00     0.005 A 
ATOM     12  C   UNL A   1      32.537  21.796  24.191  1.00  0.00     0.004 A 
ATOM     13  C   UNL A   1      34.778  22.434  23.631  1.00  0.00     0.004 A 
ATOM     14  C   UNL A   1      33.906  21.539  24.256  1.00  0.00    -0.048 A 
BRANCH  14  15
ATOM     15  C   UNL A   1      34.426  20.342  25.008  1.00  0.00     0.041 C 
BRANCH  15  16
ATOM     16  C   UNL A   1      33.956  18.956  24.534  1.00  0.00     0.022 C 
ATOM     17  C   UNL A   1      35.021  17.847  24.516  1.00  0.00     0.007 C 
ATOM     18  C   UNL A   1      32.747  18.321  25.239  1.00  0.00     0.117 C 
ATOM     19  C   UNL A   1      34.268  16.532  24.736  1.00  0.00     0.003 C 
ATOM     20  C   UNL A   1      32.785  16.886  24.728  1.00  0.00     0.032 C 
BRANCH  18  21
ATOM     21  O   UNL A   1      32.820  18.298  26.652  1.00  0.00    -0.393 OA
ATOM     22  H   UNL A   1      33.189  17.449  26.943  1.00  0.00     0.210 HD
ENDBRANCH  18  21
ENDBRANCH  15  16
ENDBRANCH  14  15
ENDBRANCH   7   9
ENDBRANCH   4   7
ENDBRANCH   2   3
ENDBRANCH   1   2
BRANCH   1  23
ATOM     23  C   UNL A   1      32.487  27.731  27.089  1.00  0.00     0.023 C 
BRANCH  23  24
ATOM     24  C   UNL A   1      33.810  28.479  27.091  1.00  0.00     0.116 C 
BRANCH  24  25
ATOM     25  N   UNL A   1      33.674  29.851  27.561  1.00  0.00    -0.352 N 
ATOM     26  C   UNL A   1      34.590  30.614  28.244  1.00  0.00     0.251 C 
ATOM     27  H   UNL A   1      32.813  30.288  27.365  1.00  0.00     0.163 HD
ATOM     28  O   UNL A   1      34.276  31.703  28.696  1.00  0.00    -0.269 OA
BRANCH  26  29
ATOM     29  C   UNL A   1      35.953  30.078  28.446  1.00  0.00     0.039 A 
ATOM     30  C   UNL A   1      36.858  30.104  27.382  1.00  0.00     0.014 A 
ATOM     31  C   UNL A   1      36.340  29.591  29.698  1.00  0.00     0.014 A 
ATOM     32  C   UNL A   1      38.178  29.702  27.593  1.00  0.00     0.010 A 
ATOM     33  C   UNL A   1      37.669  29.255  29.920  1.00  0.00     0.010 A 
ATOM     34  C   UNL A   1      38.601  29.306  28.871  1.00  0.00    -0.014 A 
BRANCH  34  35
ATOM     35  C   UNL A   1      40.005  28.918  29.151  1.00  0.00     0.031 A 
ATOM     36  C   UNL A   1      40.958  29.944  29.695  1.00  0.00     0.074 A 
ATOM     37  C   UNL A   1      40.446  27.693  28.810  1.00  0.00     0.049 A 
ATOM     38  N   UNL A   1      42.255  29.877  29.836  1.00  0.00    -0.248 NA
ATOM     39  C   UNL A   1      40.373  31.234  30.097  1.00  0.00     0.031 C 
ATOM     40  C   UNL A   1      39.625  26.624  28.237  1.00  0.00     0.029 A 
ATOM     41  N   UNL A   1      41.704  27.149  28.870  1.00  0.00    -0.354 N 
ATOM     42  C   UNL A   1      42.648  31.124  30.306  1.00  0.00     0.074 A 
ATOM     43  C   UNL A   1      41.454  31.939  30.393  1.00  0.00     0.031 C 
ATOM     44  C   UNL A   1      40.399  25.553  28.000  1.00  0.00     0.029 A 
ATOM     45  C   UNL A   1      41.777  25.872  28.366  1.00  0.00     0.049 A 
ATOM     46  H   UNL A   1      42.481  27.626  29.240  1.00  0.00     0.167 HD
ATOM     47  C   UNL A   1      43.888  31.548  30.645  1.00  0.00     0.037 A 
ATOM     48  C   UNL A   1      42.837  25.057  28.199  1.00  0.00     0.037 A 
ATOM     49  C   UNL A   1      45.062  30.718  30.592  1.00  0.00     0.049 A 
ATOM     50  C   UNL A   1      44.201  25.532  28.616  1.00  0.00     0.074 A 
ATOM     51  C   UNL A   1      46.356  31.030  30.970  1.00  0.00     0.029 A 
ATOM     52  N   UNL A   1      45.082  29.407  30.137  1.00  0.00    -0.354 N 
ATOM     53  N   UNL A   1      44.552  26.702  29.099  1.00  0.00    -0.248 NA
ATOM     54  C   UNL A   1      45.313  24.582  28.473  1.00  0.00     0.031 C 
ATOM     55  C   UNL A   1      47.164  29.916  30.719  1.00  0.00     0.029 A 
ATOM     56  C   UNL A   1      46.367  28.898  30.220  1.00  0.00     0.049 A 
ATOM     57  H   UNL A   1      44.299  28.912  29.806  1.00  0.00     0.167 HD
ATOM     58  C   UNL A   1      45.919  26.618  29.342  1.00  0.00     0.074 A 
ATOM     59  C   UNL A   1      46.330  25.283  28.954  1.00  0.00     0.031 C 
ATOM     60  C   UNL A   1      46.753  27.559  29.846  1.00  0.00     0.037 A 
BRANCH  47  61
ATOM     61  C   UNL A   1      44.028  32.976  31.093  1.00  0.00     0.058 A 
ATOM     62  C   UNL A   1      43.984  33.331  32.450  1.00  0.00     0.135 A 
ATOM     63  C   UNL A   1      44.192  34.003  30.151  1.00  0.00     0.135 A 
ATOM     64  F   UNL A   1      43.812  32.388  33.390  1.00  0.00    -0.206 F 
ATOM     65  C   UNL A   1      44.049  34.660  32.856  1.00  0.00     0.059 A 
ATOM     66  C   UNL A   1      44.287  35.338  30.536  1.00  0.00     0.059 A 
ATOM     67  F   UNL A   1      44.242  33.720  28.840  1.00  0.00    -0.206 F 
ATOM     68  C   UNL A   1      44.190  35.657  31.890  1.00  0.00     0.060 A 
BRANCH  68  69
ATOM     69  S   UNL A   1      44.236  37.381  32.425  1.00  0.00     0.124 S 
ATOM     70  O   UNL A   1      43.898  38.076  31.186  1.00  0.00    -0.237 OA
ATOM     71  O   UNL A   1      43.217  37.416  33.468  1.00  0.00    -0.237 OA
ATOM     72  O   UNL A   1      45.608  37.556  32.888  1.00  0.00    -0.744 OA
ENDBRANCH  68  69
ENDBRANCH  47  61
BRANCH  48  73
ATOM     73  C   UNL A   1      42.634  23.698  27.635  1.00  0.00     0.058 A 
ATOM     74  C   UNL A   1      42.853  23.448  26.273  1.00  0.00     0.135 A 
ATOM     75  C   UNL A   1      42.272  22.615  28.451  1.00  0.00     0.135 A 
ATOM     76  F   UNL A   1      43.194  24.454  25.454  1.00  0.00    -0.206 F 
ATOM     77  C   UNL A   1      42.723  22.171  25.737  1.00  0.00     0.059 A 
ATOM     78  C   UNL A   1      42.154  21.325  27.942  1.00  0.00     0.059 A 
ATOM     79  F   UNL A   1      42.067  22.801  29.764  1.00  0.00    -0.206 F 
ATOM     80  C   UNL A   1      42.380  21.114  26.582  1.00  0.00     0.060 A 
BRANCH  80  81
ATOM     81  S   UNL A   1      42.298  19.447  25.892  1.00  0.00     0.124 S 
ATOM     82  O   UNL A   1      42.874  18.652  26.972  1.00  0.00    -0.237 OA
ATOM     83  O   UNL A   1      40.866  19.277  25.668  1.00  0.00    -0.237 OA
ATOM     84  O   UNL A   1      43.107  19.546  24.680  1.00  0.00    -0.744 OA
ENDBRANCH  80  81
ENDBRANCH  48  73
BRANCH  60  85
ATOM     85  C   UNL A   1      48.190  27.175  30.056  1.00  0.00     0.058 A 
ATOM     86  C   UNL A   1      49.191  27.541  29.144  1.00  0.00     0.135 A 
ATOM     87  C   UNL A   1      48.577  26.508  31.229  1.00  0.00     0.135 A 
ATOM     88  F   UNL A   1      48.869  28.174  28.006  1.00  0.00    -0.206 F 
ATOM     89  C   UNL A   1      50.530  27.254  29.386  1.00  0.00     0.059 A 
ATOM     90  C   UNL A   1      49.912  26.227  31.501  1.00  0.00     0.059 A 
ATOM     91  F   UNL A   1      47.656  26.143  32.135  1.00  0.00    -0.206 F 
ATOM     92  C   UNL A   1      50.881  26.602  30.571  1.00  0.00     0.060 A 
BRANCH  92  93
ATOM     93  S   UNL A   1      52.628  26.292  30.907  1.00  0.00     0.124 S 
ATOM     94  O   UNL A   1      53.026  27.532  31.564  1.00  0.00    -0.237 OA
ATOM     95  O   UNL A   1      52.580  25.109  31.760  1.00  0.00    -0.237 OA
ATOM     96  O   UNL A   1      53.195  26.074  29.579  1.00  0.00    -0.744 OA
ENDBRANCH  92  93
ENDBRANCH  60  85
ENDBRANCH  34  35
ENDBRANCH  26  29
ENDBRANCH  24  25
ENDBRANCH  23  24
ENDBRANCH   1  23
TORSDOF 18
ENDMDL
MODEL 2
REMARK VINA RESULT:     -11.7      2.557      3.258
REMARK SMILES C[C@@H](C(=O)NCCCCNC(=O)c1ccc(-c2c3nc(c(-c4c(F)cc(S(=O)(=O)[O-])cc4F)c4ccc([nH]4)c(-c4c(F)cc(S(=O)(=O)[O-])cc4F)c4nc(c(-c5c(F)cc(S(=O)(=O)[O-])cc5F)c5ccc2[nH]5)C=C4)C=C3)cc1)c1ccc(C[C@H]2CCC[C@H]2O)cc1
REMARK SMILES IDX 7 1 6 2 5 3 3 4 4 5 2 7 1 8 79 9 80 10 91 11 81 12 90 13
REMARK SMILES IDX 82 14 83 15 84 16 85 17 88 18 86 19 87 20 89 21 8 23 9 24
REMARK SMILES IDX 10 25 11 26 12 28 13 29 14 30 78 31 15 32 77 33 16 34 17 35
REMARK SMILES IDX 18 36 71 37 19 38 76 39 70 40 72 41 20 42 75 43 69 44 68 45
REMARK SMILES IDX 21 47 55 48 34 49 54 50 35 51 38 52 53 53 73 54 36 55 37 56
REMARK SMILES IDX 52 58 74 59 39 60 22 61 23 62 32 63 24 64 25 65 31 66 33 67
REMARK SMILES IDX 26 68 27 69 28 70 29 71 30 72 56 73 57 74 66 75 58 76 59 77
REMARK SMILES IDX 65 78 67 79 60 80 61 81 62 82 63 83 64 84 40 85 41 86 50 87
REMARK SMILES IDX 42 88 43 89 49 90 51 91 44 92 45 93 46 94 47 95 48 96
REMARK H PARENT 5 6 89 22 10 27 72 46 38 57
REMARK Flexibility Score: inf
ROOT
ATOM      1  C   UNL A   1      33.732  27.710  26.670  1.00  0.00     0.023 C 
ENDROOT
BRANCH   1   2
ATOM      2  C   UNL A   1      32.281  27.541  26.203  1.00  0.00     0.116 C 
BRANCH   2   3
ATOM      3  N   UNL A   1      31.707  26.328  26.748  1.00  0.00    -0.356 N 
ATOM      4  C   UNL A   1      31.294  25.203  26.090  1.00  0.00     0.227 C 
ATOM      5  O   UNL A   1      30.416  24.543  26.646  1.00  0.00    -0.274 OA
ATOM      6  H   UNL A   1      31.598  26.311  27.725  1.00  0.00     0.163 HD
BRANCH   4   7
ATOM      7  C   UNL A   1      31.911  24.846  24.725  1.00  0.00     0.105 C 
ATOM      8  C   UNL A   1      31.124  25.573  23.629  1.00  0.00     0.023 C 
BRANCH   7   9
ATOM      9  C   UNL A   1      32.040  23.352  24.401  1.00  0.00    -0.036 A 
ATOM     10  C   UNL A   1      32.297  22.368  25.364  1.00  0.00     0.005 A 
ATOM     11  C   UNL A   1      31.930  22.926  23.064  1.00  0.00     0.005 A 
ATOM     12  C   UNL A   1      32.400  21.020  25.018  1.00  0.00     0.004 A 
ATOM     13  C   UNL A   1      32.049  21.577  22.713  1.00  0.00     0.004 A 
ATOM     14  C   UNL A   1      32.310  20.611  23.687  1.00  0.00    -0.048 A 
BRANCH  14  15
ATOM     15  C   UNL A   1      32.522  19.167  23.315  1.00  0.00     0.041 C 
BRANCH  15  16
ATOM     16  C   UNL A   1      33.288  18.288  24.319  1.00  0.00     0.022 C 
ATOM     17  C   UNL A   1      32.432  17.392  25.229  1.00  0.00     0.007 C 
ATOM     18  C   UNL A   1      34.384  17.357  23.776  1.00  0.00     0.117 C 
ATOM     19  C   UNL A   1      33.301  16.176  25.566  1.00  0.00     0.003 C 
ATOM     20  C   UNL A   1      34.677  16.462  24.974  1.00  0.00     0.032 C 
BRANCH  18  21
ATOM     21  O   UNL A   1      33.991  16.539  22.689  1.00  0.00    -0.393 OA
ATOM     22  H   UNL A   1      34.645  15.834  22.562  1.00  0.00     0.210 HD
ENDBRANCH  18  21
ENDBRANCH  15  16
ENDBRANCH  14  15
ENDBRANCH   7   9
ENDBRANCH   4   7
ENDBRANCH   2   3
ENDBRANCH   1   2
BRANCH   1  23
ATOM     23  C   UNL A   1      34.170  29.160  26.893  1.00  0.00     0.023 C 
BRANCH  23  24
ATOM     24  C   UNL A   1      35.440  29.325  27.712  1.00  0.00     0.116 C 
BRANCH  24  25
ATOM     25  N   UNL A   1      35.225  30.108  28.921  1.00  0.00    -0.352 N 
ATOM     26  C   UNL A   1      36.146  30.488  29.868  1.00  0.00     0.251 C 
ATOM     27  H   UNL A   1      34.299  30.404  29.082  1.00  0.00     0.163 HD
ATOM     28  O   UNL A   1      35.786  31.024  30.903  1.00  0.00    -0.269 OA
BRANCH  26  29
ATOM     29  C   UNL A   1      37.577  30.206  29.620  1.00  0.00     0.039 A 
ATOM     30  C   UNL A   1      38.407  29.908  30.704  1.00  0.00     0.014 A 
ATOM     31  C   UNL A   1      38.078  30.196  28.316  1.00  0.00     0.014 A 
ATOM     32  C   UNL A   1      39.732  29.533  30.471  1.00  0.00     0.010 A 
ATOM     33  C   UNL A   1      39.375  29.761  28.084  1.00  0.00     0.010 A 
ATOM     34  C   UNL A   1      40.216  29.426  29.158  1.00  0.00    -0.014 A 
BRANCH  34  35
ATOM     35  C   UNL A   1      41.600  28.984  28.863  1.00  0.00     0.031 A 
ATOM     36  C   UNL A   1      42.708  29.999  28.837  1.00  0.00     0.074 A 
ATOM     37  C   UNL A   1      41.839  27.707  28.510  1.00  0.00     0.049 A 
ATOM     38  N   UNL A   1      43.941  29.868  28.427  1.00  0.00    -0.248 NA
ATOM     39  C   UNL A   1      42.365  31.354  29.299  1.00  0.00     0.031 C 
ATOM     40  C   UNL A   1      40.839  26.639  28.460  1.00  0.00     0.029 A 
ATOM     41  N   UNL A   1      42.997  27.097  28.098  1.00  0.00    -0.354 N 
ATOM     42  C   UNL A   1      44.512  31.130  28.544  1.00  0.00     0.074 A 
ATOM     43  C   UNL A   1      43.479  32.019  29.032  1.00  0.00     0.031 C 
ATOM     44  C   UNL A   1      41.426  25.506  28.043  1.00  0.00     0.029 A 
ATOM     45  C   UNL A   1      42.833  25.776  27.757  1.00  0.00     0.049 A 
ATOM     46  H   UNL A   1      43.863  27.561  28.050  1.00  0.00     0.167 HD
ATOM     47  C   UNL A   1      45.785  31.509  28.281  1.00  0.00     0.037 A 
ATOM     48  C   UNL A   1      43.711  24.887  27.254  1.00  0.00     0.037 A 
ATOM     49  C   UNL A   1      46.815  30.610  27.834  1.00  0.00     0.049 A 
ATOM     50  C   UNL A   1      45.130  25.318  27.003  1.00  0.00     0.074 A 
ATOM     51  C   UNL A   1      48.151  30.879  27.595  1.00  0.00     0.029 A 
ATOM     52  N   UNL A   1      46.623  29.262  27.564  1.00  0.00    -0.354 N 
ATOM     53  N   UNL A   1      45.667  26.505  27.157  1.00  0.00    -0.248 NA
ATOM     54  C   UNL A   1      46.063  24.293  26.515  1.00  0.00     0.031 C 
ATOM     55  C   UNL A   1      48.761  29.700  27.156  1.00  0.00     0.029 A 
ATOM     56  C   UNL A   1      47.815  28.688  27.157  1.00  0.00     0.049 A 
ATOM     57  H   UNL A   1      45.767  28.785  27.651  1.00  0.00     0.167 HD
ATOM     58  C   UNL A   1      47.007  26.364  26.813  1.00  0.00     0.074 A 
ATOM     59  C   UNL A   1      47.198  24.976  26.441  1.00  0.00     0.031 C 
ATOM     60  C   UNL A   1      47.989  27.298  26.809  1.00  0.00     0.037 A 
BRANCH  47  61
ATOM     61  C   UNL A   1      46.120  32.963  28.463  1.00  0.00     0.058 A 
ATOM     62  C   UNL A   1      46.559  33.470  29.697  1.00  0.00     0.135 A 
ATOM     63  C   UNL A   1      45.985  33.864  27.395  1.00  0.00     0.135 A 
ATOM     64  F   UNL A   1      46.688  32.653  30.755  1.00  0.00    -0.206 F 
ATOM     65  C   UNL A   1      46.805  34.827  29.879  1.00  0.00     0.059 A 
ATOM     66  C   UNL A   1      46.254  35.222  27.547  1.00  0.00     0.059 A 
ATOM     67  F   UNL A   1      45.571  33.433  26.194  1.00  0.00    -0.206 F 
ATOM     68  C   UNL A   1      46.640  35.696  28.800  1.00  0.00     0.060 A 
BRANCH  68  69
ATOM     69  S   UNL A   1      46.927  37.460  29.057  1.00  0.00     0.124 S 
ATOM     70  O   UNL A   1      47.081  37.519  30.507  1.00  0.00    -0.237 OA
ATOM     71  O   UNL A   1      48.140  37.699  28.282  1.00  0.00    -0.237 OA
ATOM     72  O   UNL A   1      45.717  38.080  28.528  1.00  0.00    -0.744 OA
ENDBRANCH  68  69
ENDBRANCH  47  61
BRANCH  48  73
ATOM     73  C   UNL A   1      43.270  23.493  26.985  1.00  0.00     0.058 A 
ATOM     74  C   UNL A   1      42.972  23.076  25.681  1.00  0.00     0.135 A 
ATOM     75  C   UNL A   1      43.192  22.542  28.013  1.00  0.00     0.135 A 
ATOM     76  F   UNL A   1      43.028  23.954  24.668  1.00  0.00    -0.206 F 
ATOM     77  C   UNL A   1      42.612  21.762  25.401  1.00  0.00     0.059 A 
ATOM     78  C   UNL A   1      42.852  21.216  27.756  1.00  0.00     0.059 A 
ATOM     79  F   UNL A   1      43.483  22.889  29.276  1.00  0.00    -0.206 F 
ATOM     80  C   UNL A   1      42.563  20.837  26.446  1.00  0.00     0.060 A 
BRANCH  80  81
ATOM     81  S   UNL A   1      42.178  19.115  26.058  1.00  0.00     0.124 S 
ATOM     82  O   UNL A   1      42.606  18.436  27.277  1.00  0.00    -0.237 OA
ATOM     83  O   UNL A   1      40.738  19.166  25.827  1.00  0.00    -0.237 OA
ATOM     84  O   UNL A   1      42.986  18.851  24.871  1.00  0.00    -0.744 OA
ENDBRANCH  80  81
ENDBRANCH  48  73
BRANCH  60  85
ATOM     85  C   UNL A   1      49.373  26.851  26.438  1.00  0.00     0.058 A 
ATOM     86  C   UNL A   1      50.227  26.241  27.369  1.00  0.00     0.135 A 
ATOM     87  C   UNL A   1      49.816  26.960  25.110  1.00  0.00     0.135 A 
ATOM     88  F   UNL A   1      49.851  26.122  28.652  1.00  0.00    -0.206 F 
ATOM     89  C   UNL A   1      51.476  25.757  26.997  1.00  0.00     0.059 A 
ATOM     90  C   UNL A   1      51.053  26.465  24.711  1.00  0.00     0.059 A 
ATOM     91  F   UNL A   1      49.032  27.530  24.180  1.00  0.00    -0.206 F 
ATOM     92  C   UNL A   1      51.878  25.868  25.664  1.00  0.00     0.060 A 
BRANCH  92  93
ATOM     93  S   UNL A   1      53.474  25.177  25.177  1.00  0.00     0.124 S 
ATOM     94  O   UNL A   1      53.604  25.670  23.811  1.00  0.00    -0.237 OA
ATOM     95  O   UNL A   1      54.383  25.767  26.154  1.00  0.00    -0.237 OA
ATOM     96  O   UNL A   1      53.274  23.736  25.309  1.00  0.00    -0.744 OA
ENDBRANCH  92  93
ENDBRANCH  60  85
ENDBRANCH  34  35
ENDBRANCH  26  29
ENDBRANCH  24  25
ENDBRANCH  23  24
ENDBRANCH   1  23
TORSDOF 18
ENDMDL
MODEL 3
REMARK VINA RESULT:     -11.6      3.209      5.361
REMARK SMILES C[C@@H](C(=O)NCCCCNC(=O)c1ccc(-c2c3nc(c(-c4c(F)cc(S(=O)(=O)[O-])cc4F)c4ccc([nH]4)c(-c4c(F)cc(S(=O)(=O)[O-])cc4F)c4nc(c(-c5c(F)cc(S(=O)(=O)[O-])cc5F)c5ccc2[nH]5)C=C4)C=C3)cc1)c1ccc(C[C@H]2CCC[C@H]2O)cc1
REMARK SMILES IDX 7 1 6 2 5 3 3 4 4 5 2 7 1 8 79 9 80 10 91 11 81 12 90 13
REMARK SMILES IDX 82 14 83 15 84 16 85 17 88 18 86 19 87 20 89 21 8 23 9 24
REMARK SMILES IDX 10 25 11 26 12 28 13 29 14 30 78 31 15 32 77 33 16 34 17 35
REMARK SMILES IDX 18 36 71 37 19 38 76 39 70 40 72 41 20 42 75 43 69 44 68 45
REMARK SMILES IDX 21 47 55 48 34 49 54 50 35 51 38 52 53 53 73 54 36 55 37 56
REMARK SMILES IDX 52 58 74 59 39 60 22 61 23 62 32 63 24 64 25 65 31 66 33 67
REMARK SMILES IDX 26 68 27 69 28 70 29 71 30 72 56 73 57 74 66 75 58 76 59 77
REMARK SMILES IDX 65 78 67 79 60 80 61 81 62 82 63 83 64 84 40 85 41 86 50 87
REMARK SMILES IDX 42 88 43 89 49 90 51 91 44 92 45 93 46 94 47 95 48 96
REMARK H PARENT 5 6 89 22 10 27 72 46 38 57
REMARK Flexibility Score: inf
ROOT
ATOM      1  C   UNL A   1      32.387  26.570  26.464  1.00  0.00     0.023 C 
ENDROOT
BRANCH   1   2
ATOM      2  C   UNL A   1      33.550  25.907  25.715  1.00  0.00     0.116 C 
BRANCH   2   3
ATOM      3  N   UNL A   1      33.276  24.504  25.485  1.00  0.00    -0.356 N 
ATOM      4  C   UNL A   1      32.505  23.927  24.515  1.00  0.00     0.227 C 
ATOM      5  O   UNL A   1      32.016  22.832  24.792  1.00  0.00    -0.274 OA
ATOM      6  H   UNL A   1      33.704  23.879  26.113  1.00  0.00     0.163 HD
BRANCH   4   7
ATOM      7  C   UNL A   1      32.277  24.665  23.182  1.00  0.00     0.105 C 
ATOM      8  C   UNL A   1      33.623  25.208  22.689  1.00  0.00     0.023 C 
BRANCH   7   9
ATOM      9  C   UNL A   1      31.214  25.772  23.186  1.00  0.00    -0.036 A 
ATOM     10  C   UNL A   1      30.005  25.685  23.886  1.00  0.00     0.005 A 
ATOM     11  C   UNL A   1      31.430  26.935  22.424  1.00  0.00     0.005 A 
ATOM     12  C   UNL A   1      29.072  26.723  23.862  1.00  0.00     0.004 A 
ATOM     13  C   UNL A   1      30.489  27.970  22.385  1.00  0.00     0.004 A 
ATOM     14  C   UNL A   1      29.286  27.863  23.087  1.00  0.00    -0.048 A 
BRANCH  14  15
ATOM     15  C   UNL A   1      28.230  28.931  22.989  1.00  0.00     0.041 C 
BRANCH  15  16
ATOM     16  C   UNL A   1      28.693  30.342  22.586  1.00  0.00     0.022 C 
ATOM     17  C   UNL A   1      28.305  30.806  21.172  1.00  0.00     0.007 C 
ATOM     18  C   UNL A   1      28.310  31.518  23.499  1.00  0.00     0.117 C 
ATOM     19  C   UNL A   1      28.193  32.332  21.242  1.00  0.00     0.003 C 
ATOM     20  C   UNL A   1      28.658  32.727  22.639  1.00  0.00     0.032 C 
BRANCH  18  21
ATOM     21  O   UNL A   1      26.939  31.588  23.842  1.00  0.00    -0.393 OA
ATOM     22  H   UNL A   1      26.849  31.634  24.807  1.00  0.00     0.210 HD
ENDBRANCH  18  21
ENDBRANCH  15  16
ENDBRANCH  14  15
ENDBRANCH   7   9
ENDBRANCH   4   7
ENDBRANCH   2   3
ENDBRANCH   1   2
BRANCH   1  23
ATOM     23  C   UNL A   1      32.720  27.921  27.103  1.00  0.00     0.023 C 
BRANCH  23  24
ATOM     24  C   UNL A   1      33.843  28.689  26.426  1.00  0.00     0.116 C 
BRANCH  24  25
ATOM     25  N   UNL A   1      33.744  30.127  26.644  1.00  0.00    -0.352 N 
ATOM     26  C   UNL A   1      34.557  30.932  27.404  1.00  0.00     0.251 C 
ATOM     27  H   UNL A   1      32.999  30.579  26.187  1.00  0.00     0.163 HD
ATOM     28  O   UNL A   1      34.262  32.099  27.603  1.00  0.00    -0.269 OA
BRANCH  26  29
ATOM     29  C   UNL A   1      35.780  30.350  27.999  1.00  0.00     0.039 A 
ATOM     30  C   UNL A   1      36.988  30.450  27.304  1.00  0.00     0.014 A 
ATOM     31  C   UNL A   1      35.731  29.747  29.259  1.00  0.00     0.014 A 
ATOM     32  C   UNL A   1      38.165  30.002  27.906  1.00  0.00     0.010 A 
ATOM     33  C   UNL A   1      36.912  29.364  29.880  1.00  0.00     0.010 A 
ATOM     34  C   UNL A   1      38.140  29.486  29.211  1.00  0.00    -0.014 A 
BRANCH  34  35
ATOM     35  C   UNL A   1      39.374  29.044  29.906  1.00  0.00     0.031 A 
ATOM     36  C   UNL A   1      39.877  29.829  31.084  1.00  0.00     0.074 A 
ATOM     37  C   UNL A   1      40.095  28.020  29.412  1.00  0.00     0.049 A 
ATOM     38  N   UNL A   1      41.016  29.735  31.717  1.00  0.00    -0.248 NA
ATOM     39  C   UNL A   1      38.991  30.890  31.591  1.00  0.00     0.031 C 
ATOM     40  C   UNL A   1      39.730  27.207  28.251  1.00  0.00     0.029 A 
ATOM     41  N   UNL A   1      41.303  27.506  29.811  1.00  0.00    -0.354 N 
ATOM     42  C   UNL A   1      41.003  30.746  32.669  1.00  0.00     0.074 A 
ATOM     43  C   UNL A   1      39.755  31.463  32.508  1.00  0.00     0.031 C 
ATOM     44  C   UNL A   1      40.692  26.296  28.032  1.00  0.00     0.029 A 
ATOM     45  C   UNL A   1      41.760  26.486  29.011  1.00  0.00     0.049 A 
ATOM     46  H   UNL A   1      41.797  27.836  30.596  1.00  0.00     0.167 HD
ATOM     47  C   UNL A   1      41.939  31.041  33.602  1.00  0.00     0.037 A 
ATOM     48  C   UNL A   1      42.916  25.795  29.049  1.00  0.00     0.037 A 
ATOM     49  C   UNL A   1      43.157  30.298  33.780  1.00  0.00     0.049 A 
ATOM     50  C   UNL A   1      43.927  26.114  30.114  1.00  0.00     0.074 A 
ATOM     51  C   UNL A   1      44.145  30.477  34.732  1.00  0.00     0.029 A 
ATOM     52  N   UNL A   1      43.551  29.228  32.989  1.00  0.00    -0.354 N 
ATOM     53  N   UNL A   1      43.883  27.047  31.037  1.00  0.00    -0.248 NA
ATOM     54  C   UNL A   1      45.142  25.288  30.151  1.00  0.00     0.031 C 
ATOM     55  C   UNL A   1      45.149  29.532  34.501  1.00  0.00     0.029 A 
ATOM     56  C   UNL A   1      44.770  28.740  33.428  1.00  0.00     0.049 A 
ATOM     57  H   UNL A   1      43.040  28.869  32.229  1.00  0.00     0.167 HD
ATOM     58  C   UNL A   1      45.048  26.902  31.781  1.00  0.00     0.074 A 
ATOM     59  C   UNL A   1      45.778  25.792  31.201  1.00  0.00     0.031 C 
ATOM     60  C   UNL A   1      45.472  27.620  32.849  1.00  0.00     0.037 A 
BRANCH  47  61
ATOM     61  C   UNL A   1      41.675  32.226  34.488  1.00  0.00     0.058 A 
ATOM     62  C   UNL A   1      40.874  32.124  35.637  1.00  0.00     0.135 A 
ATOM     63  C   UNL A   1      42.218  33.483  34.177  1.00  0.00     0.135 A 
ATOM     64  F   UNL A   1      40.317  30.949  35.970  1.00  0.00    -0.206 F 
ATOM     65  C   UNL A   1      40.579  33.237  36.418  1.00  0.00     0.059 A 
ATOM     66  C   UNL A   1      41.959  34.604  34.961  1.00  0.00     0.059 A 
ATOM     67  F   UNL A   1      42.992  33.636  33.091  1.00  0.00    -0.206 F 
ATOM     68  C   UNL A   1      41.119  34.474  36.066  1.00  0.00     0.060 A 
BRANCH  68  69
ATOM     69  S   UNL A   1      40.700  35.918  37.066  1.00  0.00     0.124 S 
ATOM     70  O   UNL A   1      42.009  36.544  37.230  1.00  0.00    -0.237 OA
ATOM     71  O   UNL A   1      39.761  36.634  36.209  1.00  0.00    -0.237 OA
ATOM     72  O   UNL A   1      40.125  35.338  38.274  1.00  0.00    -0.744 OA
ENDBRANCH  68  69
ENDBRANCH  47  61
BRANCH  48  73
ATOM     73  C   UNL A   1      43.155  24.715  28.057  1.00  0.00     0.058 A 
ATOM     74  C   UNL A   1      43.763  24.995  26.825  1.00  0.00     0.135 A 
ATOM     75  C   UNL A   1      42.835  23.378  28.342  1.00  0.00     0.135 A 
ATOM     76  F   UNL A   1      44.080  26.259  26.508  1.00  0.00    -0.206 F 
ATOM     77  C   UNL A   1      44.046  23.989  25.908  1.00  0.00     0.059 A 
ATOM     78  C   UNL A   1      43.126  22.351  27.449  1.00  0.00     0.059 A 
ATOM     79  F   UNL A   1      42.267  23.058  29.515  1.00  0.00    -0.206 F 
ATOM     80  C   UNL A   1      43.731  22.668  26.232  1.00  0.00     0.060 A 
BRANCH  80  81
ATOM     81  S   UNL A   1      44.183  21.361  25.070  1.00  0.00     0.124 S 
ATOM     82  O   UNL A   1      44.080  22.056  23.791  1.00  0.00    -0.237 OA
ATOM     83  O   UNL A   1      45.534  21.017  25.503  1.00  0.00    -0.237 OA
ATOM     84  O   UNL A   1      43.174  20.334  25.314  1.00  0.00    -0.744 OA
ENDBRANCH  80  81
ENDBRANCH  48  73
BRANCH  60  85
ATOM     85  C   UNL A   1      46.761  27.207  33.498  1.00  0.00     0.058 A 
ATOM     86  C   UNL A   1      46.801  26.232  34.506  1.00  0.00     0.135 A 
ATOM     87  C   UNL A   1      47.980  27.735  33.043  1.00  0.00     0.135 A 
ATOM     88  F   UNL A   1      45.661  25.704  34.979  1.00  0.00    -0.206 F 
ATOM     89  C   UNL A   1      48.007  25.797  35.045  1.00  0.00     0.059 A 
ATOM     90  C   UNL A   1      49.198  27.301  33.553  1.00  0.00     0.059 A 
ATOM     91  F   UNL A   1      47.995  28.666  32.075  1.00  0.00    -0.206 F 
ATOM     92  C   UNL A   1      49.201  26.333  34.557  1.00  0.00     0.060 A 
BRANCH  92  93
ATOM     93  S   UNL A   1      50.764  25.713  35.217  1.00  0.00     0.124 S 
ATOM     94  O   UNL A   1      50.414  25.457  36.610  1.00  0.00    -0.237 OA
ATOM     95  O   UNL A   1      51.005  24.531  34.396  1.00  0.00    -0.237 OA
ATOM     96  O   UNL A   1      51.689  26.821  34.994  1.00  0.00    -0.744 OA
ENDBRANCH  92  93
ENDBRANCH  60  85
ENDBRANCH  34  35
ENDBRANCH  26  29
ENDBRANCH  24  25
ENDBRANCH  23  24
ENDBRANCH   1  23
TORSDOF 18
ENDMDL
