MODEL 1
REMARK VINA RESULT:     -12.0      0.000      0.000
REMARK SMILES COc1cc2cc(C(=O)NCCCCNC(=O)c3ccc(-c4c5nc(c(-c6c(F)cc(S(=O)(=O)[O-])cc6F)c6ccc([nH]6)c(-c6c(F)cc(S(=O)(=O)[O-])cc6F)c6nc(c(-c7c(F)cc(S(=O)(=O)[O-])cc7F)c7ccc4[nH]7)C=C6)C=C5)cc3)n(Cc3ccccc3)c2c(OC)c1OC
REMARK SMILES IDX 13 1 12 2 11 3 10 4 8 5 9 6 7 8 3 9 4 10 96 11 5 12 93 13
REMARK SMILES IDX 6 14 92 15 84 16 2 17 1 18 97 19 98 20 94 21 95 22 85 23
REMARK SMILES IDX 86 24 87 25 91 26 88 27 90 28 89 29 14 30 15 31 16 32 17 34
REMARK SMILES IDX 18 35 19 36 83 37 20 38 82 39 21 40 22 41 23 42 76 43 24 44
REMARK SMILES IDX 81 45 75 46 77 47 25 48 80 49 74 50 73 51 26 53 60 54 39 55
REMARK SMILES IDX 59 56 40 57 43 58 58 59 78 60 41 61 42 62 57 64 79 65 44 66
REMARK SMILES IDX 27 67 28 68 37 69 29 70 30 71 36 72 38 73 31 74 32 75 33 76
REMARK SMILES IDX 34 77 35 78 61 79 62 80 71 81 63 82 64 83 70 84 72 85 65 86
REMARK SMILES IDX 66 87 67 88 68 89 69 90 45 91 46 92 55 93 47 94 48 95 54 96
REMARK SMILES IDX 56 97 49 98 50 99 51 100 52 101 53 102
REMARK H PARENT 10 7 15 33 77 52 43 63
REMARK Flexibility Score: inf
ROOT
ATOM      1  C   UNL A   1      33.222  29.361  27.529  1.00  0.00     0.023 C 
ENDROOT
BRANCH   1   2
ATOM      2  C   UNL A   1      31.833  28.804  27.200  1.00  0.00     0.023 C 
BRANCH   2   3
ATOM      3  C   UNL A   1      31.609  27.312  27.444  1.00  0.00     0.116 C 
BRANCH   3   4
ATOM      4  N   UNL A   1      30.643  26.765  26.519  1.00  0.00    -0.351 N 
ATOM      5  C   UNL A   1      30.540  25.617  25.785  1.00  0.00     0.267 C 
ATOM      6  O   UNL A   1      29.426  25.476  25.264  1.00  0.00    -0.268 OA
ATOM      7  H   UNL A   1      29.872  27.363  26.387  1.00  0.00     0.163 HD
BRANCH   5   8
ATOM      8  C   UNL A   1      31.558  24.579  25.619  1.00  0.00     0.108 A 
ATOM      9  C   UNL A   1      33.778  20.519  25.141  1.00  0.00     0.165 A 
ATOM     10  C   UNL A   1      32.513  21.077  24.956  1.00  0.00     0.061 A 
ATOM     11  C   UNL A   1      34.887  21.304  25.495  1.00  0.00     0.205 A 
ATOM     12  C   UNL A   1      32.333  22.447  25.202  1.00  0.00     0.008 A 
ATOM     13  C   UNL A   1      34.717  22.677  25.782  1.00  0.00     0.189 A 
ATOM     14  C   UNL A   1      31.197  23.282  25.245  1.00  0.00     0.042 A 
ATOM     15  C   UNL A   1      33.421  23.235  25.556  1.00  0.00     0.096 A 
ATOM     16  N   UNL A   1      32.951  24.567  25.560  1.00  0.00    -0.329 N 
BRANCH   9  17
ATOM     17  O   UNL A   1      33.861  19.152  25.014  1.00  0.00    -0.493 OA
ATOM     18  C   UNL A   1      32.602  18.557  25.348  1.00  0.00     0.278 C 
ENDBRANCH   9  17
BRANCH  11  19
ATOM     19  O   UNL A   1      36.122  20.721  25.678  1.00  0.00    -0.490 OA
ATOM     20  C   UNL A   1      36.965  20.761  24.525  1.00  0.00     0.278 C 
ENDBRANCH  11  19
BRANCH  13  21
ATOM     21  O   UNL A   1      35.649  23.522  26.316  1.00  0.00    -0.491 OA
ATOM     22  C   UNL A   1      36.729  23.994  25.530  1.00  0.00     0.278 C 
ENDBRANCH  13  21
BRANCH  16  23
ATOM     23  C   UNL A   1      33.884  25.690  25.457  1.00  0.00     0.158 C 
BRANCH  23  24
ATOM     24  C   UNL A   1      33.774  26.665  24.309  1.00  0.00    -0.028 A 
ATOM     25  C   UNL A   1      33.994  28.044  24.370  1.00  0.00     0.005 A 
ATOM     26  C   UNL A   1      33.522  26.089  23.044  1.00  0.00     0.005 A 
ATOM     27  C   UNL A   1      34.060  28.803  23.197  1.00  0.00     0.000 A 
ATOM     28  C   UNL A   1      33.558  26.851  21.879  1.00  0.00     0.000 A 
ATOM     29  C   UNL A   1      33.852  28.207  21.954  1.00  0.00     0.000 A 
ENDBRANCH  23  24
ENDBRANCH  16  23
ENDBRANCH   5   8
ENDBRANCH   3   4
ENDBRANCH   2   3
ENDBRANCH   1   2
BRANCH   1  30
ATOM     30  C   UNL A   1      33.440  30.825  27.155  1.00  0.00     0.116 C 
BRANCH  30  31
ATOM     31  N   UNL A   1      33.774  31.664  28.288  1.00  0.00    -0.352 N 
ATOM     32  C   UNL A   1      34.905  31.901  29.017  1.00  0.00     0.251 C 
ATOM     33  H   UNL A   1      33.005  32.188  28.606  1.00  0.00     0.163 HD
ATOM     34  O   UNL A   1      34.820  32.813  29.846  1.00  0.00    -0.269 OA
BRANCH  32  35
ATOM     35  C   UNL A   1      36.180  31.139  28.922  1.00  0.00     0.039 A 
ATOM     36  C   UNL A   1      36.289  29.755  28.806  1.00  0.00     0.014 A 
ATOM     37  C   UNL A   1      37.363  31.893  29.064  1.00  0.00     0.014 A 
ATOM     38  C   UNL A   1      37.531  29.137  28.927  1.00  0.00     0.010 A 
ATOM     39  C   UNL A   1      38.610  31.281  29.165  1.00  0.00     0.010 A 
ATOM     40  C   UNL A   1      38.688  29.894  29.148  1.00  0.00    -0.014 A 
BRANCH  40  41
ATOM     41  C   UNL A   1      39.956  29.177  29.277  1.00  0.00     0.031 A 
ATOM     42  C   UNL A   1      40.411  28.971  30.682  1.00  0.00     0.074 A 
ATOM     43  C   UNL A   1      40.674  28.685  28.246  1.00  0.00     0.049 A 
ATOM     44  N   UNL A   1      41.406  29.539  31.282  1.00  0.00    -0.248 NA
ATOM     45  C   UNL A   1      39.572  28.150  31.567  1.00  0.00     0.031 C 
ATOM     46  C   UNL A   1      40.300  28.574  26.834  1.00  0.00     0.029 A 
ATOM     47  N   UNL A   1      41.911  28.109  28.277  1.00  0.00    -0.354 N 
ATOM     48  C   UNL A   1      41.445  29.003  32.568  1.00  0.00     0.074 A 
ATOM     49  C   UNL A   1      40.214  28.274  32.731  1.00  0.00     0.031 C 
ATOM     50  C   UNL A   1      41.192  27.782  26.194  1.00  0.00     0.029 A 
ATOM     51  C   UNL A   1      42.276  27.456  27.106  1.00  0.00     0.049 A 
ATOM     52  H   UNL A   1      42.498  28.154  29.066  1.00  0.00     0.167 HD
ATOM     53  C   UNL A   1      42.576  29.048  33.327  1.00  0.00     0.037 A 
ATOM     54  C   UNL A   1      43.374  26.680  26.916  1.00  0.00     0.037 A 
ATOM     55  C   UNL A   1      43.509  30.022  32.815  1.00  0.00     0.049 A 
ATOM     56  C   UNL A   1      44.379  27.095  27.927  1.00  0.00     0.074 A 
ATOM     57  C   UNL A   1      43.498  31.392  32.641  1.00  0.00     0.029 A 
ATOM     58  N   UNL A   1      44.568  29.564  32.070  1.00  0.00    -0.354 N 
ATOM     59  N   UNL A   1      44.963  28.261  27.932  1.00  0.00    -0.248 NA
ATOM     60  C   UNL A   1      44.407  26.378  29.193  1.00  0.00     0.031 C 
ATOM     61  C   UNL A   1      44.228  31.618  31.437  1.00  0.00     0.029 A 
ATOM     62  C   UNL A   1      44.677  30.381  30.976  1.00  0.00     0.049 A 
ATOM     63  H   UNL A   1      45.141  28.792  32.283  1.00  0.00     0.167 HD
ATOM     64  C   UNL A   1      45.050  28.610  29.272  1.00  0.00     0.074 A 
ATOM     65  C   UNL A   1      44.771  27.375  30.003  1.00  0.00     0.031 C 
ATOM     66  C   UNL A   1      45.073  29.918  29.665  1.00  0.00     0.037 A 
BRANCH  53  67
ATOM     67  C   UNL A   1      43.011  27.971  34.299  1.00  0.00     0.058 A 
ATOM     68  C   UNL A   1      43.176  28.306  35.662  1.00  0.00     0.135 A 
ATOM     69  C   UNL A   1      43.574  26.737  33.908  1.00  0.00     0.135 A 
ATOM     70  F   UNL A   1      42.655  29.441  36.157  1.00  0.00    -0.206 F 
ATOM     71  C   UNL A   1      43.954  27.543  36.532  1.00  0.00     0.059 A 
ATOM     72  C   UNL A   1      44.311  25.936  34.773  1.00  0.00     0.059 A 
ATOM     73  F   UNL A   1      43.524  26.292  32.648  1.00  0.00    -0.206 F 
ATOM     74  C   UNL A   1      44.544  26.374  36.066  1.00  0.00     0.060 A 
BRANCH  74  75
ATOM     75  S   UNL A   1      45.684  25.474  37.131  1.00  0.00     0.124 S 
ATOM     76  O   UNL A   1      46.902  25.490  36.327  1.00  0.00    -0.237 OA
ATOM     77  O   UNL A   1      45.698  26.308  38.329  1.00  0.00    -0.237 OA
ATOM     78  O   UNL A   1      45.044  24.174  37.285  1.00  0.00    -0.744 OA
ENDBRANCH  74  75
ENDBRANCH  53  67
BRANCH  54  79
ATOM     79  C   UNL A   1      43.455  25.375  26.201  1.00  0.00     0.058 A 
ATOM     80  C   UNL A   1      44.446  25.135  25.230  1.00  0.00     0.135 A 
ATOM     81  C   UNL A   1      42.761  24.240  26.669  1.00  0.00     0.135 A 
ATOM     82  F   UNL A   1      45.170  26.153  24.738  1.00  0.00    -0.206 F 
ATOM     83  C   UNL A   1      44.770  23.844  24.794  1.00  0.00     0.059 A 
ATOM     84  C   UNL A   1      43.061  22.947  26.244  1.00  0.00     0.059 A 
ATOM     85  F   UNL A   1      41.831  24.347  27.628  1.00  0.00    -0.206 F 
ATOM     86  C   UNL A   1      44.087  22.752  25.327  1.00  0.00     0.060 A 
BRANCH  86  87
ATOM     87  S   UNL A   1      44.617  21.074  24.904  1.00  0.00     0.124 S 
ATOM     88  O   UNL A   1      44.681  21.135  23.448  1.00  0.00    -0.237 OA
ATOM     89  O   UNL A   1      45.898  20.973  25.594  1.00  0.00    -0.237 OA
ATOM     90  O   UNL A   1      43.553  20.235  25.447  1.00  0.00    -0.744 OA
ENDBRANCH  86  87
ENDBRANCH  54  79
BRANCH  66  91
ATOM     91  C   UNL A   1      45.298  30.973  28.613  1.00  0.00     0.058 A 
ATOM     92  C   UNL A   1      44.286  31.498  27.789  1.00  0.00     0.135 A 
ATOM     93  C   UNL A   1      46.560  31.583  28.545  1.00  0.00     0.135 A 
ATOM     94  F   UNL A   1      43.028  31.041  27.865  1.00  0.00    -0.206 F 
ATOM     95  C   UNL A   1      44.529  32.557  26.912  1.00  0.00     0.059 A 
ATOM     96  C   UNL A   1      46.816  32.660  27.701  1.00  0.00     0.059 A 
ATOM     97  F   UNL A   1      47.550  31.168  29.351  1.00  0.00    -0.206 F 
ATOM     98  C   UNL A   1      45.798  33.135  26.878  1.00  0.00     0.060 A 
BRANCH  98  99
ATOM     99  S   UNL A   1      46.082  34.559  25.805  1.00  0.00     0.124 S 
ATOM    100  O   UNL A   1      45.120  34.335  24.733  1.00  0.00    -0.237 OA
ATOM    101  O   UNL A   1      45.798  35.682  26.692  1.00  0.00    -0.237 OA
ATOM    102  O   UNL A   1      47.488  34.421  25.420  1.00  0.00    -0.744 OA
ENDBRANCH  98  99
ENDBRANCH  66  91
ENDBRANCH  40  41
ENDBRANCH  32  35
ENDBRANCH  30  31
ENDBRANCH   1  30
TORSDOF 19
ENDMDL
MODEL 2
REMARK VINA RESULT:     -12.0      2.009      3.074
REMARK SMILES COc1cc2cc(C(=O)NCCCCNC(=O)c3ccc(-c4c5nc(c(-c6c(F)cc(S(=O)(=O)[O-])cc6F)c6ccc([nH]6)c(-c6c(F)cc(S(=O)(=O)[O-])cc6F)c6nc(c(-c7c(F)cc(S(=O)(=O)[O-])cc7F)c7ccc4[nH]7)C=C6)C=C5)cc3)n(Cc3ccccc3)c2c(OC)c1OC
REMARK SMILES IDX 13 1 12 2 11 3 10 4 8 5 9 6 7 8 3 9 4 10 96 11 5 12 93 13
REMARK SMILES IDX 6 14 92 15 84 16 2 17 1 18 97 19 98 20 94 21 95 22 85 23
REMARK SMILES IDX 86 24 87 25 91 26 88 27 90 28 89 29 14 30 15 31 16 32 17 34
REMARK SMILES IDX 18 35 19 36 83 37 20 38 82 39 21 40 22 41 23 42 76 43 24 44
REMARK SMILES IDX 81 45 75 46 77 47 25 48 80 49 74 50 73 51 26 53 60 54 39 55
REMARK SMILES IDX 59 56 40 57 43 58 58 59 78 60 41 61 42 62 57 64 79 65 44 66
REMARK SMILES IDX 27 67 28 68 37 69 29 70 30 71 36 72 38 73 31 74 32 75 33 76
REMARK SMILES IDX 34 77 35 78 61 79 62 80 71 81 63 82 64 83 70 84 72 85 65 86
REMARK SMILES IDX 66 87 67 88 68 89 69 90 45 91 46 92 55 93 47 94 48 95 54 96
REMARK SMILES IDX 56 97 49 98 50 99 51 100 52 101 53 102
REMARK H PARENT 10 7 15 33 77 52 43 63
REMARK Flexibility Score: inf
ROOT
ATOM      1  C   UNL A   1      34.155  32.617  28.556  1.00  0.00     0.023 C 
ENDROOT
BRANCH   1   2
ATOM      2  C   UNL A   1      35.215  31.628  28.063  1.00  0.00     0.023 C 
BRANCH   2   3
ATOM      3  C   UNL A   1      34.713  30.381  27.334  1.00  0.00     0.116 C 
BRANCH   3   4
ATOM      4  N   UNL A   1      33.497  30.652  26.601  1.00  0.00    -0.351 N 
ATOM      5  C   UNL A   1      32.673  29.932  25.782  1.00  0.00     0.267 C 
ATOM      6  O   UNL A   1      31.617  30.522  25.521  1.00  0.00    -0.268 OA
ATOM      7  H   UNL A   1      33.187  31.579  26.721  1.00  0.00     0.163 HD
BRANCH   5   8
ATOM      8  C   UNL A   1      32.899  28.581  25.267  1.00  0.00     0.108 A 
ATOM      9  C   UNL A   1      34.094  24.110  24.795  1.00  0.00     0.165 A 
ATOM     10  C   UNL A   1      33.792  25.040  25.791  1.00  0.00     0.061 A 
ATOM     11  C   UNL A   1      33.958  24.417  23.432  1.00  0.00     0.205 A 
ATOM     12  C   UNL A   1      33.413  26.338  25.415  1.00  0.00     0.008 A 
ATOM     13  C   UNL A   1      33.614  25.730  23.035  1.00  0.00     0.189 A 
ATOM     14  C   UNL A   1      33.180  27.525  26.139  1.00  0.00     0.042 A 
ATOM     15  C   UNL A   1      33.279  26.657  24.069  1.00  0.00     0.096 A 
ATOM     16  N   UNL A   1      32.728  27.957  24.032  1.00  0.00    -0.329 N 
BRANCH   9  17
ATOM     17  O   UNL A   1      34.585  22.900  25.225  1.00  0.00    -0.493 OA
ATOM     18  C   UNL A   1      35.121  23.037  26.546  1.00  0.00     0.278 C 
ENDBRANCH   9  17
BRANCH  11  19
ATOM     19  O   UNL A   1      34.272  23.480  22.472  1.00  0.00    -0.490 OA
ATOM     20  C   UNL A   1      33.179  22.641  22.093  1.00  0.00     0.278 C 
ENDBRANCH  11  19
BRANCH  13  21
ATOM     21  O   UNL A   1      33.627  26.230  21.763  1.00  0.00    -0.491 OA
ATOM     22  C   UNL A   1      32.636  25.845  20.826  1.00  0.00     0.278 C 
ENDBRANCH  13  21
BRANCH  16  23
ATOM     23  C   UNL A   1      32.050  28.448  22.832  1.00  0.00     0.158 C 
BRANCH  23  24
ATOM     24  C   UNL A   1      30.542  28.495  22.778  1.00  0.00    -0.028 A 
ATOM     25  C   UNL A   1      29.664  27.557  23.329  1.00  0.00     0.005 A 
ATOM     26  C   UNL A   1      29.990  29.659  22.197  1.00  0.00     0.005 A 
ATOM     27  C   UNL A   1      28.291  27.822  23.388  1.00  0.00     0.000 A 
ATOM     28  C   UNL A   1      28.620  29.907  22.229  1.00  0.00     0.000 A 
ATOM     29  C   UNL A   1      27.772  28.997  22.848  1.00  0.00     0.000 A 
ENDBRANCH  23  24
ENDBRANCH  16  23
ENDBRANCH   5   8
ENDBRANCH   3   4
ENDBRANCH   2   3
ENDBRANCH   1   2
BRANCH   1  30
ATOM     30  C   UNL A   1      34.655  33.662  29.551  1.00  0.00     0.116 C 
BRANCH  30  31
ATOM     31  N   UNL A   1      34.564  33.232  30.931  1.00  0.00    -0.352 N 
ATOM     32  C   UNL A   1      35.314  32.431  31.747  1.00  0.00     0.251 C 
ATOM     33  H   UNL A   1      33.778  33.605  31.390  1.00  0.00     0.163 HD
ATOM     34  O   UNL A   1      34.973  32.417  32.934  1.00  0.00    -0.269 OA
BRANCH  32  35
ATOM     35  C   UNL A   1      36.449  31.569  31.319  1.00  0.00     0.039 A 
ATOM     36  C   UNL A   1      36.435  30.176  31.275  1.00  0.00     0.014 A 
ATOM     37  C   UNL A   1      37.659  32.235  31.034  1.00  0.00     0.014 A 
ATOM     38  C   UNL A   1      37.615  29.471  31.052  1.00  0.00     0.010 A 
ATOM     39  C   UNL A   1      38.837  31.534  30.790  1.00  0.00     0.010 A 
ATOM     40  C   UNL A   1      38.825  30.146  30.850  1.00  0.00    -0.014 A 
BRANCH  40  41
ATOM     41  C   UNL A   1      40.026  29.340  30.635  1.00  0.00     0.031 A 
ATOM     42  C   UNL A   1      40.900  29.196  31.834  1.00  0.00     0.074 A 
ATOM     43  C   UNL A   1      40.343  28.721  29.478  1.00  0.00     0.049 A 
ATOM     44  N   UNL A   1      42.064  29.722  32.031  1.00  0.00    -0.248 NA
ATOM     45  C   UNL A   1      40.350  28.508  33.011  1.00  0.00     0.031 C 
ATOM     46  C   UNL A   1      39.528  28.543  28.275  1.00  0.00     0.029 A 
ATOM     47  N   UNL A   1      41.491  28.052  29.166  1.00  0.00    -0.354 N 
ATOM     48  C   UNL A   1      42.489  29.275  33.282  1.00  0.00     0.074 A 
ATOM     49  C   UNL A   1      41.339  28.661  33.894  1.00  0.00     0.031 C 
ATOM     50  C   UNL A   1      40.120  27.639  27.459  1.00  0.00     0.029 A 
ATOM     51  C   UNL A   1      41.421  27.292  28.005  1.00  0.00     0.049 A 
ATOM     52  H   UNL A   1      42.304  28.104  29.719  1.00  0.00     0.167 HD
ATOM     53  C   UNL A   1      43.805  29.281  33.633  1.00  0.00     0.037 A 
ATOM     54  C   UNL A   1      42.356  26.419  27.547  1.00  0.00     0.037 A 
ATOM     55  C   UNL A   1      44.574  30.140  32.765  1.00  0.00     0.049 A 
ATOM     56  C   UNL A   1      43.655  26.821  28.143  1.00  0.00     0.074 A 
ATOM     57  C   UNL A   1      44.580  31.491  32.479  1.00  0.00     0.029 A 
ATOM     58  N   UNL A   1      45.308  29.548  31.767  1.00  0.00    -0.354 N 
ATOM     59  N   UNL A   1      44.271  27.934  27.855  1.00  0.00    -0.248 NA
ATOM     60  C   UNL A   1      44.053  26.193  29.394  1.00  0.00     0.031 C 
ATOM     61  C   UNL A   1      44.892  31.573  31.089  1.00  0.00     0.029 A 
ATOM     62  C   UNL A   1      45.101  30.275  30.624  1.00  0.00     0.049 A 
ATOM     63  H   UNL A   1      45.877  28.749  31.856  1.00  0.00     0.167 HD
ATOM     64  C   UNL A   1      44.806  28.367  29.060  1.00  0.00     0.074 A 
ATOM     65  C   UNL A   1      44.713  27.211  29.951  1.00  0.00     0.031 C 
ATOM     66  C   UNL A   1      45.025  29.692  29.304  1.00  0.00     0.037 A 
BRANCH  53  67
ATOM     67  C   UNL A   1      44.473  28.243  34.511  1.00  0.00     0.058 A 
ATOM     68  C   UNL A   1      44.359  26.879  34.165  1.00  0.00     0.135 A 
ATOM     69  C   UNL A   1      44.931  28.498  35.822  1.00  0.00     0.135 A 
ATOM     70  F   UNL A   1      43.963  26.514  32.935  1.00  0.00    -0.206 F 
ATOM     71  C   UNL A   1      44.552  25.852  35.089  1.00  0.00     0.059 A 
ATOM     72  C   UNL A   1      45.178  27.487  36.745  1.00  0.00     0.059 A 
ATOM     73  F   UNL A   1      45.067  29.736  36.308  1.00  0.00    -0.206 F 
ATOM     74  C   UNL A   1      44.932  26.172  36.388  1.00  0.00     0.060 A 
BRANCH  74  75
ATOM     75  S   UNL A   1      45.020  24.869  37.628  1.00  0.00     0.124 S 
ATOM     76  O   UNL A   1      44.268  23.801  36.977  1.00  0.00    -0.237 OA
ATOM     77  O   UNL A   1      46.460  24.659  37.743  1.00  0.00    -0.237 OA
ATOM     78  O   UNL A   1      44.384  25.472  38.793  1.00  0.00    -0.744 OA
ENDBRANCH  74  75
ENDBRANCH  53  67
BRANCH  54  79
ATOM     79  C   UNL A   1      42.130  25.065  26.966  1.00  0.00     0.058 A 
ATOM     80  C   UNL A   1      43.026  24.514  26.030  1.00  0.00     0.135 A 
ATOM     81  C   UNL A   1      41.207  24.167  27.540  1.00  0.00     0.135 A 
ATOM     82  F   UNL A   1      43.952  25.289  25.444  1.00  0.00    -0.206 F 
ATOM     83  C   UNL A   1      43.045  23.147  25.727  1.00  0.00     0.059 A 
ATOM     84  C   UNL A   1      41.203  22.804  27.248  1.00  0.00     0.059 A 
ATOM     85  F   UNL A   1      40.340  24.574  28.478  1.00  0.00    -0.206 F 
ATOM     86  C   UNL A   1      42.143  22.294  26.362  1.00  0.00     0.060 A 
BRANCH  86  87
ATOM     87  S   UNL A   1      42.277  20.507  26.111  1.00  0.00     0.124 S 
ATOM     88  O   UNL A   1      43.374  20.416  25.154  1.00  0.00    -0.237 OA
ATOM     89  O   UNL A   1      42.564  20.028  27.459  1.00  0.00    -0.237 OA
ATOM     90  O   UNL A   1      40.963  20.138  25.590  1.00  0.00    -0.744 OA
ENDBRANCH  86  87
ENDBRANCH  54  79
BRANCH  66  91
ATOM     91  C   UNL A   1      44.953  30.650  28.143  1.00  0.00     0.058 A 
ATOM     92  C   UNL A   1      43.755  31.130  27.586  1.00  0.00     0.135 A 
ATOM     93  C   UNL A   1      46.149  31.221  27.680  1.00  0.00     0.135 A 
ATOM     94  F   UNL A   1      42.566  30.712  28.042  1.00  0.00    -0.206 F 
ATOM     95  C   UNL A   1      43.749  32.106  26.587  1.00  0.00     0.059 A 
ATOM     96  C   UNL A   1      46.164  32.217  26.708  1.00  0.00     0.059 A 
ATOM     97  F   UNL A   1      47.322  30.850  28.218  1.00  0.00    -0.206 F 
ATOM     98  C   UNL A   1      44.960  32.648  26.157  1.00  0.00     0.060 A 
BRANCH  98  99
ATOM     99  S   UNL A   1      44.940  33.970  24.928  1.00  0.00     0.124 S 
ATOM    100  O   UNL A   1      46.331  34.407  24.921  1.00  0.00    -0.237 OA
ATOM    101  O   UNL A   1      44.484  33.277  23.728  1.00  0.00    -0.237 OA
ATOM    102  O   UNL A   1      43.987  34.934  25.479  1.00  0.00    -0.744 OA
ENDBRANCH  98  99
ENDBRANCH  66  91
ENDBRANCH  40  41
ENDBRANCH  32  35
ENDBRANCH  30  31
ENDBRANCH   1  30
TORSDOF 19
ENDMDL
MODEL 3
REMARK VINA RESULT:     -11.9      3.003      9.467
REMARK SMILES COc1cc2cc(C(=O)NCCCCNC(=O)c3ccc(-c4c5nc(c(-c6c(F)cc(S(=O)(=O)[O-])cc6F)c6ccc([nH]6)c(-c6c(F)cc(S(=O)(=O)[O-])cc6F)c6nc(c(-c7c(F)cc(S(=O)(=O)[O-])cc7F)c7ccc4[nH]7)C=C6)C=C5)cc3)n(Cc3ccccc3)c2c(OC)c1OC
REMARK SMILES IDX 13 1 12 2 11 3 10 4 8 5 9 6 7 8 3 9 4 10 96 11 5 12 93 13
REMARK SMILES IDX 6 14 92 15 84 16 2 17 1 18 97 19 98 20 94 21 95 22 85 23
REMARK SMILES IDX 86 24 87 25 91 26 88 27 90 28 89 29 14 30 15 31 16 32 17 34
REMARK SMILES IDX 18 35 19 36 83 37 20 38 82 39 21 40 22 41 23 42 76 43 24 44
REMARK SMILES IDX 81 45 75 46 77 47 25 48 80 49 74 50 73 51 26 53 60 54 39 55
REMARK SMILES IDX 59 56 40 57 43 58 58 59 78 60 41 61 42 62 57 64 79 65 44 66
REMARK SMILES IDX 27 67 28 68 37 69 29 70 30 71 36 72 38 73 31 74 32 75 33 76
REMARK SMILES IDX 34 77 35 78 61 79 62 80 71 81 63 82 64 83 70 84 72 85 65 86
REMARK SMILES IDX 66 87 67 88 68 89 69 90 45 91 46 92 55 93 47 94 48 95 54 96
REMARK SMILES IDX 56 97 49 98 50 99 51 100 52 101 53 102
REMARK H PARENT 10 7 15 33 77 52 43 63
REMARK Flexibility Score: inf
ROOT
ATOM      1  C   UNL A   1      41.074  23.302  26.692  1.00  0.00     0.023 C 
ENDROOT
BRANCH   1   2
ATOM      2  C   UNL A   1      39.864  22.393  26.931  1.00  0.00     0.023 C 
BRANCH   2   3
ATOM      3  C   UNL A   1      38.536  22.832  26.315  1.00  0.00     0.116 C 
BRANCH   3   4
ATOM      4  N   UNL A   1      37.747  21.695  25.896  1.00  0.00    -0.351 N 
ATOM      5  C   UNL A   1      36.452  21.500  25.505  1.00  0.00     0.267 C 
ATOM      6  O   UNL A   1      36.254  20.370  25.041  1.00  0.00    -0.268 OA
ATOM      7  H   UNL A   1      38.269  20.861  25.889  1.00  0.00     0.163 HD
BRANCH   5   8
ATOM      8  C   UNL A   1      35.363  22.476  25.537  1.00  0.00     0.108 A 
ATOM      9  C   UNL A   1      32.836  26.375  25.315  1.00  0.00     0.165 A 
ATOM     10  C   UNL A   1      34.031  25.844  24.830  1.00  0.00     0.061 A 
ATOM     11  C   UNL A   1      31.926  25.599  26.050  1.00  0.00     0.205 A 
ATOM     12  C   UNL A   1      34.363  24.518  25.149  1.00  0.00     0.008 A 
ATOM     13  C   UNL A   1      32.261  24.274  26.412  1.00  0.00     0.189 A 
ATOM     14  C   UNL A   1      35.517  23.734  24.947  1.00  0.00     0.042 A 
ATOM     15  C   UNL A   1      33.473  23.739  25.880  1.00  0.00     0.096 A 
ATOM     16  N   UNL A   1      34.013  22.433  25.881  1.00  0.00    -0.329 N 
BRANCH   9  17
ATOM     17  O   UNL A   1      32.630  27.716  25.081  1.00  0.00    -0.493 OA
ATOM     18  C   UNL A   1      33.375  28.492  26.026  1.00  0.00     0.278 C 
ENDBRANCH   9  17
BRANCH  11  19
ATOM     19  O   UNL A   1      30.758  26.156  26.523  1.00  0.00    -0.490 OA
ATOM     20  C   UNL A   1      29.636  25.988  25.655  1.00  0.00     0.278 C 
ENDBRANCH  11  19
BRANCH  13  21
ATOM     21  O   UNL A   1      31.576  23.465  27.275  1.00  0.00    -0.491 OA
ATOM     22  C   UNL A   1      30.362  22.851  26.878  1.00  0.00     0.278 C 
ENDBRANCH  13  21
BRANCH  16  23
ATOM     23  C   UNL A   1      33.165  21.275  26.165  1.00  0.00     0.158 C 
BRANCH  23  24
ATOM     24  C   UNL A   1      32.762  20.339  25.050  1.00  0.00    -0.028 A 
ATOM     25  C   UNL A   1      32.372  20.708  23.759  1.00  0.00     0.005 A 
ATOM     26  C   UNL A   1      32.897  18.962  25.334  1.00  0.00     0.005 A 
ATOM     27  C   UNL A   1      32.222  19.739  22.761  1.00  0.00     0.000 A 
ATOM     28  C   UNL A   1      32.717  17.996  24.347  1.00  0.00     0.000 A 
ATOM     29  C   UNL A   1      32.403  18.388  23.052  1.00  0.00     0.000 A 
ENDBRANCH  23  24
ENDBRANCH  16  23
ENDBRANCH   5   8
ENDBRANCH   3   4
ENDBRANCH   2   3
ENDBRANCH   1   2
BRANCH   1  30
ATOM     30  C   UNL A   1      42.420  22.585  26.614  1.00  0.00     0.116 C 
BRANCH  30  31
ATOM     31  N   UNL A   1      43.287  23.103  25.576  1.00  0.00    -0.352 N 
ATOM     32  C   UNL A   1      43.872  24.311  25.316  1.00  0.00     0.251 C 
ATOM     33  H   UNL A   1      43.510  22.425  24.898  1.00  0.00     0.163 HD
ATOM     34  O   UNL A   1      44.675  24.320  24.378  1.00  0.00    -0.269 OA
BRANCH  32  35
ATOM     35  C   UNL A   1      43.591  25.587  26.029  1.00  0.00     0.039 A 
ATOM     36  C   UNL A   1      44.100  25.946  27.275  1.00  0.00     0.014 A 
ATOM     37  C   UNL A   1      42.652  26.443  25.418  1.00  0.00     0.014 A 
ATOM     38  C   UNL A   1      43.612  27.073  27.932  1.00  0.00     0.010 A 
ATOM     39  C   UNL A   1      42.176  27.582  26.062  1.00  0.00     0.010 A 
ATOM     40  C   UNL A   1      42.620  27.869  27.347  1.00  0.00    -0.014 A 
BRANCH  40  41
ATOM     41  C   UNL A   1      42.146  29.030  28.100  1.00  0.00     0.031 A 
ATOM     42  C   UNL A   1      43.110  30.165  28.161  1.00  0.00     0.074 A 
ATOM     43  C   UNL A   1      40.930  29.131  28.677  1.00  0.00     0.049 A 
ATOM     44  N   UNL A   1      43.782  30.577  29.186  1.00  0.00    -0.248 NA
ATOM     45  C   UNL A   1      43.481  30.825  26.901  1.00  0.00     0.031 C 
ATOM     46  C   UNL A   1      39.770  28.247  28.543  1.00  0.00     0.029 A 
ATOM     47  N   UNL A   1      40.460  30.125  29.486  1.00  0.00    -0.354 N 
ATOM     48  C   UNL A   1      44.520  31.678  28.753  1.00  0.00     0.074 A 
ATOM     49  C   UNL A   1      44.410  31.688  27.317  1.00  0.00     0.031 C 
ATOM     50  C   UNL A   1      38.679  28.855  29.067  1.00  0.00     0.029 A 
ATOM     51  C   UNL A   1      39.088  30.094  29.705  1.00  0.00     0.049 A 
ATOM     52  H   UNL A   1      41.047  30.809  29.883  1.00  0.00     0.167 HD
ATOM     53  C   UNL A   1      45.007  32.601  29.630  1.00  0.00     0.037 A 
ATOM     54  C   UNL A   1      38.345  31.037  30.339  1.00  0.00     0.037 A 
ATOM     55  C   UNL A   1      45.014  32.087  30.978  1.00  0.00     0.049 A 
ATOM     56  C   UNL A   1      39.264  31.787  31.232  1.00  0.00     0.074 A 
ATOM     57  C   UNL A   1      45.648  31.046  31.627  1.00  0.00     0.029 A 
ATOM     58  N   UNL A   1      44.003  32.485  31.819  1.00  0.00    -0.354 N 
ATOM     59  N   UNL A   1      39.847  31.266  32.276  1.00  0.00    -0.248 NA
ATOM     60  C   UNL A   1      39.884  32.995  30.710  1.00  0.00     0.031 C 
ATOM     61  C   UNL A   1      44.695  30.566  32.574  1.00  0.00     0.029 A 
ATOM     62  C   UNL A   1      43.560  31.369  32.477  1.00  0.00     0.049 A 
ATOM     63  H   UNL A   1      43.662  33.403  31.928  1.00  0.00     0.167 HD
ATOM     64  C   UNL A   1      41.122  31.812  32.282  1.00  0.00     0.074 A 
ATOM     65  C   UNL A   1      41.057  32.933  31.346  1.00  0.00     0.031 C 
ATOM     66  C   UNL A   1      42.177  31.144  32.835  1.00  0.00     0.037 A 
BRANCH  53  67
ATOM     67  C   UNL A   1      45.131  34.084  29.347  1.00  0.00     0.058 A 
ATOM     68  C   UNL A   1      46.342  34.741  29.657  1.00  0.00     0.135 A 
ATOM     69  C   UNL A   1      44.030  34.932  29.098  1.00  0.00     0.135 A 
ATOM     70  F   UNL A   1      47.465  34.039  29.882  1.00  0.00    -0.206 F 
ATOM     71  C   UNL A   1      46.421  36.121  29.837  1.00  0.00     0.059 A 
ATOM     72  C   UNL A   1      44.099  36.315  29.223  1.00  0.00     0.059 A 
ATOM     73  F   UNL A   1      42.810  34.461  28.817  1.00  0.00    -0.206 F 
ATOM     74  C   UNL A   1      45.282  36.896  29.648  1.00  0.00     0.060 A 
BRANCH  74  75
ATOM     75  S   UNL A   1      45.334  38.653  30.043  1.00  0.00     0.124 S 
ATOM     76  O   UNL A   1      43.933  39.026  29.874  1.00  0.00    -0.237 OA
ATOM     77  O   UNL A   1      45.832  38.639  31.415  1.00  0.00    -0.237 OA
ATOM     78  O   UNL A   1      46.257  39.192  29.051  1.00  0.00    -0.744 OA
ENDBRANCH  74  75
ENDBRANCH  53  67
BRANCH  54  79
ATOM     79  C   UNL A   1      37.014  31.572  29.934  1.00  0.00     0.058 A 
ATOM     80  C   UNL A   1      36.085  32.021  30.891  1.00  0.00     0.135 A 
ATOM     81  C   UNL A   1      36.749  31.938  28.598  1.00  0.00     0.135 A 
ATOM     82  F   UNL A   1      36.264  31.736  32.191  1.00  0.00    -0.206 F 
ATOM     83  C   UNL A   1      34.993  32.831  30.554  1.00  0.00     0.059 A 
ATOM     84  C   UNL A   1      35.665  32.737  28.237  1.00  0.00     0.059 A 
ATOM     85  F   UNL A   1      37.593  31.606  27.611  1.00  0.00    -0.206 F 
ATOM     86  C   UNL A   1      34.806  33.205  29.224  1.00  0.00     0.060 A 
BRANCH  86  87
ATOM     87  S   UNL A   1      33.506  34.392  28.805  1.00  0.00     0.124 S 
ATOM     88  O   UNL A   1      32.655  33.608  27.916  1.00  0.00    -0.237 OA
ATOM     89  O   UNL A   1      32.943  34.706  30.114  1.00  0.00    -0.237 OA
ATOM     90  O   UNL A   1      34.236  35.484  28.167  1.00  0.00    -0.744 OA
ENDBRANCH  86  87
ENDBRANCH  54  79
BRANCH  66  91
ATOM     91  C   UNL A   1      41.887  29.942  33.695  1.00  0.00     0.058 A 
ATOM     92  C   UNL A   1      41.665  28.647  33.196  1.00  0.00     0.135 A 
ATOM     93  C   UNL A   1      41.990  30.084  35.087  1.00  0.00     0.135 A 
ATOM     94  F   UNL A   1      41.654  28.407  31.877  1.00  0.00    -0.206 F 
ATOM     95  C   UNL A   1      41.516  27.548  34.046  1.00  0.00     0.059 A 
ATOM     96  C   UNL A   1      41.876  28.998  35.951  1.00  0.00     0.059 A 
ATOM     97  F   UNL A   1      42.264  31.285  35.622  1.00  0.00    -0.206 F 
ATOM     98  C   UNL A   1      41.627  27.733  35.424  1.00  0.00     0.060 A 
BRANCH  98  99
ATOM     99  S   UNL A   1      41.519  26.296  36.512  1.00  0.00     0.124 S 
ATOM    100  O   UNL A   1      40.658  26.782  37.582  1.00  0.00    -0.237 OA
ATOM    101  O   UNL A   1      40.939  25.283  35.637  1.00  0.00    -0.237 OA
ATOM    102  O   UNL A   1      42.911  26.052  36.894  1.00  0.00    -0.744 OA
ENDBRANCH  98  99
ENDBRANCH  66  91
ENDBRANCH  40  41
ENDBRANCH  32  35
ENDBRANCH  30  31
ENDBRANCH   1  30
TORSDOF 19
ENDMDL
