MODEL 1
REMARK VINA RESULT:     -11.8      0.000      0.000
REMARK SMILES Cc1noc(-c2ccc(CCl)cc2)c1C(=O)NCCCCNC(=O)c1ccc(-c2c3nc(c(-c4c(F)cc(S(=O)(=O)[O-])cc4F)c4ccc([nH]4)c(-c4c(F)cc(S(=O)(=O)[O-])cc4F)c4nc(c(-c5c(F)cc(S(=O)(=O)[O-])cc5F)c5ccc2[nH]5)C=C4)C=C3)cc1
REMARK SMILES IDX 20 1 19 2 18 3 17 4 15 5 16 6 14 8 1 9 2 10 3 11 4 12 5 13
REMARK SMILES IDX 6 14 7 15 13 16 8 17 12 18 9 19 10 20 11 21 21 22 22 23
REMARK SMILES IDX 23 24 24 26 25 27 26 28 90 29 27 30 89 31 28 32 29 33 30 34
REMARK SMILES IDX 83 35 31 36 88 37 82 38 84 39 32 40 87 41 81 42 80 43 33 45
REMARK SMILES IDX 67 46 46 47 66 48 47 49 50 50 65 51 85 52 48 53 49 54 64 56
REMARK SMILES IDX 86 57 51 58 34 59 35 60 44 61 36 62 37 63 43 64 45 65 38 66
REMARK SMILES IDX 39 67 40 68 41 69 42 70 68 71 69 72 78 73 70 74 71 75 77 76
REMARK SMILES IDX 79 77 72 78 73 79 74 80 75 81 76 82 52 83 53 84 62 85 54 86
REMARK SMILES IDX 55 87 61 88 63 89 56 90 57 91 58 92 59 93 60 94
REMARK H PARENT 17 7 22 25 84 44 50 55
REMARK Flexibility Score: inf
ROOT
ATOM      1  C   UNL A   1      31.901  27.989  27.417  1.00  0.00     0.023 C 
ENDROOT
BRANCH   1   2
ATOM      2  C   UNL A   1      31.264  27.559  26.098  1.00  0.00     0.023 C 
BRANCH   2   3
ATOM      3  C   UNL A   1      30.947  26.079  25.921  1.00  0.00     0.116 C 
BRANCH   3   4
ATOM      4  N   UNL A   1      31.933  25.174  26.459  1.00  0.00    -0.352 N 
ATOM      5  C   UNL A   1      32.988  24.508  25.884  1.00  0.00     0.257 C 
ATOM      6  O   UNL A   1      33.651  23.813  26.657  1.00  0.00    -0.269 OA
ATOM      7  H   UNL A   1      31.830  25.001  27.423  1.00  0.00     0.163 HD
BRANCH   5   8
ATOM      8  C   UNL A   1      33.303  24.561  24.461  1.00  0.00     0.110 A 
ATOM      9  C   UNL A   1      33.838  27.061  23.695  1.00  0.00     0.071 C 
ATOM     10  C   UNL A   1      33.634  25.602  23.530  1.00  0.00     0.094 A 
ATOM     11  N   UNL A   1      33.851  25.116  22.299  1.00  0.00    -0.084 NA
ATOM     12  O   UNL A   1      33.781  23.753  22.413  1.00  0.00    -0.355 OA
ATOM     13  C   UNL A   1      33.492  23.413  23.696  1.00  0.00     0.179 A 
BRANCH  13  14
ATOM     14  C   UNL A   1      33.494  21.977  23.926  1.00  0.00     0.021 A 
ATOM     15  C   UNL A   1      34.598  21.383  24.557  1.00  0.00     0.012 A 
ATOM     16  C   UNL A   1      32.431  21.165  23.522  1.00  0.00     0.012 A 
ATOM     17  C   UNL A   1      34.633  20.007  24.791  1.00  0.00     0.006 A 
ATOM     18  C   UNL A   1      32.471  19.783  23.746  1.00  0.00     0.006 A 
ATOM     19  C   UNL A   1      33.569  19.190  24.387  1.00  0.00    -0.033 A 
BRANCH  19  20
ATOM     20  C   UNL A   1      33.597  17.711  24.655  1.00  0.00     0.145 C 
ATOM     21  Cl  UNL A   1      34.232  16.818  23.255  1.00  0.00    -0.122 Cl
ENDBRANCH  19  20
ENDBRANCH  13  14
ENDBRANCH   5   8
ENDBRANCH   3   4
ENDBRANCH   2   3
ENDBRANCH   1   2
BRANCH   1  22
ATOM     22  C   UNL A   1      33.285  28.625  27.340  1.00  0.00     0.116 C 
BRANCH  22  23
ATOM     23  N   UNL A   1      33.314  30.039  27.684  1.00  0.00    -0.352 N 
ATOM     24  C   UNL A   1      34.356  30.806  28.156  1.00  0.00     0.251 C 
ATOM     25  H   UNL A   1      32.464  30.519  27.561  1.00  0.00     0.163 HD
ATOM     26  O   UNL A   1      34.166  31.988  28.435  1.00  0.00    -0.269 OA
BRANCH  24  27
ATOM     27  C   UNL A   1      35.685  30.196  28.376  1.00  0.00     0.039 A 
ATOM     28  C   UNL A   1      36.605  30.186  27.324  1.00  0.00     0.014 A 
ATOM     29  C   UNL A   1      36.043  29.681  29.624  1.00  0.00     0.014 A 
ATOM     30  C   UNL A   1      37.916  29.757  27.552  1.00  0.00     0.010 A 
ATOM     31  C   UNL A   1      37.367  29.328  29.870  1.00  0.00     0.010 A 
ATOM     32  C   UNL A   1      38.321  29.376  28.841  1.00  0.00    -0.014 A 
BRANCH  32  33
ATOM     33  C   UNL A   1      39.740  29.049  29.144  1.00  0.00     0.031 A 
ATOM     34  C   UNL A   1      40.643  30.091  29.745  1.00  0.00     0.074 A 
ATOM     35  C   UNL A   1      40.236  27.846  28.794  1.00  0.00     0.049 A 
ATOM     36  N   UNL A   1      41.928  30.033  29.979  1.00  0.00    -0.248 NA
ATOM     37  C   UNL A   1      40.025  31.378  30.099  1.00  0.00     0.031 C 
ATOM     38  C   UNL A   1      39.479  26.770  28.148  1.00  0.00     0.029 A 
ATOM     39  N   UNL A   1      41.503  27.328  28.914  1.00  0.00    -0.354 N 
ATOM     40  C   UNL A   1      42.277  31.279  30.484  1.00  0.00     0.074 A 
ATOM     41  C   UNL A   1      41.078  32.088  30.478  1.00  0.00     0.031 C 
ATOM     42  C   UNL A   1      40.289  25.716  27.950  1.00  0.00     0.029 A 
ATOM     43  C   UNL A   1      41.630  26.051  28.419  1.00  0.00     0.049 A 
ATOM     44  H   UNL A   1      42.250  27.825  29.319  1.00  0.00     0.167 HD
ATOM     45  C   UNL A   1      43.483  31.706  30.932  1.00  0.00     0.037 A 
ATOM     46  C   UNL A   1      42.705  25.243  28.345  1.00  0.00     0.037 A 
ATOM     47  C   UNL A   1      44.664  30.885  30.974  1.00  0.00     0.049 A 
ATOM     48  C   UNL A   1      44.025  25.726  28.880  1.00  0.00     0.074 A 
ATOM     49  C   UNL A   1      45.917  31.204  31.470  1.00  0.00     0.029 A 
ATOM     50  N   UNL A   1      44.739  29.581  30.509  1.00  0.00    -0.354 N 
ATOM     51  N   UNL A   1      44.323  26.889  29.407  1.00  0.00    -0.248 NA
ATOM     52  C   UNL A   1      45.154  24.787  28.817  1.00  0.00     0.031 C 
ATOM     53  C   UNL A   1      46.756  30.101  31.280  1.00  0.00     0.029 A 
ATOM     54  C   UNL A   1      46.017  29.083  30.698  1.00  0.00     0.049 A 
ATOM     55  H   UNL A   1      43.993  29.082  30.104  1.00  0.00     0.167 HD
ATOM     56  C   UNL A   1      45.665  26.812  29.763  1.00  0.00     0.074 A 
ATOM     57  C   UNL A   1      46.119  25.487  29.398  1.00  0.00     0.031 C 
ATOM     58  C   UNL A   1      46.449  27.755  30.342  1.00  0.00     0.037 A 
BRANCH  45  59
ATOM     59  C   UNL A   1      43.577  33.122  31.427  1.00  0.00     0.058 A 
ATOM     60  C   UNL A   1      43.476  33.431  32.793  1.00  0.00     0.135 A 
ATOM     61  C   UNL A   1      43.791  34.180  30.529  1.00  0.00     0.135 A 
ATOM     62  F   UNL A   1      43.255  32.458  33.691  1.00  0.00    -0.206 F 
ATOM     63  C   UNL A   1      43.551  34.742  33.249  1.00  0.00     0.059 A 
ATOM     64  C   UNL A   1      43.897  35.497  30.967  1.00  0.00     0.059 A 
ATOM     65  F   UNL A   1      43.896  33.940  29.213  1.00  0.00    -0.206 F 
ATOM     66  C   UNL A   1      43.758  35.769  32.328  1.00  0.00     0.060 A 
BRANCH  66  67
ATOM     67  S   UNL A   1      43.848  37.467  32.934  1.00  0.00     0.124 S 
ATOM     68  O   UNL A   1      43.843  38.222  31.685  1.00  0.00    -0.237 OA
ATOM     69  O   UNL A   1      42.639  37.575  33.744  1.00  0.00    -0.237 OA
ATOM     70  O   UNL A   1      45.102  37.495  33.679  1.00  0.00    -0.744 OA
ENDBRANCH  66  67
ENDBRANCH  45  59
BRANCH  46  71
ATOM     71  C   UNL A   1      42.571  23.878  27.770  1.00  0.00     0.058 A 
ATOM     72  C   UNL A   1      42.517  23.686  26.381  1.00  0.00     0.135 A 
ATOM     73  C   UNL A   1      42.513  22.741  28.591  1.00  0.00     0.135 A 
ATOM     74  F   UNL A   1      42.563  24.744  25.558  1.00  0.00    -0.206 F 
ATOM     75  C   UNL A   1      42.392  22.418  25.825  1.00  0.00     0.059 A 
ATOM     76  C   UNL A   1      42.410  21.460  28.057  1.00  0.00     0.059 A 
ATOM     77  F   UNL A   1      42.579  22.871  29.925  1.00  0.00    -0.206 F 
ATOM     78  C   UNL A   1      42.341  21.310  26.672  1.00  0.00     0.060 A 
BRANCH  78  79
ATOM     79  S   UNL A   1      42.234  19.662  25.940  1.00  0.00     0.124 S 
ATOM     80  O   UNL A   1      40.864  19.653  25.439  1.00  0.00    -0.237 OA
ATOM     81  O   UNL A   1      43.284  19.704  24.928  1.00  0.00    -0.237 OA
ATOM     82  O   UNL A   1      42.500  18.777  27.070  1.00  0.00    -0.744 OA
ENDBRANCH  78  79
ENDBRANCH  46  71
BRANCH  58  83
ATOM     83  C   UNL A   1      47.869  27.377  30.654  1.00  0.00     0.058 A 
ATOM     84  C   UNL A   1      48.202  26.662  31.814  1.00  0.00     0.135 A 
ATOM     85  C   UNL A   1      48.898  27.683  29.749  1.00  0.00     0.135 A 
ATOM     86  F   UNL A   1      47.254  26.352  32.713  1.00  0.00    -0.206 F 
ATOM     87  C   UNL A   1      49.513  26.276  32.074  1.00  0.00     0.059 A 
ATOM     88  C   UNL A   1      50.211  27.287  29.979  1.00  0.00     0.059 A 
ATOM     89  F   UNL A   1      48.628  28.358  28.621  1.00  0.00    -0.206 F 
ATOM     90  C   UNL A   1      50.510  26.591  31.150  1.00  0.00     0.060 A 
BRANCH  90  91
ATOM     91  S   UNL A   1      52.200  26.046  31.475  1.00  0.00     0.124 S 
ATOM     92  O   UNL A   1      52.792  26.113  30.143  1.00  0.00    -0.237 OA
ATOM     93  O   UNL A   1      52.674  27.044  32.430  1.00  0.00    -0.237 OA
ATOM     94  O   UNL A   1      52.025  24.703  32.019  1.00  0.00    -0.744 OA
ENDBRANCH  90  91
ENDBRANCH  58  83
ENDBRANCH  32  33
ENDBRANCH  24  27
ENDBRANCH  22  23
ENDBRANCH   1  22
TORSDOF 16
ENDMDL
MODEL 2
REMARK VINA RESULT:     -11.8      1.369      2.439
REMARK SMILES Cc1noc(-c2ccc(CCl)cc2)c1C(=O)NCCCCNC(=O)c1ccc(-c2c3nc(c(-c4c(F)cc(S(=O)(=O)[O-])cc4F)c4ccc([nH]4)c(-c4c(F)cc(S(=O)(=O)[O-])cc4F)c4nc(c(-c5c(F)cc(S(=O)(=O)[O-])cc5F)c5ccc2[nH]5)C=C4)C=C3)cc1
REMARK SMILES IDX 20 1 19 2 18 3 17 4 15 5 16 6 14 8 1 9 2 10 3 11 4 12 5 13
REMARK SMILES IDX 6 14 7 15 13 16 8 17 12 18 9 19 10 20 11 21 21 22 22 23
REMARK SMILES IDX 23 24 24 26 25 27 26 28 90 29 27 30 89 31 28 32 29 33 30 34
REMARK SMILES IDX 83 35 31 36 88 37 82 38 84 39 32 40 87 41 81 42 80 43 33 45
REMARK SMILES IDX 67 46 46 47 66 48 47 49 50 50 65 51 85 52 48 53 49 54 64 56
REMARK SMILES IDX 86 57 51 58 34 59 35 60 44 61 36 62 37 63 43 64 45 65 38 66
REMARK SMILES IDX 39 67 40 68 41 69 42 70 68 71 69 72 78 73 70 74 71 75 77 76
REMARK SMILES IDX 79 77 72 78 73 79 74 80 75 81 76 82 52 83 53 84 62 85 54 86
REMARK SMILES IDX 55 87 61 88 63 89 56 90 57 91 58 92 59 93 60 94
REMARK H PARENT 17 7 22 25 84 44 50 55
REMARK Flexibility Score: inf
ROOT
ATOM      1  C   UNL A   1      33.179  28.961  25.409  1.00  0.00     0.023 C 
ENDROOT
BRANCH   1   2
ATOM      2  C   UNL A   1      33.955  28.135  24.386  1.00  0.00     0.023 C 
BRANCH   2   3
ATOM      3  C   UNL A   1      33.502  28.212  22.933  1.00  0.00     0.116 C 
BRANCH   3   4
ATOM      4  N   UNL A   1      33.591  26.974  22.198  1.00  0.00    -0.352 N 
ATOM      5  C   UNL A   1      33.128  25.708  22.461  1.00  0.00     0.257 C 
ATOM      6  O   UNL A   1      33.374  24.870  21.589  1.00  0.00    -0.269 OA
ATOM      7  H   UNL A   1      34.078  27.052  21.345  1.00  0.00     0.163 HD
BRANCH   5   8
ATOM      8  C   UNL A   1      32.433  25.335  23.687  1.00  0.00     0.110 A 
ATOM      9  C   UNL A   1      29.886  26.128  23.616  1.00  0.00     0.071 C 
ATOM     10  C   UNL A   1      31.104  25.516  24.198  1.00  0.00     0.094 A 
ATOM     11  N   UNL A   1      30.959  24.961  25.410  1.00  0.00    -0.084 NA
ATOM     12  O   UNL A   1      32.136  24.313  25.672  1.00  0.00    -0.355 OA
ATOM     13  C   UNL A   1      33.003  24.499  24.643  1.00  0.00     0.179 A 
BRANCH  13  14
ATOM     14  C   UNL A   1      34.247  23.762  24.796  1.00  0.00     0.021 A 
ATOM     15  C   UNL A   1      35.338  24.378  25.427  1.00  0.00     0.012 A 
ATOM     16  C   UNL A   1      34.394  22.458  24.317  1.00  0.00     0.012 A 
ATOM     17  C   UNL A   1      36.548  23.699  25.589  1.00  0.00     0.006 A 
ATOM     18  C   UNL A   1      35.611  21.781  24.467  1.00  0.00     0.006 A 
ATOM     19  C   UNL A   1      36.699  22.391  25.109  1.00  0.00    -0.033 A 
BRANCH  19  20
ATOM     20  C   UNL A   1      37.995  21.653  25.298  1.00  0.00     0.145 C 
ATOM     21  Cl  UNL A   1      39.091  22.549  26.374  1.00  0.00    -0.122 Cl
ENDBRANCH  19  20
ENDBRANCH  13  14
ENDBRANCH   5   8
ENDBRANCH   3   4
ENDBRANCH   2   3
ENDBRANCH   1   2
BRANCH   1  22
ATOM     22  C   UNL A   1      33.631  28.861  26.862  1.00  0.00     0.116 C 
BRANCH  22  23
ATOM     23  N   UNL A   1      33.567  30.116  27.597  1.00  0.00    -0.352 N 
ATOM     24  C   UNL A   1      34.532  30.737  28.358  1.00  0.00     0.251 C 
ATOM     25  H   UNL A   1      32.707  30.591  27.542  1.00  0.00     0.163 HD
ATOM     26  O   UNL A   1      34.267  31.784  28.945  1.00  0.00    -0.269 OA
BRANCH  24  27
ATOM     27  C   UNL A   1      35.868  30.120  28.508  1.00  0.00     0.039 A 
ATOM     28  C   UNL A   1      36.736  30.114  27.413  1.00  0.00     0.014 A 
ATOM     29  C   UNL A   1      36.283  29.595  29.734  1.00  0.00     0.014 A 
ATOM     30  C   UNL A   1      38.054  29.678  27.575  1.00  0.00     0.010 A 
ATOM     31  C   UNL A   1      37.617  29.235  29.914  1.00  0.00     0.010 A 
ATOM     32  C   UNL A   1      38.520  29.287  28.840  1.00  0.00    -0.014 A 
BRANCH  32  33
ATOM     33  C   UNL A   1      39.950  28.951  29.072  1.00  0.00     0.031 A 
ATOM     34  C   UNL A   1      40.896  29.997  29.595  1.00  0.00     0.074 A 
ATOM     35  C   UNL A   1      40.415  27.735  28.724  1.00  0.00     0.049 A 
ATOM     36  N   UNL A   1      42.191  29.931  29.759  1.00  0.00    -0.248 NA
ATOM     37  C   UNL A   1      40.310  31.299  29.952  1.00  0.00     0.031 C 
ATOM     38  C   UNL A   1      39.612  26.652  28.148  1.00  0.00     0.029 A 
ATOM     39  N   UNL A   1      41.682  27.207  28.786  1.00  0.00    -0.354 N 
ATOM     40  C   UNL A   1      42.579  31.185  30.213  1.00  0.00     0.074 A 
ATOM     41  C   UNL A   1      41.389  32.007  30.254  1.00  0.00     0.031 C 
ATOM     42  C   UNL A   1      40.400  25.585  27.931  1.00  0.00     0.029 A 
ATOM     43  C   UNL A   1      41.768  25.917  28.316  1.00  0.00     0.049 A 
ATOM     44  H   UNL A   1      42.455  27.705  29.136  1.00  0.00     0.167 HD
ATOM     45  C   UNL A   1      43.812  31.610  30.583  1.00  0.00     0.037 A 
ATOM     46  C   UNL A   1      42.830  25.095  28.203  1.00  0.00     0.037 A 
ATOM     47  C   UNL A   1      44.986  30.777  30.580  1.00  0.00     0.049 A 
ATOM     48  C   UNL A   1      44.183  25.577  28.651  1.00  0.00     0.074 A 
ATOM     49  C   UNL A   1      46.268  31.095  30.997  1.00  0.00     0.029 A 
ATOM     50  N   UNL A   1      45.023  29.462  30.143  1.00  0.00    -0.354 N 
ATOM     51  N   UNL A   1      44.520  26.749  29.132  1.00  0.00    -0.248 NA
ATOM     52  C   UNL A   1      45.297  24.624  28.548  1.00  0.00     0.031 C 
ATOM     53  C   UNL A   1      47.085  29.979  30.787  1.00  0.00     0.029 A 
ATOM     54  C   UNL A   1      46.305  28.955  30.273  1.00  0.00     0.049 A 
ATOM     55  H   UNL A   1      44.250  28.962  29.793  1.00  0.00     0.167 HD
ATOM     56  C   UNL A   1      45.879  26.666  29.415  1.00  0.00     0.074 A 
ATOM     57  C   UNL A   1      46.300  25.328  29.058  1.00  0.00     0.031 C 
ATOM     58  C   UNL A   1      46.703  27.614  29.926  1.00  0.00     0.037 A 
BRANCH  45  59
ATOM     59  C   UNL A   1      43.947  33.036  31.036  1.00  0.00     0.058 A 
ATOM     60  C   UNL A   1      44.259  34.067  30.135  1.00  0.00     0.135 A 
ATOM     61  C   UNL A   1      43.743  33.382  32.382  1.00  0.00     0.135 A 
ATOM     62  F   UNL A   1      44.480  33.788  28.840  1.00  0.00    -0.206 F 
ATOM     63  C   UNL A   1      44.395  35.385  30.556  1.00  0.00     0.059 A 
ATOM     64  C   UNL A   1      43.848  34.698  32.821  1.00  0.00     0.059 A 
ATOM     65  F   UNL A   1      43.443  32.436  33.285  1.00  0.00    -0.206 F 
ATOM     66  C   UNL A   1      44.192  35.690  31.902  1.00  0.00     0.060 A 
BRANCH  66  67
ATOM     67  S   UNL A   1      44.378  37.405  32.436  1.00  0.00     0.124 S 
ATOM     68  O   UNL A   1      45.796  37.450  32.776  1.00  0.00    -0.237 OA
ATOM     69  O   UNL A   1      43.989  38.149  31.242  1.00  0.00    -0.237 OA
ATOM     70  O   UNL A   1      43.458  37.510  33.563  1.00  0.00    -0.744 OA
ENDBRANCH  66  67
ENDBRANCH  45  59
BRANCH  46  71
ATOM     71  C   UNL A   1      42.652  23.718  27.669  1.00  0.00     0.058 A 
ATOM     72  C   UNL A   1      42.726  23.467  26.292  1.00  0.00     0.135 A 
ATOM     73  C   UNL A   1      42.421  22.628  28.523  1.00  0.00     0.135 A 
ATOM     74  F   UNL A   1      42.938  24.479  25.437  1.00  0.00    -0.206 F 
ATOM     75  C   UNL A   1      42.562  22.187  25.774  1.00  0.00     0.059 A 
ATOM     76  C   UNL A   1      42.276  21.334  28.031  1.00  0.00     0.059 A 
ATOM     77  F   UNL A   1      42.360  22.814  29.851  1.00  0.00    -0.206 F 
ATOM     78  C   UNL A   1      42.339  21.126  26.653  1.00  0.00     0.060 A 
BRANCH  78  79
ATOM     79  S   UNL A   1      42.181  19.458  25.978  1.00  0.00     0.124 S 
ATOM     80  O   UNL A   1      43.018  19.543  24.787  1.00  0.00    -0.237 OA
ATOM     81  O   UNL A   1      42.698  18.634  27.066  1.00  0.00    -0.237 OA
ATOM     82  O   UNL A   1      40.746  19.331  25.735  1.00  0.00    -0.744 OA
ENDBRANCH  78  79
ENDBRANCH  46  71
BRANCH  58  83
ATOM     83  C   UNL A   1      48.135  27.229  30.168  1.00  0.00     0.058 A 
ATOM     84  C   UNL A   1      49.129  27.452  29.205  1.00  0.00     0.135 A 
ATOM     85  C   UNL A   1      48.523  26.687  31.404  1.00  0.00     0.135 A 
ATOM     86  F   UNL A   1      48.807  27.961  28.006  1.00  0.00    -0.206 F 
ATOM     87  C   UNL A   1      50.461  27.135  29.453  1.00  0.00     0.059 A 
ATOM     88  C   UNL A   1      49.851  26.384  31.681  1.00  0.00     0.059 A 
ATOM     89  F   UNL A   1      47.609  26.464  32.362  1.00  0.00    -0.206 F 
ATOM     90  C   UNL A   1      50.813  26.603  30.695  1.00  0.00     0.060 A 
BRANCH  90  91
ATOM     91  S   UNL A   1      52.550  26.238  31.023  1.00  0.00     0.124 S 
ATOM     92  O   UNL A   1      52.947  27.393  31.822  1.00  0.00    -0.237 OA
ATOM     93  O   UNL A   1      52.475  24.968  31.740  1.00  0.00    -0.237 OA
ATOM     94  O   UNL A   1      53.139  26.163  29.690  1.00  0.00    -0.744 OA
ENDBRANCH  90  91
ENDBRANCH  58  83
ENDBRANCH  32  33
ENDBRANCH  24  27
ENDBRANCH  22  23
ENDBRANCH   1  22
TORSDOF 16
ENDMDL
MODEL 3
REMARK VINA RESULT:     -11.8      3.225      9.553
REMARK SMILES Cc1noc(-c2ccc(CCl)cc2)c1C(=O)NCCCCNC(=O)c1ccc(-c2c3nc(c(-c4c(F)cc(S(=O)(=O)[O-])cc4F)c4ccc([nH]4)c(-c4c(F)cc(S(=O)(=O)[O-])cc4F)c4nc(c(-c5c(F)cc(S(=O)(=O)[O-])cc5F)c5ccc2[nH]5)C=C4)C=C3)cc1
REMARK SMILES IDX 20 1 19 2 18 3 17 4 15 5 16 6 14 8 1 9 2 10 3 11 4 12 5 13
REMARK SMILES IDX 6 14 7 15 13 16 8 17 12 18 9 19 10 20 11 21 21 22 22 23
REMARK SMILES IDX 23 24 24 26 25 27 26 28 90 29 27 30 89 31 28 32 29 33 30 34
REMARK SMILES IDX 83 35 31 36 88 37 82 38 84 39 32 40 87 41 81 42 80 43 33 45
REMARK SMILES IDX 67 46 46 47 66 48 47 49 50 50 65 51 85 52 48 53 49 54 64 56
REMARK SMILES IDX 86 57 51 58 34 59 35 60 44 61 36 62 37 63 43 64 45 65 38 66
REMARK SMILES IDX 39 67 40 68 41 69 42 70 68 71 69 72 78 73 70 74 71 75 77 76
REMARK SMILES IDX 79 77 72 78 73 79 74 80 75 81 76 82 52 83 53 84 62 85 54 86
REMARK SMILES IDX 55 87 61 88 63 89 56 90 57 91 58 92 59 93 60 94
REMARK H PARENT 17 7 22 25 84 44 50 55
REMARK Flexibility Score: inf
ROOT
ATOM      1  C   UNL A   1      35.636  22.926  24.997  1.00  0.00     0.023 C 
ENDROOT
BRANCH   1   2
ATOM      2  C   UNL A   1      34.723  23.194  23.805  1.00  0.00     0.023 C 
BRANCH   2   3
ATOM      3  C   UNL A   1      34.382  24.646  23.494  1.00  0.00     0.116 C 
BRANCH   3   4
ATOM      4  N   UNL A   1      33.007  24.886  23.127  1.00  0.00    -0.352 N 
ATOM      5  C   UNL A   1      31.831  24.784  23.829  1.00  0.00     0.257 C 
ATOM      6  O   UNL A   1      30.817  25.089  23.197  1.00  0.00    -0.269 OA
ATOM      7  H   UNL A   1      32.890  25.179  22.194  1.00  0.00     0.163 HD
BRANCH   5   8
ATOM      8  C   UNL A   1      31.746  24.312  25.206  1.00  0.00     0.110 A 
ATOM      9  C   UNL A   1      31.587  21.650  25.293  1.00  0.00     0.071 C 
ATOM     10  C   UNL A   1      31.621  23.029  25.836  1.00  0.00     0.094 A 
ATOM     11  N   UNL A   1      31.594  23.132  27.172  1.00  0.00    -0.084 NA
ATOM     12  O   UNL A   1      31.811  24.455  27.453  1.00  0.00    -0.355 OA
ATOM     13  C   UNL A   1      31.937  25.156  26.297  1.00  0.00     0.179 A 
BRANCH  13  14
ATOM     14  C   UNL A   1      32.267  26.557  26.505  1.00  0.00     0.021 A 
ATOM     15  C   UNL A   1      31.298  27.420  27.037  1.00  0.00     0.012 A 
ATOM     16  C   UNL A   1      33.522  27.075  26.174  1.00  0.00     0.012 A 
ATOM     17  C   UNL A   1      31.581  28.772  27.247  1.00  0.00     0.006 A 
ATOM     18  C   UNL A   1      33.803  28.433  26.373  1.00  0.00     0.006 A 
ATOM     19  C   UNL A   1      32.838  29.294  26.917  1.00  0.00    -0.033 A 
BRANCH  19  20
ATOM     20  C   UNL A   1      33.150  30.745  27.159  1.00  0.00     0.145 C 
ATOM     21  Cl  UNL A   1      34.868  30.973  27.554  1.00  0.00    -0.122 Cl
ENDBRANCH  19  20
ENDBRANCH  13  14
ENDBRANCH   5   8
ENDBRANCH   3   4
ENDBRANCH   2   3
ENDBRANCH   1   2
BRANCH   1  22
ATOM     22  C   UNL A   1      37.009  23.590  24.978  1.00  0.00     0.116 C 
BRANCH  22  23
ATOM     23  N   UNL A   1      38.114  22.691  25.277  1.00  0.00    -0.352 N 
ATOM     24  C   UNL A   1      39.234  22.903  26.050  1.00  0.00     0.251 C 
ATOM     25  H   UNL A   1      38.053  21.799  24.865  1.00  0.00     0.163 HD
ATOM     26  O   UNL A   1      40.087  22.023  26.143  1.00  0.00    -0.269 OA
BRANCH  24  27
ATOM     27  C   UNL A   1      39.432  24.204  26.725  1.00  0.00     0.039 A 
ATOM     28  C   UNL A   1      38.920  24.380  28.014  1.00  0.00     0.014 A 
ATOM     29  C   UNL A   1      40.161  25.227  26.115  1.00  0.00     0.014 A 
ATOM     30  C   UNL A   1      39.228  25.541  28.730  1.00  0.00     0.010 A 
ATOM     31  C   UNL A   1      40.531  26.347  26.856  1.00  0.00     0.010 A 
ATOM     32  C   UNL A   1      40.082  26.508  28.176  1.00  0.00    -0.014 A 
BRANCH  32  33
ATOM     33  C   UNL A   1      40.538  27.684  28.964  1.00  0.00     0.031 A 
ATOM     34  C   UNL A   1      41.869  27.653  29.665  1.00  0.00     0.074 A 
ATOM     35  C   UNL A   1      39.715  28.740  29.125  1.00  0.00     0.049 A 
ATOM     36  N   UNL A   1      42.391  28.528  30.483  1.00  0.00    -0.248 NA
ATOM     37  C   UNL A   1      42.707  26.465  29.439  1.00  0.00     0.031 C 
ATOM     38  C   UNL A   1      38.374  28.866  28.548  1.00  0.00     0.029 A 
ATOM     39  N   UNL A   1      39.878  29.904  29.836  1.00  0.00    -0.354 N 
ATOM     40  C   UNL A   1      43.606  27.989  30.889  1.00  0.00     0.074 A 
ATOM     41  C   UNL A   1      43.721  26.689  30.264  1.00  0.00     0.031 C 
ATOM     42  C   UNL A   1      37.847  30.048  28.910  1.00  0.00     0.029 A 
ATOM     43  C   UNL A   1      38.793  30.748  29.773  1.00  0.00     0.049 A 
ATOM     44  H   UNL A   1      40.695  30.114  30.342  1.00  0.00     0.167 HD
ATOM     45  C   UNL A   1      44.550  28.535  31.693  1.00  0.00     0.037 A 
ATOM     46  C   UNL A   1      38.582  31.947  30.349  1.00  0.00     0.037 A 
ATOM     47  C   UNL A   1      44.450  29.845  32.280  1.00  0.00     0.049 A 
ATOM     48  C   UNL A   1      39.659  32.548  31.211  1.00  0.00     0.074 A 
ATOM     49  C   UNL A   1      45.382  30.514  33.056  1.00  0.00     0.029 A 
ATOM     50  N   UNL A   1      43.358  30.689  32.152  1.00  0.00    -0.354 N 
ATOM     51  N   UNL A   1      40.826  32.047  31.536  1.00  0.00    -0.248 NA
ATOM     52  C   UNL A   1      39.395  33.878  31.777  1.00  0.00     0.031 C 
ATOM     53  C   UNL A   1      44.840  31.751  33.419  1.00  0.00     0.029 A 
ATOM     54  C   UNL A   1      43.587  31.868  32.840  1.00  0.00     0.049 A 
ATOM     55  H   UNL A   1      42.539  30.480  31.646  1.00  0.00     0.167 HD
ATOM     56  C   UNL A   1      41.447  33.012  32.323  1.00  0.00     0.074 A 
ATOM     57  C   UNL A   1      40.529  34.128  32.418  1.00  0.00     0.031 C 
ATOM     58  C   UNL A   1      42.667  32.976  32.911  1.00  0.00     0.037 A 
BRANCH  45  59
ATOM     59  C   UNL A   1      45.781  27.718  31.970  1.00  0.00     0.058 A 
ATOM     60  C   UNL A   1      45.873  26.891  33.102  1.00  0.00     0.135 A 
ATOM     61  C   UNL A   1      46.872  27.744  31.087  1.00  0.00     0.135 A 
ATOM     62  F   UNL A   1      44.866  26.842  33.987  1.00  0.00    -0.206 F 
ATOM     63  C   UNL A   1      47.016  26.144  33.365  1.00  0.00     0.059 A 
ATOM     64  C   UNL A   1      48.015  26.984  31.316  1.00  0.00     0.059 A 
ATOM     65  F   UNL A   1      46.835  28.517  29.990  1.00  0.00    -0.206 F 
ATOM     66  C   UNL A   1      48.083  26.200  32.468  1.00  0.00     0.060 A 
BRANCH  66  67
ATOM     67  S   UNL A   1      49.563  25.229  32.825  1.00  0.00     0.124 S 
ATOM     68  O   UNL A   1      50.383  26.203  33.539  1.00  0.00    -0.237 OA
ATOM     69  O   UNL A   1      49.033  24.135  33.632  1.00  0.00    -0.237 OA
ATOM     70  O   UNL A   1      50.047  24.850  31.502  1.00  0.00    -0.744 OA
ENDBRANCH  66  67
ENDBRANCH  45  59
BRANCH  46  71
ATOM     71  C   UNL A   1      37.309  32.676  30.105  1.00  0.00     0.058 A 
ATOM     72  C   UNL A   1      36.182  32.440  30.906  1.00  0.00     0.135 A 
ATOM     73  C   UNL A   1      37.198  33.630  29.081  1.00  0.00     0.135 A 
ATOM     74  F   UNL A   1      36.240  31.533  31.893  1.00  0.00    -0.206 F 
ATOM     75  C   UNL A   1      34.983  33.112  30.693  1.00  0.00     0.059 A 
ATOM     76  C   UNL A   1      36.015  34.331  28.863  1.00  0.00     0.059 A 
ATOM     77  F   UNL A   1      38.253  33.903  28.299  1.00  0.00    -0.206 F 
ATOM     78  C   UNL A   1      34.910  34.058  29.669  1.00  0.00     0.060 A 
BRANCH  78  79
ATOM     79  S   UNL A   1      33.366  34.964  29.434  1.00  0.00     0.124 S 
ATOM     80  O   UNL A   1      32.792  34.920  30.774  1.00  0.00    -0.237 OA
ATOM     81  O   UNL A   1      33.840  36.269  28.983  1.00  0.00    -0.237 OA
ATOM     82  O   UNL A   1      32.668  34.177  28.421  1.00  0.00    -0.744 OA
ENDBRANCH  78  79
ENDBRANCH  46  71
BRANCH  58  83
ATOM     83  C   UNL A   1      43.102  34.192  33.678  1.00  0.00     0.058 A 
ATOM     84  C   UNL A   1      43.755  35.263  33.052  1.00  0.00     0.135 A 
ATOM     85  C   UNL A   1      42.804  34.311  35.045  1.00  0.00     0.135 A 
ATOM     86  F   UNL A   1      44.068  35.194  31.748  1.00  0.00    -0.206 F 
ATOM     87  C   UNL A   1      44.114  36.406  33.759  1.00  0.00     0.059 A 
ATOM     88  C   UNL A   1      43.133  35.453  35.766  1.00  0.00     0.059 A 
ATOM     89  F   UNL A   1      42.171  33.317  35.688  1.00  0.00    -0.206 F 
ATOM     90  C   UNL A   1      43.797  36.493  35.115  1.00  0.00     0.060 A 
BRANCH  90  91
ATOM     91  S   UNL A   1      44.227  37.999  36.013  1.00  0.00     0.124 S 
ATOM     92  O   UNL A   1      45.670  37.849  36.164  1.00  0.00    -0.237 OA
ATOM     93  O   UNL A   1      43.791  39.048  35.095  1.00  0.00    -0.237 OA
ATOM     94  O   UNL A   1      43.451  37.893  37.245  1.00  0.00    -0.744 OA
ENDBRANCH  90  91
ENDBRANCH  58  83
ENDBRANCH  32  33
ENDBRANCH  24  27
ENDBRANCH  22  23
ENDBRANCH   1  22
TORSDOF 16
ENDMDL
