MODEL 1
REMARK VINA RESULT:     -13.1      0.000      0.000
REMARK SMILES O=C(NCCCCNC(=O)c1cc(-c2ccccc2)nc(Nc2nc3ccccc3s2)n1)c1ccc(-c2c3nc(c(-c4c(F)cc(S(=O)(=O)[O-])cc4F)c4ccc([nH]4)c(-c4c(F)cc(S(=O)(=O)[O-])cc4F)c4nc(c(-c5c(F)cc(S(=O)(=O)[O-])cc5F)c5ccc2[nH]5)C=C4)C=C3)cc1
REMARK SMILES IDX 5 1 4 2 3 3 1 4 2 5 33 7 34 8 98 9 35 10 97 11 36 12 37 13
REMARK SMILES IDX 38 14 91 15 39 16 96 17 90 18 92 19 40 20 95 21 89 22 88 23
REMARK SMILES IDX 41 25 75 26 54 27 74 28 55 29 58 30 73 31 93 32 56 33 57 34
REMARK SMILES IDX 72 36 94 37 59 38 42 39 43 40 52 41 44 42 45 43 51 44 53 45
REMARK SMILES IDX 46 46 47 47 48 48 49 49 50 50 76 51 77 52 86 53 78 54 79 55
REMARK SMILES IDX 85 56 87 57 80 58 81 59 82 60 83 61 84 62 60 63 61 64 70 65
REMARK SMILES IDX 62 66 63 67 69 68 71 69 64 70 65 71 66 72 67 73 68 74 6 75
REMARK SMILES IDX 7 76 8 77 9 78 10 80 11 81 12 82 32 83 13 84 21 85 20 86
REMARK SMILES IDX 14 87 15 88 19 89 16 90 18 91 17 92 22 93 23 95 24 96 31 97
REMARK SMILES IDX 25 98 30 99 26 100 29 101 27 102 28 103
REMARK H PARENT 3 6 92 24 58 35 8 79 22 94
REMARK Flexibility Score: inf
ROOT
ATOM      1  C   UNL A   1      40.044  22.369  27.044  1.00  0.00     0.023 C 
ENDROOT
BRANCH   1   2
ATOM      2  C   UNL A   1      41.277  23.217  27.319  1.00  0.00     0.116 C 
BRANCH   2   3
ATOM      3  N   UNL A   1      41.738  23.952  26.151  1.00  0.00    -0.352 N 
ATOM      4  O   UNL A   1      42.141  25.757  24.863  1.00  0.00    -0.269 OA
ATOM      5  C   UNL A   1      41.849  25.312  25.967  1.00  0.00     0.251 C 
ATOM      6  H   UNL A   1      42.009  23.397  25.383  1.00  0.00     0.163 HD
BRANCH   5   7
ATOM      7  C   UNL A   1      41.584  26.228  27.097  1.00  0.00     0.039 A 
ATOM      8  C   UNL A   1      42.372  27.364  27.295  1.00  0.00     0.014 A 
ATOM      9  C   UNL A   1      40.538  25.937  27.979  1.00  0.00     0.014 A 
ATOM     10  C   UNL A   1      42.212  28.121  28.450  1.00  0.00     0.010 A 
ATOM     11  C   UNL A   1      40.324  26.751  29.095  1.00  0.00     0.010 A 
ATOM     12  C   UNL A   1      41.181  27.831  29.358  1.00  0.00    -0.014 A 
BRANCH  12  13
ATOM     13  C   UNL A   1      40.982  28.709  30.540  1.00  0.00     0.031 A 
ATOM     14  C   UNL A   1      41.872  28.607  31.747  1.00  0.00     0.074 A 
ATOM     15  C   UNL A   1      39.997  29.628  30.498  1.00  0.00     0.049 A 
ATOM     16  N   UNL A   1      41.839  29.306  32.853  1.00  0.00    -0.248 NA
ATOM     17  C   UNL A   1      42.930  27.584  31.718  1.00  0.00     0.031 C 
ATOM     18  C   UNL A   1      39.063  29.809  29.383  1.00  0.00     0.029 A 
ATOM     19  N   UNL A   1      39.626  30.589  31.401  1.00  0.00    -0.354 N 
ATOM     20  C   UNL A   1      42.854  28.802  33.658  1.00  0.00     0.074 A 
ATOM     21  C   UNL A   1      43.473  27.719  32.921  1.00  0.00     0.031 C 
ATOM     22  C   UNL A   1      38.255  30.845  29.650  1.00  0.00     0.029 A 
ATOM     23  C   UNL A   1      38.573  31.364  30.974  1.00  0.00     0.049 A 
ATOM     24  H   UNL A   1      40.070  30.714  32.270  1.00  0.00     0.167 HD
ATOM     25  C   UNL A   1      43.236  29.209  34.893  1.00  0.00     0.037 A 
ATOM     26  C   UNL A   1      37.922  32.371  31.586  1.00  0.00     0.037 A 
ATOM     27  C   UNL A   1      42.625  30.301  35.610  1.00  0.00     0.049 A 
ATOM     28  C   UNL A   1      38.362  32.797  32.956  1.00  0.00     0.074 A 
ATOM     29  C   UNL A   1      42.964  30.811  36.852  1.00  0.00     0.029 A 
ATOM     30  N   UNL A   1      41.550  31.049  35.153  1.00  0.00    -0.354 N 
ATOM     31  N   UNL A   1      39.340  32.324  33.690  1.00  0.00    -0.248 NA
ATOM     32  C   UNL A   1      37.609  33.891  33.584  1.00  0.00     0.031 C 
ATOM     33  C   UNL A   1      42.070  31.843  37.161  1.00  0.00     0.029 A 
ATOM     34  C   UNL A   1      41.202  32.004  36.095  1.00  0.00     0.049 A 
ATOM     35  H   UNL A   1      41.102  30.920  34.286  1.00  0.00     0.167 HD
ATOM     36  C   UNL A   1      39.329  33.068  34.862  1.00  0.00     0.074 A 
ATOM     37  C   UNL A   1      38.257  34.036  34.732  1.00  0.00     0.031 C 
ATOM     38  C   UNL A   1      40.131  32.958  35.948  1.00  0.00     0.037 A 
BRANCH  25  39
ATOM     39  C   UNL A   1      44.362  28.466  35.560  1.00  0.00     0.058 A 
ATOM     40  C   UNL A   1      45.702  28.846  35.391  1.00  0.00     0.135 A 
ATOM     41  C   UNL A   1      44.091  27.390  36.422  1.00  0.00     0.135 A 
ATOM     42  F   UNL A   1      46.018  29.859  34.568  1.00  0.00    -0.206 F 
ATOM     43  C   UNL A   1      46.736  28.173  36.034  1.00  0.00     0.059 A 
ATOM     44  C   UNL A   1      45.109  26.716  37.094  1.00  0.00     0.059 A 
ATOM     45  F   UNL A   1      42.828  26.986  36.623  1.00  0.00    -0.206 F 
ATOM     46  C   UNL A   1      46.430  27.107  36.882  1.00  0.00     0.060 A 
BRANCH  46  47
ATOM     47  S   UNL A   1      47.782  26.246  37.714  1.00  0.00     0.124 S 
ATOM     48  O   UNL A   1      47.213  24.912  37.887  1.00  0.00    -0.237 OA
ATOM     49  O   UNL A   1      48.866  26.351  36.743  1.00  0.00    -0.237 OA
ATOM     50  O   UNL A   1      47.969  27.012  38.942  1.00  0.00    -0.744 OA
ENDBRANCH  46  47
ENDBRANCH  25  39
BRANCH  26  51
ATOM     51  C   UNL A   1      36.785  33.034  30.897  1.00  0.00     0.058 A 
ATOM     52  C   UNL A   1      35.461  32.774  31.274  1.00  0.00     0.135 A 
ATOM     53  C   UNL A   1      37.006  33.972  29.876  1.00  0.00     0.135 A 
ATOM     54  F   UNL A   1      35.201  31.883  32.242  1.00  0.00    -0.206 F 
ATOM     55  C   UNL A   1      34.391  33.415  30.659  1.00  0.00     0.059 A 
ATOM     56  C   UNL A   1      35.955  34.646  29.264  1.00  0.00     0.059 A 
ATOM     57  F   UNL A   1      38.258  34.269  29.496  1.00  0.00    -0.206 F 
ATOM     58  C   UNL A   1      34.650  34.353  29.656  1.00  0.00     0.060 A 
BRANCH  58  59
ATOM     59  S   UNL A   1      33.260  35.229  28.904  1.00  0.00     0.124 S 
ATOM     60  O   UNL A   1      33.941  36.307  28.199  1.00  0.00    -0.237 OA
ATOM     61  O   UNL A   1      32.661  34.194  28.065  1.00  0.00    -0.237 OA
ATOM     62  O   UNL A   1      32.458  35.631  30.056  1.00  0.00    -0.744 OA
ENDBRANCH  58  59
ENDBRANCH  26  51
BRANCH  38  63
ATOM     63  C   UNL A   1      39.891  33.923  37.074  1.00  0.00     0.058 A 
ATOM     64  C   UNL A   1      40.516  35.179  37.110  1.00  0.00     0.135 A 
ATOM     65  C   UNL A   1      38.999  33.601  38.109  1.00  0.00     0.135 A 
ATOM     66  F   UNL A   1      41.384  35.529  36.148  1.00  0.00    -0.206 F 
ATOM     67  C   UNL A   1      40.283  36.075  38.148  1.00  0.00     0.059 A 
ATOM     68  C   UNL A   1      38.732  34.492  39.144  1.00  0.00     0.059 A 
ATOM     69  F   UNL A   1      38.370  32.415  38.117  1.00  0.00    -0.206 F 
ATOM     70  C   UNL A   1      39.389  35.721  39.162  1.00  0.00     0.060 A 
BRANCH  70  71
ATOM     71  S   UNL A   1      39.072  36.903  40.489  1.00  0.00     0.124 S 
ATOM     72  O   UNL A   1      38.368  36.073  41.460  1.00  0.00    -0.237 OA
ATOM     73  O   UNL A   1      40.419  37.320  40.868  1.00  0.00    -0.237 OA
ATOM     74  O   UNL A   1      38.265  37.933  39.840  1.00  0.00    -0.744 OA
ENDBRANCH  70  71
ENDBRANCH  38  63
ENDBRANCH  12  13
ENDBRANCH   5   7
ENDBRANCH   2   3
ENDBRANCH   1   2
BRANCH   1  75
ATOM     75  C   UNL A   1      38.829  23.127  26.517  1.00  0.00     0.023 C 
BRANCH  75  76
ATOM     76  C   UNL A   1      37.801  22.282  25.774  1.00  0.00     0.116 C 
BRANCH  76  77
ATOM     77  N   UNL A   1      37.522  22.762  24.431  1.00  0.00    -0.351 N 
ATOM     78  C   UNL A   1      36.352  22.672  23.710  1.00  0.00     0.270 C 
ATOM     79  H   UNL A   1      38.270  23.212  23.975  1.00  0.00     0.163 HD
ATOM     80  O   UNL A   1      36.283  23.139  22.577  1.00  0.00    -0.268 OA
BRANCH  78  81
ATOM     81  C   UNL A   1      35.174  22.027  24.332  1.00  0.00     0.134 A 
ATOM     82  C   UNL A   1      35.149  20.673  24.508  1.00  0.00     0.063 A 
ATOM     83  N   UNL A   1      34.150  22.837  24.619  1.00  0.00    -0.207 NA
ATOM     84  C   UNL A   1      33.943  20.164  24.930  1.00  0.00     0.077 A 
ATOM     85  C   UNL A   1      33.027  22.282  25.076  1.00  0.00     0.230 A 
ATOM     86  N   UNL A   1      32.882  20.954  25.233  1.00  0.00    -0.213 NA
BRANCH  84  87
ATOM     87  C   UNL A   1      33.734  18.709  24.951  1.00  0.00     0.000 A 
ATOM     88  C   UNL A   1      32.666  18.150  25.671  1.00  0.00     0.010 A 
ATOM     89  C   UNL A   1      34.515  17.851  24.155  1.00  0.00     0.010 A 
ATOM     90  C   UNL A   1      32.365  16.789  25.571  1.00  0.00     0.001 A 
ATOM     91  C   UNL A   1      34.219  16.489  24.058  1.00  0.00     0.001 A 
ATOM     92  C   UNL A   1      33.137  15.962  24.758  1.00  0.00     0.000 A 
ENDBRANCH  84  87
BRANCH  85  93
ATOM     93  N   UNL A   1      31.975  23.100  25.484  1.00  0.00    -0.300 N 
ATOM     94  H   UNL A   1      31.288  22.721  26.078  1.00  0.00     0.172 HD
BRANCH  93  95
ATOM     95  C   UNL A   1      31.855  24.388  25.099  1.00  0.00     0.190 A 
ATOM     96  N   UNL A   1      32.347  25.420  25.746  1.00  0.00    -0.220 NA
ATOM     97  S   UNL A   1      30.997  24.808  23.661  1.00  0.00    -0.097 S 
ATOM     98  C   UNL A   1      31.848  26.601  25.247  1.00  0.00     0.084 A 
ATOM     99  C   UNL A   1      31.057  26.474  24.107  1.00  0.00     0.056 A 
ATOM    100  C   UNL A   1      32.055  27.878  25.803  1.00  0.00     0.030 A 
ATOM    101  C   UNL A   1      30.450  27.590  23.505  1.00  0.00     0.021 A 
ATOM    102  C   UNL A   1      31.444  28.993  25.223  1.00  0.00     0.002 A 
ATOM    103  C   UNL A   1      30.648  28.847  24.092  1.00  0.00     0.002 A 
ENDBRANCH  93  95
ENDBRANCH  85  93
ENDBRANCH  78  81
ENDBRANCH  76  77
ENDBRANCH  75  76
ENDBRANCH   1  75
TORSDOF 17
ENDMDL
MODEL 2
REMARK VINA RESULT:     -12.8      6.172     11.541
REMARK SMILES O=C(NCCCCNC(=O)c1cc(-c2ccccc2)nc(Nc2nc3ccccc3s2)n1)c1ccc(-c2c3nc(c(-c4c(F)cc(S(=O)(=O)[O-])cc4F)c4ccc([nH]4)c(-c4c(F)cc(S(=O)(=O)[O-])cc4F)c4nc(c(-c5c(F)cc(S(=O)(=O)[O-])cc5F)c5ccc2[nH]5)C=C4)C=C3)cc1
REMARK SMILES IDX 5 1 4 2 3 3 1 4 2 5 33 7 34 8 98 9 35 10 97 11 36 12 37 13
REMARK SMILES IDX 38 14 91 15 39 16 96 17 90 18 92 19 40 20 95 21 89 22 88 23
REMARK SMILES IDX 41 25 75 26 54 27 74 28 55 29 58 30 73 31 93 32 56 33 57 34
REMARK SMILES IDX 72 36 94 37 59 38 42 39 43 40 52 41 44 42 45 43 51 44 53 45
REMARK SMILES IDX 46 46 47 47 48 48 49 49 50 50 76 51 77 52 86 53 78 54 79 55
REMARK SMILES IDX 85 56 87 57 80 58 81 59 82 60 83 61 84 62 60 63 61 64 70 65
REMARK SMILES IDX 62 66 63 67 69 68 71 69 64 70 65 71 66 72 67 73 68 74 6 75
REMARK SMILES IDX 7 76 8 77 9 78 10 80 11 81 12 82 32 83 13 84 21 85 20 86
REMARK SMILES IDX 14 87 15 88 19 89 16 90 18 91 17 92 22 93 23 95 24 96 31 97
REMARK SMILES IDX 25 98 30 99 26 100 29 101 27 102 28 103
REMARK H PARENT 3 6 92 24 58 35 8 79 22 94
REMARK Flexibility Score: inf
ROOT
ATOM      1  C   UNL A   1      34.848  31.403  28.158  1.00  0.00     0.023 C 
ENDROOT
BRANCH   1   2
ATOM      2  C   UNL A   1      35.924  31.945  29.088  1.00  0.00     0.116 C 
BRANCH   2   3
ATOM      3  N   UNL A   1      35.732  31.550  30.476  1.00  0.00    -0.352 N 
ATOM      4  O   UNL A   1      36.144  30.433  32.388  1.00  0.00    -0.269 OA
ATOM      5  C   UNL A   1      36.531  30.764  31.274  1.00  0.00     0.251 C 
ATOM      6  H   UNL A   1      34.914  31.894  30.903  1.00  0.00     0.163 HD
BRANCH   5   7
ATOM      7  C   UNL A   1      37.841  30.298  30.768  1.00  0.00     0.039 A 
ATOM      8  C   UNL A   1      38.940  30.191  31.624  1.00  0.00     0.014 A 
ATOM      9  C   UNL A   1      37.972  29.977  29.414  1.00  0.00     0.014 A 
ATOM     10  C   UNL A   1      40.197  29.909  31.101  1.00  0.00     0.010 A 
ATOM     11  C   UNL A   1      39.222  29.610  28.905  1.00  0.00     0.010 A 
ATOM     12  C   UNL A   1      40.351  29.605  29.738  1.00  0.00    -0.014 A 
BRANCH  12  13
ATOM     13  C   UNL A   1      41.693  29.226  29.225  1.00  0.00     0.031 A 
ATOM     14  C   UNL A   1      42.831  30.208  29.213  1.00  0.00     0.074 A 
ATOM     15  C   UNL A   1      41.881  27.964  28.791  1.00  0.00     0.049 A 
ATOM     16  N   UNL A   1      44.064  30.031  28.810  1.00  0.00    -0.248 NA
ATOM     17  C   UNL A   1      42.553  31.566  29.708  1.00  0.00     0.031 C 
ATOM     18  C   UNL A   1      40.844  26.929  28.744  1.00  0.00     0.029 A 
ATOM     19  N   UNL A   1      43.003  27.331  28.325  1.00  0.00    -0.354 N 
ATOM     20  C   UNL A   1      44.704  31.253  28.985  1.00  0.00     0.074 A 
ATOM     21  C   UNL A   1      43.716  32.172  29.510  1.00  0.00     0.031 C 
ATOM     22  C   UNL A   1      41.389  25.780  28.315  1.00  0.00     0.029 A 
ATOM     23  C   UNL A   1      42.794  26.011  28.003  1.00  0.00     0.049 A 
ATOM     24  H   UNL A   1      43.875  27.778  28.231  1.00  0.00     0.167 HD
ATOM     25  C   UNL A   1      45.997  31.574  28.734  1.00  0.00     0.037 A 
ATOM     26  C   UNL A   1      43.634  25.089  27.497  1.00  0.00     0.037 A 
ATOM     27  C   UNL A   1      46.978  30.646  28.228  1.00  0.00     0.049 A 
ATOM     28  C   UNL A   1      45.058  25.473  27.223  1.00  0.00     0.074 A 
ATOM     29  C   UNL A   1      48.321  30.867  27.974  1.00  0.00     0.029 A 
ATOM     30  N   UNL A   1      46.723  29.323  27.897  1.00  0.00    -0.354 N 
ATOM     31  N   UNL A   1      45.650  26.627  27.417  1.00  0.00    -0.248 NA
ATOM     32  C   UNL A   1      45.928  24.434  26.657  1.00  0.00     0.031 C 
ATOM     33  C   UNL A   1      48.870  29.688  27.455  1.00  0.00     0.029 A 
ATOM     34  C   UNL A   1      47.879  28.721  27.425  1.00  0.00     0.049 A 
ATOM     35  H   UNL A   1      45.850  28.878  27.986  1.00  0.00     0.167 HD
ATOM     36  C   UNL A   1      46.966  26.451  27.010  1.00  0.00     0.074 A 
ATOM     37  C   UNL A   1      47.087  25.073  26.574  1.00  0.00     0.031 C 
ATOM     38  C   UNL A   1      47.980  27.349  26.994  1.00  0.00     0.037 A 
BRANCH  25  39
ATOM     39  C   UNL A   1      46.431  32.992  28.991  1.00  0.00     0.058 A 
ATOM     40  C   UNL A   1      46.344  33.982  28.000  1.00  0.00     0.135 A 
ATOM     41  C   UNL A   1      46.892  33.376  30.261  1.00  0.00     0.135 A 
ATOM     42  F   UNL A   1      45.922  33.668  26.765  1.00  0.00    -0.206 F 
ATOM     43  C   UNL A   1      46.719  35.299  28.252  1.00  0.00     0.059 A 
ATOM     44  C   UNL A   1      47.252  34.692  30.542  1.00  0.00     0.059 A 
ATOM     45  F   UNL A   1      46.994  32.470  31.245  1.00  0.00    -0.206 F 
ATOM     46  C   UNL A   1      47.175  35.644  29.527  1.00  0.00     0.060 A 
BRANCH  46  47
ATOM     47  S   UNL A   1      47.653  37.356  29.841  1.00  0.00     0.124 S 
ATOM     48  O   UNL A   1      47.048  37.591  31.150  1.00  0.00    -0.237 OA
ATOM     49  O   UNL A   1      49.110  37.284  29.821  1.00  0.00    -0.237 OA
ATOM     50  O   UNL A   1      47.050  38.088  28.731  1.00  0.00    -0.744 OA
ENDBRANCH  46  47
ENDBRANCH  25  39
BRANCH  26  51
ATOM     51  C   UNL A   1      43.135  23.718  27.217  1.00  0.00     0.058 A 
ATOM     52  C   UNL A   1      42.783  23.327  25.918  1.00  0.00     0.135 A 
ATOM     53  C   UNL A   1      43.040  22.760  28.239  1.00  0.00     0.135 A 
ATOM     54  F   UNL A   1      42.854  24.210  24.910  1.00  0.00    -0.206 F 
ATOM     55  C   UNL A   1      42.348  22.036  25.640  1.00  0.00     0.059 A 
ATOM     56  C   UNL A   1      42.633  21.456  27.983  1.00  0.00     0.059 A 
ATOM     57  F   UNL A   1      43.386  23.082  29.496  1.00  0.00    -0.206 F 
ATOM     58  C   UNL A   1      42.279  21.107  26.681  1.00  0.00     0.060 A 
BRANCH  58  59
ATOM     59  S   UNL A   1      41.774  19.414  26.303  1.00  0.00     0.124 S 
ATOM     60  O   UNL A   1      42.519  19.152  25.079  1.00  0.00    -0.237 OA
ATOM     61  O   UNL A   1      42.217  18.687  27.490  1.00  0.00    -0.237 OA
ATOM     62  O   UNL A   1      40.326  19.525  26.152  1.00  0.00    -0.744 OA
ENDBRANCH  58  59
ENDBRANCH  26  51
BRANCH  38  63
ATOM     63  C   UNL A   1      49.316  26.862  26.508  1.00  0.00     0.058 A 
ATOM     64  C   UNL A   1      50.249  26.285  27.383  1.00  0.00     0.135 A 
ATOM     65  C   UNL A   1      49.650  26.942  25.147  1.00  0.00     0.135 A 
ATOM     66  F   UNL A   1      49.980  26.194  28.694  1.00  0.00    -0.206 F 
ATOM     67  C   UNL A   1      51.480  25.824  26.927  1.00  0.00     0.059 A 
ATOM     68  C   UNL A   1      50.865  26.466  24.666  1.00  0.00     0.059 A 
ATOM     69  F   UNL A   1      48.788  27.480  24.269  1.00  0.00    -0.206 F 
ATOM     70  C   UNL A   1      51.779  25.920  25.566  1.00  0.00     0.060 A 
BRANCH  70  71
ATOM     71  S   UNL A   1      53.368  25.293  24.982  1.00  0.00     0.124 S 
ATOM     72  O   UNL A   1      53.356  25.716  23.586  1.00  0.00    -0.237 OA
ATOM     73  O   UNL A   1      54.318  25.987  25.846  1.00  0.00    -0.237 OA
ATOM     74  O   UNL A   1      53.266  23.853  25.203  1.00  0.00    -0.744 OA
ENDBRANCH  70  71
ENDBRANCH  38  63
ENDBRANCH  12  13
ENDBRANCH   5   7
ENDBRANCH   2   3
ENDBRANCH   1   2
BRANCH   1  75
ATOM     75  C   UNL A   1      35.214  30.130  27.401  1.00  0.00     0.023 C 
BRANCH  75  76
ATOM     76  C   UNL A   1      34.090  29.511  26.578  1.00  0.00     0.116 C 
BRANCH  76  77
ATOM     77  N   UNL A   1      32.999  28.996  27.389  1.00  0.00    -0.351 N 
ATOM     78  C   UNL A   1      32.206  27.893  27.165  1.00  0.00     0.270 C 
ATOM     79  H   UNL A   1      32.800  29.505  28.208  1.00  0.00     0.163 HD
ATOM     80  O   UNL A   1      31.322  27.591  27.961  1.00  0.00    -0.268 OA
BRANCH  78  81
ATOM     81  C   UNL A   1      32.455  27.063  25.965  1.00  0.00     0.134 A 
ATOM     82  C   UNL A   1      33.343  26.026  26.023  1.00  0.00     0.063 A 
ATOM     83  N   UNL A   1      31.829  27.448  24.849  1.00  0.00    -0.207 NA
ATOM     84  C   UNL A   1      33.627  25.437  24.813  1.00  0.00     0.077 A 
ATOM     85  C   UNL A   1      32.111  26.799  23.720  1.00  0.00     0.230 A 
ATOM     86  N   UNL A   1      33.010  25.800  23.660  1.00  0.00    -0.213 NA
BRANCH  84  87
ATOM     87  C   UNL A   1      34.718  24.457  24.720  1.00  0.00     0.000 A 
ATOM     88  C   UNL A   1      35.031  23.850  23.493  1.00  0.00     0.010 A 
ATOM     89  C   UNL A   1      35.555  24.193  25.820  1.00  0.00     0.010 A 
ATOM     90  C   UNL A   1      36.162  23.039  23.359  1.00  0.00     0.001 A 
ATOM     91  C   UNL A   1      36.683  23.379  25.689  1.00  0.00     0.001 A 
ATOM     92  C   UNL A   1      36.991  22.811  24.455  1.00  0.00     0.000 A 
ENDBRANCH  84  87
BRANCH  85  93
ATOM     93  N   UNL A   1      31.403  27.102  22.558  1.00  0.00    -0.300 N 
ATOM     94  H   UNL A   1      31.619  26.610  21.734  1.00  0.00     0.172 HD
BRANCH  93  95
ATOM     95  C   UNL A   1      30.435  28.041  22.514  1.00  0.00     0.190 A 
ATOM     96  N   UNL A   1      30.550  29.218  21.942  1.00  0.00    -0.220 NA
ATOM     97  S   UNL A   1      28.897  27.766  23.247  1.00  0.00    -0.097 S 
ATOM     98  C   UNL A   1      29.497  30.038  22.280  1.00  0.00     0.084 A 
ATOM     99  C   UNL A   1      28.488  29.428  23.023  1.00  0.00     0.056 A 
ATOM    100  C   UNL A   1      29.386  31.405  21.960  1.00  0.00     0.030 A 
ATOM    101  C   UNL A   1      27.367  30.148  23.471  1.00  0.00     0.021 A 
ATOM    102  C   UNL A   1      28.285  32.135  22.413  1.00  0.00     0.002 A 
ATOM    103  C   UNL A   1      27.292  31.513  23.163  1.00  0.00     0.002 A 
ENDBRANCH  93  95
ENDBRANCH  85  93
ENDBRANCH  78  81
ENDBRANCH  76  77
ENDBRANCH  75  76
ENDBRANCH   1  75
TORSDOF 17
ENDMDL
MODEL 3
REMARK VINA RESULT:     -12.8      0.890      4.266
REMARK SMILES O=C(NCCCCNC(=O)c1cc(-c2ccccc2)nc(Nc2nc3ccccc3s2)n1)c1ccc(-c2c3nc(c(-c4c(F)cc(S(=O)(=O)[O-])cc4F)c4ccc([nH]4)c(-c4c(F)cc(S(=O)(=O)[O-])cc4F)c4nc(c(-c5c(F)cc(S(=O)(=O)[O-])cc5F)c5ccc2[nH]5)C=C4)C=C3)cc1
REMARK SMILES IDX 5 1 4 2 3 3 1 4 2 5 33 7 34 8 98 9 35 10 97 11 36 12 37 13
REMARK SMILES IDX 38 14 91 15 39 16 96 17 90 18 92 19 40 20 95 21 89 22 88 23
REMARK SMILES IDX 41 25 75 26 54 27 74 28 55 29 58 30 73 31 93 32 56 33 57 34
REMARK SMILES IDX 72 36 94 37 59 38 42 39 43 40 52 41 44 42 45 43 51 44 53 45
REMARK SMILES IDX 46 46 47 47 48 48 49 49 50 50 76 51 77 52 86 53 78 54 79 55
REMARK SMILES IDX 85 56 87 57 80 58 81 59 82 60 83 61 84 62 60 63 61 64 70 65
REMARK SMILES IDX 62 66 63 67 69 68 71 69 64 70 65 71 66 72 67 73 68 74 6 75
REMARK SMILES IDX 7 76 8 77 9 78 10 80 11 81 12 82 32 83 13 84 21 85 20 86
REMARK SMILES IDX 14 87 15 88 19 89 16 90 18 91 17 92 22 93 23 95 24 96 31 97
REMARK SMILES IDX 25 98 30 99 26 100 29 101 27 102 28 103
REMARK H PARENT 3 6 92 24 58 35 8 79 22 94
REMARK Flexibility Score: inf
ROOT
ATOM      1  C   UNL A   1      39.398  22.889  26.759  1.00  0.00     0.023 C 
ENDROOT
BRANCH   1   2
ATOM      2  C   UNL A   1      40.758  23.424  27.187  1.00  0.00     0.116 C 
BRANCH   2   3
ATOM      3  N   UNL A   1      41.454  24.132  26.123  1.00  0.00    -0.352 N 
ATOM      4  O   UNL A   1      42.258  25.910  24.998  1.00  0.00    -0.269 OA
ATOM      5  C   UNL A   1      41.777  25.466  26.033  1.00  0.00     0.251 C 
ATOM      6  H   UNL A   1      41.734  23.576  25.359  1.00  0.00     0.163 HD
BRANCH   5   7
ATOM      7  C   UNL A   1      41.511  26.363  27.179  1.00  0.00     0.039 A 
ATOM      8  C   UNL A   1      42.267  27.523  27.368  1.00  0.00     0.014 A 
ATOM      9  C   UNL A   1      40.498  26.030  28.083  1.00  0.00     0.014 A 
ATOM     10  C   UNL A   1      42.113  28.264  28.534  1.00  0.00     0.010 A 
ATOM     11  C   UNL A   1      40.286  26.827  29.213  1.00  0.00     0.010 A 
ATOM     12  C   UNL A   1      41.114  27.932  29.464  1.00  0.00    -0.014 A 
BRANCH  12  13
ATOM     13  C   UNL A   1      40.918  28.793  30.659  1.00  0.00     0.031 A 
ATOM     14  C   UNL A   1      41.810  28.674  31.863  1.00  0.00     0.074 A 
ATOM     15  C   UNL A   1      39.931  29.710  30.633  1.00  0.00     0.049 A 
ATOM     16  N   UNL A   1      41.779  29.357  32.979  1.00  0.00    -0.248 NA
ATOM     17  C   UNL A   1      42.870  27.654  31.817  1.00  0.00     0.031 C 
ATOM     18  C   UNL A   1      38.994  29.906  29.524  1.00  0.00     0.029 A 
ATOM     19  N   UNL A   1      39.560  30.658  31.551  1.00  0.00    -0.354 N 
ATOM     20  C   UNL A   1      42.797  28.842  33.774  1.00  0.00     0.074 A 
ATOM     21  C   UNL A   1      43.416  27.772  33.020  1.00  0.00     0.031 C 
ATOM     22  C   UNL A   1      38.185  30.937  29.808  1.00  0.00     0.029 A 
ATOM     23  C   UNL A   1      38.505  31.437  31.139  1.00  0.00     0.049 A 
ATOM     24  H   UNL A   1      40.007  30.771  32.421  1.00  0.00     0.167 HD
ATOM     25  C   UNL A   1      43.182  29.232  35.014  1.00  0.00     0.037 A 
ATOM     26  C   UNL A   1      37.854  32.435  31.767  1.00  0.00     0.037 A 
ATOM     27  C   UNL A   1      42.571  30.313  35.748  1.00  0.00     0.049 A 
ATOM     28  C   UNL A   1      38.297  32.841  33.141  1.00  0.00     0.074 A 
ATOM     29  C   UNL A   1      42.912  30.805  36.997  1.00  0.00     0.029 A 
ATOM     30  N   UNL A   1      41.494  31.065  35.305  1.00  0.00    -0.354 N 
ATOM     31  N   UNL A   1      39.277  32.358  33.866  1.00  0.00    -0.248 NA
ATOM     32  C   UNL A   1      37.544  33.924  33.787  1.00  0.00     0.031 C 
ATOM     33  C   UNL A   1      42.018  31.831  37.323  1.00  0.00     0.029 A 
ATOM     34  C   UNL A   1      41.146  32.006  36.261  1.00  0.00     0.049 A 
ATOM     35  H   UNL A   1      41.043  30.949  34.437  1.00  0.00     0.167 HD
ATOM     36  C   UNL A   1      39.269  33.086  35.049  1.00  0.00     0.074 A 
ATOM     37  C   UNL A   1      38.195  34.053  34.935  1.00  0.00     0.031 C 
ATOM     38  C   UNL A   1      40.073  32.961  36.132  1.00  0.00     0.037 A 
BRANCH  25  39
ATOM     39  C   UNL A   1      44.310  28.481  35.667  1.00  0.00     0.058 A 
ATOM     40  C   UNL A   1      44.079  27.367  36.489  1.00  0.00     0.135 A 
ATOM     41  C   UNL A   1      45.644  28.851  35.427  1.00  0.00     0.135 A 
ATOM     42  F   UNL A   1      42.824  26.979  36.762  1.00  0.00    -0.206 F 
ATOM     43  C   UNL A   1      45.129  26.659  37.067  1.00  0.00     0.059 A 
ATOM     44  C   UNL A   1      46.710  28.144  35.976  1.00  0.00     0.059 A 
ATOM     45  F   UNL A   1      45.923  29.908  34.647  1.00  0.00    -0.206 F 
ATOM     46  C   UNL A   1      46.442  27.057  36.806  1.00  0.00     0.060 A 
BRANCH  46  47
ATOM     47  S   UNL A   1      47.793  26.125  37.559  1.00  0.00     0.124 S 
ATOM     48  O   UNL A   1      48.252  25.318  36.431  1.00  0.00    -0.237 OA
ATOM     49  O   UNL A   1      48.702  27.183  37.991  1.00  0.00    -0.237 OA
ATOM     50  O   UNL A   1      47.141  25.386  38.635  1.00  0.00    -0.744 OA
ENDBRANCH  46  47
ENDBRANCH  25  39
BRANCH  26  51
ATOM     51  C   UNL A   1      36.715  33.106  31.091  1.00  0.00     0.058 A 
ATOM     52  C   UNL A   1      36.928  34.015  30.046  1.00  0.00     0.135 A 
ATOM     53  C   UNL A   1      35.389  32.816  31.450  1.00  0.00     0.135 A 
ATOM     54  F   UNL A   1      38.177  34.325  29.670  1.00  0.00    -0.206 F 
ATOM     55  C   UNL A   1      35.866  34.623  29.384  1.00  0.00     0.059 A 
ATOM     56  C   UNL A   1      34.310  33.391  30.787  1.00  0.00     0.059 A 
ATOM     57  F   UNL A   1      35.135  31.936  32.431  1.00  0.00    -0.206 F 
ATOM     58  C   UNL A   1      34.560  34.300  29.761  1.00  0.00     0.060 A 
BRANCH  58  59
ATOM     59  S   UNL A   1      33.185  35.044  28.856  1.00  0.00     0.124 S 
ATOM     60  O   UNL A   1      32.743  33.929  28.027  1.00  0.00    -0.237 OA
ATOM     61  O   UNL A   1      32.281  35.436  29.934  1.00  0.00    -0.237 OA
ATOM     62  O   UNL A   1      33.815  36.152  28.144  1.00  0.00    -0.744 OA
ENDBRANCH  58  59
ENDBRANCH  26  51
BRANCH  38  63
ATOM     63  C   UNL A   1      39.835  33.910  37.272  1.00  0.00     0.058 A 
ATOM     64  C   UNL A   1      38.937  33.604  38.305  1.00  0.00     0.135 A 
ATOM     65  C   UNL A   1      40.540  35.121  37.348  1.00  0.00     0.135 A 
ATOM     66  F   UNL A   1      38.233  32.462  38.273  1.00  0.00    -0.206 F 
ATOM     67  C   UNL A   1      38.729  34.479  39.366  1.00  0.00     0.059 A 
ATOM     68  C   UNL A   1      40.365  36.000  38.412  1.00  0.00     0.059 A 
ATOM     69  F   UNL A   1      41.416  35.457  36.387  1.00  0.00    -0.206 F 
ATOM     70  C   UNL A   1      39.447  35.676  39.410  1.00  0.00     0.060 A 
BRANCH  70  71
ATOM     71  S   UNL A   1      39.189  36.792  40.806  1.00  0.00     0.124 S 
ATOM     72  O   UNL A   1      40.557  37.184  41.125  1.00  0.00    -0.237 OA
ATOM     73  O   UNL A   1      38.350  37.835  40.224  1.00  0.00    -0.237 OA
ATOM     74  O   UNL A   1      38.529  35.947  41.797  1.00  0.00    -0.744 OA
ENDBRANCH  70  71
ENDBRANCH  38  63
ENDBRANCH  12  13
ENDBRANCH   5   7
ENDBRANCH   2   3
ENDBRANCH   1   2
BRANCH   1  75
ATOM     75  C   UNL A   1      38.302  23.937  26.595  1.00  0.00     0.023 C 
BRANCH  75  76
ATOM     76  C   UNL A   1      37.014  23.442  25.949  1.00  0.00     0.116 C 
BRANCH  76  77
ATOM     77  N   UNL A   1      37.147  23.183  24.524  1.00  0.00    -0.351 N 
ATOM     78  C   UNL A   1      36.180  23.237  23.545  1.00  0.00     0.270 C 
ATOM     79  H   UNL A   1      38.050  22.937  24.218  1.00  0.00     0.163 HD
ATOM     80  O   UNL A   1      36.464  22.991  22.377  1.00  0.00    -0.268 OA
BRANCH  78  81
ATOM     81  C   UNL A   1      34.800  23.620  23.920  1.00  0.00     0.134 A 
ATOM     82  C   UNL A   1      34.485  24.935  24.114  1.00  0.00     0.063 A 
ATOM     83  N   UNL A   1      33.949  22.610  24.125  1.00  0.00    -0.207 NA
ATOM     84  C   UNL A   1      33.229  25.161  24.628  1.00  0.00     0.077 A 
ATOM     85  C   UNL A   1      32.729  22.904  24.573  1.00  0.00     0.230 A 
ATOM     86  N   UNL A   1      32.338  24.161  24.847  1.00  0.00    -0.213 NA
BRANCH  84  87
ATOM     87  C   UNL A   1      32.858  26.512  25.074  1.00  0.00     0.000 A 
ATOM     88  C   UNL A   1      32.091  27.351  24.249  1.00  0.00     0.010 A 
ATOM     89  C   UNL A   1      33.151  26.954  26.377  1.00  0.00     0.010 A 
ATOM     90  C   UNL A   1      31.601  28.572  24.723  1.00  0.00     0.001 A 
ATOM     91  C   UNL A   1      32.665  28.175  26.851  1.00  0.00     0.001 A 
ATOM     92  C   UNL A   1      31.882  28.978  26.026  1.00  0.00     0.000 A 
ENDBRANCH  84  87
BRANCH  85  93
ATOM     93  N   UNL A   1      31.781  21.890  24.699  1.00  0.00    -0.300 N 
ATOM     94  H   UNL A   1      30.860  22.135  24.944  1.00  0.00     0.172 HD
BRANCH  93  95
ATOM     95  C   UNL A   1      32.072  20.587  24.503  1.00  0.00     0.190 A 
ATOM     96  N   UNL A   1      32.215  19.693  25.455  1.00  0.00    -0.220 NA
ATOM     97  S   UNL A   1      32.299  19.958  22.912  1.00  0.00    -0.097 S 
ATOM     98  C   UNL A   1      32.752  18.526  24.961  1.00  0.00     0.084 A 
ATOM     99  C   UNL A   1      32.901  18.483  23.576  1.00  0.00     0.056 A 
ATOM    100  C   UNL A   1      33.169  17.424  25.732  1.00  0.00     0.030 A 
ATOM    101  C   UNL A   1      33.468  17.370  22.932  1.00  0.00     0.021 A 
ATOM    102  C   UNL A   1      33.748  16.318  25.105  1.00  0.00     0.002 A 
ATOM    103  C   UNL A   1      33.899  16.296  23.722  1.00  0.00     0.002 A 
ENDBRANCH  93  95
ENDBRANCH  85  93
ENDBRANCH  78  81
ENDBRANCH  76  77
ENDBRANCH  75  76
ENDBRANCH   1  75
TORSDOF 17
ENDMDL
