MODEL 1
REMARK VINA RESULT:     -14.1      0.000      0.000
REMARK SMILES Cc1oc2cc3c(cc2c1C)[C@H](C)[C@@H](CC(=O)N[C@H](CC1=c2ccccc2=NC1)C(=O)NCCCCNC(=O)c1ccc(-c2c4nc(c(-c5c(F)cc(S(=O)(=O)[O-])cc5F)c5ccc([nH]5)c(-c5c(F)cc(S(=O)(=O)[O-])cc5F)c5nc(c(-c6c(F)cc(S(=O)(=O)[O-])cc6F)c6ccc2[nH]6)C=C5)C=C4)cc1)C(=O)O3
REMARK SMILES IDX 34 1 33 2 32 3 30 4 31 5 19 7 18 8 16 9 17 10 15 12 14 13
REMARK SMILES IDX 1 14 2 15 3 16 10 17 4 18 9 19 11 20 5 21 8 22 6 23 7 24
REMARK SMILES IDX 108 25 12 26 106 27 13 28 107 29 20 30 21 31 22 32 29 33
REMARK SMILES IDX 23 34 27 35 28 36 24 37 26 38 25 39 35 40 36 41 37 42 38 43
REMARK SMILES IDX 39 45 40 46 41 47 105 48 42 49 104 50 43 51 44 52 45 53
REMARK SMILES IDX 98 54 46 55 103 56 97 57 99 58 47 59 102 60 96 61 95 62
REMARK SMILES IDX 48 64 82 65 61 66 81 67 62 68 65 69 80 70 100 71 63 72 64 73
REMARK SMILES IDX 79 75 101 76 66 77 49 78 50 79 59 80 51 81 52 82 58 83 60 84
REMARK SMILES IDX 53 85 54 86 55 87 56 88 57 89 83 90 84 91 93 92 85 93 86 94
REMARK SMILES IDX 92 95 94 96 87 97 88 98 89 99 90 100 91 101 67 102 68 103
REMARK SMILES IDX 77 104 69 105 70 106 76 107 78 108 71 109 72 110 73 111
REMARK SMILES IDX 74 112 75 113
REMARK H PARENT 32 6 18 11 37 44 99 63 65 74
REMARK Flexibility Score: inf
ROOT
ATOM      1  C   UNL A   1      33.480  31.056  27.434  1.00  0.00     0.023 C 
ENDROOT
BRANCH   1   2
ATOM      2  C   UNL A   1      32.422  30.304  26.634  1.00  0.00     0.116 C 
BRANCH   2   3
ATOM      3  N   UNL A   1      32.920  29.835  25.357  1.00  0.00    -0.354 N 
ATOM      4  C   UNL A   1      32.263  29.145  24.383  1.00  0.00     0.242 C 
ATOM      5  O   UNL A   1      32.713  29.076  23.246  1.00  0.00    -0.273 OA
ATOM      6  H   UNL A   1      33.863  30.042  25.167  1.00  0.00     0.163 HD
BRANCH   4   7
ATOM      7  C   UNL A   1      31.036  28.351  24.625  1.00  0.00     0.175 C 
BRANCH   7   8
ATOM      8  N   UNL A   1      31.402  27.244  25.536  1.00  0.00    -0.344 N 
ATOM      9  C   UNL A   1      32.259  26.172  25.449  1.00  0.00     0.221 C 
ATOM     10  O   UNL A   1      32.293  25.477  26.478  1.00  0.00    -0.275 OA
ATOM     11  H   UNL A   1      30.927  27.284  26.397  1.00  0.00     0.164 HD
BRANCH   9  12
ATOM     12  C   UNL A   1      33.208  25.747  24.276  1.00  0.00     0.116 C 
BRANCH  12  13
ATOM     13  C   UNL A   1      33.506  24.262  24.013  1.00  0.00     0.116 C 
ATOM     14  C   UNL A   1      32.175  16.703  25.824  1.00  0.00     0.088 C 
ATOM     15  C   UNL A   1      32.841  17.932  25.328  1.00  0.00     0.105 A 
ATOM     16  O   UNL A   1      31.937  18.903  24.968  1.00  0.00    -0.461 OA
ATOM     17  C   UNL A   1      34.078  18.383  24.850  1.00  0.00    -0.002 A 
ATOM     18  C   UNL A   1      32.704  19.907  24.491  1.00  0.00     0.138 A 
ATOM     19  C   UNL A   1      33.997  19.793  24.957  1.00  0.00     0.024 A 
ATOM     20  C   UNL A   1      35.035  17.803  23.861  1.00  0.00     0.049 C 
ATOM     21  C   UNL A   1      32.390  20.785  23.503  1.00  0.00     0.095 A 
ATOM     22  C   UNL A   1      34.881  20.892  24.846  1.00  0.00     0.020 A 
ATOM     23  C   UNL A   1      33.334  21.779  23.306  1.00  0.00     0.138 A 
ATOM     24  C   UNL A   1      34.401  22.011  24.177  1.00  0.00    -0.001 A 
ATOM     25  O   UNL A   1      33.149  22.639  22.223  1.00  0.00    -0.426 OA
ATOM     26  C   UNL A   1      34.842  23.476  24.317  1.00  0.00     0.035 C 
ATOM     27  C   UNL A   1      33.314  23.974  22.525  1.00  0.00     0.315 C 
ATOM     28  C   UNL A   1      35.435  23.785  25.689  1.00  0.00     0.014 C 
ATOM     29  O   UNL A   1      33.357  24.827  21.643  1.00  0.00    -0.251 OA
ENDBRANCH  12  13
ENDBRANCH   9  12
ENDBRANCH   7   8
BRANCH   7  30
ATOM     30  C   UNL A   1      30.536  28.047  23.152  1.00  0.00     0.068 C 
BRANCH  30  31
ATOM     31  C   UNL A   1      29.208  28.678  22.603  1.00  0.00    -0.037 C 
ATOM     32  C   UNL A   1      28.911  29.966  22.376  1.00  0.00     0.001 A 
ATOM     33  C   UNL A   1      27.899  28.055  23.016  1.00  0.00     0.174 C 
ATOM     34  C   UNL A   1      29.076  30.883  21.281  1.00  0.00     0.010 A 
ATOM     35  C   UNL A   1      27.740  30.196  23.237  1.00  0.00     0.065 A 
ATOM     36  N   UNL A   1      27.135  29.140  23.687  1.00  0.00    -0.280 NA
ATOM     37  C   UNL A   1      28.622  32.141  21.440  1.00  0.00     0.001 A 
ATOM     38  C   UNL A   1      27.483  31.627  23.538  1.00  0.00     0.028 A 
ATOM     39  C   UNL A   1      27.984  32.541  22.685  1.00  0.00     0.002 A 
ENDBRANCH  30  31
ENDBRANCH   7  30
ENDBRANCH   4   7
ENDBRANCH   2   3
ENDBRANCH   1   2
BRANCH   1  40
ATOM     40  C   UNL A   1      34.853  30.374  27.594  1.00  0.00     0.023 C 
BRANCH  40  41
ATOM     41  C   UNL A   1      36.047  31.290  27.896  1.00  0.00     0.116 C 
BRANCH  41  42
ATOM     42  N   UNL A   1      36.257  31.466  29.322  1.00  0.00    -0.352 N 
ATOM     43  C   UNL A   1      37.142  30.896  30.205  1.00  0.00     0.251 C 
ATOM     44  H   UNL A   1      35.649  32.121  29.736  1.00  0.00     0.163 HD
ATOM     45  O   UNL A   1      36.986  31.132  31.404  1.00  0.00    -0.269 OA
BRANCH  43  46
ATOM     46  C   UNL A   1      38.275  30.026  29.801  1.00  0.00     0.039 A 
ATOM     47  C   UNL A   1      38.064  28.769  29.230  1.00  0.00     0.014 A 
ATOM     48  C   UNL A   1      39.556  30.583  29.737  1.00  0.00     0.014 A 
ATOM     49  C   UNL A   1      39.140  28.059  28.647  1.00  0.00     0.010 A 
ATOM     50  C   UNL A   1      40.626  29.873  29.158  1.00  0.00     0.010 A 
ATOM     51  C   UNL A   1      40.444  28.590  28.615  1.00  0.00    -0.014 A 
BRANCH  51  52
ATOM     52  C   UNL A   1      41.528  27.839  27.879  1.00  0.00     0.031 A 
ATOM     53  C   UNL A   1      42.625  28.739  27.464  1.00  0.00     0.074 A 
ATOM     54  C   UNL A   1      42.050  26.636  28.230  1.00  0.00     0.049 A 
ATOM     55  N   UNL A   1      43.508  29.148  28.321  1.00  0.00    -0.248 NA
ATOM     56  C   UNL A   1      42.649  29.424  26.179  1.00  0.00     0.031 C 
ATOM     57  C   UNL A   1      42.066  26.136  29.591  1.00  0.00     0.029 A 
ATOM     58  N   UNL A   1      42.747  25.659  27.530  1.00  0.00    -0.354 N 
ATOM     59  C   UNL A   1      44.170  30.188  27.730  1.00  0.00     0.074 A 
ATOM     60  C   UNL A   1      43.633  30.311  26.391  1.00  0.00     0.031 C 
ATOM     61  C   UNL A   1      42.620  24.920  29.656  1.00  0.00     0.029 A 
ATOM     62  C   UNL A   1      43.119  24.568  28.337  1.00  0.00     0.049 A 
ATOM     63  H   UNL A   1      42.958  25.723  26.570  1.00  0.00     0.167 HD
ATOM     64  C   UNL A   1      45.111  30.897  28.395  1.00  0.00     0.037 A 
ATOM     65  C   UNL A   1      44.245  23.808  28.237  1.00  0.00     0.037 A 
ATOM     66  C   UNL A   1      45.372  30.491  29.745  1.00  0.00     0.049 A 
ATOM     67  C   UNL A   1      45.299  24.744  28.773  1.00  0.00     0.074 A 
ATOM     68  C   UNL A   1      44.960  30.861  31.004  1.00  0.00     0.029 A 
ATOM     69  N   UNL A   1      46.161  29.383  29.943  1.00  0.00    -0.354 N 
ATOM     70  N   UNL A   1      45.455  25.059  30.039  1.00  0.00    -0.248 NA
ATOM     71  C   UNL A   1      45.886  25.699  27.842  1.00  0.00     0.031 C 
ATOM     72  C   UNL A   1      45.205  29.727  31.842  1.00  0.00     0.029 A 
ATOM     73  C   UNL A   1      45.679  28.693  31.030  1.00  0.00     0.049 A 
ATOM     74  H   UNL A   1      46.939  29.125  29.397  1.00  0.00     0.167 HD
ATOM     75  C   UNL A   1      45.829  26.408  30.048  1.00  0.00     0.074 A 
ATOM     76  C   UNL A   1      46.117  26.722  28.659  1.00  0.00     0.031 C 
ATOM     77  C   UNL A   1      45.691  27.236  31.133  1.00  0.00     0.037 A 
BRANCH  64  78
ATOM     78  C   UNL A   1      45.950  31.870  27.697  1.00  0.00     0.058 A 
ATOM     79  C   UNL A   1      47.174  31.424  27.185  1.00  0.00     0.135 A 
ATOM     80  C   UNL A   1      45.612  33.220  27.577  1.00  0.00     0.135 A 
ATOM     81  F   UNL A   1      47.505  30.124  27.269  1.00  0.00    -0.206 F 
ATOM     82  C   UNL A   1      48.070  32.303  26.609  1.00  0.00     0.059 A 
ATOM     83  C   UNL A   1      46.497  34.123  27.000  1.00  0.00     0.059 A 
ATOM     84  F   UNL A   1      44.432  33.670  28.032  1.00  0.00    -0.206 F 
ATOM     85  C   UNL A   1      47.731  33.655  26.540  1.00  0.00     0.060 A 
BRANCH  85  86
ATOM     86  S   UNL A   1      48.959  34.786  25.867  1.00  0.00     0.124 S 
ATOM     87  O   UNL A   1      48.152  35.590  24.956  1.00  0.00    -0.237 OA
ATOM     88  O   UNL A   1      49.431  35.465  27.069  1.00  0.00    -0.237 OA
ATOM     89  O   UNL A   1      49.925  33.897  25.230  1.00  0.00    -0.744 OA
ENDBRANCH  85  86
ENDBRANCH  64  78
BRANCH  65  90
ATOM     90  C   UNL A   1      44.290  22.899  27.065  1.00  0.00     0.058 A 
ATOM     91  C   UNL A   1      45.563  22.674  26.488  1.00  0.00     0.135 A 
ATOM     92  C   UNL A   1      43.224  22.199  26.493  1.00  0.00     0.135 A 
ATOM     93  F   UNL A   1      46.622  23.400  26.889  1.00  0.00    -0.206 F 
ATOM     94  C   UNL A   1      45.793  21.694  25.531  1.00  0.00     0.059 A 
ATOM     95  C   UNL A   1      43.428  21.196  25.539  1.00  0.00     0.059 A 
ATOM     96  F   UNL A   1      41.959  22.437  26.864  1.00  0.00    -0.206 F 
ATOM     97  C   UNL A   1      44.725  20.917  25.107  1.00  0.00     0.060 A 
BRANCH  97  98
ATOM     98  S   UNL A   1      45.063  19.477  24.070  1.00  0.00     0.124 S 
ATOM     99  O   UNL A   1      44.294  18.426  24.749  1.00  0.00    -0.237 OA
ATOM    100  O   UNL A   1      44.512  19.917  22.782  1.00  0.00    -0.237 OA
ATOM    101  O   UNL A   1      46.495  19.341  24.122  1.00  0.00    -0.744 OA
ENDBRANCH  97  98
ENDBRANCH  65  90
BRANCH  77 102
ATOM    102  C   UNL A   1      45.341  26.595  32.458  1.00  0.00     0.058 A 
ATOM    103  C   UNL A   1      44.021  26.618  32.937  1.00  0.00     0.135 A 
ATOM    104  C   UNL A   1      46.268  25.834  33.197  1.00  0.00     0.135 A 
ATOM    105  F   UNL A   1      43.074  27.309  32.283  1.00  0.00    -0.206 F 
ATOM    106  C   UNL A   1      43.631  25.885  34.061  1.00  0.00     0.059 A 
ATOM    107  C   UNL A   1      45.893  25.062  34.299  1.00  0.00     0.059 A 
ATOM    108  F   UNL A   1      47.562  25.789  32.837  1.00  0.00    -0.206 F 
ATOM    109  C   UNL A   1      44.567  25.085  34.717  1.00  0.00     0.060 A 
BRANCH 109 110
ATOM    110  S   UNL A   1      44.008  24.025  36.072  1.00  0.00     0.124 S 
ATOM    111  O   UNL A   1      42.851  23.359  35.483  1.00  0.00    -0.237 OA
ATOM    112  O   UNL A   1      45.176  23.180  36.305  1.00  0.00    -0.237 OA
ATOM    113  O   UNL A   1      43.705  24.969  37.145  1.00  0.00    -0.744 OA
ENDBRANCH 109 110
ENDBRANCH  77 102
ENDBRANCH  51  52
ENDBRANCH  43  46
ENDBRANCH  41  42
ENDBRANCH  40  41
ENDBRANCH   1  40
TORSDOF 19
ENDMDL
MODEL 2
REMARK VINA RESULT:     -13.5      2.952      9.168
REMARK SMILES Cc1oc2cc3c(cc2c1C)[C@H](C)[C@@H](CC(=O)N[C@H](CC1=c2ccccc2=NC1)C(=O)NCCCCNC(=O)c1ccc(-c2c4nc(c(-c5c(F)cc(S(=O)(=O)[O-])cc5F)c5ccc([nH]5)c(-c5c(F)cc(S(=O)(=O)[O-])cc5F)c5nc(c(-c6c(F)cc(S(=O)(=O)[O-])cc6F)c6ccc2[nH]6)C=C5)C=C4)cc1)C(=O)O3
REMARK SMILES IDX 34 1 33 2 32 3 30 4 31 5 19 7 18 8 16 9 17 10 15 12 14 13
REMARK SMILES IDX 1 14 2 15 3 16 10 17 4 18 9 19 11 20 5 21 8 22 6 23 7 24
REMARK SMILES IDX 108 25 12 26 106 27 13 28 107 29 20 30 21 31 22 32 29 33
REMARK SMILES IDX 23 34 27 35 28 36 24 37 26 38 25 39 35 40 36 41 37 42 38 43
REMARK SMILES IDX 39 45 40 46 41 47 105 48 42 49 104 50 43 51 44 52 45 53
REMARK SMILES IDX 98 54 46 55 103 56 97 57 99 58 47 59 102 60 96 61 95 62
REMARK SMILES IDX 48 64 82 65 61 66 81 67 62 68 65 69 80 70 100 71 63 72 64 73
REMARK SMILES IDX 79 75 101 76 66 77 49 78 50 79 59 80 51 81 52 82 58 83 60 84
REMARK SMILES IDX 53 85 54 86 55 87 56 88 57 89 83 90 84 91 93 92 85 93 86 94
REMARK SMILES IDX 92 95 94 96 87 97 88 98 89 99 90 100 91 101 67 102 68 103
REMARK SMILES IDX 77 104 69 105 70 106 76 107 78 108 71 109 72 110 73 111
REMARK SMILES IDX 74 112 75 113
REMARK H PARENT 32 6 18 11 37 44 99 63 65 74
REMARK Flexibility Score: inf
ROOT
ATOM      1  C   UNL A   1      38.465  21.406  25.555  1.00  0.00     0.023 C 
ENDROOT
BRANCH   1   2
ATOM      2  C   UNL A   1      37.133  21.239  24.833  1.00  0.00     0.116 C 
BRANCH   2   3
ATOM      3  N   UNL A   1      35.997  21.528  25.687  1.00  0.00    -0.354 N 
ATOM      4  C   UNL A   1      34.669  21.378  25.424  1.00  0.00     0.242 C 
ATOM      5  O   UNL A   1      33.844  21.378  26.328  1.00  0.00    -0.273 OA
ATOM      6  H   UNL A   1      36.216  21.881  26.579  1.00  0.00     0.163 HD
BRANCH   4   7
ATOM      7  C   UNL A   1      34.106  21.310  24.055  1.00  0.00     0.175 C 
BRANCH   7   8
ATOM      8  N   UNL A   1      34.269  22.650  23.446  1.00  0.00    -0.344 N 
ATOM      9  C   UNL A   1      33.903  23.922  23.814  1.00  0.00     0.221 C 
ATOM     10  O   UNL A   1      34.268  24.797  23.010  1.00  0.00    -0.275 OA
ATOM     11  H   UNL A   1      34.746  22.623  22.586  1.00  0.00     0.164 HD
BRANCH   9  12
ATOM     12  C   UNL A   1      33.150  24.412  25.099  1.00  0.00     0.116 C 
BRANCH  12  13
ATOM     13  C   UNL A   1      32.237  25.646  25.045  1.00  0.00     0.116 C 
ATOM     14  C   UNL A   1      28.115  30.790  20.717  1.00  0.00     0.088 C 
ATOM     15  C   UNL A   1      28.884  30.197  21.836  1.00  0.00     0.105 A 
ATOM     16  O   UNL A   1      28.799  28.825  21.857  1.00  0.00    -0.461 OA
ATOM     17  C   UNL A   1      29.479  30.548  23.055  1.00  0.00    -0.002 A 
ATOM     18  C   UNL A   1      29.494  28.468  22.958  1.00  0.00     0.138 A 
ATOM     19  C   UNL A   1      30.359  29.473  23.332  1.00  0.00     0.024 A 
ATOM     20  C   UNL A   1      28.994  31.378  24.198  1.00  0.00     0.049 C 
ATOM     21  C   UNL A   1      29.257  27.407  23.773  1.00  0.00     0.095 A 
ATOM     22  C   UNL A   1      31.399  29.197  24.253  1.00  0.00     0.020 A 
ATOM     23  C   UNL A   1      30.209  27.229  24.763  1.00  0.00     0.138 A 
ATOM     24  C   UNL A   1      31.422  27.921  24.799  1.00  0.00    -0.001 A 
ATOM     25  O   UNL A   1      29.967  26.243  25.721  1.00  0.00    -0.426 OA
ATOM     26  C   UNL A   1      32.617  27.144  25.375  1.00  0.00     0.035 C 
ATOM     27  C   UNL A   1      31.045  25.423  25.975  1.00  0.00     0.315 C 
ATOM     28  C   UNL A   1      33.950  27.583  24.775  1.00  0.00     0.014 C 
ATOM     29  O   UNL A   1      31.038  24.630  26.912  1.00  0.00    -0.251 OA
ENDBRANCH  12  13
ENDBRANCH   9  12
ENDBRANCH   7   8
BRANCH   7  30
ATOM     30  C   UNL A   1      32.659  20.718  24.316  1.00  0.00     0.068 C 
BRANCH  30  31
ATOM     31  C   UNL A   1      32.322  19.226  23.964  1.00  0.00    -0.037 C 
ATOM     32  C   UNL A   1      32.807  18.097  24.502  1.00  0.00     0.001 A 
ATOM     33  C   UNL A   1      32.059  18.875  22.522  1.00  0.00     0.174 C 
ATOM     34  C   UNL A   1      32.470  17.264  25.625  1.00  0.00     0.010 A 
ATOM     35  C   UNL A   1      33.410  17.409  23.350  1.00  0.00     0.065 A 
ATOM     36  N   UNL A   1      33.066  17.837  22.175  1.00  0.00    -0.280 NA
ATOM     37  C   UNL A   1      33.220  16.166  25.842  1.00  0.00     0.001 A 
ATOM     38  C   UNL A   1      34.407  16.373  23.719  1.00  0.00     0.028 A 
ATOM     39  C   UNL A   1      34.327  15.845  24.955  1.00  0.00     0.002 A 
ENDBRANCH  30  31
ENDBRANCH   7  30
ENDBRANCH   4   7
ENDBRANCH   2   3
ENDBRANCH   1   2
BRANCH   1  40
ATOM     40  C   UNL A   1      38.766  22.792  26.157  1.00  0.00     0.023 C 
BRANCH  40  41
ATOM     41  C   UNL A   1      39.748  22.834  27.336  1.00  0.00     0.116 C 
BRANCH  41  42
ATOM     42  N   UNL A   1      40.889  21.960  27.131  1.00  0.00    -0.352 N 
ATOM     43  C   UNL A   1      42.227  22.211  26.936  1.00  0.00     0.251 C 
ATOM     44  H   UNL A   1      40.662  21.001  27.133  1.00  0.00     0.163 HD
ATOM     45  O   UNL A   1      42.950  21.261  26.636  1.00  0.00    -0.269 OA
BRANCH  43  46
ATOM     46  C   UNL A   1      42.848  23.552  27.075  1.00  0.00     0.039 A 
ATOM     47  C   UNL A   1      43.420  24.210  25.985  1.00  0.00     0.014 A 
ATOM     48  C   UNL A   1      42.614  24.279  28.247  1.00  0.00     0.014 A 
ATOM     49  C   UNL A   1      43.799  25.569  26.088  1.00  0.00     0.010 A 
ATOM     50  C   UNL A   1      42.994  25.632  28.347  1.00  0.00     0.010 A 
ATOM     51  C   UNL A   1      43.608  26.301  27.275  1.00  0.00    -0.014 A 
BRANCH  51  52
ATOM     52  C   UNL A   1      43.925  27.777  27.291  1.00  0.00     0.031 A 
ATOM     53  C   UNL A   1      42.699  28.594  27.424  1.00  0.00     0.074 A 
ATOM     54  C   UNL A   1      44.932  28.374  27.981  1.00  0.00     0.049 A 
ATOM     55  N   UNL A   1      42.108  28.721  28.571  1.00  0.00    -0.248 NA
ATOM     56  C   UNL A   1      41.939  29.079  26.281  1.00  0.00     0.031 C 
ATOM     57  C   UNL A   1      45.510  27.825  29.191  1.00  0.00     0.029 A 
ATOM     58  N   UNL A   1      45.585  29.592  27.847  1.00  0.00    -0.354 N 
ATOM     59  C   UNL A   1      40.869  29.241  28.314  1.00  0.00     0.074 A 
ATOM     60  C   UNL A   1      40.811  29.480  26.886  1.00  0.00     0.031 C 
ATOM     61  C   UNL A   1      46.496  28.601  29.654  1.00  0.00     0.029 A 
ATOM     62  C   UNL A   1      46.568  29.797  28.833  1.00  0.00     0.049 A 
ATOM     63  H   UNL A   1      45.381  30.245  27.137  1.00  0.00     0.167 HD
ATOM     64  C   UNL A   1      39.960  29.425  29.299  1.00  0.00     0.037 A 
ATOM     65  C   UNL A   1      46.932  30.975  29.411  1.00  0.00     0.037 A 
ATOM     66  C   UNL A   1      40.373  29.046  30.618  1.00  0.00     0.049 A 
ATOM     67  C   UNL A   1      45.763  31.247  30.323  1.00  0.00     0.074 A 
ATOM     68  C   UNL A   1      40.251  27.945  31.434  1.00  0.00     0.029 A 
ATOM     69  N   UNL A   1      41.195  29.907  31.307  1.00  0.00    -0.354 N 
ATOM     70  N   UNL A   1      45.518  30.610  31.446  1.00  0.00    -0.248 NA
ATOM     71  C   UNL A   1      44.601  31.912  29.746  1.00  0.00     0.031 C 
ATOM     72  C   UNL A   1      41.318  28.045  32.384  1.00  0.00     0.029 A 
ATOM     73  C   UNL A   1      42.085  29.163  32.044  1.00  0.00     0.049 A 
ATOM     74  H   UNL A   1      41.154  30.891  31.276  1.00  0.00     0.167 HD
ATOM     75  C   UNL A   1      44.125  30.493  31.515  1.00  0.00     0.074 A 
ATOM     76  C   UNL A   1      43.626  31.355  30.458  1.00  0.00     0.031 C 
ATOM     77  C   UNL A   1      43.470  29.561  32.281  1.00  0.00     0.037 A 
BRANCH  64  78
ATOM     78  C   UNL A   1      38.722  30.162  29.049  1.00  0.00     0.058 A 
ATOM     79  C   UNL A   1      38.713  31.531  29.337  1.00  0.00     0.135 A 
ATOM     80  C   UNL A   1      37.549  29.551  28.601  1.00  0.00     0.135 A 
ATOM     81  F   UNL A   1      39.839  32.141  29.745  1.00  0.00    -0.206 F 
ATOM     82  C   UNL A   1      37.554  32.275  29.232  1.00  0.00     0.059 A 
ATOM     83  C   UNL A   1      36.371  30.279  28.486  1.00  0.00     0.059 A 
ATOM     84  F   UNL A   1      37.537  28.245  28.290  1.00  0.00    -0.206 F 
ATOM     85  C   UNL A   1      36.383  31.635  28.826  1.00  0.00     0.060 A 
BRANCH  85  86
ATOM     86  S   UNL A   1      34.872  32.613  28.787  1.00  0.00     0.124 S 
ATOM     87  O   UNL A   1      34.350  32.404  30.134  1.00  0.00    -0.237 OA
ATOM     88  O   UNL A   1      35.387  33.948  28.505  1.00  0.00    -0.237 OA
ATOM     89  O   UNL A   1      34.098  32.000  27.712  1.00  0.00    -0.744 OA
ENDBRANCH  85  86
ENDBRANCH  64  78
BRANCH  65  90
ATOM     90  C   UNL A   1      47.685  31.902  28.530  1.00  0.00     0.058 A 
ATOM     91  C   UNL A   1      49.058  32.082  28.829  1.00  0.00     0.135 A 
ATOM     92  C   UNL A   1      47.207  32.584  27.407  1.00  0.00     0.135 A 
ATOM     93  F   UNL A   1      49.574  31.570  29.961  1.00  0.00    -0.206 F 
ATOM     94  C   UNL A   1      49.933  32.744  27.977  1.00  0.00     0.059 A 
ATOM     95  C   UNL A   1      48.068  33.246  26.525  1.00  0.00     0.059 A 
ATOM     96  F   UNL A   1      45.902  32.601  27.111  1.00  0.00    -0.206 F 
ATOM     97  C   UNL A   1      49.437  33.271  26.794  1.00  0.00     0.060 A 
BRANCH  97  98
ATOM     98  S   UNL A   1      50.608  33.894  25.567  1.00  0.00     0.124 S 
ATOM     99  O   UNL A   1      51.040  32.656  24.905  1.00  0.00    -0.237 OA
ATOM    100  O   UNL A   1      49.740  34.761  24.760  1.00  0.00    -0.237 OA
ATOM    101  O   UNL A   1      51.606  34.569  26.354  1.00  0.00    -0.744 OA
ENDBRANCH  97  98
ENDBRANCH  65  90
BRANCH  77 102
ATOM    102  C   UNL A   1      44.293  28.783  33.284  1.00  0.00     0.058 A 
ATOM    103  C   UNL A   1      44.592  29.331  34.542  1.00  0.00     0.135 A 
ATOM    104  C   UNL A   1      44.673  27.443  33.073  1.00  0.00     0.135 A 
ATOM    105  F   UNL A   1      44.251  30.598  34.829  1.00  0.00    -0.206 F 
ATOM    106  C   UNL A   1      45.192  28.576  35.553  1.00  0.00     0.059 A 
ATOM    107  C   UNL A   1      45.237  26.657  34.081  1.00  0.00     0.059 A 
ATOM    108  F   UNL A   1      44.466  26.849  31.885  1.00  0.00    -0.206 F 
ATOM    109  C   UNL A   1      45.482  27.231  35.324  1.00  0.00     0.060 A 
BRANCH 109 110
ATOM    110  S   UNL A   1      46.114  26.231  36.693  1.00  0.00     0.124 S 
ATOM    111  O   UNL A   1      47.451  25.881  36.225  1.00  0.00    -0.237 OA
ATOM    112  O   UNL A   1      46.059  27.169  37.810  1.00  0.00    -0.237 OA
ATOM    113  O   UNL A   1      45.170  25.120  36.772  1.00  0.00    -0.744 OA
ENDBRANCH 109 110
ENDBRANCH  77 102
ENDBRANCH  51  52
ENDBRANCH  43  46
ENDBRANCH  41  42
ENDBRANCH  40  41
ENDBRANCH   1  40
TORSDOF 19
ENDMDL
MODEL 3
REMARK VINA RESULT:     -13.4      1.347      2.071
REMARK SMILES Cc1oc2cc3c(cc2c1C)[C@H](C)[C@@H](CC(=O)N[C@H](CC1=c2ccccc2=NC1)C(=O)NCCCCNC(=O)c1ccc(-c2c4nc(c(-c5c(F)cc(S(=O)(=O)[O-])cc5F)c5ccc([nH]5)c(-c5c(F)cc(S(=O)(=O)[O-])cc5F)c5nc(c(-c6c(F)cc(S(=O)(=O)[O-])cc6F)c6ccc2[nH]6)C=C5)C=C4)cc1)C(=O)O3
REMARK SMILES IDX 34 1 33 2 32 3 30 4 31 5 19 7 18 8 16 9 17 10 15 12 14 13
REMARK SMILES IDX 1 14 2 15 3 16 10 17 4 18 9 19 11 20 5 21 8 22 6 23 7 24
REMARK SMILES IDX 108 25 12 26 106 27 13 28 107 29 20 30 21 31 22 32 29 33
REMARK SMILES IDX 23 34 27 35 28 36 24 37 26 38 25 39 35 40 36 41 37 42 38 43
REMARK SMILES IDX 39 45 40 46 41 47 105 48 42 49 104 50 43 51 44 52 45 53
REMARK SMILES IDX 98 54 46 55 103 56 97 57 99 58 47 59 102 60 96 61 95 62
REMARK SMILES IDX 48 64 82 65 61 66 81 67 62 68 65 69 80 70 100 71 63 72 64 73
REMARK SMILES IDX 79 75 101 76 66 77 49 78 50 79 59 80 51 81 52 82 58 83 60 84
REMARK SMILES IDX 53 85 54 86 55 87 56 88 57 89 83 90 84 91 93 92 85 93 86 94
REMARK SMILES IDX 92 95 94 96 87 97 88 98 89 99 90 100 91 101 67 102 68 103
REMARK SMILES IDX 77 104 69 105 70 106 76 107 78 108 71 109 72 110 73 111
REMARK SMILES IDX 74 112 75 113
REMARK H PARENT 32 6 18 11 37 44 99 63 65 74
REMARK Flexibility Score: inf
ROOT
ATOM      1  C   UNL A   1      34.056  30.514  27.816  1.00  0.00     0.023 C 
ENDROOT
BRANCH   1   2
ATOM      2  C   UNL A   1      33.326  30.546  26.478  1.00  0.00     0.116 C 
BRANCH   2   3
ATOM      3  N   UNL A   1      33.726  29.465  25.600  1.00  0.00    -0.354 N 
ATOM      4  C   UNL A   1      32.987  28.801  24.669  1.00  0.00     0.242 C 
ATOM      5  O   UNL A   1      33.525  28.124  23.802  1.00  0.00    -0.273 OA
ATOM      6  H   UNL A   1      34.661  29.171  25.687  1.00  0.00     0.163 HD
BRANCH   4   7
ATOM      7  C   UNL A   1      31.506  28.749  24.682  1.00  0.00     0.175 C 
BRANCH   7   8
ATOM      8  N   UNL A   1      31.109  27.788  25.735  1.00  0.00    -0.344 N 
ATOM      9  C   UNL A   1      30.907  26.429  25.767  1.00  0.00     0.221 C 
ATOM     10  O   UNL A   1      30.599  25.998  26.892  1.00  0.00    -0.275 OA
ATOM     11  H   UNL A   1      30.955  28.218  26.607  1.00  0.00     0.164 HD
BRANCH   9  12
ATOM     12  C   UNL A   1      31.055  25.370  24.621  1.00  0.00     0.116 C 
BRANCH  12  13
ATOM     13  C   UNL A   1      32.068  24.222  24.745  1.00  0.00     0.116 C 
ATOM     14  C   UNL A   1      39.458  21.891  26.206  1.00  0.00     0.088 C 
ATOM     15  C   UNL A   1      38.069  21.911  25.690  1.00  0.00     0.105 A 
ATOM     16  O   UNL A   1      37.232  22.665  26.477  1.00  0.00    -0.461 OA
ATOM     17  C   UNL A   1      37.226  21.223  24.807  1.00  0.00    -0.002 A 
ATOM     18  C   UNL A   1      36.020  22.521  25.901  1.00  0.00     0.138 A 
ATOM     19  C   UNL A   1      36.150  22.119  24.590  1.00  0.00     0.024 A 
ATOM     20  C   UNL A   1      36.988  19.766  24.588  1.00  0.00     0.049 C 
ATOM     21  C   UNL A   1      34.810  22.511  26.521  1.00  0.00     0.095 A 
ATOM     22  C   UNL A   1      35.041  22.212  23.714  1.00  0.00     0.020 A 
ATOM     23  C   UNL A   1      33.730  22.459  25.655  1.00  0.00     0.138 A 
ATOM     24  C   UNL A   1      33.841  22.631  24.274  1.00  0.00    -0.001 A 
ATOM     25  O   UNL A   1      32.460  22.312  26.216  1.00  0.00    -0.426 OA
ATOM     26  C   UNL A   1      32.649  23.316  23.588  1.00  0.00     0.035 C 
ATOM     27  C   UNL A   1      31.511  23.171  25.704  1.00  0.00     0.315 C 
ATOM     28  C   UNL A   1      33.056  24.100  22.343  1.00  0.00     0.014 C 
ATOM     29  O   UNL A   1      30.321  23.039  25.971  1.00  0.00    -0.251 OA
ENDBRANCH  12  13
ENDBRANCH   9  12
ENDBRANCH   7   8
BRANCH   7  30
ATOM     30  C   UNL A   1      31.167  28.459  23.161  1.00  0.00     0.068 C 
BRANCH  30  31
ATOM     31  C   UNL A   1      29.773  28.850  22.555  1.00  0.00    -0.037 C 
ATOM     32  C   UNL A   1      29.243  30.066  22.360  1.00  0.00     0.001 A 
ATOM     33  C   UNL A   1      28.589  27.967  22.861  1.00  0.00     0.174 C 
ATOM     34  C   UNL A   1      29.285  31.051  21.313  1.00  0.00     0.010 A 
ATOM     35  C   UNL A   1      28.006  30.024  23.155  1.00  0.00     0.065 A 
ATOM     36  N   UNL A   1      27.595  28.851  23.525  1.00  0.00    -0.280 NA
ATOM     37  C   UNL A   1      28.587  32.190  21.492  1.00  0.00     0.001 A 
ATOM     38  C   UNL A   1      27.460  31.363  23.493  1.00  0.00     0.028 A 
ATOM     39  C   UNL A   1      27.818  32.397  22.709  1.00  0.00     0.002 A 
ENDBRANCH  30  31
ENDBRANCH   7  30
ENDBRANCH   4   7
ENDBRANCH   2   3
ENDBRANCH   1   2
BRANCH   1  40
ATOM     40  C   UNL A   1      35.463  31.141  27.862  1.00  0.00     0.023 C 
BRANCH  40  41
ATOM     41  C   UNL A   1      35.799  31.993  29.093  1.00  0.00     0.116 C 
BRANCH  41  42
ATOM     42  N   UNL A   1      35.994  31.184  30.283  1.00  0.00    -0.352 N 
ATOM     43  C   UNL A   1      36.851  30.149  30.571  1.00  0.00     0.251 C 
ATOM     44  H   UNL A   1      35.397  31.424  31.029  1.00  0.00     0.163 HD
ATOM     45  O   UNL A   1      36.684  29.545  31.631  1.00  0.00    -0.269 OA
BRANCH  43  46
ATOM     46  C   UNL A   1      37.967  29.725  29.688  1.00  0.00     0.039 A 
ATOM     47  C   UNL A   1      39.294  30.039  29.986  1.00  0.00     0.014 A 
ATOM     48  C   UNL A   1      37.711  28.770  28.698  1.00  0.00     0.014 A 
ATOM     49  C   UNL A   1      40.351  29.438  29.262  1.00  0.00     0.010 A 
ATOM     50  C   UNL A   1      38.765  28.175  27.978  1.00  0.00     0.010 A 
ATOM     51  C   UNL A   1      40.106  28.507  28.234  1.00  0.00    -0.014 A 
BRANCH  51  52
ATOM     52  C   UNL A   1      41.273  27.812  27.575  1.00  0.00     0.031 A 
ATOM     53  C   UNL A   1      42.347  28.766  27.225  1.00  0.00     0.074 A 
ATOM     54  C   UNL A   1      41.834  26.639  27.969  1.00  0.00     0.049 A 
ATOM     55  N   UNL A   1      43.149  29.225  28.134  1.00  0.00    -0.248 NA
ATOM     56  C   UNL A   1      42.417  29.447  25.939  1.00  0.00     0.031 C 
ATOM     57  C   UNL A   1      41.788  26.147  29.331  1.00  0.00     0.029 A 
ATOM     58  N   UNL A   1      42.624  25.697  27.322  1.00  0.00    -0.354 N 
ATOM     59  C   UNL A   1      43.793  30.296  27.580  1.00  0.00     0.074 A 
ATOM     60  C   UNL A   1      43.338  30.385  26.207  1.00  0.00     0.031 C 
ATOM     61  C   UNL A   1      42.399  24.961  29.441  1.00  0.00     0.029 A 
ATOM     62  C   UNL A   1      43.000  24.631  28.160  1.00  0.00     0.049 A 
ATOM     63  H   UNL A   1      42.893  25.769  26.377  1.00  0.00     0.167 HD
ATOM     64  C   UNL A   1      44.651  31.056  28.298  1.00  0.00     0.037 A 
ATOM     65  C   UNL A   1      44.169  23.931  28.139  1.00  0.00     0.037 A 
ATOM     66  C   UNL A   1      44.844  30.670  29.665  1.00  0.00     0.049 A 
ATOM     67  C   UNL A   1      45.135  24.923  28.734  1.00  0.00     0.074 A 
ATOM     68  C   UNL A   1      44.333  31.023  30.893  1.00  0.00     0.029 A 
ATOM     69  N   UNL A   1      45.676  29.606  29.922  1.00  0.00    -0.354 N 
ATOM     70  N   UNL A   1      45.192  25.251  30.005  1.00  0.00    -0.248 NA
ATOM     71  C   UNL A   1      45.730  25.904  27.835  1.00  0.00     0.031 C 
ATOM     72  C   UNL A   1      44.582  29.907  31.753  1.00  0.00     0.029 A 
ATOM     73  C   UNL A   1      45.161  28.896  30.981  1.00  0.00     0.049 A 
ATOM     74  H   UNL A   1      46.500  29.387  29.429  1.00  0.00     0.167 HD
ATOM     75  C   UNL A   1      45.494  26.618  30.027  1.00  0.00     0.074 A 
ATOM     76  C   UNL A   1      45.854  26.941  28.658  1.00  0.00     0.031 C 
ATOM     77  C   UNL A   1      45.242  27.442  31.095  1.00  0.00     0.037 A 
BRANCH  64  78
ATOM     78  C   UNL A   1      45.481  32.069  27.648  1.00  0.00     0.058 A 
ATOM     79  C   UNL A   1      46.762  31.690  27.232  1.00  0.00     0.135 A 
ATOM     80  C   UNL A   1      45.076  33.396  27.485  1.00  0.00     0.135 A 
ATOM     81  F   UNL A   1      47.160  30.412  27.358  1.00  0.00    -0.206 F 
ATOM     82  C   UNL A   1      47.646  32.613  26.710  1.00  0.00     0.059 A 
ATOM     83  C   UNL A   1      45.947  34.342  26.960  1.00  0.00     0.059 A 
ATOM     84  F   UNL A   1      43.842  33.781  27.848  1.00  0.00    -0.206 F 
ATOM     85  C   UNL A   1      47.236  33.942  26.597  1.00  0.00     0.060 A 
BRANCH  85  86
ATOM     86  S   UNL A   1      48.444  35.136  25.997  1.00  0.00     0.124 S 
ATOM     87  O   UNL A   1      49.664  34.674  26.650  1.00  0.00    -0.237 OA
ATOM     88  O   UNL A   1      48.375  34.931  24.555  1.00  0.00    -0.237 OA
ATOM     89  O   UNL A   1      47.922  36.413  26.473  1.00  0.00    -0.744 OA
ENDBRANCH  85  86
ENDBRANCH  64  78
BRANCH  65  90
ATOM     90  C   UNL A   1      44.336  23.021  26.979  1.00  0.00     0.058 A 
ATOM     91  C   UNL A   1      45.667  22.699  26.616  1.00  0.00     0.135 A 
ATOM     92  C   UNL A   1      43.329  22.404  26.231  1.00  0.00     0.135 A 
ATOM     93  F   UNL A   1      46.697  23.341  27.193  1.00  0.00    -0.206 F 
ATOM     94  C   UNL A   1      45.976  21.703  25.698  1.00  0.00     0.059 A 
ATOM     95  C   UNL A   1      43.611  21.388  25.311  1.00  0.00     0.059 A 
ATOM     96  F   UNL A   1      42.042  22.739  26.392  1.00  0.00    -0.206 F 
ATOM     97  C   UNL A   1      44.936  21.010  25.094  1.00  0.00     0.060 A 
BRANCH  97  98
ATOM     98  S   UNL A   1      45.330  19.548  24.109  1.00  0.00     0.124 S 
ATOM     99  O   UNL A   1      44.562  19.792  22.882  1.00  0.00    -0.237 OA
ATOM    100  O   UNL A   1      46.786  19.682  23.970  1.00  0.00    -0.237 OA
ATOM    101  O   UNL A   1      44.880  18.450  24.925  1.00  0.00    -0.744 OA
ENDBRANCH  97  98
ENDBRANCH  65  90
BRANCH  77 102
ATOM    102  C   UNL A   1      44.842  26.789  32.400  1.00  0.00     0.058 A 
ATOM    103  C   UNL A   1      43.500  26.784  32.814  1.00  0.00     0.135 A 
ATOM    104  C   UNL A   1      45.747  26.044  33.181  1.00  0.00     0.135 A 
ATOM    105  F   UNL A   1      42.572  27.458  32.117  1.00  0.00    -0.206 F 
ATOM    106  C   UNL A   1      43.071  26.039  33.916  1.00  0.00     0.059 A 
ATOM    107  C   UNL A   1      45.334  25.260  34.261  1.00  0.00     0.059 A 
ATOM    108  F   UNL A   1      47.058  26.026  32.884  1.00  0.00    -0.206 F 
ATOM    109  C   UNL A   1      43.989  25.255  34.614  1.00  0.00     0.060 A 
BRANCH 109 110
ATOM    110  S   UNL A   1      43.386  24.179  35.937  1.00  0.00     0.124 S 
ATOM    111  O   UNL A   1      43.563  25.018  37.118  1.00  0.00    -0.237 OA
ATOM    112  O   UNL A   1      42.004  23.938  35.533  1.00  0.00    -0.237 OA
ATOM    113  O   UNL A   1      44.265  23.015  35.862  1.00  0.00    -0.744 OA
ENDBRANCH 109 110
ENDBRANCH  77 102
ENDBRANCH  51  52
ENDBRANCH  43  46
ENDBRANCH  41  42
ENDBRANCH  40  41
ENDBRANCH   1  40
TORSDOF 19
ENDMDL
