MODEL 1
REMARK VINA RESULT:     -12.3      0.000      0.000
REMARK SMILES CC[C@H]1CCCCN1S(=O)(=O)c1ccc2oc(C(=O)NCCCCNC(=O)c3ccc(-c4c5nc(c(-c6c(F)cc(S(=O)(=O)[O-])cc6F)c6ccc([nH]6)c(-c6c(F)cc(S(=O)(=O)[O-])cc6F)c6nc(c(-c7c(F)cc(S(=O)(=O)[O-])cc7F)c7ccc4[nH]7)C=C6)C=C5)cc3)c(C)c2c1
REMARK SMILES IDX 22 1 21 2 20 3 18 4 19 5 17 7 12 8 13 9 97 10 14 11 96 12
REMARK SMILES IDX 15 13 94 14 16 15 95 16 9 17 10 18 11 19 8 20 3 21 4 22 5 23
REMARK SMILES IDX 7 24 6 25 2 26 1 27 23 28 24 29 25 30 26 31 27 33 28 34
REMARK SMILES IDX 29 35 93 36 30 37 92 38 31 39 32 40 33 41 86 42 34 43 91 44
REMARK SMILES IDX 85 45 87 46 35 47 90 48 84 49 83 50 36 52 70 53 49 54 69 55
REMARK SMILES IDX 50 56 53 57 68 58 88 59 51 60 52 61 67 63 89 64 54 65 37 66
REMARK SMILES IDX 38 67 47 68 39 69 40 70 46 71 48 72 41 73 42 74 43 75 44 76
REMARK SMILES IDX 45 77 71 78 72 79 81 80 73 81 74 82 80 83 82 84 75 85 76 86
REMARK SMILES IDX 77 87 78 88 79 89 55 90 56 91 65 92 57 93 58 94 64 95 66 96
REMARK SMILES IDX 59 97 60 98 61 99 62 100 63 101
REMARK H PARENT 20 6 25 32 87 51 53 62
REMARK Flexibility Score: inf
ROOT
ATOM      1  C   UNL A   1      39.903  22.596  27.237  1.00  0.00     0.023 C 
ENDROOT
BRANCH   1   2
ATOM      2  C   UNL A   1      38.925  22.394  26.091  1.00  0.00     0.116 C 
BRANCH   2   3
ATOM      3  N   UNL A   1      38.706  21.034  25.656  1.00  0.00    -0.349 N 
ATOM      4  C   UNL A   1      37.574  20.472  25.086  1.00  0.00     0.287 C 
ATOM      5  O   UNL A   1      37.644  19.272  24.811  1.00  0.00    -0.266 OA
ATOM      6  H   UNL A   1      39.466  20.422  25.782  1.00  0.00     0.163 HD
BRANCH   4   7
ATOM      7  C   UNL A   1      36.360  21.257  24.885  1.00  0.00     0.195 A 
ATOM      8  C   UNL A   1      32.578  23.820  24.655  1.00  0.00     0.083 A 
ATOM      9  C   UNL A   1      32.058  22.726  25.357  1.00  0.00     0.025 A 
ATOM     10  C   UNL A   1      33.939  23.890  24.350  1.00  0.00     0.034 A 
ATOM     11  C   UNL A   1      32.900  21.665  25.755  1.00  0.00     0.049 A 
ATOM     12  C   UNL A   1      34.733  22.769  24.578  1.00  0.00     0.025 A 
ATOM     13  C   UNL A   1      34.229  21.728  25.329  1.00  0.00     0.135 A 
ATOM     14  C   UNL A   1      36.006  22.357  24.108  1.00  0.00     0.008 A 
ATOM     15  O   UNL A   1      35.225  20.829  25.563  1.00  0.00    -0.451 OA
ATOM     16  C   UNL A   1      36.689  23.013  22.962  1.00  0.00     0.049 C 
BRANCH   8  17
ATOM     17  S   UNL A   1      31.589  25.226  24.201  1.00  0.00     0.243 S 
ATOM     18  O   UNL A   1      30.395  25.132  25.023  1.00  0.00    -0.207 OA
ATOM     19  O   UNL A   1      31.486  25.255  22.762  1.00  0.00    -0.207 OA
BRANCH  17  20
ATOM     20  N   UNL A   1      32.473  26.639  24.676  1.00  0.00    -0.195 NA
ATOM     21  C   UNL A   1      32.103  27.873  23.894  1.00  0.00     0.073 C 
ATOM     22  C   UNL A   1      33.109  29.005  24.160  1.00  0.00     0.020 C 
ATOM     23  C   UNL A   1      33.331  29.305  25.632  1.00  0.00     0.003 C 
ATOM     24  C   UNL A   1      32.721  26.893  26.119  1.00  0.00     0.103 C 
ATOM     25  C   UNL A   1      33.701  28.034  26.365  1.00  0.00     0.017 C 
BRANCH  21  26
ATOM     26  C   UNL A   1      30.625  28.324  23.982  1.00  0.00     0.017 C 
ATOM     27  C   UNL A   1      29.749  28.311  22.737  1.00  0.00     0.005 C 
ENDBRANCH  21  26
ENDBRANCH  17  20
ENDBRANCH   8  17
ENDBRANCH   4   7
ENDBRANCH   2   3
ENDBRANCH   1   2
BRANCH   1  28
ATOM     28  C   UNL A   1      41.339  22.144  27.002  1.00  0.00     0.023 C 
BRANCH  28  29
ATOM     29  C   UNL A   1      42.410  23.229  26.956  1.00  0.00     0.116 C 
BRANCH  29  30
ATOM     30  N   UNL A   1      42.281  24.160  25.844  1.00  0.00    -0.352 N 
ATOM     31  C   UNL A   1      42.060  25.519  25.842  1.00  0.00     0.251 C 
ATOM     32  H   UNL A   1      42.365  23.753  24.951  1.00  0.00     0.163 HD
ATOM     33  O   UNL A   1      41.943  26.110  24.771  1.00  0.00    -0.269 OA
BRANCH  31  34
ATOM     34  C   UNL A   1      41.914  26.262  27.115  1.00  0.00     0.039 A 
ATOM     35  C   UNL A   1      42.861  27.239  27.439  1.00  0.00     0.014 A 
ATOM     36  C   UNL A   1      40.842  26.025  27.977  1.00  0.00     0.014 A 
ATOM     37  C   UNL A   1      42.679  28.038  28.571  1.00  0.00     0.010 A 
ATOM     38  C   UNL A   1      40.612  26.882  29.051  1.00  0.00     0.010 A 
ATOM     39  C   UNL A   1      41.524  27.900  29.361  1.00  0.00    -0.014 A 
BRANCH  39  40
ATOM     40  C   UNL A   1      41.257  28.811  30.507  1.00  0.00     0.031 A 
ATOM     41  C   UNL A   1      42.059  28.689  31.778  1.00  0.00     0.074 A 
ATOM     42  C   UNL A   1      40.241  29.697  30.438  1.00  0.00     0.049 A 
ATOM     43  N   UNL A   1      41.928  29.342  32.904  1.00  0.00    -0.248 NA
ATOM     44  C   UNL A   1      43.123  27.672  31.798  1.00  0.00     0.031 C 
ATOM     45  C   UNL A   1      39.332  29.860  29.299  1.00  0.00     0.029 A 
ATOM     46  N   UNL A   1      39.789  30.618  31.351  1.00  0.00    -0.354 N 
ATOM     47  C   UNL A   1      42.868  28.797  33.771  1.00  0.00     0.074 A 
ATOM     48  C   UNL A   1      43.530  27.727  33.058  1.00  0.00     0.031 C 
ATOM     49  C   UNL A   1      38.450  30.835  29.574  1.00  0.00     0.029 A 
ATOM     50  C   UNL A   1      38.709  31.348  30.914  1.00  0.00     0.049 A 
ATOM     51  H   UNL A   1      40.202  30.745  32.235  1.00  0.00     0.167 HD
ATOM     52  C   UNL A   1      43.172  29.170  35.038  1.00  0.00     0.037 A 
ATOM     53  C   UNL A   1      38.005  32.323  31.523  1.00  0.00     0.037 A 
ATOM     54  C   UNL A   1      42.552  30.272  35.726  1.00  0.00     0.049 A 
ATOM     55  C   UNL A   1      38.416  32.772  32.900  1.00  0.00     0.074 A 
ATOM     56  C   UNL A   1      42.852  30.784  36.976  1.00  0.00     0.029 A 
ATOM     57  N   UNL A   1      41.514  31.039  35.218  1.00  0.00    -0.354 N 
ATOM     58  N   UNL A   1      39.364  32.299  33.673  1.00  0.00    -0.248 NA
ATOM     59  C   UNL A   1      37.675  33.902  33.480  1.00  0.00     0.031 C 
ATOM     60  C   UNL A   1      41.976  31.844  37.237  1.00  0.00     0.029 A 
ATOM     61  C   UNL A   1      41.157  32.016  36.132  1.00  0.00     0.049 A 
ATOM     62  H   UNL A   1      41.093  30.908  34.339  1.00  0.00     0.167 HD
ATOM     63  C   UNL A   1      39.352  33.090  34.817  1.00  0.00     0.074 A 
ATOM     64  C   UNL A   1      38.312  34.081  34.629  1.00  0.00     0.031 C 
ATOM     65  C   UNL A   1      40.129  33.003  35.924  1.00  0.00     0.037 A 
BRANCH  52  66
ATOM     66  C   UNL A   1      44.237  28.391  35.759  1.00  0.00     0.058 A 
ATOM     67  C   UNL A   1      43.921  27.291  36.573  1.00  0.00     0.135 A 
ATOM     68  C   UNL A   1      45.593  28.720  35.601  1.00  0.00     0.135 A 
ATOM     69  F   UNL A   1      42.640  26.945  36.773  1.00  0.00    -0.206 F 
ATOM     70  C   UNL A   1      44.909  26.561  37.224  1.00  0.00     0.059 A 
ATOM     71  C   UNL A   1      46.600  27.987  36.221  1.00  0.00     0.059 A 
ATOM     72  F   UNL A   1      45.950  29.763  34.835  1.00  0.00    -0.206 F 
ATOM     73  C   UNL A   1      46.247  26.916  37.041  1.00  0.00     0.060 A 
BRANCH  73  74
ATOM     74  S   UNL A   1      47.519  25.945  37.878  1.00  0.00     0.124 S 
ATOM     75  O   UNL A   1      47.820  26.794  39.028  1.00  0.00    -0.237 OA
ATOM     76  O   UNL A   1      46.818  24.701  38.176  1.00  0.00    -0.237 OA
ATOM     77  O   UNL A   1      48.578  25.842  36.880  1.00  0.00    -0.744 OA
ENDBRANCH  73  74
ENDBRANCH  52  66
BRANCH  53  78
ATOM     78  C   UNL A   1      36.861  32.969  30.826  1.00  0.00     0.058 A 
ATOM     79  C   UNL A   1      37.072  33.970  29.867  1.00  0.00     0.135 A 
ATOM     80  C   UNL A   1      35.536  32.602  31.108  1.00  0.00     0.135 A 
ATOM     81  F   UNL A   1      38.321  34.358  29.566  1.00  0.00    -0.206 F 
ATOM     82  C   UNL A   1      36.011  34.606  29.230  1.00  0.00     0.059 A 
ATOM     83  C   UNL A   1      34.459  33.206  30.466  1.00  0.00     0.059 A 
ATOM     84  F   UNL A   1      35.282  31.634  32.002  1.00  0.00    -0.206 F 
ATOM     85  C   UNL A   1      34.706  34.218  29.539  1.00  0.00     0.060 A 
BRANCH  85  86
ATOM     86  S   UNL A   1      33.335  35.023  28.683  1.00  0.00     0.124 S 
ATOM     87  O   UNL A   1      34.036  36.009  27.868  1.00  0.00    -0.237 OA
ATOM     88  O   UNL A   1      32.727  33.911  27.958  1.00  0.00    -0.237 OA
ATOM     89  O   UNL A   1      32.530  35.562  29.776  1.00  0.00    -0.744 OA
ENDBRANCH  85  86
ENDBRANCH  53  78
BRANCH  65  90
ATOM     90  C   UNL A   1      39.915  34.034  36.997  1.00  0.00     0.058 A 
ATOM     91  C   UNL A   1      39.044  33.810  38.073  1.00  0.00     0.135 A 
ATOM     92  C   UNL A   1      40.609  35.253  36.956  1.00  0.00     0.135 A 
ATOM     93  F   UNL A   1      38.353  32.661  38.157  1.00  0.00    -0.206 F 
ATOM     94  C   UNL A   1      38.838  34.774  39.053  1.00  0.00     0.059 A 
ATOM     95  C   UNL A   1      40.439  36.222  37.939  1.00  0.00     0.059 A 
ATOM     96  F   UNL A   1      41.466  35.511  35.955  1.00  0.00    -0.206 F 
ATOM     97  C   UNL A   1      39.536  35.981  38.973  1.00  0.00     0.060 A 
BRANCH  97  98
ATOM     98  S   UNL A   1      39.267  37.229  40.250  1.00  0.00     0.124 S 
ATOM     99  O   UNL A   1      38.430  38.193  39.543  1.00  0.00    -0.237 OA
ATOM    100  O   UNL A   1      38.603  36.467  41.303  1.00  0.00    -0.237 OA
ATOM    101  O   UNL A   1      40.616  37.682  40.571  1.00  0.00    -0.744 OA
ENDBRANCH  97  98
ENDBRANCH  65  90
ENDBRANCH  39  40
ENDBRANCH  31  34
ENDBRANCH  29  30
ENDBRANCH  28  29
ENDBRANCH   1  28
TORSDOF 17
ENDMDL
MODEL 2
REMARK VINA RESULT:     -12.1      6.103     12.073
REMARK SMILES CC[C@H]1CCCCN1S(=O)(=O)c1ccc2oc(C(=O)NCCCCNC(=O)c3ccc(-c4c5nc(c(-c6c(F)cc(S(=O)(=O)[O-])cc6F)c6ccc([nH]6)c(-c6c(F)cc(S(=O)(=O)[O-])cc6F)c6nc(c(-c7c(F)cc(S(=O)(=O)[O-])cc7F)c7ccc4[nH]7)C=C6)C=C5)cc3)c(C)c2c1
REMARK SMILES IDX 22 1 21 2 20 3 18 4 19 5 17 7 12 8 13 9 97 10 14 11 96 12
REMARK SMILES IDX 15 13 94 14 16 15 95 16 9 17 10 18 11 19 8 20 3 21 4 22 5 23
REMARK SMILES IDX 7 24 6 25 2 26 1 27 23 28 24 29 25 30 26 31 27 33 28 34
REMARK SMILES IDX 29 35 93 36 30 37 92 38 31 39 32 40 33 41 86 42 34 43 91 44
REMARK SMILES IDX 85 45 87 46 35 47 90 48 84 49 83 50 36 52 70 53 49 54 69 55
REMARK SMILES IDX 50 56 53 57 68 58 88 59 51 60 52 61 67 63 89 64 54 65 37 66
REMARK SMILES IDX 38 67 47 68 39 69 40 70 46 71 48 72 41 73 42 74 43 75 44 76
REMARK SMILES IDX 45 77 71 78 72 79 81 80 73 81 74 82 80 83 82 84 75 85 76 86
REMARK SMILES IDX 77 87 78 88 79 89 55 90 56 91 65 92 57 93 58 94 64 95 66 96
REMARK SMILES IDX 59 97 60 98 61 99 62 100 63 101
REMARK H PARENT 20 6 25 32 87 51 53 62
REMARK Flexibility Score: inf
ROOT
ATOM      1  C   UNL A   1      35.882  31.356  27.630  1.00  0.00     0.023 C 
ENDROOT
BRANCH   1   2
ATOM      2  C   UNL A   1      34.679  30.429  27.547  1.00  0.00     0.116 C 
BRANCH   2   3
ATOM      3  N   UNL A   1      33.399  31.047  27.296  1.00  0.00    -0.349 N 
ATOM      4  C   UNL A   1      32.356  30.602  26.499  1.00  0.00     0.287 C 
ATOM      5  O   UNL A   1      31.363  31.331  26.448  1.00  0.00    -0.266 OA
ATOM      6  H   UNL A   1      33.245  31.904  27.756  1.00  0.00     0.163 HD
BRANCH   4   7
ATOM      7  C   UNL A   1      32.469  29.370  25.725  1.00  0.00     0.195 A 
ATOM      8  C   UNL A   1      33.235  25.543  23.339  1.00  0.00     0.083 A 
ATOM      9  C   UNL A   1      33.620  26.483  22.374  1.00  0.00     0.025 A 
ATOM     10  C   UNL A   1      32.878  25.948  24.626  1.00  0.00     0.034 A 
ATOM     11  C   UNL A   1      33.637  27.859  22.683  1.00  0.00     0.049 A 
ATOM     12  C   UNL A   1      32.720  27.309  24.879  1.00  0.00     0.025 A 
ATOM     13  C   UNL A   1      33.166  28.223  23.947  1.00  0.00     0.135 A 
ATOM     14  C   UNL A   1      32.070  28.047  25.900  1.00  0.00     0.008 A 
ATOM     15  O   UNL A   1      33.064  29.475  24.474  1.00  0.00    -0.451 OA
ATOM     16  C   UNL A   1      31.125  27.424  26.863  1.00  0.00     0.049 C 
BRANCH   8  17
ATOM     17  S   UNL A   1      33.274  23.791  23.039  1.00  0.00     0.243 S 
ATOM     18  O   UNL A   1      33.657  23.652  21.645  1.00  0.00    -0.207 OA
ATOM     19  O   UNL A   1      32.034  23.228  23.518  1.00  0.00    -0.207 OA
BRANCH  17  20
ATOM     20  N   UNL A   1      34.541  23.138  24.025  1.00  0.00    -0.195 NA
ATOM     21  C   UNL A   1      34.084  22.035  24.944  1.00  0.00     0.073 C 
ATOM     22  C   UNL A   1      35.174  21.704  25.977  1.00  0.00     0.020 C 
ATOM     23  C   UNL A   1      36.536  21.417  25.372  1.00  0.00     0.003 C 
ATOM     24  C   UNL A   1      35.883  22.908  23.429  1.00  0.00     0.103 C 
ATOM     25  C   UNL A   1      36.945  22.557  24.463  1.00  0.00     0.017 C 
BRANCH  21  26
ATOM     26  C   UNL A   1      33.474  20.785  24.265  1.00  0.00     0.017 C 
ATOM     27  C   UNL A   1      33.042  19.594  25.110  1.00  0.00     0.005 C 
ENDBRANCH  21  26
ENDBRANCH  17  20
ENDBRANCH   8  17
ENDBRANCH   4   7
ENDBRANCH   2   3
ENDBRANCH   1   2
BRANCH   1  28
ATOM     28  C   UNL A   1      35.701  32.648  28.417  1.00  0.00     0.023 C 
BRANCH  28  29
ATOM     29  C   UNL A   1      36.350  32.718  29.795  1.00  0.00     0.116 C 
BRANCH  29  30
ATOM     30  N   UNL A   1      36.023  31.606  30.676  1.00  0.00    -0.352 N 
ATOM     31  C   UNL A   1      36.760  30.495  31.019  1.00  0.00     0.251 C 
ATOM     32  H   UNL A   1      35.132  31.657  31.093  1.00  0.00     0.163 HD
ATOM     33  O   UNL A   1      36.266  29.648  31.760  1.00  0.00    -0.269 OA
BRANCH  31  34
ATOM     34  C   UNL A   1      38.119  30.290  30.466  1.00  0.00     0.039 A 
ATOM     35  C   UNL A   1      39.210  30.289  31.339  1.00  0.00     0.014 A 
ATOM     36  C   UNL A   1      38.323  30.073  29.102  1.00  0.00     0.014 A 
ATOM     37  C   UNL A   1      40.486  29.975  30.861  1.00  0.00     0.010 A 
ATOM     38  C   UNL A   1      39.576  29.670  28.643  1.00  0.00     0.010 A 
ATOM     39  C   UNL A   1      40.671  29.613  29.516  1.00  0.00    -0.014 A 
BRANCH  39  40
ATOM     40  C   UNL A   1      42.000  29.171  29.009  1.00  0.00     0.031 A 
ATOM     41  C   UNL A   1      43.131  30.160  28.882  1.00  0.00     0.074 A 
ATOM     42  C   UNL A   1      42.168  27.901  28.587  1.00  0.00     0.049 A 
ATOM     43  N   UNL A   1      44.334  29.982  28.399  1.00  0.00    -0.248 NA
ATOM     44  C   UNL A   1      42.863  31.539  29.321  1.00  0.00     0.031 C 
ATOM     45  C   UNL A   1      41.131  26.865  28.575  1.00  0.00     0.029 A 
ATOM     46  N   UNL A   1      43.271  27.265  28.071  1.00  0.00    -0.354 N 
ATOM     47  C   UNL A   1      44.952  31.226  28.448  1.00  0.00     0.074 A 
ATOM     48  C   UNL A   1      43.976  32.161  28.963  1.00  0.00     0.031 C 
ATOM     49  C   UNL A   1      41.653  25.722  28.098  1.00  0.00     0.029 A 
ATOM     50  C   UNL A   1      43.050  25.947  27.745  1.00  0.00     0.049 A 
ATOM     51  H   UNL A   1      44.139  27.712  27.947  1.00  0.00     0.167 HD
ATOM     52  C   UNL A   1      46.224  31.556  28.120  1.00  0.00     0.037 A 
ATOM     53  C   UNL A   1      43.879  25.023  27.222  1.00  0.00     0.037 A 
ATOM     54  C   UNL A   1      47.211  30.613  27.663  1.00  0.00     0.049 A 
ATOM     55  C   UNL A   1      45.311  25.396  26.942  1.00  0.00     0.074 A 
ATOM     56  C   UNL A   1      48.550  30.832  27.390  1.00  0.00     0.029 A 
ATOM     57  N   UNL A   1      46.969  29.269  27.421  1.00  0.00    -0.354 N 
ATOM     58  N   UNL A   1      45.899  26.561  27.074  1.00  0.00    -0.248 NA
ATOM     59  C   UNL A   1      46.195  24.325  26.461  1.00  0.00     0.031 C 
ATOM     60  C   UNL A   1      49.111  29.626  26.955  1.00  0.00     0.029 A 
ATOM     61  C   UNL A   1      48.131  28.648  26.996  1.00  0.00     0.049 A 
ATOM     62  H   UNL A   1      46.099  28.822  27.534  1.00  0.00     0.167 HD
ATOM     63  C   UNL A   1      47.229  26.356  26.720  1.00  0.00     0.074 A 
ATOM     64  C   UNL A   1      47.360  24.954  26.383  1.00  0.00     0.031 C 
ATOM     65  C   UNL A   1      48.249  27.249  26.677  1.00  0.00     0.037 A 
BRANCH  52  66
ATOM     66  C   UNL A   1      46.631  32.997  28.262  1.00  0.00     0.058 A 
ATOM     67  C   UNL A   1      47.306  33.462  29.402  1.00  0.00     0.135 A 
ATOM     68  C   UNL A   1      46.384  33.914  27.227  1.00  0.00     0.135 A 
ATOM     69  F   UNL A   1      47.551  32.632  30.427  1.00  0.00    -0.206 F 
ATOM     70  C   UNL A   1      47.699  34.790  29.523  1.00  0.00     0.059 A 
ATOM     71  C   UNL A   1      46.792  35.242  27.315  1.00  0.00     0.059 A 
ATOM     72  F   UNL A   1      45.741  33.522  26.116  1.00  0.00    -0.206 F 
ATOM     73  C   UNL A   1      47.438  35.673  28.473  1.00  0.00     0.060 A 
BRANCH  73  74
ATOM     74  S   UNL A   1      47.972  37.390  28.637  1.00  0.00     0.124 S 
ATOM     75  O   UNL A   1      47.378  37.993  27.447  1.00  0.00    -0.237 OA
ATOM     76  O   UNL A   1      47.377  37.783  29.910  1.00  0.00    -0.237 OA
ATOM     77  O   UNL A   1      49.428  37.295  28.633  1.00  0.00    -0.744 OA
ENDBRANCH  73  74
ENDBRANCH  52  66
BRANCH  53  78
ATOM     78  C   UNL A   1      43.392  23.642  26.960  1.00  0.00     0.058 A 
ATOM     79  C   UNL A   1      43.229  22.723  28.007  1.00  0.00     0.135 A 
ATOM     80  C   UNL A   1      43.085  23.213  25.660  1.00  0.00     0.135 A 
ATOM     81  F   UNL A   1      43.514  23.085  29.267  1.00  0.00    -0.206 F 
ATOM     82  C   UNL A   1      42.805  21.418  27.775  1.00  0.00     0.059 A 
ATOM     83  C   UNL A   1      42.635  21.921  25.405  1.00  0.00     0.059 A 
ATOM     84  F   UNL A   1      43.203  24.060  24.626  1.00  0.00    -0.206 F 
ATOM     85  C   UNL A   1      42.513  21.026  26.467  1.00  0.00     0.060 A 
BRANCH  85  86
ATOM     86  S   UNL A   1      41.929  19.341  26.176  1.00  0.00     0.124 S 
ATOM     87  O   UNL A   1      42.711  18.958  25.006  1.00  0.00    -0.237 OA
ATOM     88  O   UNL A   1      42.280  18.673  27.426  1.00  0.00    -0.237 OA
ATOM     89  O   UNL A   1      40.497  19.519  25.951  1.00  0.00    -0.744 OA
ENDBRANCH  85  86
ENDBRANCH  53  78
BRANCH  65  90
ATOM     90  C   UNL A   1      49.604  26.725  26.293  1.00  0.00     0.058 A 
ATOM     91  C   UNL A   1      50.087  26.818  24.979  1.00  0.00     0.135 A 
ATOM     92  C   UNL A   1      50.438  26.142  27.259  1.00  0.00     0.135 A 
ATOM     93  F   UNL A   1      49.327  27.364  24.016  1.00  0.00    -0.206 F 
ATOM     94  C   UNL A   1      51.335  26.317  24.627  1.00  0.00     0.059 A 
ATOM     95  C   UNL A   1      51.701  25.657  26.937  1.00  0.00     0.059 A 
ATOM     96  F   UNL A   1      50.029  26.042  28.534  1.00  0.00    -0.206 F 
ATOM     97  C   UNL A   1      52.133  25.731  25.613  1.00  0.00     0.060 A 
BRANCH  97  98
ATOM     98  S   UNL A   1      53.754  25.084  25.152  1.00  0.00     0.124 S 
ATOM     99  O   UNL A   1      53.468  23.662  25.001  1.00  0.00    -0.237 OA
ATOM    100  O   UNL A   1      54.043  25.807  23.917  1.00  0.00    -0.237 OA
ATOM    101  O   UNL A   1      54.597  25.440  26.288  1.00  0.00    -0.744 OA
ENDBRANCH  97  98
ENDBRANCH  65  90
ENDBRANCH  39  40
ENDBRANCH  31  34
ENDBRANCH  29  30
ENDBRANCH  28  29
ENDBRANCH   1  28
TORSDOF 17
ENDMDL
MODEL 3
REMARK VINA RESULT:     -12.1      4.247      7.634
REMARK SMILES CC[C@H]1CCCCN1S(=O)(=O)c1ccc2oc(C(=O)NCCCCNC(=O)c3ccc(-c4c5nc(c(-c6c(F)cc(S(=O)(=O)[O-])cc6F)c6ccc([nH]6)c(-c6c(F)cc(S(=O)(=O)[O-])cc6F)c6nc(c(-c7c(F)cc(S(=O)(=O)[O-])cc7F)c7ccc4[nH]7)C=C6)C=C5)cc3)c(C)c2c1
REMARK SMILES IDX 22 1 21 2 20 3 18 4 19 5 17 7 12 8 13 9 97 10 14 11 96 12
REMARK SMILES IDX 15 13 94 14 16 15 95 16 9 17 10 18 11 19 8 20 3 21 4 22 5 23
REMARK SMILES IDX 7 24 6 25 2 26 1 27 23 28 24 29 25 30 26 31 27 33 28 34
REMARK SMILES IDX 29 35 93 36 30 37 92 38 31 39 32 40 33 41 86 42 34 43 91 44
REMARK SMILES IDX 85 45 87 46 35 47 90 48 84 49 83 50 36 52 70 53 49 54 69 55
REMARK SMILES IDX 50 56 53 57 68 58 88 59 51 60 52 61 67 63 89 64 54 65 37 66
REMARK SMILES IDX 38 67 47 68 39 69 40 70 46 71 48 72 41 73 42 74 43 75 44 76
REMARK SMILES IDX 45 77 71 78 72 79 81 80 73 81 74 82 80 83 82 84 75 85 76 86
REMARK SMILES IDX 77 87 78 88 79 89 55 90 56 91 65 92 57 93 58 94 64 95 66 96
REMARK SMILES IDX 59 97 60 98 61 99 62 100 63 101
REMARK H PARENT 20 6 25 32 87 51 53 62
REMARK Flexibility Score: inf
ROOT
ATOM      1  C   UNL A   1      42.429  23.167  28.661  1.00  0.00     0.023 C 
ENDROOT
BRANCH   1   2
ATOM      2  C   UNL A   1      43.935  23.139  28.869  1.00  0.00     0.116 C 
BRANCH   2   3
ATOM      3  N   UNL A   1      44.727  22.569  27.805  1.00  0.00    -0.349 N 
ATOM      4  C   UNL A   1      45.628  23.193  26.957  1.00  0.00     0.287 C 
ATOM      5  O   UNL A   1      46.172  22.473  26.117  1.00  0.00    -0.266 OA
ATOM      6  H   UNL A   1      44.611  21.602  27.662  1.00  0.00     0.163 HD
BRANCH   4   7
ATOM      7  C   UNL A   1      45.862  24.632  27.030  1.00  0.00     0.195 A 
ATOM      8  C   UNL A   1      46.921  29.082  27.010  1.00  0.00     0.083 A 
ATOM      9  C   UNL A   1      47.943  28.619  27.847  1.00  0.00     0.025 A 
ATOM     10  C   UNL A   1      46.041  28.189  26.395  1.00  0.00     0.034 A 
ATOM     11  C   UNL A   1      48.090  27.238  28.099  1.00  0.00     0.049 A 
ATOM     12  C   UNL A   1      46.070  26.851  26.783  1.00  0.00     0.025 A 
ATOM     13  C   UNL A   1      47.119  26.395  27.553  1.00  0.00     0.135 A 
ATOM     14  C   UNL A   1      45.158  25.773  26.651  1.00  0.00     0.008 A 
ATOM     15  O   UNL A   1      47.028  25.040  27.665  1.00  0.00    -0.451 OA
ATOM     16  C   UNL A   1      43.742  25.964  26.243  1.00  0.00     0.049 C 
BRANCH   8  17
ATOM     17  S   UNL A   1      46.734  30.799  26.585  1.00  0.00     0.243 S 
ATOM     18  O   UNL A   1      46.066  30.800  25.294  1.00  0.00    -0.207 OA
ATOM     19  O   UNL A   1      48.015  31.442  26.747  1.00  0.00    -0.207 OA
BRANCH  17  20
ATOM     20  N   UNL A   1      45.664  31.495  27.757  1.00  0.00    -0.195 NA
ATOM     21  C   UNL A   1      45.869  32.974  27.959  1.00  0.00     0.073 C 
ATOM     22  C   UNL A   1      45.100  33.464  29.197  1.00  0.00     0.020 C 
ATOM     23  C   UNL A   1      43.631  33.084  29.206  1.00  0.00     0.003 C 
ATOM     24  C   UNL A   1      44.238  31.076  27.782  1.00  0.00     0.103 C 
ATOM     25  C   UNL A   1      43.485  31.591  29.003  1.00  0.00     0.017 C 
BRANCH  21  26
ATOM     26  C   UNL A   1      45.672  33.870  26.713  1.00  0.00     0.017 C 
ATOM     27  C   UNL A   1      46.829  34.708  26.186  1.00  0.00     0.005 C 
ENDBRANCH  21  26
ENDBRANCH  17  20
ENDBRANCH   8  17
ENDBRANCH   4   7
ENDBRANCH   2   3
ENDBRANCH   1   2
BRANCH   1  28
ATOM     28  C   UNL A   1      41.832  22.052  27.812  1.00  0.00     0.023 C 
BRANCH  28  29
ATOM     29  C   UNL A   1      41.589  22.356  26.337  1.00  0.00     0.116 C 
BRANCH  29  30
ATOM     30  N   UNL A   1      40.194  22.284  25.926  1.00  0.00    -0.352 N 
ATOM     31  C   UNL A   1      39.164  23.179  26.115  1.00  0.00     0.251 C 
ATOM     32  H   UNL A   1      39.948  21.466  25.436  1.00  0.00     0.163 HD
ATOM     33  O   UNL A   1      38.037  22.894  25.714  1.00  0.00    -0.269 OA
BRANCH  31  34
ATOM     34  C   UNL A   1      39.391  24.452  26.836  1.00  0.00     0.039 A 
ATOM     35  C   UNL A   1      38.958  24.564  28.161  1.00  0.00     0.014 A 
ATOM     36  C   UNL A   1      40.049  25.524  26.230  1.00  0.00     0.014 A 
ATOM     37  C   UNL A   1      39.270  25.707  28.902  1.00  0.00     0.010 A 
ATOM     38  C   UNL A   1      40.440  26.621  26.995  1.00  0.00     0.010 A 
ATOM     39  C   UNL A   1      40.058  26.726  28.340  1.00  0.00    -0.014 A 
BRANCH  39  40
ATOM     40  C   UNL A   1      40.493  27.901  29.143  1.00  0.00     0.031 A 
ATOM     41  C   UNL A   1      41.820  27.884  29.858  1.00  0.00     0.074 A 
ATOM     42  C   UNL A   1      39.662  28.953  29.297  1.00  0.00     0.049 A 
ATOM     43  N   UNL A   1      42.340  28.779  30.658  1.00  0.00    -0.248 NA
ATOM     44  C   UNL A   1      42.656  26.685  29.681  1.00  0.00     0.031 C 
ATOM     45  C   UNL A   1      38.314  29.062  28.729  1.00  0.00     0.029 A 
ATOM     46  N   UNL A   1      39.820  30.129  29.990  1.00  0.00    -0.354 N 
ATOM     47  C   UNL A   1      43.543  28.242  31.100  1.00  0.00     0.074 A 
ATOM     48  C   UNL A   1      43.655  26.922  30.519  1.00  0.00     0.031 C 
ATOM     49  C   UNL A   1      37.781  30.244  29.079  1.00  0.00     0.029 A 
ATOM     50  C   UNL A   1      38.733  30.967  29.916  1.00  0.00     0.049 A 
ATOM     51  H   UNL A   1      40.637  30.350  30.492  1.00  0.00     0.167 HD
ATOM     52  C   UNL A   1      44.483  28.805  31.897  1.00  0.00     0.037 A 
ATOM     53  C   UNL A   1      38.524  32.183  30.459  1.00  0.00     0.037 A 
ATOM     54  C   UNL A   1      44.397  30.140  32.428  1.00  0.00     0.049 A 
ATOM     55  C   UNL A   1      39.619  32.819  31.274  1.00  0.00     0.074 A 
ATOM     56  C   UNL A   1      45.337  30.833  33.170  1.00  0.00     0.029 A 
ATOM     57  N   UNL A   1      43.313  30.989  32.264  1.00  0.00    -0.354 N 
ATOM     58  N   UNL A   1      40.786  32.327  31.613  1.00  0.00    -0.248 NA
ATOM     59  C   UNL A   1      39.375  34.183  31.764  1.00  0.00     0.031 C 
ATOM     60  C   UNL A   1      44.809  32.091  33.480  1.00  0.00     0.029 A 
ATOM     61  C   UNL A   1      43.557  32.196  32.896  1.00  0.00     0.049 A 
ATOM     62  H   UNL A   1      42.491  30.766  31.771  1.00  0.00     0.167 HD
ATOM     63  C   UNL A   1      41.427  33.331  32.330  1.00  0.00     0.074 A 
ATOM     64  C   UNL A   1      40.524  34.462  32.364  1.00  0.00     0.031 C 
ATOM     65  C   UNL A   1      42.653  33.317  32.910  1.00  0.00     0.037 A 
BRANCH  52  66
ATOM     66  C   UNL A   1      45.700  27.986  32.229  1.00  0.00     0.058 A 
ATOM     67  C   UNL A   1      45.647  26.932  33.156  1.00  0.00     0.135 A 
ATOM     68  C   UNL A   1      46.922  28.227  31.581  1.00  0.00     0.135 A 
ATOM     69  F   UNL A   1      44.509  26.670  33.817  1.00  0.00    -0.206 F 
ATOM     70  C   UNL A   1      46.769  26.164  33.448  1.00  0.00     0.059 A 
ATOM     71  C   UNL A   1      48.050  27.453  31.838  1.00  0.00     0.059 A 
ATOM     72  F   UNL A   1      47.028  29.223  30.687  1.00  0.00    -0.206 F 
ATOM     73  C   UNL A   1      47.966  26.431  32.783  1.00  0.00     0.060 A 
BRANCH  73  74
ATOM     74  S   UNL A   1      49.408  25.412  33.158  1.00  0.00     0.124 S 
ATOM     75  O   UNL A   1      50.316  26.397  33.740  1.00  0.00    -0.237 OA
ATOM     76  O   UNL A   1      48.862  24.428  34.087  1.00  0.00    -0.237 OA
ATOM     77  O   UNL A   1      49.802  24.888  31.855  1.00  0.00    -0.744 OA
ENDBRANCH  73  74
ENDBRANCH  52  66
BRANCH  53  78
ATOM     78  C   UNL A   1      37.241  32.899  30.224  1.00  0.00     0.058 A 
ATOM     79  C   UNL A   1      36.171  32.776  31.121  1.00  0.00     0.135 A 
ATOM     80  C   UNL A   1      37.059  33.714  29.096  1.00  0.00     0.135 A 
ATOM     81  F   UNL A   1      36.296  32.004  32.212  1.00  0.00    -0.206 F 
ATOM     82  C   UNL A   1      34.954  33.413  30.899  1.00  0.00     0.059 A 
ATOM     83  C   UNL A   1      35.860  34.381  28.864  1.00  0.00     0.059 A 
ATOM     84  F   UNL A   1      38.060  33.881  28.218  1.00  0.00    -0.206 F 
ATOM     85  C   UNL A   1      34.808  34.213  29.764  1.00  0.00     0.060 A 
BRANCH  85  86
ATOM     86  S   UNL A   1      33.238  35.065  29.499  1.00  0.00     0.124 S 
ATOM     87  O   UNL A   1      32.630  34.242  28.460  1.00  0.00    -0.237 OA
ATOM     88  O   UNL A   1      32.618  34.989  30.818  1.00  0.00    -0.237 OA
ATOM     89  O   UNL A   1      33.651  36.403  29.085  1.00  0.00    -0.744 OA
ENDBRANCH  85  86
ENDBRANCH  53  78
BRANCH  65  90
ATOM     90  C   UNL A   1      43.105  34.578  33.591  1.00  0.00     0.058 A 
ATOM     91  C   UNL A   1      43.703  35.629  32.880  1.00  0.00     0.135 A 
ATOM     92  C   UNL A   1      42.915  34.744  34.972  1.00  0.00     0.135 A 
ATOM     93  F   UNL A   1      43.910  35.519  31.557  1.00  0.00    -0.206 F 
ATOM     94  C   UNL A   1      44.133  36.786  33.519  1.00  0.00     0.059 A 
ATOM     95  C   UNL A   1      43.313  35.904  35.629  1.00  0.00     0.059 A 
ATOM     96  F   UNL A   1      42.334  33.774  35.696  1.00  0.00    -0.206 F 
ATOM     97  C   UNL A   1      43.939  36.911  34.897  1.00  0.00     0.060 A 
BRANCH  97  98
ATOM     98  S   UNL A   1      44.498  38.417  35.721  1.00  0.00     0.124 S 
ATOM     99  O   UNL A   1      45.946  38.303  35.588  1.00  0.00    -0.237 OA
ATOM    100  O   UNL A   1      43.869  39.466  34.924  1.00  0.00    -0.237 OA
ATOM    101  O   UNL A   1      43.977  38.274  37.077  1.00  0.00    -0.744 OA
ENDBRANCH  97  98
ENDBRANCH  65  90
ENDBRANCH  39  40
ENDBRANCH  31  34
ENDBRANCH  29  30
ENDBRANCH  28  29
ENDBRANCH   1  28
TORSDOF 17
ENDMDL
