MODEL 1
REMARK VINA RESULT:     -11.0      0.000      0.000
REMARK SMILES [NH3+][C@@H](Cc1ccc(F)cc1C(F)(F)F)C(=O)NCCCCNC(=O)c1ccc(-c2c3nc(c(-c4c(F)cc(S(=O)(=O)[O-])cc4F)c4ccc([nH]4)c(-c4c(F)cc(S(=O)(=O)[O-])cc4F)c4nc(c(-c5c(F)cc(S(=O)(=O)[O-])cc5F)c5ccc2[nH]5)C=C4)C=C3)cc1
REMARK SMILES IDX 19 1 18 2 17 3 15 4 16 5 2 7 1 8 3 12 4 13 5 14 10 15 6 16
REMARK SMILES IDX 9 17 7 18 8 19 11 20 12 21 13 22 14 23 20 24 21 25 22 26
REMARK SMILES IDX 23 27 24 29 25 30 26 31 90 32 27 33 89 34 28 35 29 36 30 37
REMARK SMILES IDX 83 38 31 39 88 40 82 41 84 42 32 43 87 44 81 45 80 46 33 48
REMARK SMILES IDX 67 49 46 50 66 51 47 52 50 53 65 54 85 55 48 56 49 57 64 59
REMARK SMILES IDX 86 60 51 61 34 62 35 63 44 64 36 65 37 66 43 67 45 68 38 69
REMARK SMILES IDX 39 70 40 71 41 72 42 73 68 74 69 75 78 76 70 77 71 78 77 79
REMARK SMILES IDX 79 80 72 81 73 82 74 83 75 84 76 85 52 86 53 87 62 88 54 89
REMARK SMILES IDX 55 90 61 91 63 92 56 93 57 94 58 95 59 96 60 97
REMARK H PARENT 17 6 1 9 1 10 1 11 22 28 84 47 50 58
REMARK Flexibility Score: inf
ROOT
ATOM      1  C   UNL A   1      31.713  27.826  26.806  1.00  0.00     0.023 C 
ENDROOT
BRANCH   1   2
ATOM      2  C   UNL A   1      31.274  26.586  26.045  1.00  0.00     0.116 C 
BRANCH   2   3
ATOM      3  N   UNL A   1      31.054  25.409  26.852  1.00  0.00    -0.351 N 
ATOM      4  C   UNL A   1      31.378  24.107  26.588  1.00  0.00     0.278 C 
ATOM      5  O   UNL A   1      31.418  23.332  27.551  1.00  0.00    -0.268 OA
ATOM      6  H   UNL A   1      30.608  25.566  27.715  1.00  0.00     0.163 HD
BRANCH   4   7
ATOM      7  C   UNL A   1      31.693  23.588  25.164  1.00  0.00     0.275 C 
BRANCH   7   8
ATOM      8  N   UNL A   1      30.517  23.647  24.276  1.00  0.00    -0.347 N 
ATOM      9  H   UNL A   1      29.755  24.128  24.754  1.00  0.00     0.345 HD
ATOM     10  H   UNL A   1      30.226  22.700  24.034  1.00  0.00     0.345 HD
ATOM     11  H   UNL A   1      30.760  24.156  23.425  1.00  0.00     0.345 HD
ENDBRANCH   7   8
BRANCH   7  12
ATOM     12  C   UNL A   1      33.050  24.021  24.558  1.00  0.00     0.111 C 
BRANCH  12  13
ATOM     13  C   UNL A   1      34.343  23.361  25.002  1.00  0.00    -0.029 A 
ATOM     14  C   UNL A   1      35.369  24.217  25.466  1.00  0.00     0.007 A 
ATOM     15  C   UNL A   1      34.579  21.964  24.979  1.00  0.00     0.062 A 
ATOM     16  C   UNL A   1      36.614  23.718  25.849  1.00  0.00     0.039 A 
ATOM     17  C   UNL A   1      35.856  21.486  25.347  1.00  0.00     0.052 A 
ATOM     18  C   UNL A   1      36.850  22.357  25.774  1.00  0.00     0.123 A 
ATOM     19  F   UNL A   1      38.052  21.873  26.105  1.00  0.00    -0.207 F 
BRANCH  15  20
ATOM     20  C   UNL A   1      33.583  20.932  24.491  1.00  0.00     0.416 C 
ATOM     21  F   UNL A   1      32.566  20.751  25.380  1.00  0.00    -0.166 F 
ATOM     22  F   UNL A   1      32.985  21.281  23.317  1.00  0.00    -0.166 F 
ATOM     23  F   UNL A   1      34.110  19.696  24.274  1.00  0.00    -0.166 F 
ENDBRANCH  15  20
ENDBRANCH  12  13
ENDBRANCH   7  12
ENDBRANCH   4   7
ENDBRANCH   2   3
ENDBRANCH   1   2
BRANCH   1  24
ATOM     24  C   UNL A   1      33.220  28.027  26.923  1.00  0.00     0.023 C 
BRANCH  24  25
ATOM     25  C   UNL A   1      33.778  29.322  26.337  1.00  0.00     0.116 C 
BRANCH  25  26
ATOM     26  N   UNL A   1      33.680  30.471  27.226  1.00  0.00    -0.352 N 
ATOM     27  C   UNL A   1      34.585  30.928  28.163  1.00  0.00     0.251 C 
ATOM     28  H   UNL A   1      32.853  30.997  27.147  1.00  0.00     0.163 HD
ATOM     29  O   UNL A   1      34.303  31.874  28.883  1.00  0.00    -0.269 OA
BRANCH  27  30
ATOM     30  C   UNL A   1      35.878  30.225  28.324  1.00  0.00     0.039 A 
ATOM     31  C   UNL A   1      36.820  30.306  27.295  1.00  0.00     0.014 A 
ATOM     32  C   UNL A   1      36.186  29.555  29.510  1.00  0.00     0.014 A 
ATOM     33  C   UNL A   1      38.110  29.811  27.501  1.00  0.00     0.010 A 
ATOM     34  C   UNL A   1      37.491  29.132  29.742  1.00  0.00     0.010 A 
ATOM     35  C   UNL A   1      38.472  29.274  28.748  1.00  0.00    -0.014 A 
BRANCH  35  36
ATOM     36  C   UNL A   1      39.878  28.894  29.049  1.00  0.00     0.031 A 
ATOM     37  C   UNL A   1      40.814  29.887  29.678  1.00  0.00     0.074 A 
ATOM     38  C   UNL A   1      40.332  27.679  28.679  1.00  0.00     0.049 A 
ATOM     39  N   UNL A   1      42.093  29.772  29.924  1.00  0.00    -0.248 NA
ATOM     40  C   UNL A   1      40.243  31.191  30.054  1.00  0.00     0.031 C 
ATOM     41  C   UNL A   1      39.538  26.643  28.014  1.00  0.00     0.029 A 
ATOM     42  N   UNL A   1      41.576  27.110  28.804  1.00  0.00    -0.354 N 
ATOM     43  C   UNL A   1      42.484  30.990  30.466  1.00  0.00     0.074 A 
ATOM     44  C   UNL A   1      41.318  31.846  30.468  1.00  0.00     0.031 C 
ATOM     45  C   UNL A   1      40.303  25.557  27.821  1.00  0.00     0.029 A 
ATOM     46  C   UNL A   1      41.651  25.828  28.310  1.00  0.00     0.049 A 
ATOM     47  H   UNL A   1      42.342  27.576  29.209  1.00  0.00     0.167 HD
ATOM     48  C   UNL A   1      43.699  31.353  30.942  1.00  0.00     0.037 A 
ATOM     49  C   UNL A   1      42.687  24.969  28.255  1.00  0.00     0.037 A 
ATOM     50  C   UNL A   1      44.847  30.487  30.974  1.00  0.00     0.049 A 
ATOM     51  C   UNL A   1      44.023  25.390  28.799  1.00  0.00     0.074 A 
ATOM     52  C   UNL A   1      46.105  30.747  31.487  1.00  0.00     0.029 A 
ATOM     53  N   UNL A   1      44.876  29.192  30.478  1.00  0.00    -0.354 N 
ATOM     54  N   UNL A   1      44.364  26.532  29.344  1.00  0.00    -0.248 NA
ATOM     55  C   UNL A   1      45.115  24.408  28.721  1.00  0.00     0.031 C 
ATOM     56  C   UNL A   1      46.904  29.618  31.278  1.00  0.00     0.029 A 
ATOM     57  C   UNL A   1      46.134  28.643  30.665  1.00  0.00     0.049 A 
ATOM     58  H   UNL A   1      44.116  28.731  30.057  1.00  0.00     0.167 HD
ATOM     59  C   UNL A   1      45.704  26.403  29.690  1.00  0.00     0.074 A 
ATOM     60  C   UNL A   1      46.109  25.067  29.302  1.00  0.00     0.031 C 
ATOM     61  C   UNL A   1      46.522  27.309  30.276  1.00  0.00     0.037 A 
BRANCH  48  62
ATOM     62  C   UNL A   1      43.844  32.747  31.486  1.00  0.00     0.058 A 
ATOM     63  C   UNL A   1      43.542  33.028  32.827  1.00  0.00     0.135 A 
ATOM     64  C   UNL A   1      44.248  33.813  30.666  1.00  0.00     0.135 A 
ATOM     65  F   UNL A   1      43.158  32.045  33.656  1.00  0.00    -0.206 F 
ATOM     66  C   UNL A   1      43.631  34.320  33.335  1.00  0.00     0.059 A 
ATOM     67  C   UNL A   1      44.366  35.108  31.159  1.00  0.00     0.059 A 
ATOM     68  F   UNL A   1      44.569  33.591  29.380  1.00  0.00    -0.206 F 
ATOM     69  C   UNL A   1      44.045  35.353  32.493  1.00  0.00     0.060 A 
BRANCH  69  70
ATOM     70  S   UNL A   1      44.208  37.016  33.178  1.00  0.00     0.124 S 
ATOM     71  O   UNL A   1      45.494  36.935  33.860  1.00  0.00    -0.237 OA
ATOM     72  O   UNL A   1      44.175  37.848  31.978  1.00  0.00    -0.237 OA
ATOM     73  O   UNL A   1      43.039  37.139  34.045  1.00  0.00    -0.744 OA
ENDBRANCH  69  70
ENDBRANCH  48  62
BRANCH  49  74
ATOM     74  C   UNL A   1      42.481  23.606  27.697  1.00  0.00     0.058 A 
ATOM     75  C   UNL A   1      42.309  22.491  28.529  1.00  0.00     0.135 A 
ATOM     76  C   UNL A   1      42.503  23.392  26.310  1.00  0.00     0.135 A 
ATOM     77  F   UNL A   1      42.291  22.642  29.862  1.00  0.00    -0.206 F 
ATOM     78  C   UNL A   1      42.193  21.206  28.009  1.00  0.00     0.059 A 
ATOM     79  C   UNL A   1      42.368  22.119  25.764  1.00  0.00     0.059 A 
ATOM     80  F   UNL A   1      42.652  24.432  25.475  1.00  0.00    -0.206 F 
ATOM     81  C   UNL A   1      42.234  21.029  26.624  1.00  0.00     0.060 A 
BRANCH  81  82
ATOM     82  S   UNL A   1      42.115  19.352  25.967  1.00  0.00     0.124 S 
ATOM     83  O   UNL A   1      40.679  19.231  25.738  1.00  0.00    -0.237 OA
ATOM     84  O   UNL A   1      42.945  19.431  24.769  1.00  0.00    -0.237 OA
ATOM     85  O   UNL A   1      42.651  18.529  27.046  1.00  0.00    -0.744 OA
ENDBRANCH  81  82
ENDBRANCH  49  74
BRANCH  61  86
ATOM     86  C   UNL A   1      47.938  26.895  30.555  1.00  0.00     0.058 A 
ATOM     87  C   UNL A   1      48.302  26.409  31.820  1.00  0.00     0.135 A 
ATOM     88  C   UNL A   1      48.950  27.060  29.597  1.00  0.00     0.135 A 
ATOM     89  F   UNL A   1      47.371  26.235  32.771  1.00  0.00    -0.206 F 
ATOM     90  C   UNL A   1      49.626  26.121  32.134  1.00  0.00     0.059 A 
ATOM     91  C   UNL A   1      50.279  26.759  29.883  1.00  0.00     0.059 A 
ATOM     92  F   UNL A   1      48.649  27.510  28.368  1.00  0.00    -0.206 F 
ATOM     93  C   UNL A   1      50.608  26.308  31.161  1.00  0.00     0.060 A 
BRANCH  93  94
ATOM     94  S   UNL A   1      52.323  25.934  31.584  1.00  0.00     0.124 S 
ATOM     95  O   UNL A   1      52.235  24.531  31.973  1.00  0.00    -0.237 OA
ATOM     96  O   UNL A   1      53.018  26.203  30.329  1.00  0.00    -0.237 OA
ATOM     97  O   UNL A   1      52.616  26.869  32.666  1.00  0.00    -0.744 OA
ENDBRANCH  93  94
ENDBRANCH  61  86
ENDBRANCH  35  36
ENDBRANCH  27  30
ENDBRANCH  25  26
ENDBRANCH  24  25
ENDBRANCH   1  24
TORSDOF 18
ENDMDL
MODEL 2
REMARK VINA RESULT:     -11.0      1.413      2.218
REMARK SMILES [NH3+][C@@H](Cc1ccc(F)cc1C(F)(F)F)C(=O)NCCCCNC(=O)c1ccc(-c2c3nc(c(-c4c(F)cc(S(=O)(=O)[O-])cc4F)c4ccc([nH]4)c(-c4c(F)cc(S(=O)(=O)[O-])cc4F)c4nc(c(-c5c(F)cc(S(=O)(=O)[O-])cc5F)c5ccc2[nH]5)C=C4)C=C3)cc1
REMARK SMILES IDX 19 1 18 2 17 3 15 4 16 5 2 7 1 8 3 12 4 13 5 14 10 15 6 16
REMARK SMILES IDX 9 17 7 18 8 19 11 20 12 21 13 22 14 23 20 24 21 25 22 26
REMARK SMILES IDX 23 27 24 29 25 30 26 31 90 32 27 33 89 34 28 35 29 36 30 37
REMARK SMILES IDX 83 38 31 39 88 40 82 41 84 42 32 43 87 44 81 45 80 46 33 48
REMARK SMILES IDX 67 49 46 50 66 51 47 52 50 53 65 54 85 55 48 56 49 57 64 59
REMARK SMILES IDX 86 60 51 61 34 62 35 63 44 64 36 65 37 66 43 67 45 68 38 69
REMARK SMILES IDX 39 70 40 71 41 72 42 73 68 74 69 75 78 76 70 77 71 78 77 79
REMARK SMILES IDX 79 80 72 81 73 82 74 83 75 84 76 85 52 86 53 87 62 88 54 89
REMARK SMILES IDX 55 90 61 91 63 92 56 93 57 94 58 95 59 96 60 97
REMARK H PARENT 17 6 1 9 1 10 1 11 22 28 84 47 50 58
REMARK Flexibility Score: inf
ROOT
ATOM      1  C   UNL A   1      33.593  28.750  24.484  1.00  0.00     0.023 C 
ENDROOT
BRANCH   1   2
ATOM      2  C   UNL A   1      32.841  28.766  23.164  1.00  0.00     0.116 C 
BRANCH   2   3
ATOM      3  N   UNL A   1      33.340  27.863  22.155  1.00  0.00    -0.351 N 
ATOM      4  C   UNL A   1      33.309  26.496  22.126  1.00  0.00     0.278 C 
ATOM      5  O   UNL A   1      33.471  25.954  21.026  1.00  0.00    -0.268 OA
ATOM      6  H   UNL A   1      33.764  28.291  21.376  1.00  0.00     0.163 HD
BRANCH   4   7
ATOM      7  C   UNL A   1      33.078  25.630  23.389  1.00  0.00     0.275 C 
BRANCH   7   8
ATOM      8  N   UNL A   1      31.653  25.315  23.596  1.00  0.00    -0.347 N 
ATOM      9  H   UNL A   1      31.216  26.058  24.142  1.00  0.00     0.345 HD
ATOM     10  H   UNL A   1      31.569  24.430  24.095  1.00  0.00     0.345 HD
ATOM     11  H   UNL A   1      31.187  25.240  22.690  1.00  0.00     0.345 HD
ENDBRANCH   7   8
BRANCH   7  12
ATOM     12  C   UNL A   1      34.091  24.486  23.632  1.00  0.00     0.111 C 
BRANCH  12  13
ATOM     13  C   UNL A   1      33.612  23.067  23.878  1.00  0.00    -0.029 A 
ATOM     14  C   UNL A   1      32.873  22.453  22.840  1.00  0.00     0.007 A 
ATOM     15  C   UNL A   1      33.857  22.333  25.066  1.00  0.00     0.062 A 
ATOM     16  C   UNL A   1      32.344  21.171  22.985  1.00  0.00     0.039 A 
ATOM     17  C   UNL A   1      33.289  21.047  25.198  1.00  0.00     0.052 A 
ATOM     18  C   UNL A   1      32.546  20.484  24.168  1.00  0.00     0.123 A 
ATOM     19  F   UNL A   1      32.012  19.268  24.330  1.00  0.00    -0.207 F 
BRANCH  15  20
ATOM     20  C   UNL A   1      34.615  22.866  26.265  1.00  0.00     0.416 C 
ATOM     21  F   UNL A   1      34.071  24.025  26.732  1.00  0.00    -0.166 F 
ATOM     22  F   UNL A   1      34.611  22.008  27.323  1.00  0.00    -0.166 F 
ATOM     23  F   UNL A   1      35.926  23.141  26.028  1.00  0.00    -0.166 F 
ENDBRANCH  15  20
ENDBRANCH  12  13
ENDBRANCH   7  12
ENDBRANCH   4   7
ENDBRANCH   2   3
ENDBRANCH   1   2
BRANCH   1  24
ATOM     24  C   UNL A   1      32.725  28.680  25.736  1.00  0.00     0.023 C 
BRANCH  24  25
ATOM     25  C   UNL A   1      33.456  28.786  27.073  1.00  0.00     0.116 C 
BRANCH  25  26
ATOM     26  N   UNL A   1      33.478  30.129  27.637  1.00  0.00    -0.352 N 
ATOM     27  C   UNL A   1      34.508  30.787  28.277  1.00  0.00     0.251 C 
ATOM     28  H   UNL A   1      32.642  30.638  27.549  1.00  0.00     0.163 HD
ATOM     29  O   UNL A   1      34.326  31.894  28.762  1.00  0.00    -0.269 OA
BRANCH  27  30
ATOM     30  C   UNL A   1      35.820  30.116  28.420  1.00  0.00     0.039 A 
ATOM     31  C   UNL A   1      36.708  30.139  27.342  1.00  0.00     0.014 A 
ATOM     32  C   UNL A   1      36.198  29.532  29.631  1.00  0.00     0.014 A 
ATOM     33  C   UNL A   1      38.015  29.678  27.515  1.00  0.00     0.010 A 
ATOM     34  C   UNL A   1      37.520  29.145  29.826  1.00  0.00     0.010 A 
ATOM     35  C   UNL A   1      38.448  29.233  28.776  1.00  0.00    -0.014 A 
BRANCH  35  36
ATOM     36  C   UNL A   1      39.874  28.894  29.030  1.00  0.00     0.031 A 
ATOM     37  C   UNL A   1      40.802  29.916  29.623  1.00  0.00     0.074 A 
ATOM     38  C   UNL A   1      40.349  27.690  28.651  1.00  0.00     0.049 A 
ATOM     39  N   UNL A   1      42.091  29.839  29.827  1.00  0.00    -0.248 NA
ATOM     40  C   UNL A   1      40.207  31.206  30.013  1.00  0.00     0.031 C 
ATOM     41  C   UNL A   1      39.563  26.629  28.017  1.00  0.00     0.029 A 
ATOM     42  N   UNL A   1      41.612  27.157  28.735  1.00  0.00    -0.354 N 
ATOM     43  C   UNL A   1      42.466  31.070  30.350  1.00  0.00     0.074 A 
ATOM     44  C   UNL A   1      41.277  31.893  30.388  1.00  0.00     0.031 C 
ATOM     45  C   UNL A   1      40.351  25.563  27.803  1.00  0.00     0.029 A 
ATOM     46  C   UNL A   1      41.706  25.875  28.245  1.00  0.00     0.049 A 
ATOM     47  H   UNL A   1      42.378  27.647  29.112  1.00  0.00     0.167 HD
ATOM     48  C   UNL A   1      43.685  31.470  30.783  1.00  0.00     0.037 A 
ATOM     49  C   UNL A   1      42.764  25.045  28.158  1.00  0.00     0.037 A 
ATOM     50  C   UNL A   1      44.858  30.636  30.779  1.00  0.00     0.049 A 
ATOM     51  C   UNL A   1      44.105  25.507  28.655  1.00  0.00     0.074 A 
ATOM     52  C   UNL A   1      46.125  30.934  31.248  1.00  0.00     0.029 A 
ATOM     53  N   UNL A   1      44.907  29.340  30.288  1.00  0.00    -0.354 N 
ATOM     54  N   UNL A   1      44.432  26.661  29.183  1.00  0.00    -0.248 NA
ATOM     55  C   UNL A   1      45.221  24.555  28.544  1.00  0.00     0.031 C 
ATOM     56  C   UNL A   1      46.948  29.827  31.017  1.00  0.00     0.029 A 
ATOM     57  C   UNL A   1      46.185  28.828  30.434  1.00  0.00     0.049 A 
ATOM     58  H   UNL A   1      44.147  28.855  29.895  1.00  0.00     0.167 HD
ATOM     59  C   UNL A   1      45.786  26.571  29.484  1.00  0.00     0.074 A 
ATOM     60  C   UNL A   1      46.216  25.245  29.088  1.00  0.00     0.031 C 
ATOM     61  C   UNL A   1      46.598  27.503  30.038  1.00  0.00     0.037 A 
BRANCH  48  62
ATOM     62  C   UNL A   1      43.809  32.869  31.315  1.00  0.00     0.058 A 
ATOM     63  C   UNL A   1      44.177  33.927  30.471  1.00  0.00     0.135 A 
ATOM     64  C   UNL A   1      43.597  33.156  32.674  1.00  0.00     0.135 A 
ATOM     65  F   UNL A   1      44.386  33.709  29.163  1.00  0.00    -0.206 F 
ATOM     66  C   UNL A   1      44.337  35.221  30.955  1.00  0.00     0.059 A 
ATOM     67  C   UNL A   1      43.727  34.447  33.175  1.00  0.00     0.059 A 
ATOM     68  F   UNL A   1      43.220  32.182  33.518  1.00  0.00    -0.206 F 
ATOM     69  C   UNL A   1      44.109  35.471  32.310  1.00  0.00     0.060 A 
BRANCH  69  70
ATOM     70  S   UNL A   1      44.266  37.165  32.917  1.00  0.00     0.124 S 
ATOM     71  O   UNL A   1      45.610  37.157  33.481  1.00  0.00    -0.237 OA
ATOM     72  O   UNL A   1      44.091  37.947  31.697  1.00  0.00    -0.237 OA
ATOM     73  O   UNL A   1      43.176  37.278  33.883  1.00  0.00    -0.744 OA
ENDBRANCH  69  70
ENDBRANCH  48  62
BRANCH  49  74
ATOM     74  C   UNL A   1      42.578  23.674  27.613  1.00  0.00     0.058 A 
ATOM     75  C   UNL A   1      42.392  22.569  28.455  1.00  0.00     0.135 A 
ATOM     76  C   UNL A   1      42.634  23.442  26.230  1.00  0.00     0.135 A 
ATOM     77  F   UNL A   1      42.341  22.737  29.786  1.00  0.00    -0.206 F 
ATOM     78  C   UNL A   1      42.295  21.277  27.949  1.00  0.00     0.059 A 
ATOM     79  C   UNL A   1      42.518  22.162  25.698  1.00  0.00     0.059 A 
ATOM     80  F   UNL A   1      42.798  24.473  25.385  1.00  0.00    -0.206 F 
ATOM     81  C   UNL A   1      42.369  21.083  26.568  1.00  0.00     0.060 A 
BRANCH  81  82
ATOM     82  S   UNL A   1      42.274  19.396  25.931  1.00  0.00     0.124 S 
ATOM     83  O   UNL A   1      42.815  18.633  27.049  1.00  0.00    -0.237 OA
ATOM     84  O   UNL A   1      40.843  19.240  25.687  1.00  0.00    -0.237 OA
ATOM     85  O   UNL A   1      43.110  19.440  24.735  1.00  0.00    -0.744 OA
ENDBRANCH  81  82
ENDBRANCH  49  74
BRANCH  61  86
ATOM     86  C   UNL A   1      48.033  27.130  30.270  1.00  0.00     0.058 A 
ATOM     87  C   UNL A   1      48.443  26.609  31.508  1.00  0.00     0.135 A 
ATOM     88  C   UNL A   1      49.017  27.370  29.299  1.00  0.00     0.135 A 
ATOM     89  F   UNL A   1      47.540  26.365  32.470  1.00  0.00    -0.206 F 
ATOM     90  C   UNL A   1      49.782  26.358  31.781  1.00  0.00     0.059 A 
ATOM     91  C   UNL A   1      50.362  27.106  29.544  1.00  0.00     0.059 A 
ATOM     92  F   UNL A   1      48.673  27.856  28.095  1.00  0.00    -0.206 F 
ATOM     93  C   UNL A   1      50.736  26.618  30.796  1.00  0.00     0.060 A 
BRANCH  93  94
ATOM     94  S   UNL A   1      52.472  26.291  31.168  1.00  0.00     0.124 S 
ATOM     95  O   UNL A   1      52.401  24.971  31.786  1.00  0.00    -0.237 OA
ATOM     96  O   UNL A   1      53.087  26.341  29.845  1.00  0.00    -0.237 OA
ATOM     97  O   UNL A   1      52.838  27.385  32.063  1.00  0.00    -0.744 OA
ENDBRANCH  93  94
ENDBRANCH  61  86
ENDBRANCH  35  36
ENDBRANCH  27  30
ENDBRANCH  25  26
ENDBRANCH  24  25
ENDBRANCH   1  24
TORSDOF 18
ENDMDL
MODEL 3
REMARK VINA RESULT:     -11.0      3.558      4.890
REMARK SMILES [NH3+][C@@H](Cc1ccc(F)cc1C(F)(F)F)C(=O)NCCCCNC(=O)c1ccc(-c2c3nc(c(-c4c(F)cc(S(=O)(=O)[O-])cc4F)c4ccc([nH]4)c(-c4c(F)cc(S(=O)(=O)[O-])cc4F)c4nc(c(-c5c(F)cc(S(=O)(=O)[O-])cc5F)c5ccc2[nH]5)C=C4)C=C3)cc1
REMARK SMILES IDX 19 1 18 2 17 3 15 4 16 5 2 7 1 8 3 12 4 13 5 14 10 15 6 16
REMARK SMILES IDX 9 17 7 18 8 19 11 20 12 21 13 22 14 23 20 24 21 25 22 26
REMARK SMILES IDX 23 27 24 29 25 30 26 31 90 32 27 33 89 34 28 35 29 36 30 37
REMARK SMILES IDX 83 38 31 39 88 40 82 41 84 42 32 43 87 44 81 45 80 46 33 48
REMARK SMILES IDX 67 49 46 50 66 51 47 52 50 53 65 54 85 55 48 56 49 57 64 59
REMARK SMILES IDX 86 60 51 61 34 62 35 63 44 64 36 65 37 66 43 67 45 68 38 69
REMARK SMILES IDX 39 70 40 71 41 72 42 73 68 74 69 75 78 76 70 77 71 78 77 79
REMARK SMILES IDX 79 80 72 81 73 82 74 83 75 84 76 85 52 86 53 87 62 88 54 89
REMARK SMILES IDX 55 90 61 91 63 92 56 93 57 94 58 95 59 96 60 97
REMARK H PARENT 17 6 1 9 1 10 1 11 22 28 84 47 50 58
REMARK Flexibility Score: inf
ROOT
ATOM      1  C   UNL A   1      32.580  29.281  27.152  1.00  0.00     0.023 C 
ENDROOT
BRANCH   1   2
ATOM      2  C   UNL A   1      31.945  28.494  26.018  1.00  0.00     0.116 C 
BRANCH   2   3
ATOM      3  N   UNL A   1      32.686  27.335  25.578  1.00  0.00    -0.351 N 
ATOM      4  C   UNL A   1      33.204  27.058  24.344  1.00  0.00     0.278 C 
ATOM      5  O   UNL A   1      34.086  26.192  24.286  1.00  0.00    -0.268 OA
ATOM      6  H   UNL A   1      32.840  26.646  26.265  1.00  0.00     0.163 HD
BRANCH   4   7
ATOM      7  C   UNL A   1      32.739  27.775  23.053  1.00  0.00     0.275 C 
BRANCH   7   8
ATOM      8  N   UNL A   1      33.847  27.983  22.101  1.00  0.00    -0.347 N 
ATOM      9  H   UNL A   1      34.524  27.226  22.197  1.00  0.00     0.345 HD
ATOM     10  H   UNL A   1      34.301  28.874  22.298  1.00  0.00     0.345 HD
ATOM     11  H   UNL A   1      33.479  27.992  21.149  1.00  0.00     0.345 HD
ENDBRANCH   7   8
BRANCH   7  12
ATOM     12  C   UNL A   1      31.385  27.318  22.461  1.00  0.00     0.111 C 
BRANCH  12  13
ATOM     13  C   UNL A   1      30.159  28.208  22.551  1.00  0.00    -0.029 A 
ATOM     14  C   UNL A   1      30.239  29.471  21.919  1.00  0.00     0.007 A 
ATOM     15  C   UNL A   1      28.960  27.855  23.221  1.00  0.00     0.062 A 
ATOM     16  C   UNL A   1      29.188  30.385  21.986  1.00  0.00     0.039 A 
ATOM     17  C   UNL A   1      27.921  28.808  23.296  1.00  0.00     0.052 A 
ATOM     18  C   UNL A   1      28.042  30.049  22.685  1.00  0.00     0.123 A 
ATOM     19  F   UNL A   1      27.043  30.933  22.785  1.00  0.00    -0.207 F 
BRANCH  15  20
ATOM     20  C   UNL A   1      28.738  26.550  23.956  1.00  0.00     0.416 C 
ATOM     21  F   UNL A   1      27.446  26.413  24.365  1.00  0.00    -0.166 F 
ATOM     22  F   UNL A   1      28.997  25.455  23.188  1.00  0.00    -0.166 F 
ATOM     23  F   UNL A   1      29.499  26.394  25.074  1.00  0.00    -0.166 F 
ENDBRANCH  15  20
ENDBRANCH  12  13
ENDBRANCH   7  12
ENDBRANCH   4   7
ENDBRANCH   2   3
ENDBRANCH   1   2
BRANCH   1  24
ATOM     24  C   UNL A   1      34.012  29.746  26.910  1.00  0.00     0.023 C 
BRANCH  24  25
ATOM     25  C   UNL A   1      35.024  29.422  28.007  1.00  0.00     0.116 C 
BRANCH  25  26
ATOM     26  N   UNL A   1      35.246  30.504  28.955  1.00  0.00    -0.352 N 
ATOM     27  C   UNL A   1      36.410  30.874  29.598  1.00  0.00     0.251 C 
ATOM     28  H   UNL A   1      34.455  31.049  29.168  1.00  0.00     0.163 HD
ATOM     29  O   UNL A   1      36.398  31.769  30.430  1.00  0.00    -0.269 OA
BRANCH  27  30
ATOM     30  C   UNL A   1      37.662  30.139  29.310  1.00  0.00     0.039 A 
ATOM     31  C   UNL A   1      38.023  29.921  27.978  1.00  0.00     0.014 A 
ATOM     32  C   UNL A   1      38.508  29.732  30.344  1.00  0.00     0.014 A 
ATOM     33  C   UNL A   1      39.284  29.398  27.682  1.00  0.00     0.010 A 
ATOM     34  C   UNL A   1      39.792  29.284  30.047  1.00  0.00     0.010 A 
ATOM     35  C   UNL A   1      40.200  29.132  28.713  1.00  0.00    -0.014 A 
BRANCH  35  36
ATOM     36  C   UNL A   1      41.603  28.733  28.420  1.00  0.00     0.031 A 
ATOM     37  C   UNL A   1      42.703  29.756  28.447  1.00  0.00     0.074 A 
ATOM     38  C   UNL A   1      41.870  27.464  28.049  1.00  0.00     0.049 A 
ATOM     39  N   UNL A   1      43.963  29.619  28.126  1.00  0.00    -0.248 NA
ATOM     40  C   UNL A   1      42.333  31.119  28.863  1.00  0.00     0.031 C 
ATOM     41  C   UNL A   1      40.882  26.389  27.933  1.00  0.00     0.029 A 
ATOM     42  N   UNL A   1      43.052  26.864  27.692  1.00  0.00    -0.354 N 
ATOM     43  C   UNL A   1      44.532  30.877  28.283  1.00  0.00     0.074 A 
ATOM     44  C   UNL A   1      43.470  31.774  28.682  1.00  0.00     0.031 C 
ATOM     45  C   UNL A   1      41.503  25.256  27.568  1.00  0.00     0.029 A 
ATOM     46  C   UNL A   1      42.925  25.529  27.384  1.00  0.00     0.049 A 
ATOM     47  H   UNL A   1      43.911  27.343  27.661  1.00  0.00     0.167 HD
ATOM     48  C   UNL A   1      45.827  31.245  28.134  1.00  0.00     0.037 A 
ATOM     49  C   UNL A   1      43.848  24.627  26.994  1.00  0.00     0.037 A 
ATOM     50  C   UNL A   1      46.888  30.342  27.775  1.00  0.00     0.049 A 
ATOM     51  C   UNL A   1      45.280  25.056  26.846  1.00  0.00     0.074 A 
ATOM     52  C   UNL A   1      48.239  30.610  27.653  1.00  0.00     0.029 A 
ATOM     53  N   UNL A   1      46.719  28.996  27.486  1.00  0.00    -0.354 N 
ATOM     54  N   UNL A   1      45.806  26.241  27.037  1.00  0.00    -0.248 NA
ATOM     55  C   UNL A   1      46.245  24.027  26.428  1.00  0.00     0.031 C 
ATOM     56  C   UNL A   1      48.886  29.432  27.264  1.00  0.00     0.029 A 
ATOM     57  C   UNL A   1      47.941  28.422  27.176  1.00  0.00     0.049 A 
ATOM     58  H   UNL A   1      45.859  28.518  27.499  1.00  0.00     0.167 HD
ATOM     59  C   UNL A   1      47.165  26.099  26.781  1.00  0.00     0.074 A 
ATOM     60  C   UNL A   1      47.382  24.711  26.429  1.00  0.00     0.031 C 
ATOM     61  C   UNL A   1      48.142  27.036  26.832  1.00  0.00     0.037 A 
BRANCH  48  62
ATOM     62  C   UNL A   1      46.172  32.687  28.377  1.00  0.00     0.058 A 
ATOM     63  C   UNL A   1      46.148  33.616  27.327  1.00  0.00     0.135 A 
ATOM     64  C   UNL A   1      46.561  33.141  29.648  1.00  0.00     0.135 A 
ATOM     65  F   UNL A   1      45.777  33.237  26.094  1.00  0.00    -0.206 F 
ATOM     66  C   UNL A   1      46.505  34.946  27.526  1.00  0.00     0.059 A 
ATOM     67  C   UNL A   1      46.899  34.471  29.875  1.00  0.00     0.059 A 
ATOM     68  F   UNL A   1      46.578  32.295  30.691  1.00  0.00    -0.206 F 
ATOM     69  C   UNL A   1      46.878  35.364  28.804  1.00  0.00     0.060 A 
BRANCH  69  70
ATOM     70  S   UNL A   1      47.287  37.104  29.062  1.00  0.00     0.124 S 
ATOM     71  O   UNL A   1      46.124  37.773  28.492  1.00  0.00    -0.237 OA
ATOM     72  O   UNL A   1      47.417  37.178  30.515  1.00  0.00    -0.237 OA
ATOM     73  O   UNL A   1      48.536  37.269  28.324  1.00  0.00    -0.744 OA
ENDBRANCH  69  70
ENDBRANCH  48  62
BRANCH  49  74
ATOM     74  C   UNL A   1      43.441  23.216  26.761  1.00  0.00     0.058 A 
ATOM     75  C   UNL A   1      43.046  22.382  27.816  1.00  0.00     0.135 A 
ATOM     76  C   UNL A   1      43.489  22.663  25.472  1.00  0.00     0.135 A 
ATOM     77  F   UNL A   1      42.993  22.861  29.069  1.00  0.00    -0.206 F 
ATOM     78  C   UNL A   1      42.740  21.041  27.609  1.00  0.00     0.059 A 
ATOM     79  C   UNL A   1      43.167  21.331  25.234  1.00  0.00     0.059 A 
ATOM     80  F   UNL A   1      43.849  23.428  24.429  1.00  0.00    -0.206 F 
ATOM     81  C   UNL A   1      42.813  20.522  26.314  1.00  0.00     0.060 A 
BRANCH  81  82
ATOM     82  S   UNL A   1      42.444  18.772  26.067  1.00  0.00     0.124 S 
ATOM     83  O   UNL A   1      41.015  18.815  25.773  1.00  0.00    -0.237 OA
ATOM     84  O   UNL A   1      43.313  18.429  24.946  1.00  0.00    -0.237 OA
ATOM     85  O   UNL A   1      42.804  18.168  27.346  1.00  0.00    -0.744 OA
ENDBRANCH  81  82
ENDBRANCH  49  74
BRANCH  61  86
ATOM     86  C   UNL A   1      49.544  26.600  26.519  1.00  0.00     0.058 A 
ATOM     87  C   UNL A   1      50.047  26.704  25.212  1.00  0.00     0.135 A 
ATOM     88  C   UNL A   1      50.358  25.999  27.492  1.00  0.00     0.135 A 
ATOM     89  F   UNL A   1      49.306  27.269  24.246  1.00  0.00    -0.206 F 
ATOM     90  C   UNL A   1      51.302  26.208  24.876  1.00  0.00     0.059 A 
ATOM     91  C   UNL A   1      51.626  25.515  27.182  1.00  0.00     0.059 A 
ATOM     92  F   UNL A   1      49.926  25.888  28.758  1.00  0.00    -0.206 F 
ATOM     93  C   UNL A   1      52.080  25.608  25.866  1.00  0.00     0.060 A 
BRANCH  93  94
ATOM     94  S   UNL A   1      53.705  24.964  25.413  1.00  0.00     0.124 S 
ATOM     95  O   UNL A   1      53.439  23.534  25.303  1.00  0.00    -0.237 OA
ATOM     96  O   UNL A   1      53.975  25.658  24.158  1.00  0.00    -0.237 OA
ATOM     97  O   UNL A   1      54.551  25.361  26.534  1.00  0.00    -0.744 OA
ENDBRANCH  93  94
ENDBRANCH  61  86
ENDBRANCH  35  36
ENDBRANCH  27  30
ENDBRANCH  25  26
ENDBRANCH  24  25
ENDBRANCH   1  24
TORSDOF 18
ENDMDL
