MODEL 1
REMARK VINA RESULT:     -11.9      0.000      0.000
REMARK SMILES CCn1ccc2ccc(C[NH+]3CCC4(CC3)C[C@H](C(=O)NCCCCNC(=O)c3ccc(-c5c6nc(c(-c7c(F)cc(S(=O)(=O)[O-])cc7F)c7ccc([nH]7)c(-c7c(F)cc(S(=O)(=O)[O-])cc7F)c7nc(c(-c8c(F)cc(S(=O)(=O)[O-])cc8F)c8ccc5[nH]8)C=C7)C=C6)cc3)N(C(C)=O)C4)cc21
REMARK SMILES IDX 23 1 22 2 21 3 19 4 20 5 18 7 11 8 12 9 16 10 13 12 15 13
REMARK SMILES IDX 14 14 17 15 99 16 95 17 10 18 9 19 3 20 4 21 101 22 5 23
REMARK SMILES IDX 6 24 100 25 7 26 8 27 2 28 1 29 96 30 97 31 98 32 24 33
REMARK SMILES IDX 25 34 26 35 27 36 28 38 29 39 30 40 94 41 31 42 93 43 32 44
REMARK SMILES IDX 33 45 34 46 87 47 35 48 92 49 86 50 88 51 36 52 91 53 85 54
REMARK SMILES IDX 84 55 37 57 71 58 50 59 70 60 51 61 54 62 69 63 89 64 52 65
REMARK SMILES IDX 53 66 68 68 90 69 55 70 38 71 39 72 48 73 40 74 41 75 47 76
REMARK SMILES IDX 49 77 42 78 43 79 44 80 45 81 46 82 72 83 73 84 82 85 74 86
REMARK SMILES IDX 75 87 81 88 83 89 76 90 77 91 78 92 79 93 80 94 56 95 57 96
REMARK SMILES IDX 66 97 58 98 59 99 65 100 67 101 60 102 61 103 62 104 63 105
REMARK SMILES IDX 64 106
REMARK H PARENT 21 6 11 11 26 37 88 56 54 67
REMARK Flexibility Score: inf
ROOT
ATOM      1  C   UNL A   1      33.959  30.320  27.208  1.00  0.00     0.023 C 
ENDROOT
BRANCH   1   2
ATOM      2  C   UNL A   1      32.771  30.141  26.280  1.00  0.00     0.116 C 
BRANCH   2   3
ATOM      3  N   UNL A   1      31.834  29.130  26.722  1.00  0.00    -0.354 N 
ATOM      4  C   UNL A   1      31.837  27.798  26.426  1.00  0.00     0.242 C 
ATOM      5  O   UNL A   1      30.912  27.103  26.858  1.00  0.00    -0.273 OA
ATOM      6  H   UNL A   1      31.107  29.442  27.307  1.00  0.00     0.163 HD
BRANCH   4   7
ATOM      7  C   UNL A   1      32.860  27.199  25.435  1.00  0.00     0.175 C 
ATOM      8  N   UNL A   1      34.391  22.075  24.199  1.00  0.00    -0.331 N 
ATOM      9  C   UNL A   1      32.968  22.362  24.294  1.00  0.00     0.263 C 
ATOM     10  C   UNL A   1      35.152  23.232  23.744  1.00  0.00     0.263 C 
ATOM     11  H   UNL A   1      34.499  21.404  23.438  1.00  0.00     0.348 HD
ATOM     12  C   UNL A   1      32.638  23.574  25.158  1.00  0.00     0.070 C 
ATOM     13  C   UNL A   1      34.902  24.536  24.511  1.00  0.00     0.070 C 
ATOM     14  C   UNL A   1      33.424  24.857  24.801  1.00  0.00     0.001 C 
ATOM     15  C   UNL A   1      33.321  25.851  25.988  1.00  0.00     0.044 C 
ATOM     16  C   UNL A   1      32.806  25.602  23.608  1.00  0.00     0.127 C 
ATOM     17  N   UNL A   1      32.428  26.928  24.070  1.00  0.00    -0.330 N 
BRANCH   8  18
ATOM     18  C   UNL A   1      34.967  21.230  25.262  1.00  0.00     0.299 C 
BRANCH  18  19
ATOM     19  C   UNL A   1      36.454  20.931  25.210  1.00  0.00     0.008 A 
ATOM     20  N   UNL A   1      39.677  22.226  26.556  1.00  0.00    -0.348 N 
ATOM     21  C   UNL A   1      40.802  21.441  26.625  1.00  0.00     0.087 A 
ATOM     22  C   UNL A   1      38.687  21.562  25.855  1.00  0.00     0.048 A 
ATOM     23  C   UNL A   1      40.517  20.235  26.024  1.00  0.00     0.028 A 
ATOM     24  C   UNL A   1      39.160  20.273  25.602  1.00  0.00    -0.000 A 
ATOM     25  C   UNL A   1      37.375  21.941  25.529  1.00  0.00     0.036 A 
ATOM     26  C   UNL A   1      38.280  19.320  25.058  1.00  0.00     0.011 A 
ATOM     27  C   UNL A   1      36.923  19.646  24.917  1.00  0.00     0.010 A 
BRANCH  20  28
ATOM     28  C   UNL A   1      39.482  23.414  27.375  1.00  0.00     0.119 C 
ATOM     29  C   UNL A   1      39.498  24.714  26.597  1.00  0.00     0.027 C 
ENDBRANCH  20  28
ENDBRANCH  18  19
ENDBRANCH   8  18
BRANCH  17  30
ATOM     30  C   UNL A   1      31.996  27.869  23.157  1.00  0.00     0.220 C 
ATOM     31  C   UNL A   1      32.922  29.017  22.836  1.00  0.00     0.114 C 
ATOM     32  O   UNL A   1      30.868  27.829  22.665  1.00  0.00    -0.275 OA
ENDBRANCH  17  30
ENDBRANCH   4   7
ENDBRANCH   2   3
ENDBRANCH   1   2
BRANCH   1  33
ATOM     33  C   UNL A   1      34.230  31.761  27.638  1.00  0.00     0.023 C 
BRANCH  33  34
ATOM     34  C   UNL A   1      35.333  31.954  28.684  1.00  0.00     0.116 C 
BRANCH  34  35
ATOM     35  N   UNL A   1      34.904  31.914  30.068  1.00  0.00    -0.352 N 
ATOM     36  C   UNL A   1      35.569  31.742  31.254  1.00  0.00     0.251 C 
ATOM     37  H   UNL A   1      33.933  32.035  30.178  1.00  0.00     0.163 HD
ATOM     38  O   UNL A   1      34.971  32.086  32.276  1.00  0.00    -0.269 OA
BRANCH  36  39
ATOM     39  C   UNL A   1      36.893  31.074  31.388  1.00  0.00     0.039 A 
ATOM     40  C   UNL A   1      38.081  31.718  31.712  1.00  0.00     0.014 A 
ATOM     41  C   UNL A   1      36.942  29.711  31.035  1.00  0.00     0.014 A 
ATOM     42  C   UNL A   1      39.296  31.092  31.486  1.00  0.00     0.010 A 
ATOM     43  C   UNL A   1      38.158  29.058  30.863  1.00  0.00     0.010 A 
ATOM     44  C   UNL A   1      39.335  29.777  31.010  1.00  0.00    -0.014 A 
BRANCH  44  45
ATOM     45  C   UNL A   1      40.654  29.191  30.791  1.00  0.00     0.031 A 
ATOM     46  C   UNL A   1      41.415  28.959  32.051  1.00  0.00     0.074 A 
ATOM     47  C   UNL A   1      41.151  28.853  29.584  1.00  0.00     0.049 A 
ATOM     48  N   UNL A   1      42.465  29.588  32.470  1.00  0.00    -0.248 NA
ATOM     49  C   UNL A   1      40.826  28.052  33.049  1.00  0.00     0.031 C 
ATOM     50  C   UNL A   1      40.461  28.797  28.293  1.00  0.00     0.029 A 
ATOM     51  N   UNL A   1      42.404  28.414  29.272  1.00  0.00    -0.354 N 
ATOM     52  C   UNL A   1      42.801  29.000  33.687  1.00  0.00     0.074 A 
ATOM     53  C   UNL A   1      41.672  28.195  34.069  1.00  0.00     0.031 C 
ATOM     54  C   UNL A   1      41.233  28.137  27.398  1.00  0.00     0.029 A 
ATOM     55  C   UNL A   1      42.526  27.861  28.001  1.00  0.00     0.049 A 
ATOM     56  H   UNL A   1      43.162  28.485  29.896  1.00  0.00     0.167 HD
ATOM     57  C   UNL A   1      44.076  29.042  34.163  1.00  0.00     0.037 A 
ATOM     58  C   UNL A   1      43.601  27.192  27.505  1.00  0.00     0.037 A 
ATOM     59  C   UNL A   1      44.827  30.106  33.544  1.00  0.00     0.049 A 
ATOM     60  C   UNL A   1      44.778  27.619  28.305  1.00  0.00     0.074 A 
ATOM     61  C   UNL A   1      44.713  31.482  33.497  1.00  0.00     0.029 A 
ATOM     62  N   UNL A   1      45.692  29.771  32.531  1.00  0.00    -0.354 N 
ATOM     63  N   UNL A   1      45.263  28.831  28.296  1.00  0.00    -0.248 NA
ATOM     64  C   UNL A   1      45.132  26.812  29.461  1.00  0.00     0.031 C 
ATOM     65  C   UNL A   1      45.118  31.842  32.178  1.00  0.00     0.029 A 
ATOM     66  C   UNL A   1      45.514  30.677  31.519  1.00  0.00     0.049 A 
ATOM     67  H   UNL A   1      46.325  29.017  32.533  1.00  0.00     0.167 HD
ATOM     68  C   UNL A   1      45.614  29.081  29.615  1.00  0.00     0.074 A 
ATOM     69  C   UNL A   1      45.578  27.775  30.270  1.00  0.00     0.031 C 
ATOM     70  C   UNL A   1      45.637  30.352  30.115  1.00  0.00     0.037 A 
BRANCH  57  71
ATOM     71  C   UNL A   1      44.749  27.885  34.871  1.00  0.00     0.058 A 
ATOM     72  C   UNL A   1      44.807  26.628  34.229  1.00  0.00     0.135 A 
ATOM     73  C   UNL A   1      45.056  27.873  36.250  1.00  0.00     0.135 A 
ATOM     74  F   UNL A   1      44.547  26.516  32.917  1.00  0.00    -0.206 F 
ATOM     75  C   UNL A   1      45.046  25.442  34.925  1.00  0.00     0.059 A 
ATOM     76  C   UNL A   1      45.345  26.709  36.953  1.00  0.00     0.059 A 
ATOM     77  F   UNL A   1      44.999  28.971  37.011  1.00  0.00    -0.206 F 
ATOM     78  C   UNL A   1      45.292  25.494  36.293  1.00  0.00     0.060 A 
BRANCH  78  79
ATOM     79  S   UNL A   1      45.476  23.962  37.222  1.00  0.00     0.124 S 
ATOM     80  O   UNL A   1      44.787  24.295  38.467  1.00  0.00    -0.237 OA
ATOM     81  O   UNL A   1      44.794  23.005  36.352  1.00  0.00    -0.237 OA
ATOM     82  O   UNL A   1      46.917  23.798  37.320  1.00  0.00    -0.744 OA
ENDBRANCH  78  79
ENDBRANCH  57  71
BRANCH  58  83
ATOM     83  C   UNL A   1      43.602  25.929  26.710  1.00  0.00     0.058 A 
ATOM     84  C   UNL A   1      44.279  25.844  25.478  1.00  0.00     0.135 A 
ATOM     85  C   UNL A   1      43.206  24.701  27.279  1.00  0.00     0.135 A 
ATOM     86  F   UNL A   1      44.711  26.959  24.867  1.00  0.00    -0.206 F 
ATOM     87  C   UNL A   1      44.597  24.617  24.878  1.00  0.00     0.059 A 
ATOM     88  C   UNL A   1      43.505  23.468  26.697  1.00  0.00     0.059 A 
ATOM     89  F   UNL A   1      42.595  24.658  28.472  1.00  0.00    -0.206 F 
ATOM     90  C   UNL A   1      44.226  23.432  25.510  1.00  0.00     0.060 A 
BRANCH  90  91
ATOM     91  S   UNL A   1      44.781  21.847  24.834  1.00  0.00     0.124 S 
ATOM     92  O   UNL A   1      44.454  21.990  23.420  1.00  0.00    -0.237 OA
ATOM     93  O   UNL A   1      46.202  21.853  25.163  1.00  0.00    -0.237 OA
ATOM     94  O   UNL A   1      43.979  20.867  25.562  1.00  0.00    -0.744 OA
ENDBRANCH  90  91
ENDBRANCH  58  83
BRANCH  70  95
ATOM     95  C   UNL A   1      45.573  31.508  29.151  1.00  0.00     0.058 A 
ATOM     96  C   UNL A   1      46.679  32.035  28.460  1.00  0.00     0.135 A 
ATOM     97  C   UNL A   1      44.304  31.979  28.781  1.00  0.00     0.135 A 
ATOM     98  F   UNL A   1      47.918  31.577  28.687  1.00  0.00    -0.206 F 
ATOM     99  C   UNL A   1      46.527  33.000  27.459  1.00  0.00     0.059 A 
ATOM    100  C   UNL A   1      44.127  32.917  27.768  1.00  0.00     0.059 A 
ATOM    101  F   UNL A   1      43.204  31.475  29.367  1.00  0.00    -0.206 F 
ATOM    102  C   UNL A   1      45.244  33.427  27.112  1.00  0.00     0.060 A 
BRANCH 102 103
ATOM    103  S   UNL A   1      45.039  34.593  25.747  1.00  0.00     0.124 S 
ATOM    104  O   UNL A   1      46.329  34.507  25.070  1.00  0.00    -0.237 OA
ATOM    105  O   UNL A   1      43.904  34.031  25.021  1.00  0.00    -0.237 OA
ATOM    106  O   UNL A   1      44.771  35.863  26.418  1.00  0.00    -0.744 OA
ENDBRANCH 102 103
ENDBRANCH  70  95
ENDBRANCH  44  45
ENDBRANCH  36  39
ENDBRANCH  34  35
ENDBRANCH  33  34
ENDBRANCH   1  33
TORSDOF 18
ENDMDL
MODEL 2
REMARK VINA RESULT:     -11.6      1.809      2.968
REMARK SMILES CCn1ccc2ccc(C[NH+]3CCC4(CC3)C[C@H](C(=O)NCCCCNC(=O)c3ccc(-c5c6nc(c(-c7c(F)cc(S(=O)(=O)[O-])cc7F)c7ccc([nH]7)c(-c7c(F)cc(S(=O)(=O)[O-])cc7F)c7nc(c(-c8c(F)cc(S(=O)(=O)[O-])cc8F)c8ccc5[nH]8)C=C7)C=C6)cc3)N(C(C)=O)C4)cc21
REMARK SMILES IDX 23 1 22 2 21 3 19 4 20 5 18 7 11 8 12 9 16 10 13 12 15 13
REMARK SMILES IDX 14 14 17 15 99 16 95 17 10 18 9 19 3 20 4 21 101 22 5 23
REMARK SMILES IDX 6 24 100 25 7 26 8 27 2 28 1 29 96 30 97 31 98 32 24 33
REMARK SMILES IDX 25 34 26 35 27 36 28 38 29 39 30 40 94 41 31 42 93 43 32 44
REMARK SMILES IDX 33 45 34 46 87 47 35 48 92 49 86 50 88 51 36 52 91 53 85 54
REMARK SMILES IDX 84 55 37 57 71 58 50 59 70 60 51 61 54 62 69 63 89 64 52 65
REMARK SMILES IDX 53 66 68 68 90 69 55 70 38 71 39 72 48 73 40 74 41 75 47 76
REMARK SMILES IDX 49 77 42 78 43 79 44 80 45 81 46 82 72 83 73 84 82 85 74 86
REMARK SMILES IDX 75 87 81 88 83 89 76 90 77 91 78 92 79 93 80 94 56 95 57 96
REMARK SMILES IDX 66 97 58 98 59 99 65 100 67 101 60 102 61 103 62 104 63 105
REMARK SMILES IDX 64 106
REMARK H PARENT 21 6 11 11 26 37 88 56 54 67
REMARK Flexibility Score: inf
ROOT
ATOM      1  C   UNL A   1      33.874  29.872  27.968  1.00  0.00     0.023 C 
ENDROOT
BRANCH   1   2
ATOM      2  C   UNL A   1      32.652  29.404  27.199  1.00  0.00     0.116 C 
BRANCH   2   3
ATOM      3  N   UNL A   1      31.863  30.485  26.646  1.00  0.00    -0.354 N 
ATOM      4  C   UNL A   1      31.204  30.517  25.451  1.00  0.00     0.242 C 
ATOM      5  O   UNL A   1      30.627  31.560  25.130  1.00  0.00    -0.273 OA
ATOM      6  H   UNL A   1      31.793  31.296  27.199  1.00  0.00     0.163 HD
BRANCH   4   7
ATOM      7  C   UNL A   1      31.319  29.352  24.441  1.00  0.00     0.175 C 
ATOM      8  N   UNL A   1      31.118  23.888  24.915  1.00  0.00    -0.331 N 
ATOM      9  C   UNL A   1      30.102  24.674  25.598  1.00  0.00     0.263 C 
ATOM     10  C   UNL A   1      31.576  24.534  23.691  1.00  0.00     0.263 C 
ATOM     11  H   UNL A   1      30.652  23.045  24.580  1.00  0.00     0.348 HD
ATOM     12  C   UNL A   1      30.525  26.108  25.894  1.00  0.00     0.070 C 
ATOM     13  C   UNL A   1      32.014  25.996  23.835  1.00  0.00     0.070 C 
ATOM     14  C   UNL A   1      31.079  26.884  24.676  1.00  0.00     0.001 C 
ATOM     15  C   UNL A   1      31.851  28.130  25.188  1.00  0.00     0.044 C 
ATOM     16  C   UNL A   1      29.958  27.451  23.792  1.00  0.00     0.127 C 
ATOM     17  N   UNL A   1      30.111  28.897  23.766  1.00  0.00    -0.330 N 
BRANCH   8  18
ATOM     18  C   UNL A   1      32.115  23.212  25.767  1.00  0.00     0.299 C 
BRANCH  18  19
ATOM     19  C   UNL A   1      32.772  21.952  25.234  1.00  0.00     0.008 A 
ATOM     20  N   UNL A   1      36.140  20.385  24.958  1.00  0.00    -0.348 N 
ATOM     21  C   UNL A   1      36.297  19.032  24.779  1.00  0.00     0.087 A 
ATOM     22  C   UNL A   1      34.802  20.717  24.844  1.00  0.00     0.048 A 
ATOM     23  C   UNL A   1      35.049  18.476  24.614  1.00  0.00     0.028 A 
ATOM     24  C   UNL A   1      34.093  19.520  24.730  1.00  0.00    -0.000 A 
ATOM     25  C   UNL A   1      34.146  21.954  24.952  1.00  0.00     0.036 A 
ATOM     26  C   UNL A   1      32.687  19.555  24.781  1.00  0.00     0.011 A 
ATOM     27  C   UNL A   1      32.045  20.766  25.085  1.00  0.00     0.010 A 
BRANCH  20  28
ATOM     28  C   UNL A   1      37.181  21.244  25.501  1.00  0.00     0.119 C 
ATOM     29  C   UNL A   1      37.416  22.513  24.707  1.00  0.00     0.027 C 
ENDBRANCH  20  28
ENDBRANCH  18  19
ENDBRANCH   8  18
BRANCH  17  30
ATOM     30  C   UNL A   1      29.331  29.649  22.910  1.00  0.00     0.220 C 
ATOM     31  C   UNL A   1      27.835  29.612  23.107  1.00  0.00     0.114 C 
ATOM     32  O   UNL A   1      29.816  30.276  21.969  1.00  0.00    -0.275 OA
ENDBRANCH  17  30
ENDBRANCH   4   7
ENDBRANCH   2   3
ENDBRANCH   1   2
BRANCH   1  33
ATOM     33  C   UNL A   1      34.827  30.769  27.179  1.00  0.00     0.023 C 
BRANCH  33  34
ATOM     34  C   UNL A   1      35.253  32.069  27.870  1.00  0.00     0.116 C 
BRANCH  34  35
ATOM     35  N   UNL A   1      34.764  32.253  29.222  1.00  0.00    -0.352 N 
ATOM     36  C   UNL A   1      35.336  32.098  30.458  1.00  0.00     0.251 C 
ATOM     37  H   UNL A   1      33.826  32.551  29.260  1.00  0.00     0.163 HD
ATOM     38  O   UNL A   1      34.764  32.649  31.402  1.00  0.00    -0.269 OA
BRANCH  36  39
ATOM     39  C   UNL A   1      36.512  31.230  30.738  1.00  0.00     0.039 A 
ATOM     40  C   UNL A   1      37.825  31.676  30.835  1.00  0.00     0.014 A 
ATOM     41  C   UNL A   1      36.267  29.844  30.783  1.00  0.00     0.014 A 
ATOM     42  C   UNL A   1      38.874  30.772  30.761  1.00  0.00     0.010 A 
ATOM     43  C   UNL A   1      37.316  28.929  30.769  1.00  0.00     0.010 A 
ATOM     44  C   UNL A   1      38.618  29.400  30.675  1.00  0.00    -0.014 A 
BRANCH  44  45
ATOM     45  C   UNL A   1      39.775  28.514  30.594  1.00  0.00     0.031 A 
ATOM     46  C   UNL A   1      40.426  28.270  31.912  1.00  0.00     0.074 A 
ATOM     47  C   UNL A   1      40.218  27.935  29.460  1.00  0.00     0.049 A 
ATOM     48  N   UNL A   1      41.579  28.696  32.318  1.00  0.00    -0.248 NA
ATOM     49  C   UNL A   1      39.617  27.639  32.968  1.00  0.00     0.031 C 
ATOM     50  C   UNL A   1      39.573  27.881  28.147  1.00  0.00     0.029 A 
ATOM     51  N   UNL A   1      41.349  27.195  29.268  1.00  0.00    -0.354 N 
ATOM     52  C   UNL A   1      41.736  28.195  33.608  1.00  0.00     0.074 A 
ATOM     53  C   UNL A   1      40.443  27.711  34.012  1.00  0.00     0.031 C 
ATOM     54  C   UNL A   1      40.202  26.966  27.373  1.00  0.00     0.029 A 
ATOM     55  C   UNL A   1      41.380  26.483  28.073  1.00  0.00     0.049 A 
ATOM     56  H   UNL A   1      42.084  27.170  29.921  1.00  0.00     0.167 HD
ATOM     57  C   UNL A   1      42.973  28.010  34.147  1.00  0.00     0.037 A 
ATOM     58  C   UNL A   1      42.290  25.539  27.712  1.00  0.00     0.037 A 
ATOM     59  C   UNL A   1      43.963  28.800  33.459  1.00  0.00     0.049 A 
ATOM     60  C   UNL A   1      43.509  25.786  28.525  1.00  0.00     0.074 A 
ATOM     61  C   UNL A   1      44.165  30.152  33.258  1.00  0.00     0.029 A 
ATOM     62  N   UNL A   1      44.760  28.165  32.538  1.00  0.00    -0.354 N 
ATOM     63  N   UNL A   1      44.255  26.851  28.412  1.00  0.00    -0.248 NA
ATOM     64  C   UNL A   1      43.636  25.063  29.780  1.00  0.00     0.031 C 
ATOM     65  C   UNL A   1      44.681  30.255  31.932  1.00  0.00     0.029 A 
ATOM     66  C   UNL A   1      44.822  28.962  31.425  1.00  0.00     0.049 A 
ATOM     67  H   UNL A   1      45.205  27.295  32.657  1.00  0.00     0.167 HD
ATOM     68  C   UNL A   1      44.615  27.170  29.714  1.00  0.00     0.074 A 
ATOM     69  C   UNL A   1      44.265  25.991  30.503  1.00  0.00     0.031 C 
ATOM     70  C   UNL A   1      44.910  28.454  30.074  1.00  0.00     0.037 A 
BRANCH  57  71
ATOM     71  C   UNL A   1      43.345  26.823  35.012  1.00  0.00     0.058 A 
ATOM     72  C   UNL A   1      43.715  27.045  36.357  1.00  0.00     0.135 A 
ATOM     73  C   UNL A   1      43.651  25.541  34.505  1.00  0.00     0.135 A 
ATOM     74  F   UNL A   1      43.465  28.222  36.952  1.00  0.00    -0.206 F 
ATOM     75  C   UNL A   1      44.426  26.103  37.102  1.00  0.00     0.059 A 
ATOM     76  C   UNL A   1      44.315  24.571  35.247  1.00  0.00     0.059 A 
ATOM     77  F   UNL A   1      43.411  25.189  33.238  1.00  0.00    -0.206 F 
ATOM     78  C   UNL A   1      44.740  24.876  36.528  1.00  0.00     0.060 A 
BRANCH  78  79
ATOM     79  S   UNL A   1      45.765  23.706  37.435  1.00  0.00     0.124 S 
ATOM     80  O   UNL A   1      45.308  23.925  38.806  1.00  0.00    -0.237 OA
ATOM     81  O   UNL A   1      45.375  22.436  36.826  1.00  0.00    -0.237 OA
ATOM     82  O   UNL A   1      47.119  24.147  37.142  1.00  0.00    -0.744 OA
ENDBRANCH  78  79
ENDBRANCH  57  71
BRANCH  58  83
ATOM     83  C   UNL A   1      42.028  24.223  27.059  1.00  0.00     0.058 A 
ATOM     84  C   UNL A   1      43.015  23.586  26.280  1.00  0.00     0.135 A 
ATOM     85  C   UNL A   1      40.931  23.421  27.434  1.00  0.00     0.135 A 
ATOM     86  F   UNL A   1      44.106  24.264  25.890  1.00  0.00    -0.206 F 
ATOM     87  C   UNL A   1      42.947  22.227  25.945  1.00  0.00     0.059 A 
ATOM     88  C   UNL A   1      40.838  22.068  27.106  1.00  0.00     0.059 A 
ATOM     89  F   UNL A   1      39.955  23.907  28.214  1.00  0.00    -0.206 F 
ATOM     90  C   UNL A   1      41.863  21.469  26.385  1.00  0.00     0.060 A 
BRANCH  90  91
ATOM     91  S   UNL A   1      41.852  19.680  26.106  1.00  0.00     0.124 S 
ATOM     92  O   UNL A   1      42.293  19.169  27.399  1.00  0.00    -0.237 OA
ATOM     93  O   UNL A   1      40.456  19.431  25.765  1.00  0.00    -0.237 OA
ATOM     94  O   UNL A   1      42.801  19.501  25.010  1.00  0.00    -0.744 OA
ENDBRANCH  90  91
ENDBRANCH  58  83
BRANCH  70  95
ATOM     95  C   UNL A   1      45.138  29.474  28.988  1.00  0.00     0.058 A 
ATOM     96  C   UNL A   1      44.115  30.115  28.265  1.00  0.00     0.135 A 
ATOM     97  C   UNL A   1      46.445  29.949  28.804  1.00  0.00     0.135 A 
ATOM     98  F   UNL A   1      42.829  29.784  28.447  1.00  0.00    -0.206 F 
ATOM     99  C   UNL A   1      44.387  31.167  27.386  1.00  0.00     0.059 A 
ATOM    100  C   UNL A   1      46.735  31.015  27.957  1.00  0.00     0.059 A 
ATOM    101  F   UNL A   1      47.459  29.414  29.507  1.00  0.00    -0.206 F 
ATOM    102  C   UNL A   1      45.700  31.618  27.247  1.00  0.00     0.060 A 
BRANCH 102 103
ATOM    103  S   UNL A   1      46.038  33.047  26.194  1.00  0.00     0.124 S 
ATOM    104  O   UNL A   1      45.725  34.165  27.079  1.00  0.00    -0.237 OA
ATOM    105  O   UNL A   1      47.451  32.872  25.870  1.00  0.00    -0.237 OA
ATOM    106  O   UNL A   1      45.124  32.868  25.069  1.00  0.00    -0.744 OA
ENDBRANCH 102 103
ENDBRANCH  70  95
ENDBRANCH  44  45
ENDBRANCH  36  39
ENDBRANCH  34  35
ENDBRANCH  33  34
ENDBRANCH   1  33
TORSDOF 18
ENDMDL
MODEL 3
REMARK VINA RESULT:     -11.0      3.692      8.954
REMARK SMILES CCn1ccc2ccc(C[NH+]3CCC4(CC3)C[C@H](C(=O)NCCCCNC(=O)c3ccc(-c5c6nc(c(-c7c(F)cc(S(=O)(=O)[O-])cc7F)c7ccc([nH]7)c(-c7c(F)cc(S(=O)(=O)[O-])cc7F)c7nc(c(-c8c(F)cc(S(=O)(=O)[O-])cc8F)c8ccc5[nH]8)C=C7)C=C6)cc3)N(C(C)=O)C4)cc21
REMARK SMILES IDX 23 1 22 2 21 3 19 4 20 5 18 7 11 8 12 9 16 10 13 12 15 13
REMARK SMILES IDX 14 14 17 15 99 16 95 17 10 18 9 19 3 20 4 21 101 22 5 23
REMARK SMILES IDX 6 24 100 25 7 26 8 27 2 28 1 29 96 30 97 31 98 32 24 33
REMARK SMILES IDX 25 34 26 35 27 36 28 38 29 39 30 40 94 41 31 42 93 43 32 44
REMARK SMILES IDX 33 45 34 46 87 47 35 48 92 49 86 50 88 51 36 52 91 53 85 54
REMARK SMILES IDX 84 55 37 57 71 58 50 59 70 60 51 61 54 62 69 63 89 64 52 65
REMARK SMILES IDX 53 66 68 68 90 69 55 70 38 71 39 72 48 73 40 74 41 75 47 76
REMARK SMILES IDX 49 77 42 78 43 79 44 80 45 81 46 82 72 83 73 84 82 85 74 86
REMARK SMILES IDX 75 87 81 88 83 89 76 90 77 91 78 92 79 93 80 94 56 95 57 96
REMARK SMILES IDX 66 97 58 98 59 99 65 100 67 101 60 102 61 103 62 104 63 105
REMARK SMILES IDX 64 106
REMARK H PARENT 21 6 11 11 26 37 88 56 54 67
REMARK Flexibility Score: inf
ROOT
ATOM      1  C   UNL A   1      37.347  31.181  32.444  1.00  0.00     0.023 C 
ENDROOT
BRANCH   1   2
ATOM      2  C   UNL A   1      37.808  31.766  33.766  1.00  0.00     0.116 C 
BRANCH   2   3
ATOM      3  N   UNL A   1      37.602  33.196  33.874  1.00  0.00    -0.354 N 
ATOM      4  C   UNL A   1      38.523  34.155  34.181  1.00  0.00     0.242 C 
ATOM      5  O   UNL A   1      38.137  35.324  34.279  1.00  0.00    -0.273 OA
ATOM      6  H   UNL A   1      36.686  33.514  33.704  1.00  0.00     0.163 HD
BRANCH   4   7
ATOM      7  C   UNL A   1      39.970  33.781  34.573  1.00  0.00     0.175 C 
ATOM      8  N   UNL A   1      44.884  35.953  33.452  1.00  0.00    -0.331 N 
ATOM      9  C   UNL A   1      43.815  36.850  33.864  1.00  0.00     0.263 C 
ATOM     10  C   UNL A   1      44.751  34.633  34.055  1.00  0.00     0.263 C 
ATOM     11  H   UNL A   1      45.742  36.319  33.867  1.00  0.00     0.348 HD
ATOM     12  C   UNL A   1      42.416  36.302  33.609  1.00  0.00     0.070 C 
ATOM     13  C   UNL A   1      43.379  33.965  33.896  1.00  0.00     0.070 C 
ATOM     14  C   UNL A   1      42.168  34.878  34.160  1.00  0.00     0.001 C 
ATOM     15  C   UNL A   1      40.904  34.292  33.476  1.00  0.00     0.044 C 
ATOM     16  C   UNL A   1      41.836  34.887  35.660  1.00  0.00     0.127 C 
ATOM     17  N   UNL A   1      40.511  34.309  35.818  1.00  0.00    -0.330 N 
BRANCH   8  18
ATOM     18  C   UNL A   1      45.317  36.043  32.045  1.00  0.00     0.299 C 
BRANCH  18  19
ATOM     19  C   UNL A   1      44.262  35.896  30.964  1.00  0.00     0.008 A 
ATOM     20  N   UNL A   1      42.969  37.700  27.972  1.00  0.00    -0.348 N 
ATOM     21  C   UNL A   1      42.267  37.053  26.983  1.00  0.00     0.087 A 
ATOM     22  C   UNL A   1      43.167  36.842  29.039  1.00  0.00     0.048 A 
ATOM     23  C   UNL A   1      42.068  35.751  27.383  1.00  0.00     0.028 A 
ATOM     24  C   UNL A   1      42.699  35.587  28.646  1.00  0.00    -0.000 A 
ATOM     25  C   UNL A   1      43.824  37.031  30.265  1.00  0.00     0.036 A 
ATOM     26  C   UNL A   1      42.944  34.479  29.478  1.00  0.00     0.011 A 
ATOM     27  C   UNL A   1      43.768  34.638  30.602  1.00  0.00     0.010 A 
BRANCH  20  28
ATOM     28  C   UNL A   1      43.657  38.965  27.765  1.00  0.00     0.119 C 
ATOM     29  C   UNL A   1      42.737  40.166  27.684  1.00  0.00     0.027 C 
ENDBRANCH  20  28
ENDBRANCH  18  19
ENDBRANCH   8  18
BRANCH  17  30
ATOM     30  C   UNL A   1      40.030  34.045  37.085  1.00  0.00     0.220 C 
ATOM     31  C   UNL A   1      39.356  35.171  37.831  1.00  0.00     0.114 C 
ATOM     32  O   UNL A   1      40.201  32.956  37.632  1.00  0.00    -0.275 OA
ENDBRANCH  17  30
ENDBRANCH   4   7
ENDBRANCH   2   3
ENDBRANCH   1   2
BRANCH   1  33
ATOM     33  C   UNL A   1      35.841  31.252  32.198  1.00  0.00     0.023 C 
BRANCH  33  34
ATOM     34  C   UNL A   1      35.319  32.562  31.597  1.00  0.00     0.116 C 
BRANCH  34  35
ATOM     35  N   UNL A   1      34.742  32.461  30.271  1.00  0.00    -0.352 N 
ATOM     36  C   UNL A   1      34.983  31.637  29.202  1.00  0.00     0.251 C 
ATOM     37  H   UNL A   1      34.032  33.120  30.104  1.00  0.00     0.163 HD
ATOM     38  O   UNL A   1      34.105  31.587  28.338  1.00  0.00    -0.269 OA
BRANCH  36  39
ATOM     39  C   UNL A   1      36.260  30.908  28.971  1.00  0.00     0.039 A 
ATOM     40  C   UNL A   1      36.391  29.524  28.935  1.00  0.00     0.014 A 
ATOM     41  C   UNL A   1      37.426  31.695  28.910  1.00  0.00     0.014 A 
ATOM     42  C   UNL A   1      37.643  28.941  29.053  1.00  0.00     0.010 A 
ATOM     43  C   UNL A   1      38.689  31.114  28.968  1.00  0.00     0.010 A 
ATOM     44  C   UNL A   1      38.790  29.739  29.122  1.00  0.00    -0.014 A 
BRANCH  44  45
ATOM     45  C   UNL A   1      40.070  29.049  29.251  1.00  0.00     0.031 A 
ATOM     46  C   UNL A   1      40.495  28.849  30.665  1.00  0.00     0.074 A 
ATOM     47  C   UNL A   1      40.804  28.597  28.214  1.00  0.00     0.049 A 
ATOM     48  N   UNL A   1      41.467  29.431  31.290  1.00  0.00    -0.248 NA
ATOM     49  C   UNL A   1      39.616  28.053  31.537  1.00  0.00     0.031 C 
ATOM     50  C   UNL A   1      40.432  28.504  26.801  1.00  0.00     0.029 A 
ATOM     51  N   UNL A   1      42.055  28.053  28.230  1.00  0.00    -0.354 N 
ATOM     52  C   UNL A   1      41.461  28.903  32.579  1.00  0.00     0.074 A 
ATOM     53  C   UNL A   1      40.210  28.206  32.721  1.00  0.00     0.031 C 
ATOM     54  C   UNL A   1      41.333  27.734  26.147  1.00  0.00     0.029 A 
ATOM     55  C   UNL A   1      42.423  27.409  27.053  1.00  0.00     0.049 A 
ATOM     56  H   UNL A   1      42.650  28.113  29.011  1.00  0.00     0.167 HD
ATOM     57  C   UNL A   1      42.589  28.888  33.341  1.00  0.00     0.037 A 
ATOM     58  C   UNL A   1      43.524  26.636  26.858  1.00  0.00     0.037 A 
ATOM     59  C   UNL A   1      43.548  29.854  32.868  1.00  0.00     0.049 A 
ATOM     60  C   UNL A   1      44.514  27.032  27.893  1.00  0.00     0.074 A 
ATOM     61  C   UNL A   1      43.564  31.228  32.728  1.00  0.00     0.029 A 
ATOM     62  N   UNL A   1      44.595  29.393  32.106  1.00  0.00    -0.354 N 
ATOM     63  N   UNL A   1      45.087  28.204  27.941  1.00  0.00    -0.248 NA
ATOM     64  C   UNL A   1      44.521  26.281  29.138  1.00  0.00     0.031 C 
ATOM     65  C   UNL A   1      44.293  31.471  31.527  1.00  0.00     0.029 A 
ATOM     66  C   UNL A   1      44.733  30.239  31.038  1.00  0.00     0.049 A 
ATOM     67  H   UNL A   1      45.145  28.598  32.295  1.00  0.00     0.167 HD
ATOM     68  C   UNL A   1      45.141  28.517  29.292  1.00  0.00     0.074 A 
ATOM     69  C   UNL A   1      44.845  27.263  29.982  1.00  0.00     0.031 C 
ATOM     70  C   UNL A   1      45.152  29.813  29.721  1.00  0.00     0.037 A 
BRANCH  57  71
ATOM     71  C   UNL A   1      42.980  27.736  34.244  1.00  0.00     0.058 A 
ATOM     72  C   UNL A   1      43.154  27.976  35.625  1.00  0.00     0.135 A 
ATOM     73  C   UNL A   1      43.485  26.503  33.777  1.00  0.00     0.135 A 
ATOM     74  F   UNL A   1      42.705  29.109  36.186  1.00  0.00    -0.206 F 
ATOM     75  C   UNL A   1      43.868  27.106  36.451  1.00  0.00     0.059 A 
ATOM     76  C   UNL A   1      44.155  25.600  34.593  1.00  0.00     0.059 A 
ATOM     77  F   UNL A   1      43.443  26.147  32.489  1.00  0.00    -0.206 F 
ATOM     78  C   UNL A   1      44.384  25.930  35.917  1.00  0.00     0.060 A 
BRANCH  78  79
ATOM     79  S   UNL A   1      45.412  24.865  36.942  1.00  0.00     0.124 S 
ATOM     80  O   UNL A   1      46.471  25.788  37.345  1.00  0.00    -0.237 OA
ATOM     81  O   UNL A   1      44.475  24.471  37.993  1.00  0.00    -0.237 OA
ATOM     82  O   UNL A   1      45.810  23.803  36.033  1.00  0.00    -0.744 OA
ENDBRANCH  78  79
ENDBRANCH  57  71
BRANCH  58  83
ATOM     83  C   UNL A   1      43.605  25.326  26.148  1.00  0.00     0.058 A 
ATOM     84  C   UNL A   1      44.669  25.036  25.271  1.00  0.00     0.135 A 
ATOM     85  C   UNL A   1      42.820  24.224  26.546  1.00  0.00     0.135 A 
ATOM     86  F   UNL A   1      45.482  26.018  24.851  1.00  0.00    -0.206 F 
ATOM     87  C   UNL A   1      44.971  23.730  24.862  1.00  0.00     0.059 A 
ATOM     88  C   UNL A   1      43.098  22.916  26.146  1.00  0.00     0.059 A 
ATOM     89  F   UNL A   1      41.810  24.373  27.414  1.00  0.00    -0.206 F 
ATOM     90  C   UNL A   1      44.193  22.672  25.326  1.00  0.00     0.060 A 
BRANCH  90  91
ATOM     91  S   UNL A   1      44.679  20.970  24.945  1.00  0.00     0.124 S 
ATOM     92  O   UNL A   1      43.707  20.198  25.711  1.00  0.00    -0.237 OA
ATOM     93  O   UNL A   1      44.527  20.924  23.495  1.00  0.00    -0.237 OA
ATOM     94  O   UNL A   1      46.055  20.893  25.428  1.00  0.00    -0.744 OA
ENDBRANCH  90  91
ENDBRANCH  58  83
BRANCH  70  95
ATOM     95  C   UNL A   1      45.411  30.904  28.714  1.00  0.00     0.058 A 
ATOM     96  C   UNL A   1      44.452  31.407  27.815  1.00  0.00     0.135 A 
ATOM     97  C   UNL A   1      46.633  31.589  28.793  1.00  0.00     0.135 A 
ATOM     98  F   UNL A   1      43.226  30.868  27.740  1.00  0.00    -0.206 F 
ATOM     99  C   UNL A   1      44.708  32.528  27.020  1.00  0.00     0.059 A 
ATOM    100  C   UNL A   1      46.899  32.724  28.033  1.00  0.00     0.059 A 
ATOM    101  F   UNL A   1      47.570  31.190  29.671  1.00  0.00    -0.206 F 
ATOM    102  C   UNL A   1      45.932  33.187  27.145  1.00  0.00     0.060 A 
BRANCH 102 103
ATOM    103  S   UNL A   1      46.223  34.698  26.197  1.00  0.00     0.124 S 
ATOM    104  O   UNL A   1      46.502  35.673  27.246  1.00  0.00    -0.237 OA
ATOM    105  O   UNL A   1      47.360  34.328  25.357  1.00  0.00    -0.237 OA
ATOM    106  O   UNL A   1      44.968  34.898  25.477  1.00  0.00    -0.744 OA
ENDBRANCH 102 103
ENDBRANCH  70  95
ENDBRANCH  44  45
ENDBRANCH  36  39
ENDBRANCH  34  35
ENDBRANCH  33  34
ENDBRANCH   1  33
TORSDOF 18
ENDMDL
