MODEL 1
REMARK VINA RESULT:     -11.7      0.000      0.000
REMARK SMILES Nc1c(Cl)ccc2c1C=C(C(=O)NCCCCNC(=O)c1ccc(-c3c4nc(c(-c5c(F)cc(S(=O)(=O)[O-])cc5F)c5ccc([nH]5)c(-c5c(F)cc(S(=O)(=O)[O-])cc5F)c5nc(c(-c6c(F)cc(S(=O)(=O)[O-])cc6F)c6ccc3[nH]6)C=C5)C=C4)cc1)[C@@H](C(F)(F)F)O2
REMARK SMILES IDX 16 1 15 2 14 3 13 4 11 5 12 6 10 8 2 9 3 10 8 11 4 12 5 13
REMARK SMILES IDX 7 14 9 15 6 16 92 17 87 18 1 19 88 22 89 23 90 24 91 25
REMARK SMILES IDX 17 26 18 27 19 28 20 30 21 31 22 32 86 33 23 34 85 35 24 36
REMARK SMILES IDX 25 37 26 38 79 39 27 40 84 41 78 42 80 43 28 44 83 45 77 46
REMARK SMILES IDX 76 47 29 49 63 50 42 51 62 52 43 53 46 54 61 55 81 56 44 57
REMARK SMILES IDX 45 58 60 60 82 61 47 62 30 63 31 64 40 65 32 66 33 67 39 68
REMARK SMILES IDX 41 69 34 70 35 71 36 72 37 73 38 74 64 75 65 76 74 77 66 78
REMARK SMILES IDX 67 79 73 80 75 81 68 82 69 83 70 84 71 85 72 86 48 87 49 88
REMARK SMILES IDX 58 89 50 90 51 91 57 92 59 93 52 94 53 95 54 96 55 97 56 98
REMARK H PARENT 13 7 1 20 1 21 18 29 80 48 46 59
REMARK Flexibility Score: inf
ROOT
ATOM      1  C   UNL A   1      33.619  28.294  25.297  1.00  0.00     0.023 C 
ENDROOT
BRANCH   1   2
ATOM      2  C   UNL A   1      33.576  26.886  24.701  1.00  0.00     0.023 C 
BRANCH   2   3
ATOM      3  C   UNL A   1      32.168  26.377  24.409  1.00  0.00     0.116 C 
BRANCH   3   4
ATOM      4  N   UNL A   1      31.577  25.732  25.566  1.00  0.00    -0.352 N 
ATOM      5  C   UNL A   1      31.676  24.536  26.190  1.00  0.00     0.251 C 
ATOM      6  O   UNL A   1      30.942  24.394  27.174  1.00  0.00    -0.270 OA
ATOM      7  H   UNL A   1      30.932  26.322  26.019  1.00  0.00     0.163 HD
BRANCH   5   8
ATOM      8  C   UNL A   1      32.584  23.420  25.785  1.00  0.00     0.067 C 
ATOM      9  C   UNL A   1      36.248  22.714  25.985  1.00  0.00     0.061 A 
ATOM     10  C   UNL A   1      37.111  21.675  25.564  1.00  0.00     0.064 A 
ATOM     11  C   UNL A   1      34.858  22.544  25.788  1.00  0.00     0.042 A 
ATOM     12  Cl  UNL A   1      38.829  21.828  25.740  1.00  0.00    -0.082 Cl
ATOM     13  C   UNL A   1      36.618  20.490  25.015  1.00  0.00     0.026 A 
ATOM     14  C   UNL A   1      34.382  21.351  25.225  1.00  0.00     0.130 A 
ATOM     15  C   UNL A   1      33.864  23.548  26.181  1.00  0.00     0.027 C 
ATOM     16  C   UNL A   1      35.249  20.326  24.853  1.00  0.00     0.049 A 
ATOM     17  O   UNL A   1      33.053  21.092  25.037  1.00  0.00    -0.475 OA
ATOM     18  C   UNL A   1      32.169  22.243  24.954  1.00  0.00     0.314 C 
BRANCH   9  19
ATOM     19  N   UNL A   1      36.786  23.907  26.475  1.00  0.00    -0.397 N 
ATOM     20  H   UNL A   1      36.404  24.324  27.282  1.00  0.00     0.156 HD
ATOM     21  H   UNL A   1      37.545  24.332  26.015  1.00  0.00     0.156 HD
ENDBRANCH   9  19
BRANCH  18  22
ATOM     22  C   UNL A   1      31.945  22.603  23.473  1.00  0.00     0.429 C 
ATOM     23  F   UNL A   1      31.927  21.479  22.712  1.00  0.00    -0.167 F 
ATOM     24  F   UNL A   1      30.764  23.228  23.260  1.00  0.00    -0.167 F 
ATOM     25  F   UNL A   1      32.914  23.407  22.981  1.00  0.00    -0.167 F 
ENDBRANCH  18  22
ENDBRANCH   5   8
ENDBRANCH   3   4
ENDBRANCH   2   3
ENDBRANCH   1   2
BRANCH   1  26
ATOM     26  C   UNL A   1      33.853  28.356  26.805  1.00  0.00     0.116 C 
BRANCH  26  27
ATOM     27  N   UNL A   1      33.611  29.676  27.371  1.00  0.00    -0.352 N 
ATOM     28  C   UNL A   1      34.482  30.453  28.094  1.00  0.00     0.251 C 
ATOM     29  H   UNL A   1      32.716  30.056  27.215  1.00  0.00     0.163 HD
ATOM     30  O   UNL A   1      34.118  31.515  28.587  1.00  0.00    -0.269 OA
BRANCH  28  31
ATOM     31  C   UNL A   1      35.855  29.960  28.288  1.00  0.00     0.039 A 
ATOM     32  C   UNL A   1      36.771  30.085  27.242  1.00  0.00     0.014 A 
ATOM     33  C   UNL A   1      36.241  29.457  29.533  1.00  0.00     0.014 A 
ATOM     34  C   UNL A   1      38.105  29.752  27.463  1.00  0.00     0.010 A 
ATOM     35  C   UNL A   1      37.581  29.165  29.764  1.00  0.00     0.010 A 
ATOM     36  C   UNL A   1      38.520  29.311  28.730  1.00  0.00    -0.014 A 
BRANCH  36  37
ATOM     37  C   UNL A   1      39.932  28.952  28.986  1.00  0.00     0.031 A 
ATOM     38  C   UNL A   1      40.852  29.979  29.577  1.00  0.00     0.074 A 
ATOM     39  C   UNL A   1      40.388  27.732  28.646  1.00  0.00     0.049 A 
ATOM     40  N   UNL A   1      42.136  29.901  29.808  1.00  0.00    -0.248 NA
ATOM     41  C   UNL A   1      40.251  31.274  29.938  1.00  0.00     0.031 C 
ATOM     42  C   UNL A   1      39.586  26.663  28.043  1.00  0.00     0.029 A 
ATOM     43  N   UNL A   1      41.643  27.188  28.750  1.00  0.00    -0.354 N 
ATOM     44  C   UNL A   1      42.496  31.132  30.338  1.00  0.00     0.074 A 
ATOM     45  C   UNL A   1      41.308  31.957  30.350  1.00  0.00     0.031 C 
ATOM     46  C   UNL A   1      40.369  25.588  27.844  1.00  0.00     0.029 A 
ATOM     47  C   UNL A   1      41.727  25.900  28.279  1.00  0.00     0.049 A 
ATOM     48  H   UNL A   1      42.411  27.675  29.126  1.00  0.00     0.167 HD
ATOM     49  C   UNL A   1      43.705  31.530  30.799  1.00  0.00     0.037 A 
ATOM     50  C   UNL A   1      42.786  25.069  28.205  1.00  0.00     0.037 A 
ATOM     51  C   UNL A   1      44.878  30.699  30.804  1.00  0.00     0.049 A 
ATOM     52  C   UNL A   1      44.124  25.546  28.700  1.00  0.00     0.074 A 
ATOM     53  C   UNL A   1      46.142  30.997  31.276  1.00  0.00     0.029 A 
ATOM     54  N   UNL A   1      44.925  29.401  30.317  1.00  0.00    -0.354 N 
ATOM     55  N   UNL A   1      44.444  26.704  29.225  1.00  0.00    -0.248 NA
ATOM     56  C   UNL A   1      45.247  24.603  28.592  1.00  0.00     0.031 C 
ATOM     57  C   UNL A   1      46.963  29.885  31.054  1.00  0.00     0.029 A 
ATOM     58  C   UNL A   1      46.200  28.887  30.468  1.00  0.00     0.049 A 
ATOM     59  H   UNL A   1      44.164  28.918  29.921  1.00  0.00     0.167 HD
ATOM     60  C   UNL A   1      45.799  26.625  29.524  1.00  0.00     0.074 A 
ATOM     61  C   UNL A   1      46.237  25.300  29.133  1.00  0.00     0.031 C 
ATOM     62  C   UNL A   1      46.610  27.564  30.072  1.00  0.00     0.037 A 
BRANCH  49  63
ATOM     63  C   UNL A   1      43.806  32.922  31.352  1.00  0.00     0.058 A 
ATOM     64  C   UNL A   1      44.123  34.010  30.522  1.00  0.00     0.135 A 
ATOM     65  C   UNL A   1      43.567  33.176  32.710  1.00  0.00     0.135 A 
ATOM     66  F   UNL A   1      44.384  33.813  29.219  1.00  0.00    -0.206 F 
ATOM     67  C   UNL A   1      44.218  35.302  31.026  1.00  0.00     0.059 A 
ATOM     68  C   UNL A   1      43.637  34.465  33.231  1.00  0.00     0.059 A 
ATOM     69  F   UNL A   1      43.269  32.168  33.545  1.00  0.00    -0.206 F 
ATOM     70  C   UNL A   1      43.974  35.519  32.383  1.00  0.00     0.060 A 
BRANCH  70  71
ATOM     71  S   UNL A   1      44.094  37.203  33.018  1.00  0.00     0.124 S 
ATOM     72  O   UNL A   1      44.018  37.984  31.787  1.00  0.00    -0.237 OA
ATOM     73  O   UNL A   1      42.933  37.291  33.897  1.00  0.00    -0.237 OA
ATOM     74  O   UNL A   1      45.389  37.220  33.693  1.00  0.00    -0.744 OA
ENDBRANCH  70  71
ENDBRANCH  49  63
BRANCH  50  75
ATOM     75  C   UNL A   1      42.623  23.697  27.662  1.00  0.00     0.058 A 
ATOM     76  C   UNL A   1      42.459  22.601  28.520  1.00  0.00     0.135 A 
ATOM     77  C   UNL A   1      42.629  23.452  26.279  1.00  0.00     0.135 A 
ATOM     78  F   UNL A   1      42.454  22.787  29.850  1.00  0.00    -0.206 F 
ATOM     79  C   UNL A   1      42.322  21.306  28.031  1.00  0.00     0.059 A 
ATOM     80  C   UNL A   1      42.476  22.168  25.766  1.00  0.00     0.059 A 
ATOM     81  F   UNL A   1      42.769  24.471  25.417  1.00  0.00    -0.206 F 
ATOM     82  C   UNL A   1      42.332  21.100  26.650  1.00  0.00     0.060 A 
BRANCH  82  83
ATOM     83  S   UNL A   1      42.112  19.420  26.025  1.00  0.00     0.124 S 
ATOM     84  O   UNL A   1      42.599  18.624  27.144  1.00  0.00    -0.237 OA
ATOM     85  O   UNL A   1      40.673  19.368  25.782  1.00  0.00    -0.237 OA
ATOM     86  O   UNL A   1      42.942  19.400  24.824  1.00  0.00    -0.744 OA
ENDBRANCH  82  83
ENDBRANCH  50  75
BRANCH  62  87
ATOM     87  C   UNL A   1      48.046  27.189  30.292  1.00  0.00     0.058 A 
ATOM     88  C   UNL A   1      49.037  27.528  29.361  1.00  0.00     0.135 A 
ATOM     89  C   UNL A   1      48.442  26.546  31.476  1.00  0.00     0.135 A 
ATOM     90  F   UNL A   1      48.706  28.137  28.211  1.00  0.00    -0.206 F 
ATOM     91  C   UNL A   1      50.377  27.234  29.591  1.00  0.00     0.059 A 
ATOM     92  C   UNL A   1      49.777  26.260  31.735  1.00  0.00     0.059 A 
ATOM     93  F   UNL A   1      47.528  26.209  32.400  1.00  0.00    -0.206 F 
ATOM     94  C   UNL A   1      50.737  26.601  30.782  1.00  0.00     0.060 A 
BRANCH  94  95
ATOM     95  S   UNL A   1      52.485  26.267  31.092  1.00  0.00     0.124 S 
ATOM     96  O   UNL A   1      53.014  26.197  29.734  1.00  0.00    -0.237 OA
ATOM     97  O   UNL A   1      52.892  27.431  31.873  1.00  0.00    -0.237 OA
ATOM     98  O   UNL A   1      52.464  25.005  31.826  1.00  0.00    -0.744 OA
ENDBRANCH  94  95
ENDBRANCH  62  87
ENDBRANCH  36  37
ENDBRANCH  28  31
ENDBRANCH  26  27
ENDBRANCH   1  26
TORSDOF 16
ENDMDL
MODEL 2
REMARK VINA RESULT:     -11.6      3.492      4.902
REMARK SMILES Nc1c(Cl)ccc2c1C=C(C(=O)NCCCCNC(=O)c1ccc(-c3c4nc(c(-c5c(F)cc(S(=O)(=O)[O-])cc5F)c5ccc([nH]5)c(-c5c(F)cc(S(=O)(=O)[O-])cc5F)c5nc(c(-c6c(F)cc(S(=O)(=O)[O-])cc6F)c6ccc3[nH]6)C=C5)C=C4)cc1)[C@@H](C(F)(F)F)O2
REMARK SMILES IDX 16 1 15 2 14 3 13 4 11 5 12 6 10 8 2 9 3 10 8 11 4 12 5 13
REMARK SMILES IDX 7 14 9 15 6 16 92 17 87 18 1 19 88 22 89 23 90 24 91 25
REMARK SMILES IDX 17 26 18 27 19 28 20 30 21 31 22 32 86 33 23 34 85 35 24 36
REMARK SMILES IDX 25 37 26 38 79 39 27 40 84 41 78 42 80 43 28 44 83 45 77 46
REMARK SMILES IDX 76 47 29 49 63 50 42 51 62 52 43 53 46 54 61 55 81 56 44 57
REMARK SMILES IDX 45 58 60 60 82 61 47 62 30 63 31 64 40 65 32 66 33 67 39 68
REMARK SMILES IDX 41 69 34 70 35 71 36 72 37 73 38 74 64 75 65 76 74 77 66 78
REMARK SMILES IDX 67 79 73 80 75 81 68 82 69 83 70 84 71 85 72 86 48 87 49 88
REMARK SMILES IDX 58 89 50 90 51 91 57 92 59 93 52 94 53 95 54 96 55 97 56 98
REMARK H PARENT 13 7 1 20 1 21 18 29 80 48 46 59
REMARK Flexibility Score: inf
ROOT
ATOM      1  C   UNL A   1      33.992  29.374  26.673  1.00  0.00     0.023 C 
ENDROOT
BRANCH   1   2
ATOM      2  C   UNL A   1      33.941  28.461  25.445  1.00  0.00     0.023 C 
BRANCH   2   3
ATOM      3  C   UNL A   1      33.898  26.973  25.779  1.00  0.00     0.116 C 
BRANCH   3   4
ATOM      4  N   UNL A   1      33.811  26.156  24.583  1.00  0.00    -0.352 N 
ATOM      5  C   UNL A   1      32.868  25.839  23.667  1.00  0.00     0.251 C 
ATOM      6  O   UNL A   1      33.234  25.054  22.785  1.00  0.00    -0.270 OA
ATOM      7  H   UNL A   1      34.669  25.713  24.386  1.00  0.00     0.163 HD
BRANCH   5   8
ATOM      8  C   UNL A   1      31.467  26.361  23.649  1.00  0.00     0.067 C 
ATOM      9  C   UNL A   1      29.731  29.389  22.314  1.00  0.00     0.061 A 
ATOM     10  C   UNL A   1      28.413  29.900  22.334  1.00  0.00     0.064 A 
ATOM     11  C   UNL A   1      29.958  28.114  22.880  1.00  0.00     0.042 A 
ATOM     12  Cl  UNL A   1      28.066  31.473  21.690  1.00  0.00    -0.082 Cl
ATOM     13  C   UNL A   1      27.347  29.160  22.849  1.00  0.00     0.026 A 
ATOM     14  C   UNL A   1      28.877  27.389  23.403  1.00  0.00     0.130 A 
ATOM     15  C   UNL A   1      31.279  27.477  22.920  1.00  0.00     0.027 C 
ATOM     16  C   UNL A   1      27.580  27.898  23.377  1.00  0.00     0.049 A 
ATOM     17  O   UNL A   1      29.005  26.134  23.932  1.00  0.00    -0.475 OA
ATOM     18  C   UNL A   1      30.325  25.759  24.410  1.00  0.00     0.314 C 
BRANCH   9  19
ATOM     19  N   UNL A   1      30.778  30.186  21.843  1.00  0.00    -0.397 N 
ATOM     20  H   UNL A   1      31.572  29.767  21.437  1.00  0.00     0.156 HD
ATOM     21  H   UNL A   1      30.723  31.166  21.917  1.00  0.00     0.156 HD
ENDBRANCH   9  19
BRANCH  18  22
ATOM     22  C   UNL A   1      30.407  26.022  25.926  1.00  0.00     0.429 C 
ATOM     23  F   UNL A   1      31.330  25.206  26.496  1.00  0.00    -0.167 F 
ATOM     24  F   UNL A   1      30.784  27.289  26.216  1.00  0.00    -0.167 F 
ATOM     25  F   UNL A   1      29.231  25.803  26.556  1.00  0.00    -0.167 F 
ENDBRANCH  18  22
ENDBRANCH   5   8
ENDBRANCH   3   4
ENDBRANCH   2   3
ENDBRANCH   1   2
BRANCH   1  26
ATOM     26  C   UNL A   1      35.258  29.254  27.520  1.00  0.00     0.116 C 
BRANCH  26  27
ATOM     27  N   UNL A   1      35.235  30.096  28.708  1.00  0.00    -0.352 N 
ATOM     28  C   UNL A   1      36.273  30.373  29.563  1.00  0.00     0.251 C 
ATOM     29  H   UNL A   1      34.371  30.517  28.924  1.00  0.00     0.163 HD
ATOM     30  O   UNL A   1      36.094  31.033  30.580  1.00  0.00    -0.269 OA
BRANCH  28  31
ATOM     31  C   UNL A   1      37.602  29.829  29.239  1.00  0.00     0.039 A 
ATOM     32  C   UNL A   1      38.042  29.865  27.914  1.00  0.00     0.014 A 
ATOM     33  C   UNL A   1      38.430  29.366  30.265  1.00  0.00     0.014 A 
ATOM     34  C   UNL A   1      39.349  29.484  27.622  1.00  0.00     0.010 A 
ATOM     35  C   UNL A   1      39.747  29.026  29.976  1.00  0.00     0.010 A 
ATOM     36  C   UNL A   1      40.213  29.083  28.653  1.00  0.00    -0.014 A 
BRANCH  36  37
ATOM     37  C   UNL A   1      41.606  28.673  28.363  1.00  0.00     0.031 A 
ATOM     38  C   UNL A   1      42.692  29.707  28.388  1.00  0.00     0.074 A 
ATOM     39  C   UNL A   1      41.877  27.396  28.037  1.00  0.00     0.049 A 
ATOM     40  N   UNL A   1      43.958  29.581  28.090  1.00  0.00    -0.248 NA
ATOM     41  C   UNL A   1      42.297  31.071  28.782  1.00  0.00     0.031 C 
ATOM     42  C   UNL A   1      40.893  26.312  27.960  1.00  0.00     0.029 A 
ATOM     43  N   UNL A   1      43.062  26.794  27.698  1.00  0.00    -0.354 N 
ATOM     44  C   UNL A   1      44.510  30.844  28.257  1.00  0.00     0.074 A 
ATOM     45  C   UNL A   1      43.434  31.734  28.636  1.00  0.00     0.031 C 
ATOM     46  C   UNL A   1      41.521  25.176  27.610  1.00  0.00     0.029 A 
ATOM     47  C   UNL A   1      42.940  25.456  27.413  1.00  0.00     0.049 A 
ATOM     48  H   UNL A   1      43.919  27.277  27.663  1.00  0.00     0.167 HD
ATOM     49  C   UNL A   1      45.803  31.222  28.133  1.00  0.00     0.037 A 
ATOM     50  C   UNL A   1      43.872  24.560  27.032  1.00  0.00     0.037 A 
ATOM     51  C   UNL A   1      46.871  30.329  27.776  1.00  0.00     0.049 A 
ATOM     52  C   UNL A   1      45.299  25.012  26.875  1.00  0.00     0.074 A 
ATOM     53  C   UNL A   1      48.220  30.606  27.653  1.00  0.00     0.029 A 
ATOM     54  N   UNL A   1      46.709  28.980  27.492  1.00  0.00    -0.354 N 
ATOM     55  N   UNL A   1      45.811  26.205  27.063  1.00  0.00    -0.248 NA
ATOM     56  C   UNL A   1      46.274  23.998  26.452  1.00  0.00     0.031 C 
ATOM     57  C   UNL A   1      48.873  29.428  27.271  1.00  0.00     0.029 A 
ATOM     58  C   UNL A   1      47.933  28.413  27.185  1.00  0.00     0.049 A 
ATOM     59  H   UNL A   1      45.850  28.499  27.507  1.00  0.00     0.167 HD
ATOM     60  C   UNL A   1      47.170  26.081  26.799  1.00  0.00     0.074 A 
ATOM     61  C   UNL A   1      47.403  24.695  26.448  1.00  0.00     0.031 C 
ATOM     62  C   UNL A   1      48.138  27.029  26.840  1.00  0.00     0.037 A 
BRANCH  49  63
ATOM     63  C   UNL A   1      46.128  32.662  28.403  1.00  0.00     0.058 A 
ATOM     64  C   UNL A   1      46.473  33.098  29.692  1.00  0.00     0.135 A 
ATOM     65  C   UNL A   1      46.116  33.608  27.368  1.00  0.00     0.135 A 
ATOM     66  F   UNL A   1      46.476  32.233  30.720  1.00  0.00    -0.206 F 
ATOM     67  C   UNL A   1      46.776  34.430  29.950  1.00  0.00     0.059 A 
ATOM     68  C   UNL A   1      46.436  34.943  27.600  1.00  0.00     0.059 A 
ATOM     69  F   UNL A   1      45.785  33.242  26.120  1.00  0.00    -0.206 F 
ATOM     70  C   UNL A   1      46.754  35.346  28.897  1.00  0.00     0.060 A 
BRANCH  70  71
ATOM     71  S   UNL A   1      47.157  37.069  29.248  1.00  0.00     0.124 S 
ATOM     72  O   UNL A   1      46.874  37.148  30.678  1.00  0.00    -0.237 OA
ATOM     73  O   UNL A   1      48.566  37.143  28.876  1.00  0.00    -0.237 OA
ATOM     74  O   UNL A   1      46.244  37.813  28.386  1.00  0.00    -0.744 OA
ENDBRANCH  70  71
ENDBRANCH  49  63
BRANCH  50  75
ATOM     75  C   UNL A   1      43.494  23.145  26.792  1.00  0.00     0.058 A 
ATOM     76  C   UNL A   1      43.158  22.302  27.860  1.00  0.00     0.135 A 
ATOM     77  C   UNL A   1      43.463  22.605  25.496  1.00  0.00     0.135 A 
ATOM     78  F   UNL A   1      43.181  22.772  29.117  1.00  0.00    -0.206 F 
ATOM     79  C   UNL A   1      42.817  20.968  27.658  1.00  0.00     0.059 A 
ATOM     80  C   UNL A   1      43.110  21.279  25.267  1.00  0.00     0.059 A 
ATOM     81  F   UNL A   1      43.764  23.376  24.440  1.00  0.00    -0.206 F 
ATOM     82  C   UNL A   1      42.797  20.466  26.355  1.00  0.00     0.060 A 
BRANCH  82  83
ATOM     83  S   UNL A   1      42.314  18.745  26.099  1.00  0.00     0.124 S 
ATOM     84  O   UNL A   1      43.218  18.342  25.029  1.00  0.00    -0.237 OA
ATOM     85  O   UNL A   1      42.573  18.155  27.410  1.00  0.00    -0.237 OA
ATOM     86  O   UNL A   1      40.904  18.844  25.733  1.00  0.00    -0.744 OA
ENDBRANCH  82  83
ENDBRANCH  50  75
BRANCH  62  87
ATOM     87  C   UNL A   1      49.537  26.598  26.510  1.00  0.00     0.058 A 
ATOM     88  C   UNL A   1      50.363  26.009  27.478  1.00  0.00     0.135 A 
ATOM     89  C   UNL A   1      50.029  26.714  25.201  1.00  0.00     0.135 A 
ATOM     90  F   UNL A   1      49.939  25.885  28.745  1.00  0.00    -0.206 F 
ATOM     91  C   UNL A   1      51.639  25.556  27.160  1.00  0.00     0.059 A 
ATOM     92  C   UNL A   1      51.293  26.250  24.856  1.00  0.00     0.059 A 
ATOM     93  F   UNL A   1      49.270  27.264  24.240  1.00  0.00    -0.206 F 
ATOM     94  C   UNL A   1      52.095  25.679  25.846  1.00  0.00     0.060 A 
BRANCH  94  95
ATOM     95  S   UNL A   1      53.734  25.043  25.434  1.00  0.00     0.124 S 
ATOM     96  O   UNL A   1      53.991  25.700  24.157  1.00  0.00    -0.237 OA
ATOM     97  O   UNL A   1      54.540  25.504  26.559  1.00  0.00    -0.237 OA
ATOM     98  O   UNL A   1      53.529  23.598  25.368  1.00  0.00    -0.744 OA
ENDBRANCH  94  95
ENDBRANCH  62  87
ENDBRANCH  36  37
ENDBRANCH  28  31
ENDBRANCH  26  27
ENDBRANCH   1  26
TORSDOF 16
ENDMDL
MODEL 3
REMARK VINA RESULT:     -11.6      3.640      5.013
REMARK SMILES Nc1c(Cl)ccc2c1C=C(C(=O)NCCCCNC(=O)c1ccc(-c3c4nc(c(-c5c(F)cc(S(=O)(=O)[O-])cc5F)c5ccc([nH]5)c(-c5c(F)cc(S(=O)(=O)[O-])cc5F)c5nc(c(-c6c(F)cc(S(=O)(=O)[O-])cc6F)c6ccc3[nH]6)C=C5)C=C4)cc1)[C@@H](C(F)(F)F)O2
REMARK SMILES IDX 16 1 15 2 14 3 13 4 11 5 12 6 10 8 2 9 3 10 8 11 4 12 5 13
REMARK SMILES IDX 7 14 9 15 6 16 92 17 87 18 1 19 88 22 89 23 90 24 91 25
REMARK SMILES IDX 17 26 18 27 19 28 20 30 21 31 22 32 86 33 23 34 85 35 24 36
REMARK SMILES IDX 25 37 26 38 79 39 27 40 84 41 78 42 80 43 28 44 83 45 77 46
REMARK SMILES IDX 76 47 29 49 63 50 42 51 62 52 43 53 46 54 61 55 81 56 44 57
REMARK SMILES IDX 45 58 60 60 82 61 47 62 30 63 31 64 40 65 32 66 33 67 39 68
REMARK SMILES IDX 41 69 34 70 35 71 36 72 37 73 38 74 64 75 65 76 74 77 66 78
REMARK SMILES IDX 67 79 73 80 75 81 68 82 69 83 70 84 71 85 72 86 48 87 49 88
REMARK SMILES IDX 58 89 50 90 51 91 57 92 59 93 52 94 53 95 54 96 55 97 56 98
REMARK H PARENT 13 7 1 20 1 21 18 29 80 48 46 59
REMARK Flexibility Score: inf
ROOT
ATOM      1  C   UNL A   1      33.627  27.802  26.569  1.00  0.00     0.023 C 
ENDROOT
BRANCH   1   2
ATOM      2  C   UNL A   1      33.784  26.499  25.782  1.00  0.00     0.023 C 
BRANCH   2   3
ATOM      3  C   UNL A   1      33.954  26.698  24.279  1.00  0.00     0.116 C 
BRANCH   3   4
ATOM      4  N   UNL A   1      33.372  25.605  23.522  1.00  0.00    -0.352 N 
ATOM      5  C   UNL A   1      32.150  25.269  23.050  1.00  0.00     0.251 C 
ATOM      6  O   UNL A   1      32.097  24.190  22.449  1.00  0.00    -0.270 OA
ATOM      7  H   UNL A   1      34.047  24.928  23.288  1.00  0.00     0.163 HD
BRANCH   5   8
ATOM      8  C   UNL A   1      30.908  26.087  23.199  1.00  0.00     0.067 C 
ATOM      9  C   UNL A   1      29.787  29.502  22.174  1.00  0.00     0.061 A 
ATOM     10  C   UNL A   1      28.627  30.290  22.351  1.00  0.00     0.064 A 
ATOM     11  C   UNL A   1      29.771  28.175  22.662  1.00  0.00     0.042 A 
ATOM     12  Cl  UNL A   1      28.587  31.938  21.812  1.00  0.00    -0.082 Cl
ATOM     13  C   UNL A   1      27.472  29.774  22.944  1.00  0.00     0.026 A 
ATOM     14  C   UNL A   1      28.606  27.676  23.264  1.00  0.00     0.130 A 
ATOM     15  C   UNL A   1      30.911  27.261  22.539  1.00  0.00     0.027 C 
ATOM     16  C   UNL A   1      27.462  28.460  23.393  1.00  0.00     0.049 A 
ATOM     17  O   UNL A   1      28.495  26.394  23.726  1.00  0.00    -0.475 OA
ATOM     18  C   UNL A   1      29.733  25.707  24.049  1.00  0.00     0.314 C 
BRANCH   9  19
ATOM     19  N   UNL A   1      30.940  30.076  21.630  1.00  0.00    -0.397 N 
ATOM     20  H   UNL A   1      31.172  29.913  20.687  1.00  0.00     0.156 HD
ATOM     21  H   UNL A   1      31.519  30.643  22.189  1.00  0.00     0.156 HD
ENDBRANCH   9  19
BRANCH  18  22
ATOM     22  C   UNL A   1      30.012  25.849  25.558  1.00  0.00     0.429 C 
ATOM     23  F   UNL A   1      28.874  25.650  26.268  1.00  0.00    -0.167 F 
ATOM     24  F   UNL A   1      30.910  24.944  26.011  1.00  0.00    -0.167 F 
ATOM     25  F   UNL A   1      30.483  27.074  25.885  1.00  0.00    -0.167 F 
ENDBRANCH  18  22
ENDBRANCH   5   8
ENDBRANCH   3   4
ENDBRANCH   2   3
ENDBRANCH   1   2
BRANCH   1  26
ATOM     26  C   UNL A   1      34.259  29.033  25.923  1.00  0.00     0.116 C 
BRANCH  26  27
ATOM     27  N   UNL A   1      33.810  30.286  26.515  1.00  0.00    -0.352 N 
ATOM     28  C   UNL A   1      34.384  30.981  27.551  1.00  0.00     0.251 C 
ATOM     29  H   UNL A   1      32.998  30.682  26.124  1.00  0.00     0.163 HD
ATOM     30  O   UNL A   1      33.851  31.984  28.009  1.00  0.00    -0.269 OA
BRANCH  28  31
ATOM     31  C   UNL A   1      35.642  30.467  28.116  1.00  0.00     0.039 A 
ATOM     32  C   UNL A   1      36.853  30.913  27.585  1.00  0.00     0.014 A 
ATOM     33  C   UNL A   1      35.607  29.615  29.223  1.00  0.00     0.014 A 
ATOM     34  C   UNL A   1      38.045  30.543  28.204  1.00  0.00     0.010 A 
ATOM     35  C   UNL A   1      36.795  29.281  29.864  1.00  0.00     0.010 A 
ATOM     36  C   UNL A   1      38.020  29.744  29.358  1.00  0.00    -0.014 A 
BRANCH  36  37
ATOM     37  C   UNL A   1      39.275  29.339  30.030  1.00  0.00     0.031 A 
ATOM     38  C   UNL A   1      39.708  30.067  31.269  1.00  0.00     0.074 A 
ATOM     39  C   UNL A   1      40.036  28.361  29.504  1.00  0.00     0.049 A 
ATOM     40  N   UNL A   1      40.803  29.928  31.967  1.00  0.00    -0.248 NA
ATOM     41  C   UNL A   1      38.793  31.103  31.780  1.00  0.00     0.031 C 
ATOM     42  C   UNL A   1      39.722  27.602  28.290  1.00  0.00     0.029 A 
ATOM     43  N   UNL A   1      41.236  27.844  29.919  1.00  0.00    -0.354 N 
ATOM     44  C   UNL A   1      40.713  30.857  32.995  1.00  0.00     0.074 A 
ATOM     45  C   UNL A   1      39.479  31.588  32.803  1.00  0.00     0.031 C 
ATOM     46  C   UNL A   1      40.701  26.708  28.068  1.00  0.00     0.029 A 
ATOM     47  C   UNL A   1      41.719  26.848  29.105  1.00  0.00     0.049 A 
ATOM     48  H   UNL A   1      41.707  28.158  30.724  1.00  0.00     0.167 HD
ATOM     49  C   UNL A   1      41.570  31.064  34.022  1.00  0.00     0.037 A 
ATOM     50  C   UNL A   1      42.859  26.135  29.189  1.00  0.00     0.037 A 
ATOM     51  C   UNL A   1      42.785  30.321  34.218  1.00  0.00     0.049 A 
ATOM     52  C   UNL A   1      43.807  26.402  30.326  1.00  0.00     0.074 A 
ATOM     53  C   UNL A   1      43.706  30.432  35.243  1.00  0.00     0.029 A 
ATOM     54  N   UNL A   1      43.242  29.321  33.371  1.00  0.00    -0.354 N 
ATOM     55  N   UNL A   1      43.695  27.265  31.306  1.00  0.00    -0.248 NA
ATOM     56  C   UNL A   1      45.038  25.600  30.368  1.00  0.00     0.031 C 
ATOM     57  C   UNL A   1      44.735  29.514  35.004  1.00  0.00     0.029 A 
ATOM     58  C   UNL A   1      44.438  28.813  33.845  1.00  0.00     0.049 A 
ATOM     59  H   UNL A   1      42.783  29.019  32.554  1.00  0.00     0.167 HD
ATOM     60  C   UNL A   1      44.831  27.100  32.091  1.00  0.00     0.074 A 
ATOM     61  C   UNL A   1      45.612  26.046  31.477  1.00  0.00     0.031 C 
ATOM     62  C   UNL A   1      45.196  27.762  33.216  1.00  0.00     0.037 A 
BRANCH  49  63
ATOM     63  C   UNL A   1      41.207  32.126  35.017  1.00  0.00     0.058 A 
ATOM     64  C   UNL A   1      41.711  33.432  34.901  1.00  0.00     0.135 A 
ATOM     65  C   UNL A   1      40.337  31.848  36.081  1.00  0.00     0.135 A 
ATOM     66  F   UNL A   1      42.566  33.741  33.912  1.00  0.00    -0.206 F 
ATOM     67  C   UNL A   1      41.379  34.421  35.818  1.00  0.00     0.059 A 
ATOM     68  C   UNL A   1      39.975  32.829  37.000  1.00  0.00     0.059 A 
ATOM     69  F   UNL A   1      39.835  30.614  36.240  1.00  0.00    -0.206 F 
ATOM     70  C   UNL A   1      40.510  34.110  36.866  1.00  0.00     0.060 A 
BRANCH  70  71
ATOM     71  S   UNL A   1      40.084  35.409  38.043  1.00  0.00     0.124 S 
ATOM     72  O   UNL A   1      41.270  35.432  38.893  1.00  0.00    -0.237 OA
ATOM     73  O   UNL A   1      39.903  36.570  37.177  1.00  0.00    -0.237 OA
ATOM     74  O   UNL A   1      38.867  34.908  38.675  1.00  0.00    -0.744 OA
ENDBRANCH  70  71
ENDBRANCH  49  63
BRANCH  50  75
ATOM     75  C   UNL A   1      43.159  25.085  28.182  1.00  0.00     0.058 A 
ATOM     76  C   UNL A   1      42.841  23.742  28.430  1.00  0.00     0.135 A 
ATOM     77  C   UNL A   1      43.769  25.400  26.957  1.00  0.00     0.135 A 
ATOM     78  F   UNL A   1      42.265  23.394  29.591  1.00  0.00    -0.206 F 
ATOM     79  C   UNL A   1      43.130  22.743  27.506  1.00  0.00     0.059 A 
ATOM     80  C   UNL A   1      44.051  24.420  26.011  1.00  0.00     0.059 A 
ATOM     81  F   UNL A   1      44.079  26.673  26.668  1.00  0.00    -0.206 F 
ATOM     82  C   UNL A   1      43.736  23.093  26.298  1.00  0.00     0.060 A 
BRANCH  82  83
ATOM     83  S   UNL A   1      44.069  21.793  25.090  1.00  0.00     0.124 S 
ATOM     84  O   UNL A   1      43.899  22.510  23.832  1.00  0.00    -0.237 OA
ATOM     85  O   UNL A   1      45.437  21.405  25.424  1.00  0.00    -0.237 OA
ATOM     86  O   UNL A   1      43.052  20.789  25.389  1.00  0.00    -0.744 OA
ENDBRANCH  82  83
ENDBRANCH  50  75
BRANCH  62  87
ATOM     87  C   UNL A   1      46.488  27.357  33.863  1.00  0.00     0.058 A 
ATOM     88  C   UNL A   1      46.537  26.318  34.803  1.00  0.00     0.135 A 
ATOM     89  C   UNL A   1      47.695  27.969  33.489  1.00  0.00     0.135 A 
ATOM     90  F   UNL A   1      45.408  25.708  35.197  1.00  0.00    -0.206 F 
ATOM     91  C   UNL A   1      47.742  25.903  35.360  1.00  0.00     0.059 A 
ATOM     92  C   UNL A   1      48.912  27.557  34.018  1.00  0.00     0.059 A 
ATOM     93  F   UNL A   1      47.697  28.963  32.586  1.00  0.00    -0.206 F 
ATOM     94  C   UNL A   1      48.925  26.527  34.960  1.00  0.00     0.060 A 
BRANCH  94  95
ATOM     95  S   UNL A   1      50.488  25.947  35.653  1.00  0.00     0.124 S 
ATOM     96  O   UNL A   1      51.452  26.766  34.927  1.00  0.00    -0.237 OA
ATOM     97  O   UNL A   1      50.335  26.255  37.072  1.00  0.00    -0.237 OA
ATOM     98  O   UNL A   1      50.496  24.524  35.325  1.00  0.00    -0.744 OA
ENDBRANCH  94  95
ENDBRANCH  62  87
ENDBRANCH  36  37
ENDBRANCH  28  31
ENDBRANCH  26  27
ENDBRANCH   1  26
TORSDOF 16
ENDMDL
