MODEL 1
REMARK VINA RESULT:     -12.6      0.000      0.000
REMARK SMILES CS(=O)(=O)c1ccc(/C=C(/C(=O)NCCCCNC(=O)c2ccc(-c3c4nc(c(-c5c(F)cc(S(=O)(=O)[O-])cc5F)c5ccc([nH]5)c(-c5c(F)cc(S(=O)(=O)[O-])cc5F)c5nc(c(-c6c(F)cc(S(=O)(=O)[O-])cc6F)c6ccc3[nH]6)C=C5)C=C4)cc2)c2cccc(Br)c2)cc1
REMARK SMILES IDX 16 1 15 2 14 3 13 4 11 5 12 6 10 8 9 9 8 10 5 11 6 12 95 13
REMARK SMILES IDX 7 14 94 15 2 16 1 17 3 18 4 19 87 20 88 21 93 22 89 23 91 24
REMARK SMILES IDX 90 25 92 26 17 27 18 28 19 29 20 31 21 32 22 33 86 34 23 35
REMARK SMILES IDX 85 36 24 37 25 38 26 39 79 40 27 41 84 42 78 43 80 44 28 45
REMARK SMILES IDX 83 46 77 47 76 48 29 50 63 51 42 52 62 53 43 54 46 55 61 56
REMARK SMILES IDX 81 57 44 58 45 59 60 61 82 62 47 63 30 64 31 65 40 66 32 67
REMARK SMILES IDX 33 68 39 69 41 70 34 71 35 72 36 73 37 74 38 75 64 76 65 77
REMARK SMILES IDX 74 78 66 79 67 80 73 81 75 82 68 83 69 84 70 85 71 86 72 87
REMARK SMILES IDX 48 88 49 89 58 90 50 91 51 92 57 93 59 94 52 95 53 96 54 97
REMARK SMILES IDX 55 98 56 99
REMARK H PARENT 13 7 18 30 80 49 46 60
REMARK Flexibility Score: inf
ROOT
ATOM      1  C   UNL A   1      37.685  23.460  25.621  1.00  0.00     0.023 C 
ENDROOT
BRANCH   1   2
ATOM      2  C   UNL A   1      36.235  23.411  26.123  1.00  0.00     0.023 C 
BRANCH   2   3
ATOM      3  C   UNL A   1      35.634  22.004  26.195  1.00  0.00     0.116 C 
BRANCH   3   4
ATOM      4  N   UNL A   1      34.652  21.927  27.258  1.00  0.00    -0.352 N 
ATOM      5  C   UNL A   1      33.437  22.502  27.466  1.00  0.00     0.251 C 
ATOM      6  O   UNL A   1      32.879  22.215  28.529  1.00  0.00    -0.269 OA
ATOM      7  H   UNL A   1      34.922  21.327  27.990  1.00  0.00     0.163 HD
BRANCH   5   8
ATOM      8  C   UNL A   1      32.731  23.380  26.453  1.00  0.00     0.047 C 
ATOM      9  C   UNL A   1      32.100  24.526  26.799  1.00  0.00     0.022 C 
BRANCH   9  10
ATOM     10  C   UNL A   1      31.446  25.538  25.941  1.00  0.00    -0.025 A 
ATOM     11  C   UNL A   1      30.381  27.497  24.238  1.00  0.00     0.067 A 
ATOM     12  C   UNL A   1      29.612  26.384  24.583  1.00  0.00     0.021 A 
ATOM     13  C   UNL A   1      31.653  27.675  24.778  1.00  0.00     0.021 A 
ATOM     14  C   UNL A   1      30.141  25.420  25.446  1.00  0.00     0.009 A 
ATOM     15  C   UNL A   1      32.181  26.693  25.623  1.00  0.00     0.009 A 
BRANCH  11  16
ATOM     16  S   UNL A   1      29.706  28.712  23.131  1.00  0.00     0.175 S 
ATOM     17  C   UNL A   1      27.973  28.336  23.109  1.00  0.00     0.163 C 
ATOM     18  O   UNL A   1      30.235  28.454  21.808  1.00  0.00    -0.224 OA
ATOM     19  O   UNL A   1      29.878  30.011  23.760  1.00  0.00    -0.224 OA
ENDBRANCH  11  16
ENDBRANCH   9  10
BRANCH   8  20
ATOM     20  C   UNL A   1      32.603  22.840  25.073  1.00  0.00    -0.012 A 
ATOM     21  C   UNL A   1      32.819  23.707  23.987  1.00  0.00     0.009 A 
ATOM     22  C   UNL A   1      32.358  21.484  24.821  1.00  0.00     0.024 A 
ATOM     23  C   UNL A   1      32.816  23.231  22.677  1.00  0.00     0.002 A 
ATOM     24  C   UNL A   1      32.380  21.011  23.506  1.00  0.00     0.018 A 
ATOM     25  C   UNL A   1      32.607  21.876  22.435  1.00  0.00     0.016 A 
ATOM     26  Br  UNL A   1      32.146  19.164  23.174  1.00  0.00    -0.051 Br
ENDBRANCH   8  20
ENDBRANCH   5   8
ENDBRANCH   3   4
ENDBRANCH   2   3
ENDBRANCH   1   2
BRANCH   1  27
ATOM     27  C   UNL A   1      38.642  24.316  26.451  1.00  0.00     0.116 C 
BRANCH  27  28
ATOM     28  N   UNL A   1      39.902  24.578  25.776  1.00  0.00    -0.352 N 
ATOM     29  C   UNL A   1      40.895  25.467  26.100  1.00  0.00     0.251 C 
ATOM     30  H   UNL A   1      40.067  24.038  24.969  1.00  0.00     0.163 HD
ATOM     31  O   UNL A   1      41.845  25.612  25.334  1.00  0.00    -0.269 OA
BRANCH  29  32
ATOM     32  C   UNL A   1      40.806  26.275  27.336  1.00  0.00     0.039 A 
ATOM     33  C   UNL A   1      41.631  27.397  27.454  1.00  0.00     0.014 A 
ATOM     34  C   UNL A   1      39.936  25.934  28.375  1.00  0.00     0.014 A 
ATOM     35  C   UNL A   1      41.539  28.210  28.585  1.00  0.00     0.010 A 
ATOM     36  C   UNL A   1      39.802  26.779  29.478  1.00  0.00     0.010 A 
ATOM     37  C   UNL A   1      40.599  27.927  29.591  1.00  0.00    -0.014 A 
BRANCH  37  38
ATOM     38  C   UNL A   1      40.429  28.849  30.742  1.00  0.00     0.031 A 
ATOM     39  C   UNL A   1      41.279  28.710  31.975  1.00  0.00     0.074 A 
ATOM     40  C   UNL A   1      39.469  29.792  30.687  1.00  0.00     0.049 A 
ATOM     41  N   UNL A   1      41.275  29.434  33.064  1.00  0.00    -0.248 NA
ATOM     42  C   UNL A   1      42.243  27.599  31.996  1.00  0.00     0.031 C 
ATOM     43  C   UNL A   1      38.532  29.982  29.575  1.00  0.00     0.029 A 
ATOM     44  N   UNL A   1      39.118  30.770  31.584  1.00  0.00    -0.354 N 
ATOM     45  C   UNL A   1      42.227  28.867  33.902  1.00  0.00     0.074 A 
ATOM     46  C   UNL A   1      42.753  27.707  33.215  1.00  0.00     0.031 C 
ATOM     47  C   UNL A   1      37.737  31.029  29.843  1.00  0.00     0.029 A 
ATOM     48  C   UNL A   1      38.089  31.571  31.150  1.00  0.00     0.049 A 
ATOM     49  H   UNL A   1      39.562  30.886  32.455  1.00  0.00     0.167 HD
ATOM     50  C   UNL A   1      42.639  29.287  35.123  1.00  0.00     0.037 A 
ATOM     51  C   UNL A   1      37.503  32.633  31.736  1.00  0.00     0.037 A 
ATOM     52  C   UNL A   1      42.126  30.454  35.795  1.00  0.00     0.049 A 
ATOM     53  C   UNL A   1      38.008  33.106  33.069  1.00  0.00     0.074 A 
ATOM     54  C   UNL A   1      42.518  30.995  37.007  1.00  0.00     0.029 A 
ATOM     55  N   UNL A   1      41.108  31.263  35.310  1.00  0.00    -0.354 N 
ATOM     56  N   UNL A   1      38.959  32.598  33.817  1.00  0.00    -0.248 NA
ATOM     57  C   UNL A   1      37.374  34.306  33.631  1.00  0.00     0.031 C 
ATOM     58  C   UNL A   1      41.717  32.114  37.269  1.00  0.00     0.029 A 
ATOM     59  C   UNL A   1      40.851  32.292  36.202  1.00  0.00     0.049 A 
ATOM     60  H   UNL A   1      40.636  31.126  34.455  1.00  0.00     0.167 HD
ATOM     61  C   UNL A   1      39.050  33.428  34.929  1.00  0.00     0.074 A 
ATOM     62  C   UNL A   1      38.071  34.480  34.744  1.00  0.00     0.031 C 
ATOM     63  C   UNL A   1      39.868  33.328  36.006  1.00  0.00     0.037 A 
BRANCH  50  64
ATOM     64  C   UNL A   1      43.708  28.481  35.809  1.00  0.00     0.058 A 
ATOM     65  C   UNL A   1      43.387  27.421  36.672  1.00  0.00     0.135 A 
ATOM     66  C   UNL A   1      45.067  28.751  35.584  1.00  0.00     0.135 A 
ATOM     67  F   UNL A   1      42.103  27.129  36.936  1.00  0.00    -0.206 F 
ATOM     68  C   UNL A   1      44.374  26.677  37.310  1.00  0.00     0.059 A 
ATOM     69  C   UNL A   1      46.072  28.004  36.192  1.00  0.00     0.059 A 
ATOM     70  F   UNL A   1      45.431  29.754  34.768  1.00  0.00    -0.206 F 
ATOM     71  C   UNL A   1      45.714  26.978  37.067  1.00  0.00     0.060 A 
BRANCH  71  72
ATOM     72  S   UNL A   1      46.985  26.005  37.903  1.00  0.00     0.124 S 
ATOM     73  O   UNL A   1      48.142  26.241  37.045  1.00  0.00    -0.237 OA
ATOM     74  O   UNL A   1      47.039  26.626  39.223  1.00  0.00    -0.237 OA
ATOM     75  O   UNL A   1      46.446  24.649  37.875  1.00  0.00    -0.744 OA
ENDBRANCH  71  72
ENDBRANCH  50  64
BRANCH  51  76
ATOM     76  C   UNL A   1      36.402  33.348  31.039  1.00  0.00     0.058 A 
ATOM     77  C   UNL A   1      35.080  33.254  31.497  1.00  0.00     0.135 A 
ATOM     78  C   UNL A   1      36.652  34.153  29.918  1.00  0.00     0.135 A 
ATOM     79  F   UNL A   1      34.793  32.493  32.564  1.00  0.00    -0.206 F 
ATOM     80  C   UNL A   1      34.040  33.920  30.860  1.00  0.00     0.059 A 
ATOM     81  C   UNL A   1      35.631  34.848  29.276  1.00  0.00     0.059 A 
ATOM     82  F   UNL A   1      37.904  34.290  29.454  1.00  0.00    -0.206 F 
ATOM     83  C   UNL A   1      34.326  34.717  29.750  1.00  0.00     0.060 A 
BRANCH  83  84
ATOM     84  S   UNL A   1      32.978  35.625  28.962  1.00  0.00     0.124 S 
ATOM     85  O   UNL A   1      32.411  34.606  28.086  1.00  0.00    -0.237 OA
ATOM     86  O   UNL A   1      32.158  36.013  30.105  1.00  0.00    -0.237 OA
ATOM     87  O   UNL A   1      33.666  36.726  28.292  1.00  0.00    -0.744 OA
ENDBRANCH  83  84
ENDBRANCH  51  76
BRANCH  63  88
ATOM     88  C   UNL A   1      39.748  34.399  37.052  1.00  0.00     0.058 A 
ATOM     89  C   UNL A   1      40.370  35.648  36.900  1.00  0.00     0.135 A 
ATOM     90  C   UNL A   1      39.004  34.174  38.222  1.00  0.00     0.135 A 
ATOM     91  F   UNL A   1      41.097  35.912  35.802  1.00  0.00    -0.206 F 
ATOM     92  C   UNL A   1      40.294  36.623  37.890  1.00  0.00     0.059 A 
ATOM     93  C   UNL A   1      38.893  35.144  39.213  1.00  0.00     0.059 A 
ATOM     94  F   UNL A   1      38.379  33.001  38.411  1.00  0.00    -0.206 F 
ATOM     95  C   UNL A   1      39.560  36.357  39.047  1.00  0.00     0.060 A 
BRANCH  95  96
ATOM     96  S   UNL A   1      39.474  37.622  40.332  1.00  0.00     0.124 S 
ATOM     97  O   UNL A   1      40.745  38.313  40.147  1.00  0.00    -0.237 OA
ATOM     98  O   UNL A   1      38.282  38.376  39.957  1.00  0.00    -0.237 OA
ATOM     99  O   UNL A   1      39.354  36.845  41.563  1.00  0.00    -0.744 OA
ENDBRANCH  95  96
ENDBRANCH  63  88
ENDBRANCH  37  38
ENDBRANCH  29  32
ENDBRANCH  27  28
ENDBRANCH   1  27
TORSDOF 17
ENDMDL
MODEL 2
REMARK VINA RESULT:     -12.5      5.218     10.707
REMARK SMILES CS(=O)(=O)c1ccc(/C=C(/C(=O)NCCCCNC(=O)c2ccc(-c3c4nc(c(-c5c(F)cc(S(=O)(=O)[O-])cc5F)c5ccc([nH]5)c(-c5c(F)cc(S(=O)(=O)[O-])cc5F)c5nc(c(-c6c(F)cc(S(=O)(=O)[O-])cc6F)c6ccc3[nH]6)C=C5)C=C4)cc2)c2cccc(Br)c2)cc1
REMARK SMILES IDX 16 1 15 2 14 3 13 4 11 5 12 6 10 8 9 9 8 10 5 11 6 12 95 13
REMARK SMILES IDX 7 14 94 15 2 16 1 17 3 18 4 19 87 20 88 21 93 22 89 23 91 24
REMARK SMILES IDX 90 25 92 26 17 27 18 28 19 29 20 31 21 32 22 33 86 34 23 35
REMARK SMILES IDX 85 36 24 37 25 38 26 39 79 40 27 41 84 42 78 43 80 44 28 45
REMARK SMILES IDX 83 46 77 47 76 48 29 50 63 51 42 52 62 53 43 54 46 55 61 56
REMARK SMILES IDX 81 57 44 58 45 59 60 61 82 62 47 63 30 64 31 65 40 66 32 67
REMARK SMILES IDX 33 68 39 69 41 70 34 71 35 72 36 73 37 74 38 75 64 76 65 77
REMARK SMILES IDX 74 78 66 79 67 80 73 81 75 82 68 83 69 84 70 85 71 86 72 87
REMARK SMILES IDX 48 88 49 89 58 90 50 91 51 92 57 93 59 94 52 95 53 96 54 97
REMARK SMILES IDX 55 98 56 99
REMARK H PARENT 13 7 18 30 80 49 46 60
REMARK Flexibility Score: inf
ROOT
ATOM      1  C   UNL A   1      32.620  27.899  26.176  1.00  0.00     0.023 C 
ENDROOT
BRANCH   1   2
ATOM      2  C   UNL A   1      31.774  26.764  26.770  1.00  0.00     0.023 C 
BRANCH   2   3
ATOM      3  C   UNL A   1      32.008  25.393  26.129  1.00  0.00     0.116 C 
BRANCH   3   4
ATOM      4  N   UNL A   1      31.811  25.464  24.695  1.00  0.00    -0.352 N 
ATOM      5  C   UNL A   1      32.128  24.645  23.656  1.00  0.00     0.251 C 
ATOM      6  O   UNL A   1      31.815  25.054  22.534  1.00  0.00    -0.269 OA
ATOM      7  H   UNL A   1      31.344  26.282  24.410  1.00  0.00     0.163 HD
BRANCH   5   8
ATOM      8  C   UNL A   1      32.749  23.273  23.817  1.00  0.00     0.047 C 
ATOM      9  C   UNL A   1      32.009  22.162  24.033  1.00  0.00     0.022 C 
BRANCH   9  10
ATOM     10  C   UNL A   1      32.435  20.747  24.122  1.00  0.00    -0.025 A 
ATOM     11  C   UNL A   1      33.205  18.074  24.482  1.00  0.00     0.067 A 
ATOM     12  C   UNL A   1      32.626  18.473  23.277  1.00  0.00     0.021 A 
ATOM     13  C   UNL A   1      33.459  19.003  25.489  1.00  0.00     0.021 A 
ATOM     14  C   UNL A   1      32.261  19.811  23.096  1.00  0.00     0.009 A 
ATOM     15  C   UNL A   1      33.069  20.334  25.306  1.00  0.00     0.009 A 
BRANCH  11  16
ATOM     16  S   UNL A   1      33.655  16.370  24.710  1.00  0.00     0.175 S 
ATOM     17  C   UNL A   1      32.206  15.653  25.439  1.00  0.00     0.163 C 
ATOM     18  O   UNL A   1      34.720  16.315  25.689  1.00  0.00    -0.224 OA
ATOM     19  O   UNL A   1      33.829  15.790  23.388  1.00  0.00    -0.224 OA
ENDBRANCH  11  16
ENDBRANCH   9  10
BRANCH   8  20
ATOM     20  C   UNL A   1      34.232  23.216  23.907  1.00  0.00    -0.012 A 
ATOM     21  C   UNL A   1      34.969  22.946  22.740  1.00  0.00     0.009 A 
ATOM     22  C   UNL A   1      34.921  23.505  25.092  1.00  0.00     0.024 A 
ATOM     23  C   UNL A   1      36.362  22.985  22.744  1.00  0.00     0.002 A 
ATOM     24  C   UNL A   1      36.317  23.565  25.083  1.00  0.00     0.018 A 
ATOM     25  C   UNL A   1      37.040  23.308  23.917  1.00  0.00     0.016 A 
ATOM     26  Br  UNL A   1      37.242  24.051  26.659  1.00  0.00    -0.051 Br
ENDBRANCH   8  20
ENDBRANCH   5   8
ENDBRANCH   3   4
ENDBRANCH   2   3
ENDBRANCH   1   2
BRANCH   1  27
ATOM     27  C   UNL A   1      33.804  28.353  27.028  1.00  0.00     0.116 C 
BRANCH  27  28
ATOM     28  N   UNL A   1      33.664  29.715  27.518  1.00  0.00    -0.352 N 
ATOM     29  C   UNL A   1      34.576  30.503  28.173  1.00  0.00     0.251 C 
ATOM     30  H   UNL A   1      32.788  30.132  27.354  1.00  0.00     0.163 HD
ATOM     31  O   UNL A   1      34.225  31.600  28.600  1.00  0.00    -0.269 OA
BRANCH  29  32
ATOM     32  C   UNL A   1      35.957  30.022  28.402  1.00  0.00     0.039 A 
ATOM     33  C   UNL A   1      36.871  30.113  27.350  1.00  0.00     0.014 A 
ATOM     34  C   UNL A   1      36.351  29.477  29.627  1.00  0.00     0.014 A 
ATOM     35  C   UNL A   1      38.195  29.714  27.544  1.00  0.00     0.010 A 
ATOM     36  C   UNL A   1      37.687  29.133  29.839  1.00  0.00     0.010 A 
ATOM     37  C   UNL A   1      38.622  29.253  28.801  1.00  0.00    -0.014 A 
BRANCH  37  38
ATOM     38  C   UNL A   1      40.051  28.928  29.037  1.00  0.00     0.031 A 
ATOM     39  C   UNL A   1      40.984  29.944  29.637  1.00  0.00     0.074 A 
ATOM     40  C   UNL A   1      40.516  27.719  28.668  1.00  0.00     0.049 A 
ATOM     41  N   UNL A   1      42.255  29.826  29.925  1.00  0.00    -0.248 NA
ATOM     42  C   UNL A   1      40.423  31.272  29.929  1.00  0.00     0.031 C 
ATOM     43  C   UNL A   1      39.726  26.673  28.012  1.00  0.00     0.029 A 
ATOM     44  N   UNL A   1      41.764  27.162  28.790  1.00  0.00    -0.354 N 
ATOM     45  C   UNL A   1      42.648  31.061  30.425  1.00  0.00     0.074 A 
ATOM     46  C   UNL A   1      41.493  31.930  30.355  1.00  0.00     0.031 C 
ATOM     47  C   UNL A   1      40.499  25.594  27.818  1.00  0.00     0.029 A 
ATOM     48  C   UNL A   1      41.842  25.875  28.313  1.00  0.00     0.049 A 
ATOM     49  H   UNL A   1      42.531  27.638  29.182  1.00  0.00     0.167 HD
ATOM     50  C   UNL A   1      43.855  31.430  30.918  1.00  0.00     0.037 A 
ATOM     51  C   UNL A   1      42.877  25.013  28.290  1.00  0.00     0.037 A 
ATOM     52  C   UNL A   1      44.998  30.555  31.005  1.00  0.00     0.049 A 
ATOM     53  C   UNL A   1      44.192  25.431  28.884  1.00  0.00     0.074 A 
ATOM     54  C   UNL A   1      46.247  30.817  31.541  1.00  0.00     0.029 A 
ATOM     55  N   UNL A   1      45.029  29.247  30.545  1.00  0.00    -0.354 N 
ATOM     56  N   UNL A   1      44.526  26.582  29.418  1.00  0.00    -0.248 NA
ATOM     57  C   UNL A   1      45.266  24.428  28.888  1.00  0.00     0.031 C 
ATOM     58  C   UNL A   1      47.043  29.677  31.377  1.00  0.00     0.029 A 
ATOM     59  C   UNL A   1      46.278  28.692  30.774  1.00  0.00     0.049 A 
ATOM     60  H   UNL A   1      44.274  28.781  30.117  1.00  0.00     0.167 HD
ATOM     61  C   UNL A   1      45.843  26.436  29.839  1.00  0.00     0.074 A 
ATOM     62  C   UNL A   1      46.236  25.079  29.514  1.00  0.00     0.031 C 
ATOM     63  C   UNL A   1      46.655  27.342  30.438  1.00  0.00     0.037 A 
BRANCH  50  64
ATOM     64  C   UNL A   1      43.999  32.844  31.413  1.00  0.00     0.058 A 
ATOM     65  C   UNL A   1      44.401  33.883  30.558  1.00  0.00     0.135 A 
ATOM     66  C   UNL A   1      43.709  33.171  32.747  1.00  0.00     0.135 A 
ATOM     67  F   UNL A   1      44.707  33.623  29.276  1.00  0.00    -0.206 F 
ATOM     68  C   UNL A   1      44.539  35.189  31.014  1.00  0.00     0.059 A 
ATOM     69  C   UNL A   1      43.815  34.476  33.219  1.00  0.00     0.059 A 
ATOM     70  F   UNL A   1      43.320  32.217  33.608  1.00  0.00    -0.206 F 
ATOM     71  C   UNL A   1      44.247  35.476  32.348  1.00  0.00     0.060 A 
BRANCH  71  72
ATOM     72  S   UNL A   1      44.432  37.177  32.927  1.00  0.00     0.124 S 
ATOM     73  O   UNL A   1      43.530  37.191  34.075  1.00  0.00    -0.237 OA
ATOM     74  O   UNL A   1      45.855  37.250  33.239  1.00  0.00    -0.237 OA
ATOM     75  O   UNL A   1      44.003  37.973  31.781  1.00  0.00    -0.744 OA
ENDBRANCH  71  72
ENDBRANCH  50  64
BRANCH  51  76
ATOM     76  C   UNL A   1      42.692  23.651  27.724  1.00  0.00     0.058 A 
ATOM     77  C   UNL A   1      42.810  23.424  26.346  1.00  0.00     0.135 A 
ATOM     78  C   UNL A   1      42.416  22.551  28.549  1.00  0.00     0.135 A 
ATOM     79  F   UNL A   1      43.070  24.447  25.517  1.00  0.00    -0.206 F 
ATOM     80  C   UNL A   1      42.646  22.156  25.800  1.00  0.00     0.059 A 
ATOM     81  C   UNL A   1      42.270  21.268  28.030  1.00  0.00     0.059 A 
ATOM     82  F   UNL A   1      42.315  22.715  29.877  1.00  0.00    -0.206 F 
ATOM     83  C   UNL A   1      42.378  21.083  26.652  1.00  0.00     0.060 A 
BRANCH  83  84
ATOM     84  S   UNL A   1      42.222  19.429  25.943  1.00  0.00     0.124 S 
ATOM     85  O   UNL A   1      40.782  19.334  25.733  1.00  0.00    -0.237 OA
ATOM     86  O   UNL A   1      43.037  19.532  24.737  1.00  0.00    -0.237 OA
ATOM     87  O   UNL A   1      42.769  18.567  26.987  1.00  0.00    -0.744 OA
ENDBRANCH  83  84
ENDBRANCH  51  76
BRANCH  63  88
ATOM     88  C   UNL A   1      48.039  26.880  30.798  1.00  0.00     0.058 A 
ATOM     89  C   UNL A   1      48.332  26.356  32.066  1.00  0.00     0.135 A 
ATOM     90  C   UNL A   1      49.084  26.966  29.864  1.00  0.00     0.135 A 
ATOM     91  F   UNL A   1      47.369  26.257  32.996  1.00  0.00    -0.206 F 
ATOM     92  C   UNL A   1      49.623  25.970  32.412  1.00  0.00     0.059 A 
ATOM     93  C   UNL A   1      50.377  26.563  30.180  1.00  0.00     0.059 A 
ATOM     94  F   UNL A   1      48.853  27.449  28.633  1.00  0.00    -0.206 F 
ATOM     95  C   UNL A   1      50.642  26.087  31.463  1.00  0.00     0.060 A 
BRANCH  95  96
ATOM     96  S   UNL A   1      52.317  25.595  31.922  1.00  0.00     0.124 S 
ATOM     97  O   UNL A   1      53.075  26.010  30.747  1.00  0.00    -0.237 OA
ATOM     98  O   UNL A   1      52.555  26.369  33.136  1.00  0.00    -0.237 OA
ATOM     99  O   UNL A   1      52.202  24.153  32.119  1.00  0.00    -0.744 OA
ENDBRANCH  95  96
ENDBRANCH  63  88
ENDBRANCH  37  38
ENDBRANCH  29  32
ENDBRANCH  27  28
ENDBRANCH   1  27
TORSDOF 17
ENDMDL
MODEL 3
REMARK VINA RESULT:     -12.4      3.891      9.642
REMARK SMILES CS(=O)(=O)c1ccc(/C=C(/C(=O)NCCCCNC(=O)c2ccc(-c3c4nc(c(-c5c(F)cc(S(=O)(=O)[O-])cc5F)c5ccc([nH]5)c(-c5c(F)cc(S(=O)(=O)[O-])cc5F)c5nc(c(-c6c(F)cc(S(=O)(=O)[O-])cc6F)c6ccc3[nH]6)C=C5)C=C4)cc2)c2cccc(Br)c2)cc1
REMARK SMILES IDX 16 1 15 2 14 3 13 4 11 5 12 6 10 8 9 9 8 10 5 11 6 12 95 13
REMARK SMILES IDX 7 14 94 15 2 16 1 17 3 18 4 19 87 20 88 21 93 22 89 23 91 24
REMARK SMILES IDX 90 25 92 26 17 27 18 28 19 29 20 31 21 32 22 33 86 34 23 35
REMARK SMILES IDX 85 36 24 37 25 38 26 39 79 40 27 41 84 42 78 43 80 44 28 45
REMARK SMILES IDX 83 46 77 47 76 48 29 50 63 51 42 52 62 53 43 54 46 55 61 56
REMARK SMILES IDX 81 57 44 58 45 59 60 61 82 62 47 63 30 64 31 65 40 66 32 67
REMARK SMILES IDX 33 68 39 69 41 70 34 71 35 72 36 73 37 74 38 75 64 76 65 77
REMARK SMILES IDX 74 78 66 79 67 80 73 81 75 82 68 83 69 84 70 85 71 86 72 87
REMARK SMILES IDX 48 88 49 89 58 90 50 91 51 92 57 93 59 94 52 95 53 96 54 97
REMARK SMILES IDX 55 98 56 99
REMARK H PARENT 13 7 18 30 80 49 46 60
REMARK Flexibility Score: inf
ROOT
ATOM      1  C   UNL A   1      34.088  28.408  24.282  1.00  0.00     0.023 C 
ENDROOT
BRANCH   1   2
ATOM      2  C   UNL A   1      33.013  27.467  23.720  1.00  0.00     0.023 C 
BRANCH   2   3
ATOM      3  C   UNL A   1      33.228  25.987  24.048  1.00  0.00     0.116 C 
BRANCH   3   4
ATOM      4  N   UNL A   1      32.500  25.622  25.247  1.00  0.00    -0.352 N 
ATOM      5  C   UNL A   1      32.248  24.444  25.879  1.00  0.00     0.251 C 
ATOM      6  O   UNL A   1      31.549  24.516  26.893  1.00  0.00    -0.269 OA
ATOM      7  H   UNL A   1      32.100  26.397  25.705  1.00  0.00     0.163 HD
BRANCH   5   8
ATOM      8  C   UNL A   1      32.833  23.113  25.453  1.00  0.00     0.047 C 
ATOM      9  C   UNL A   1      32.174  21.944  25.618  1.00  0.00     0.022 C 
BRANCH   9  10
ATOM     10  C   UNL A   1      32.550  20.580  25.185  1.00  0.00    -0.025 A 
ATOM     11  C   UNL A   1      33.245  17.937  24.549  1.00  0.00     0.067 A 
ATOM     12  C   UNL A   1      32.563  18.720  23.616  1.00  0.00     0.021 A 
ATOM     13  C   UNL A   1      33.637  18.474  25.774  1.00  0.00     0.021 A 
ATOM     14  C   UNL A   1      32.235  20.042  23.931  1.00  0.00     0.009 A 
ATOM     15  C   UNL A   1      33.284  19.791  26.088  1.00  0.00     0.009 A 
BRANCH  11  16
ATOM     16  S   UNL A   1      33.647  16.254  24.146  1.00  0.00     0.175 S 
ATOM     17  C   UNL A   1      35.093  15.929  25.120  1.00  0.00     0.163 C 
ATOM     18  O   UNL A   1      34.030  16.207  22.751  1.00  0.00    -0.224 OA
ATOM     19  O   UNL A   1      32.567  15.421  24.650  1.00  0.00    -0.224 OA
ENDBRANCH  11  16
ENDBRANCH   9  10
BRANCH   8  20
ATOM     20  C   UNL A   1      34.251  23.119  25.002  1.00  0.00    -0.012 A 
ATOM     21  C   UNL A   1      34.527  22.880  23.644  1.00  0.00     0.009 A 
ATOM     22  C   UNL A   1      35.308  23.436  25.864  1.00  0.00     0.024 A 
ATOM     23  C   UNL A   1      35.826  22.978  23.147  1.00  0.00     0.002 A 
ATOM     24  C   UNL A   1      36.603  23.555  25.354  1.00  0.00     0.018 A 
ATOM     25  C   UNL A   1      36.867  23.328  24.002  1.00  0.00     0.016 A 
ATOM     26  Br  UNL A   1      38.015  24.078  26.500  1.00  0.00    -0.051 Br
ENDBRANCH   8  20
ENDBRANCH   5   8
ENDBRANCH   3   4
ENDBRANCH   2   3
ENDBRANCH   1   2
BRANCH   1  27
ATOM     27  C   UNL A   1      34.127  28.530  25.805  1.00  0.00     0.116 C 
BRANCH  27  28
ATOM     28  N   UNL A   1      33.776  29.859  26.279  1.00  0.00    -0.352 N 
ATOM     29  C   UNL A   1      34.367  30.619  27.257  1.00  0.00     0.251 C 
ATOM     30  H   UNL A   1      33.004  30.274  25.832  1.00  0.00     0.163 HD
ATOM     31  O   UNL A   1      33.850  31.684  27.583  1.00  0.00    -0.269 OA
BRANCH  29  32
ATOM     32  C   UNL A   1      35.588  30.142  27.943  1.00  0.00     0.039 A 
ATOM     33  C   UNL A   1      36.794  30.163  27.236  1.00  0.00     0.014 A 
ATOM     34  C   UNL A   1      35.556  29.669  29.257  1.00  0.00     0.014 A 
ATOM     35  C   UNL A   1      37.975  29.767  27.867  1.00  0.00     0.010 A 
ATOM     36  C   UNL A   1      36.744  29.329  29.905  1.00  0.00     0.010 A 
ATOM     37  C   UNL A   1      37.965  29.379  29.217  1.00  0.00    -0.014 A 
BRANCH  37  38
ATOM     38  C   UNL A   1      39.234  29.059  29.917  1.00  0.00     0.031 A 
ATOM     39  C   UNL A   1      39.644  29.809  31.154  1.00  0.00     0.074 A 
ATOM     40  C   UNL A   1      40.042  28.110  29.404  1.00  0.00     0.049 A 
ATOM     41  N   UNL A   1      40.708  29.651  31.899  1.00  0.00    -0.248 NA
ATOM     42  C   UNL A   1      38.754  30.892  31.601  1.00  0.00     0.031 C 
ATOM     43  C   UNL A   1      39.789  27.361  28.169  1.00  0.00     0.029 A 
ATOM     44  N   UNL A   1      41.238  27.611  29.853  1.00  0.00    -0.354 N 
ATOM     45  C   UNL A   1      40.622  30.615  32.896  1.00  0.00     0.074 A 
ATOM     46  C   UNL A   1      39.425  31.386  32.632  1.00  0.00     0.031 C 
ATOM     47  C   UNL A   1      40.783  26.480  27.978  1.00  0.00     0.029 A 
ATOM     48  C   UNL A   1      41.752  26.613  29.059  1.00  0.00     0.049 A 
ATOM     49  H   UNL A   1      41.686  27.937  30.667  1.00  0.00     0.167 HD
ATOM     50  C   UNL A   1      41.451  30.824  33.946  1.00  0.00     0.037 A 
ATOM     51  C   UNL A   1      42.873  25.880  29.195  1.00  0.00     0.037 A 
ATOM     52  C   UNL A   1      42.631  30.041  34.216  1.00  0.00     0.049 A 
ATOM     53  C   UNL A   1      43.753  26.100  30.393  1.00  0.00     0.074 A 
ATOM     54  C   UNL A   1      43.505  30.136  35.286  1.00  0.00     0.029 A 
ATOM     55  N   UNL A   1      43.101  29.015  33.410  1.00  0.00    -0.354 N 
ATOM     56  N   UNL A   1      43.618  26.970  31.365  1.00  0.00    -0.248 NA
ATOM     57  C   UNL A   1      44.928  25.227  30.522  1.00  0.00     0.031 C 
ATOM     58  C   UNL A   1      44.520  29.188  35.110  1.00  0.00     0.029 A 
ATOM     59  C   UNL A   1      44.258  28.476  33.950  1.00  0.00     0.049 A 
ATOM     60  H   UNL A   1      42.675  28.713  32.574  1.00  0.00     0.167 HD
ATOM     61  C   UNL A   1      44.680  26.737  32.232  1.00  0.00     0.074 A 
ATOM     62  C   UNL A   1      45.436  25.632  31.677  1.00  0.00     0.031 C 
ATOM     63  C   UNL A   1      45.002  27.381  33.381  1.00  0.00     0.037 A 
BRANCH  50  64
ATOM     64  C   UNL A   1      41.105  31.942  34.892  1.00  0.00     0.058 A 
ATOM     65  C   UNL A   1      41.696  33.211  34.775  1.00  0.00     0.135 A 
ATOM     66  C   UNL A   1      40.155  31.755  35.909  1.00  0.00     0.135 A 
ATOM     67  F   UNL A   1      42.623  33.440  33.830  1.00  0.00    -0.206 F 
ATOM     68  C   UNL A   1      41.380  34.245  35.650  1.00  0.00     0.059 A 
ATOM     69  C   UNL A   1      39.805  32.782  36.780  1.00  0.00     0.059 A 
ATOM     70  F   UNL A   1      39.560  30.562  36.066  1.00  0.00    -0.206 F 
ATOM     71  C   UNL A   1      40.436  34.020  36.652  1.00  0.00     0.060 A 
BRANCH  71  72
ATOM     72  S   UNL A   1      40.037  35.371  37.782  1.00  0.00     0.124 S 
ATOM     73  O   UNL A   1      38.950  34.785  38.561  1.00  0.00    -0.237 OA
ATOM     74  O   UNL A   1      41.294  35.565  38.497  1.00  0.00    -0.237 OA
ATOM     75  O   UNL A   1      39.654  36.459  36.888  1.00  0.00    -0.744 OA
ENDBRANCH  71  72
ENDBRANCH  50  64
BRANCH  51  76
ATOM     76  C   UNL A   1      43.199  24.835  28.189  1.00  0.00     0.058 A 
ATOM     77  C   UNL A   1      42.798  23.505  28.379  1.00  0.00     0.135 A 
ATOM     78  C   UNL A   1      43.896  25.149  27.013  1.00  0.00     0.135 A 
ATOM     79  F   UNL A   1      42.132  23.157  29.490  1.00  0.00    -0.206 F 
ATOM     80  C   UNL A   1      43.090  22.516  27.446  1.00  0.00     0.059 A 
ATOM     81  C   UNL A   1      44.181  24.182  26.054  1.00  0.00     0.059 A 
ATOM     82  F   UNL A   1      44.283  26.412  26.777  1.00  0.00    -0.206 F 
ATOM     83  C   UNL A   1      43.781  22.866  26.284  1.00  0.00     0.060 A 
BRANCH  83  84
ATOM     84  S   UNL A   1      44.107  21.587  25.050  1.00  0.00     0.124 S 
ATOM     85  O   UNL A   1      43.039  20.634  25.326  1.00  0.00    -0.237 OA
ATOM     86  O   UNL A   1      43.993  22.330  23.799  1.00  0.00    -0.237 OA
ATOM     87  O   UNL A   1      45.457  21.141  25.383  1.00  0.00    -0.744 OA
ENDBRANCH  83  84
ENDBRANCH  51  76
BRANCH  63  88
ATOM     88  C   UNL A   1      46.213  26.885  34.121  1.00  0.00     0.058 A 
ATOM     89  C   UNL A   1      47.495  27.388  33.852  1.00  0.00     0.135 A 
ATOM     90  C   UNL A   1      46.089  25.893  35.107  1.00  0.00     0.135 A 
ATOM     91  F   UNL A   1      47.667  28.334  32.915  1.00  0.00    -0.206 F 
ATOM     92  C   UNL A   1      48.620  26.897  34.507  1.00  0.00     0.059 A 
ATOM     93  C   UNL A   1      47.197  25.406  35.792  1.00  0.00     0.059 A 
ATOM     94  F   UNL A   1      44.883  25.387  35.410  1.00  0.00    -0.206 F 
ATOM     95  C   UNL A   1      48.461  25.898  35.469  1.00  0.00     0.060 A 
BRANCH  95  96
ATOM     96  S   UNL A   1      49.926  25.257  36.307  1.00  0.00     0.124 S 
ATOM     97  O   UNL A   1      50.914  26.283  35.993  1.00  0.00    -0.237 OA
ATOM     98  O   UNL A   1      49.494  25.196  37.701  1.00  0.00    -0.237 OA
ATOM     99  O   UNL A   1      50.139  23.961  35.669  1.00  0.00    -0.744 OA
ENDBRANCH  95  96
ENDBRANCH  63  88
ENDBRANCH  37  38
ENDBRANCH  29  32
ENDBRANCH  27  28
ENDBRANCH   1  27
TORSDOF 17
ENDMDL
