MODEL 1
REMARK VINA RESULT:     -12.4      0.000      0.000
REMARK SMILES O=C(NCCCCNC(=O)[C@H]1CSCN1C(=O)c1cnc2ccccn2c1=O)c1ccc(-c2c3nc(c(-c4c(F)cc(S(=O)(=O)[O-])cc4F)c4ccc([nH]4)c(-c4c(F)cc(S(=O)(=O)[O-])cc4F)c4nc(c(-c5c(F)cc(S(=O)(=O)[O-])cc5F)c5ccc2[nH]5)C=C4)C=C3)cc1
REMARK SMILES IDX 5 1 4 2 3 3 1 4 2 5 29 7 30 8 94 9 31 10 93 11 32 12 33 13
REMARK SMILES IDX 34 14 87 15 35 16 92 17 86 18 88 19 36 20 91 21 85 22 84 23
REMARK SMILES IDX 37 25 71 26 50 27 70 28 51 29 54 30 69 31 89 32 52 33 53 34
REMARK SMILES IDX 68 36 90 37 55 38 38 39 39 40 48 41 40 42 41 43 47 44 49 45
REMARK SMILES IDX 42 46 43 47 44 48 45 49 46 50 72 51 73 52 82 53 74 54 75 55
REMARK SMILES IDX 81 56 83 57 76 58 77 59 78 60 79 61 80 62 56 63 57 64 66 65
REMARK SMILES IDX 58 66 59 67 65 68 67 69 60 70 61 71 62 72 63 73 64 74 6 75
REMARK SMILES IDX 7 76 8 77 9 78 10 80 11 81 12 82 15 83 13 84 14 85 16 86
REMARK SMILES IDX 17 87 18 88 19 89 27 90 20 91 26 92 28 93 21 94 25 95 22 96
REMARK SMILES IDX 24 97 23 98
REMARK H PARENT 3 6 88 24 54 35 8 79
REMARK Flexibility Score: inf
ROOT
ATOM      1  C   UNL A   1      33.920  29.240  26.794  1.00  0.00     0.023 C 
ENDROOT
BRANCH   1   2
ATOM      2  C   UNL A   1      35.192  29.215  27.635  1.00  0.00     0.116 C 
BRANCH   2   3
ATOM      3  N   UNL A   1      35.143  30.130  28.764  1.00  0.00    -0.352 N 
ATOM      4  O   UNL A   1      35.883  31.178  30.614  1.00  0.00    -0.269 OA
ATOM      5  C   UNL A   1      36.147  30.497  29.627  1.00  0.00     0.251 C 
ATOM      6  H   UNL A   1      34.266  30.544  28.935  1.00  0.00     0.163 HD
BRANCH   5   7
ATOM      7  C   UNL A   1      37.535  30.050  29.378  1.00  0.00     0.039 A 
ATOM      8  C   UNL A   1      38.356  29.637  30.432  1.00  0.00     0.014 A 
ATOM      9  C   UNL A   1      38.016  30.039  28.067  1.00  0.00     0.014 A 
ATOM     10  C   UNL A   1      39.692  29.328  30.189  1.00  0.00     0.010 A 
ATOM     11  C   UNL A   1      39.338  29.663  27.817  1.00  0.00     0.010 A 
ATOM     12  C   UNL A   1      40.193  29.330  28.879  1.00  0.00    -0.014 A 
BRANCH  12  13
ATOM     13  C   UNL A   1      41.598  28.927  28.618  1.00  0.00     0.031 A 
ATOM     14  C   UNL A   1      42.708  29.938  28.640  1.00  0.00     0.074 A 
ATOM     15  C   UNL A   1      41.860  27.639  28.326  1.00  0.00     0.049 A 
ATOM     16  N   UNL A   1      43.977  29.774  28.368  1.00  0.00    -0.248 NA
ATOM     17  C   UNL A   1      42.344  31.316  29.004  1.00  0.00     0.031 C 
ATOM     18  C   UNL A   1      40.859  26.572  28.258  1.00  0.00     0.029 A 
ATOM     19  N   UNL A   1      43.039  27.010  28.017  1.00  0.00    -0.354 N 
ATOM     20  C   UNL A   1      44.562  31.028  28.503  1.00  0.00     0.074 A 
ATOM     21  C   UNL A   1      43.502  31.947  28.862  1.00  0.00     0.031 C 
ATOM     22  C   UNL A   1      41.465  25.422  27.930  1.00  0.00     0.029 A 
ATOM     23  C   UNL A   1      42.885  25.680  27.711  1.00  0.00     0.049 A 
ATOM     24  H   UNL A   1      43.911  27.468  28.013  1.00  0.00     0.167 HD
ATOM     25  C   UNL A   1      45.862  31.376  28.343  1.00  0.00     0.037 A 
ATOM     26  C   UNL A   1      43.775  24.772  27.268  1.00  0.00     0.037 A 
ATOM     27  C   UNL A   1      46.908  30.448  27.994  1.00  0.00     0.049 A 
ATOM     28  C   UNL A   1      45.207  25.179  27.084  1.00  0.00     0.074 A 
ATOM     29  C   UNL A   1      48.265  30.690  27.862  1.00  0.00     0.029 A 
ATOM     30  N   UNL A   1      46.714  29.104  27.706  1.00  0.00    -0.354 N 
ATOM     31  N   UNL A   1      45.754  26.356  27.267  1.00  0.00    -0.248 NA
ATOM     32  C   UNL A   1      46.143  24.141  26.635  1.00  0.00     0.031 C 
ATOM     33  C   UNL A   1      48.883  29.505  27.450  1.00  0.00     0.029 A 
ATOM     34  C   UNL A   1      47.920  28.511  27.370  1.00  0.00     0.049 A 
ATOM     35  H   UNL A   1      45.846  28.640  27.736  1.00  0.00     0.167 HD
ATOM     36  C   UNL A   1      47.102  26.200  26.972  1.00  0.00     0.074 A 
ATOM     37  C   UNL A   1      47.289  24.810  26.605  1.00  0.00     0.031 C 
ATOM     38  C   UNL A   1      48.093  27.124  27.008  1.00  0.00     0.037 A 
BRANCH  25  39
ATOM     39  C   UNL A   1      46.218  32.828  28.514  1.00  0.00     0.058 A 
ATOM     40  C   UNL A   1      46.560  33.367  29.763  1.00  0.00     0.135 A 
ATOM     41  C   UNL A   1      46.219  33.692  27.406  1.00  0.00     0.135 A 
ATOM     42  F   UNL A   1      46.566  32.589  30.857  1.00  0.00    -0.206 F 
ATOM     43  C   UNL A   1      46.846  34.721  29.918  1.00  0.00     0.059 A 
ATOM     44  C   UNL A   1      46.528  35.044  27.532  1.00  0.00     0.059 A 
ATOM     45  F   UNL A   1      45.907  33.228  26.186  1.00  0.00    -0.206 F 
ATOM     46  C   UNL A   1      46.816  35.553  28.798  1.00  0.00     0.060 A 
BRANCH  46  47
ATOM     47  S   UNL A   1      47.146  37.314  29.018  1.00  0.00     0.124 S 
ATOM     48  O   UNL A   1      46.935  37.471  30.454  1.00  0.00    -0.237 OA
ATOM     49  O   UNL A   1      48.528  37.437  28.565  1.00  0.00    -0.237 OA
ATOM     50  O   UNL A   1      46.151  37.957  28.164  1.00  0.00    -0.744 OA
ENDBRANCH  46  47
ENDBRANCH  25  39
BRANCH  26  51
ATOM     51  C   UNL A   1      43.304  23.397  26.964  1.00  0.00     0.058 A 
ATOM     52  C   UNL A   1      43.084  22.982  25.644  1.00  0.00     0.135 A 
ATOM     53  C   UNL A   1      43.161  22.444  27.986  1.00  0.00     0.135 A 
ATOM     54  F   UNL A   1      43.205  23.858  24.636  1.00  0.00    -0.206 F 
ATOM     55  C   UNL A   1      42.752  21.664  25.345  1.00  0.00     0.059 A 
ATOM     56  C   UNL A   1      42.852  21.117  27.710  1.00  0.00     0.059 A 
ATOM     57  F   UNL A   1      43.382  22.791  29.264  1.00  0.00    -0.206 F 
ATOM     58  C   UNL A   1      42.651  20.736  26.383  1.00  0.00     0.060 A 
BRANCH  58  59
ATOM     59  S   UNL A   1      42.326  19.007  25.974  1.00  0.00     0.124 S 
ATOM     60  O   UNL A   1      42.725  18.334  27.205  1.00  0.00    -0.237 OA
ATOM     61  O   UNL A   1      40.895  19.023  25.688  1.00  0.00    -0.237 OA
ATOM     62  O   UNL A   1      43.185  18.771  24.817  1.00  0.00    -0.744 OA
ENDBRANCH  58  59
ENDBRANCH  26  51
BRANCH  38  63
ATOM     63  C   UNL A   1      49.482  26.668  26.663  1.00  0.00     0.058 A 
ATOM     64  C   UNL A   1      50.305  26.038  27.608  1.00  0.00     0.135 A 
ATOM     65  C   UNL A   1      49.959  26.783  25.347  1.00  0.00     0.135 A 
ATOM     66  F   UNL A   1      49.899  25.915  28.882  1.00  0.00    -0.206 F 
ATOM     67  C   UNL A   1      51.555  25.535  27.260  1.00  0.00     0.059 A 
ATOM     68  C   UNL A   1      51.196  26.268  24.972  1.00  0.00     0.059 A 
ATOM     69  F   UNL A   1      49.207  27.374  24.405  1.00  0.00    -0.206 F 
ATOM     70  C   UNL A   1      51.988  25.647  25.937  1.00  0.00     0.060 A 
BRANCH  70  71
ATOM     71  S   UNL A   1      53.578  24.923  25.482  1.00  0.00     0.124 S 
ATOM     72  O   UNL A   1      53.923  25.695  24.293  1.00  0.00    -0.237 OA
ATOM     73  O   UNL A   1      54.391  25.183  26.665  1.00  0.00    -0.237 OA
ATOM     74  O   UNL A   1      53.256  23.518  25.247  1.00  0.00    -0.744 OA
ENDBRANCH  70  71
ENDBRANCH  38  63
ENDBRANCH  12  13
ENDBRANCH   5   7
ENDBRANCH   2   3
ENDBRANCH   1   2
BRANCH   1  75
ATOM     75  C   UNL A   1      32.646  28.799  27.515  1.00  0.00     0.023 C 
BRANCH  75  76
ATOM     76  C   UNL A   1      31.584  28.170  26.619  1.00  0.00     0.116 C 
BRANCH  76  77
ATOM     77  N   UNL A   1      31.296  26.790  26.967  1.00  0.00    -0.354 N 
ATOM     78  C   UNL A   1      31.764  25.636  26.391  1.00  0.00     0.243 C 
ATOM     79  H   UNL A   1      30.677  26.664  27.722  1.00  0.00     0.163 HD
ATOM     80  O   UNL A   1      31.473  24.562  26.919  1.00  0.00    -0.273 OA
BRANCH  78  81
ATOM     81  C   UNL A   1      32.704  25.749  25.172  1.00  0.00     0.185 C 
ATOM     82  C   UNL A   1      34.135  25.499  25.663  1.00  0.00     0.106 C 
ATOM     83  N   UNL A   1      32.367  24.832  24.078  1.00  0.00    -0.316 N 
ATOM     84  S   UNL A   1      34.863  24.198  24.652  1.00  0.00    -0.138 SA
ATOM     85  C   UNL A   1      33.494  24.138  23.501  1.00  0.00     0.190 C 
BRANCH  83  86
ATOM     86  C   UNL A   1      31.138  24.975  23.455  1.00  0.00     0.262 C 
ATOM     87  O   UNL A   1      30.411  24.005  23.235  1.00  0.00    -0.269 OA
BRANCH  86  88
ATOM     88  C   UNL A   1      30.640  26.341  23.159  1.00  0.00     0.124 A 
ATOM     89  C   UNL A   1      31.418  27.135  22.414  1.00  0.00     0.133 A 
ATOM     90  C   UNL A   1      29.361  26.905  23.639  1.00  0.00     0.270 A 
ATOM     91  N   UNL A   1      31.085  28.388  21.974  1.00  0.00    -0.237 NA
ATOM     92  N   UNL A   1      29.006  28.135  23.092  1.00  0.00    -0.267 N 
ATOM     93  O   UNL A   1      28.666  26.291  24.448  1.00  0.00    -0.268 OA
ATOM     94  C   UNL A   1      29.910  28.832  22.298  1.00  0.00     0.139 A 
ATOM     95  C   UNL A   1      27.746  28.660  23.368  1.00  0.00     0.096 A 
ATOM     96  C   UNL A   1      29.476  30.163  21.788  1.00  0.00     0.048 A 
ATOM     97  C   UNL A   1      27.350  29.841  22.877  1.00  0.00     0.019 A 
ATOM     98  C   UNL A   1      28.248  30.616  22.065  1.00  0.00     0.005 A 
ENDBRANCH  86  88
ENDBRANCH  83  86
ENDBRANCH  78  81
ENDBRANCH  76  77
ENDBRANCH  75  76
ENDBRANCH   1  75
TORSDOF 16
ENDMDL
MODEL 2
REMARK VINA RESULT:     -12.3      6.535     11.712
REMARK SMILES O=C(NCCCCNC(=O)[C@H]1CSCN1C(=O)c1cnc2ccccn2c1=O)c1ccc(-c2c3nc(c(-c4c(F)cc(S(=O)(=O)[O-])cc4F)c4ccc([nH]4)c(-c4c(F)cc(S(=O)(=O)[O-])cc4F)c4nc(c(-c5c(F)cc(S(=O)(=O)[O-])cc5F)c5ccc2[nH]5)C=C4)C=C3)cc1
REMARK SMILES IDX 5 1 4 2 3 3 1 4 2 5 29 7 30 8 94 9 31 10 93 11 32 12 33 13
REMARK SMILES IDX 34 14 87 15 35 16 92 17 86 18 88 19 36 20 91 21 85 22 84 23
REMARK SMILES IDX 37 25 71 26 50 27 70 28 51 29 54 30 69 31 89 32 52 33 53 34
REMARK SMILES IDX 68 36 90 37 55 38 38 39 39 40 48 41 40 42 41 43 47 44 49 45
REMARK SMILES IDX 42 46 43 47 44 48 45 49 46 50 72 51 73 52 82 53 74 54 75 55
REMARK SMILES IDX 81 56 83 57 76 58 77 59 78 60 79 61 80 62 56 63 57 64 66 65
REMARK SMILES IDX 58 66 59 67 65 68 67 69 60 70 61 71 62 72 63 73 64 74 6 75
REMARK SMILES IDX 7 76 8 77 9 78 10 80 11 81 12 82 15 83 13 84 14 85 16 86
REMARK SMILES IDX 17 87 18 88 19 89 27 90 20 91 26 92 28 93 21 94 25 95 22 96
REMARK SMILES IDX 24 97 23 98
REMARK H PARENT 3 6 88 24 54 35 8 79
REMARK Flexibility Score: inf
ROOT
ATOM      1  C   UNL A   1      38.809  22.846  26.383  1.00  0.00     0.023 C 
ENDROOT
BRANCH   1   2
ATOM      2  C   UNL A   1      40.124  23.203  27.070  1.00  0.00     0.116 C 
BRANCH   2   3
ATOM      3  N   UNL A   1      41.123  23.720  26.148  1.00  0.00    -0.352 N 
ATOM      4  O   UNL A   1      42.488  25.250  25.220  1.00  0.00    -0.269 OA
ATOM      5  C   UNL A   1      41.777  24.928  26.167  1.00  0.00     0.251 C 
ATOM      6  H   UNL A   1      41.362  23.120  25.405  1.00  0.00     0.163 HD
BRANCH   5   7
ATOM      7  C   UNL A   1      41.602  25.845  27.314  1.00  0.00     0.039 A 
ATOM      8  C   UNL A   1      40.540  25.681  28.210  1.00  0.00     0.014 A 
ATOM      9  C   UNL A   1      42.522  26.880  27.497  1.00  0.00     0.014 A 
ATOM     10  C   UNL A   1      40.330  26.622  29.214  1.00  0.00     0.010 A 
ATOM     11  C   UNL A   1      42.348  27.784  28.548  1.00  0.00     0.010 A 
ATOM     12  C   UNL A   1      41.236  27.676  29.398  1.00  0.00    -0.014 A 
BRANCH  12  13
ATOM     13  C   UNL A   1      41.049  28.632  30.519  1.00  0.00     0.031 A 
ATOM     14  C   UNL A   1      41.876  28.529  31.768  1.00  0.00     0.074 A 
ATOM     15  C   UNL A   1      40.098  29.580  30.413  1.00  0.00     0.049 A 
ATOM     16  N   UNL A   1      41.799  29.234  32.868  1.00  0.00    -0.248 NA
ATOM     17  C   UNL A   1      42.919  27.492  31.791  1.00  0.00     0.031 C 
ATOM     18  C   UNL A   1      39.222  29.764  29.253  1.00  0.00     0.029 A 
ATOM     19  N   UNL A   1      39.697  30.552  31.292  1.00  0.00    -0.354 N 
ATOM     20  C   UNL A   1      42.763  28.713  33.723  1.00  0.00     0.074 A 
ATOM     21  C   UNL A   1      43.400  27.618  33.020  1.00  0.00     0.031 C 
ATOM     22  C   UNL A   1      38.389  30.787  29.492  1.00  0.00     0.029 A 
ATOM     23  C   UNL A   1      38.632  31.294  30.839  1.00  0.00     0.049 A 
ATOM     24  H   UNL A   1      40.128  30.703  32.164  1.00  0.00     0.167 HD
ATOM     25  C   UNL A   1      43.086  29.114  34.977  1.00  0.00     0.037 A 
ATOM     26  C   UNL A   1      37.907  32.251  31.447  1.00  0.00     0.037 A 
ATOM     27  C   UNL A   1      42.450  30.211  35.662  1.00  0.00     0.049 A 
ATOM     28  C   UNL A   1      38.270  32.672  32.840  1.00  0.00     0.074 A 
ATOM     29  C   UNL A   1      42.741  30.731  36.911  1.00  0.00     0.029 A 
ATOM     30  N   UNL A   1      41.384  30.947  35.163  1.00  0.00    -0.354 N 
ATOM     31  N   UNL A   1      39.219  32.206  33.616  1.00  0.00    -0.248 NA
ATOM     32  C   UNL A   1      37.470  33.746  33.442  1.00  0.00     0.031 C 
ATOM     33  C   UNL A   1      41.822  31.750  37.187  1.00  0.00     0.029 A 
ATOM     34  C   UNL A   1      40.988  31.899  36.090  1.00  0.00     0.049 A 
ATOM     35  H   UNL A   1      40.970  30.814  34.280  1.00  0.00     0.167 HD
ATOM     36  C   UNL A   1      39.143  32.939  34.793  1.00  0.00     0.074 A 
ATOM     37  C   UNL A   1      38.058  33.885  34.624  1.00  0.00     0.031 C 
ATOM     38  C   UNL A   1      39.906  32.837  35.908  1.00  0.00     0.037 A 
BRANCH  25  39
ATOM     39  C   UNL A   1      44.154  28.339  35.700  1.00  0.00     0.058 A 
ATOM     40  C   UNL A   1      45.516  28.650  35.566  1.00  0.00     0.135 A 
ATOM     41  C   UNL A   1      43.807  27.271  36.545  1.00  0.00     0.135 A 
ATOM     42  F   UNL A   1      45.905  29.654  34.766  1.00  0.00    -0.206 F 
ATOM     43  C   UNL A   1      46.499  27.900  36.206  1.00  0.00     0.059 A 
ATOM     44  C   UNL A   1      44.772  26.524  37.215  1.00  0.00     0.059 A 
ATOM     45  F   UNL A   1      42.519  26.936  36.715  1.00  0.00    -0.206 F 
ATOM     46  C   UNL A   1      46.117  26.832  37.019  1.00  0.00     0.060 A 
BRANCH  46  47
ATOM     47  S   UNL A   1      47.403  25.840  37.808  1.00  0.00     0.124 S 
ATOM     48  O   UNL A   1      46.686  25.301  38.959  1.00  0.00    -0.237 OA
ATOM     49  O   UNL A   1      47.743  24.876  36.766  1.00  0.00    -0.237 OA
ATOM     50  O   UNL A   1      48.444  26.815  38.118  1.00  0.00    -0.744 OA
ENDBRANCH  46  47
ENDBRANCH  25  39
BRANCH  26  51
ATOM     51  C   UNL A   1      36.759  32.850  30.719  1.00  0.00     0.058 A 
ATOM     52  C   UNL A   1      35.443  32.465  31.001  1.00  0.00     0.135 A 
ATOM     53  C   UNL A   1      36.958  33.891  29.798  1.00  0.00     0.135 A 
ATOM     54  F   UNL A   1      35.205  31.473  31.872  1.00  0.00    -0.206 F 
ATOM     55  C   UNL A   1      34.358  33.101  30.404  1.00  0.00     0.059 A 
ATOM     56  C   UNL A   1      35.891  34.557  29.207  1.00  0.00     0.059 A 
ATOM     57  F   UNL A   1      38.202  34.308  29.512  1.00  0.00    -0.206 F 
ATOM     58  C   UNL A   1      34.592  34.154  29.518  1.00  0.00     0.060 A 
BRANCH  58  59
ATOM     59  S   UNL A   1      33.176  35.043  28.834  1.00  0.00     0.124 S 
ATOM     60  O   UNL A   1      32.422  35.366  30.041  1.00  0.00    -0.237 OA
ATOM     61  O   UNL A   1      33.817  36.168  28.160  1.00  0.00    -0.237 OA
ATOM     62  O   UNL A   1      32.560  34.060  27.947  1.00  0.00    -0.744 OA
ENDBRANCH  58  59
ENDBRANCH  26  51
BRANCH  38  63
ATOM     63  C   UNL A   1      39.619  33.787  37.037  1.00  0.00     0.058 A 
ATOM     64  C   UNL A   1      38.753  33.442  38.085  1.00  0.00     0.135 A 
ATOM     65  C   UNL A   1      40.290  35.018  37.115  1.00  0.00     0.135 A 
ATOM     66  F   UNL A   1      38.080  32.281  38.051  1.00  0.00    -0.206 F 
ATOM     67  C   UNL A   1      38.562  34.286  39.174  1.00  0.00     0.059 A 
ATOM     68  C   UNL A   1      40.131  35.868  38.205  1.00  0.00     0.059 A 
ATOM     69  F   UNL A   1      41.134  35.390  36.139  1.00  0.00    -0.206 F 
ATOM     70  C   UNL A   1      39.262  35.494  39.229  1.00  0.00     0.060 A 
BRANCH  70  71
ATOM     71  S   UNL A   1      39.064  36.545  40.684  1.00  0.00     0.124 S 
ATOM     72  O   UNL A   1      40.449  36.722  41.109  1.00  0.00    -0.237 OA
ATOM     73  O   UNL A   1      38.415  37.728  40.130  1.00  0.00    -0.237 OA
ATOM     74  O   UNL A   1      38.232  35.739  41.574  1.00  0.00    -0.744 OA
ENDBRANCH  70  71
ENDBRANCH  38  63
ENDBRANCH  12  13
ENDBRANCH   5   7
ENDBRANCH   2   3
ENDBRANCH   1   2
BRANCH   1  75
ATOM     75  C   UNL A   1      37.825  24.002  26.206  1.00  0.00     0.023 C 
BRANCH  75  76
ATOM     76  C   UNL A   1      36.436  23.598  25.723  1.00  0.00     0.116 C 
BRANCH  76  77
ATOM     77  N   UNL A   1      35.651  22.936  26.748  1.00  0.00    -0.354 N 
ATOM     78  C   UNL A   1      34.696  21.961  26.614  1.00  0.00     0.243 C 
ATOM     79  H   UNL A   1      35.828  23.230  27.672  1.00  0.00     0.163 HD
ATOM     80  O   UNL A   1      34.228  21.459  27.637  1.00  0.00    -0.273 OA
BRANCH  78  81
ATOM     81  C   UNL A   1      34.330  21.479  25.194  1.00  0.00     0.185 C 
ATOM     82  C   UNL A   1      35.014  20.126  24.970  1.00  0.00     0.106 C 
ATOM     83  N   UNL A   1      32.885  21.371  24.961  1.00  0.00    -0.316 N 
ATOM     84  S   UNL A   1      33.765  18.936  24.450  1.00  0.00    -0.138 SA
ATOM     85  C   UNL A   1      32.469  20.160  24.293  1.00  0.00     0.190 C 
BRANCH  83  86
ATOM     86  C   UNL A   1      32.118  22.522  25.037  1.00  0.00     0.262 C 
ATOM     87  O   UNL A   1      31.100  22.574  25.729  1.00  0.00    -0.269 OA
BRANCH  86  88
ATOM     88  C   UNL A   1      32.606  23.752  24.364  1.00  0.00     0.124 A 
ATOM     89  C   UNL A   1      32.654  23.747  23.027  1.00  0.00     0.133 A 
ATOM     90  C   UNL A   1      33.063  24.976  25.053  1.00  0.00     0.270 A 
ATOM     91  N   UNL A   1      32.994  24.815  22.240  1.00  0.00    -0.237 NA
ATOM     92  N   UNL A   1      33.302  26.073  24.230  1.00  0.00    -0.267 N 
ATOM     93  O   UNL A   1      33.188  25.001  26.277  1.00  0.00    -0.268 OA
ATOM     94  C   UNL A   1      33.280  25.925  22.847  1.00  0.00     0.139 A 
ATOM     95  C   UNL A   1      33.581  27.308  24.810  1.00  0.00     0.096 A 
ATOM     96  C   UNL A   1      33.591  27.133  22.032  1.00  0.00     0.048 A 
ATOM     97  C   UNL A   1      33.826  28.397  24.072  1.00  0.00     0.019 A 
ATOM     98  C   UNL A   1      33.835  28.302  22.637  1.00  0.00     0.005 A 
ENDBRANCH  86  88
ENDBRANCH  83  86
ENDBRANCH  78  81
ENDBRANCH  76  77
ENDBRANCH  75  76
ENDBRANCH   1  75
TORSDOF 16
ENDMDL
MODEL 3
REMARK VINA RESULT:     -12.2      1.554      3.514
REMARK SMILES O=C(NCCCCNC(=O)[C@H]1CSCN1C(=O)c1cnc2ccccn2c1=O)c1ccc(-c2c3nc(c(-c4c(F)cc(S(=O)(=O)[O-])cc4F)c4ccc([nH]4)c(-c4c(F)cc(S(=O)(=O)[O-])cc4F)c4nc(c(-c5c(F)cc(S(=O)(=O)[O-])cc5F)c5ccc2[nH]5)C=C4)C=C3)cc1
REMARK SMILES IDX 5 1 4 2 3 3 1 4 2 5 29 7 30 8 94 9 31 10 93 11 32 12 33 13
REMARK SMILES IDX 34 14 87 15 35 16 92 17 86 18 88 19 36 20 91 21 85 22 84 23
REMARK SMILES IDX 37 25 71 26 50 27 70 28 51 29 54 30 69 31 89 32 52 33 53 34
REMARK SMILES IDX 68 36 90 37 55 38 38 39 39 40 48 41 40 42 41 43 47 44 49 45
REMARK SMILES IDX 42 46 43 47 44 48 45 49 46 50 72 51 73 52 82 53 74 54 75 55
REMARK SMILES IDX 81 56 83 57 76 58 77 59 78 60 79 61 80 62 56 63 57 64 66 65
REMARK SMILES IDX 58 66 59 67 65 68 67 69 60 70 61 71 62 72 63 73 64 74 6 75
REMARK SMILES IDX 7 76 8 77 9 78 10 80 11 81 12 82 15 83 13 84 14 85 16 86
REMARK SMILES IDX 17 87 18 88 19 89 27 90 20 91 26 92 28 93 21 94 25 95 22 96
REMARK SMILES IDX 24 97 23 98
REMARK H PARENT 3 6 88 24 54 35 8 79
REMARK Flexibility Score: inf
ROOT
ATOM      1  C   UNL A   1      34.859  31.804  27.806  1.00  0.00     0.023 C 
ENDROOT
BRANCH   1   2
ATOM      2  C   UNL A   1      35.985  32.038  28.808  1.00  0.00     0.116 C 
BRANCH   2   3
ATOM      3  N   UNL A   1      35.731  31.418  30.099  1.00  0.00    -0.352 N 
ATOM      4  O   UNL A   1      36.060  29.997  31.814  1.00  0.00    -0.269 OA
ATOM      5  C   UNL A   1      36.505  30.523  30.798  1.00  0.00     0.251 C 
ATOM      6  H   UNL A   1      34.885  31.675  30.533  1.00  0.00     0.163 HD
BRANCH   5   7
ATOM      7  C   UNL A   1      37.858  30.178  30.311  1.00  0.00     0.039 A 
ATOM      8  C   UNL A   1      38.094  29.942  28.952  1.00  0.00     0.014 A 
ATOM      9  C   UNL A   1      38.907  30.098  31.231  1.00  0.00     0.014 A 
ATOM     10  C   UNL A   1      39.349  29.510  28.533  1.00  0.00     0.010 A 
ATOM     11  C   UNL A   1      40.182  29.729  30.797  1.00  0.00     0.010 A 
ATOM     12  C   UNL A   1      40.407  29.407  29.449  1.00  0.00    -0.014 A 
BRANCH  12  13
ATOM     13  C   UNL A   1      41.762  29.018  28.982  1.00  0.00     0.031 A 
ATOM     14  C   UNL A   1      42.860  30.036  28.868  1.00  0.00     0.074 A 
ATOM     15  C   UNL A   1      41.985  27.738  28.629  1.00  0.00     0.049 A 
ATOM     16  N   UNL A   1      44.079  29.886  28.414  1.00  0.00    -0.248 NA
ATOM     17  C   UNL A   1      42.547  31.404  29.308  1.00  0.00     0.031 C 
ATOM     18  C   UNL A   1      40.988  26.666  28.683  1.00  0.00     0.029 A 
ATOM     19  N   UNL A   1      43.110  27.124  28.143  1.00  0.00    -0.354 N 
ATOM     20  C   UNL A   1      44.671  31.141  28.491  1.00  0.00     0.074 A 
ATOM     21  C   UNL A   1      43.670  32.046  29.016  1.00  0.00     0.031 C 
ATOM     22  C   UNL A   1      41.546  25.527  28.248  1.00  0.00     0.029 A 
ATOM     23  C   UNL A   1      42.919  25.798  27.834  1.00  0.00     0.049 A 
ATOM     24  H   UNL A   1      43.971  27.588  28.024  1.00  0.00     0.167 HD
ATOM     25  C   UNL A   1      45.934  31.501  28.155  1.00  0.00     0.037 A 
ATOM     26  C   UNL A   1      43.740  24.906  27.251  1.00  0.00     0.037 A 
ATOM     27  C   UNL A   1      46.924  30.587  27.641  1.00  0.00     0.049 A 
ATOM     28  C   UNL A   1      45.129  25.326  26.873  1.00  0.00     0.074 A 
ATOM     29  C   UNL A   1      48.247  30.841  27.323  1.00  0.00     0.029 A 
ATOM     30  N   UNL A   1      46.695  29.248  27.355  1.00  0.00    -0.354 N 
ATOM     31  N   UNL A   1      45.694  26.503  27.001  1.00  0.00    -0.248 NA
ATOM     32  C   UNL A   1      45.996  24.303  26.274  1.00  0.00     0.031 C 
ATOM     33  C   UNL A   1      48.804  29.668  26.802  1.00  0.00     0.029 A 
ATOM     34  C   UNL A   1      47.844  28.669  26.839  1.00  0.00     0.049 A 
ATOM     35  H   UNL A   1      45.843  28.777  27.500  1.00  0.00     0.167 HD
ATOM     36  C   UNL A   1      46.986  26.362  26.513  1.00  0.00     0.074 A 
ATOM     37  C   UNL A   1      47.124  24.981  26.095  1.00  0.00     0.031 C 
ATOM     38  C   UNL A   1      47.968  27.291  26.427  1.00  0.00     0.037 A 
BRANCH  25  39
ATOM     39  C   UNL A   1      46.305  32.951  28.303  1.00  0.00     0.058 A 
ATOM     40  C   UNL A   1      46.139  33.871  27.256  1.00  0.00     0.135 A 
ATOM     41  C   UNL A   1      46.832  33.429  29.515  1.00  0.00     0.135 A 
ATOM     42  F   UNL A   1      45.649  33.468  26.073  1.00  0.00    -0.206 F 
ATOM     43  C   UNL A   1      46.525  35.202  27.389  1.00  0.00     0.059 A 
ATOM     44  C   UNL A   1      47.200  34.761  29.679  1.00  0.00     0.059 A 
ATOM     45  F   UNL A   1      47.005  32.594  30.552  1.00  0.00    -0.206 F 
ATOM     46  C   UNL A   1      47.065  35.635  28.601  1.00  0.00     0.060 A 
BRANCH  46  47
ATOM     47  S   UNL A   1      47.603  37.352  28.747  1.00  0.00     0.124 S 
ATOM     48  O   UNL A   1      46.361  38.068  28.470  1.00  0.00    -0.237 OA
ATOM     49  O   UNL A   1      48.076  37.419  30.126  1.00  0.00    -0.237 OA
ATOM     50  O   UNL A   1      48.638  37.473  27.725  1.00  0.00    -0.744 OA
ENDBRANCH  46  47
ENDBRANCH  25  39
BRANCH  26  51
ATOM     51  C   UNL A   1      43.236  23.534  26.988  1.00  0.00     0.058 A 
ATOM     52  C   UNL A   1      42.924  23.114  25.689  1.00  0.00     0.135 A 
ATOM     53  C   UNL A   1      43.152  22.589  28.024  1.00  0.00     0.135 A 
ATOM     54  F   UNL A   1      42.986  23.982  24.669  1.00  0.00    -0.206 F 
ATOM     55  C   UNL A   1      42.558  21.797  25.422  1.00  0.00     0.059 A 
ATOM     56  C   UNL A   1      42.812  21.264  27.778  1.00  0.00     0.059 A 
ATOM     57  F   UNL A   1      43.461  22.942  29.282  1.00  0.00    -0.206 F 
ATOM     58  C   UNL A   1      42.518  20.877  26.471  1.00  0.00     0.060 A 
BRANCH  58  59
ATOM     59  S   UNL A   1      42.149  19.149  26.096  1.00  0.00     0.124 S 
ATOM     60  O   UNL A   1      40.716  19.206  25.832  1.00  0.00    -0.237 OA
ATOM     61  O   UNL A   1      43.003  18.897  24.940  1.00  0.00    -0.237 OA
ATOM     62  O   UNL A   1      42.540  18.451  27.317  1.00  0.00    -0.744 OA
ENDBRANCH  58  59
ENDBRANCH  26  51
BRANCH  38  63
ATOM     63  C   UNL A   1      49.296  26.852  25.879  1.00  0.00     0.058 A 
ATOM     64  C   UNL A   1      49.638  27.054  24.534  1.00  0.00     0.135 A 
ATOM     65  C   UNL A   1      50.269  26.306  26.731  1.00  0.00     0.135 A 
ATOM     66  F   UNL A   1      48.739  27.563  23.676  1.00  0.00    -0.206 F 
ATOM     67  C   UNL A   1      50.903  26.730  24.051  1.00  0.00     0.059 A 
ATOM     68  C   UNL A   1      51.546  25.995  26.275  1.00  0.00     0.059 A 
ATOM     69  F   UNL A   1      49.991  26.098  28.028  1.00  0.00    -0.206 F 
ATOM     70  C   UNL A   1      51.853  26.209  24.932  1.00  0.00     0.060 A 
BRANCH  70  71
ATOM     71  S   UNL A   1      53.513  25.864  24.312  1.00  0.00     0.124 S 
ATOM     72  O   UNL A   1      53.319  25.984  22.870  1.00  0.00    -0.237 OA
ATOM     73  O   UNL A   1      54.306  26.919  24.934  1.00  0.00    -0.237 OA
ATOM     74  O   UNL A   1      53.784  24.515  24.799  1.00  0.00    -0.744 OA
ENDBRANCH  70  71
ENDBRANCH  38  63
ENDBRANCH  12  13
ENDBRANCH   5   7
ENDBRANCH   2   3
ENDBRANCH   1   2
BRANCH   1  75
ATOM     75  C   UNL A   1      34.436  30.347  27.619  1.00  0.00     0.023 C 
BRANCH  75  76
ATOM     76  C   UNL A   1      33.239  30.136  26.697  1.00  0.00     0.116 C 
BRANCH  76  77
ATOM     77  N   UNL A   1      33.612  29.605  25.399  1.00  0.00    -0.354 N 
ATOM     78  C   UNL A   1      32.821  29.021  24.442  1.00  0.00     0.243 C 
ATOM     79  H   UNL A   1      34.569  29.672  25.173  1.00  0.00     0.163 HD
ATOM     80  O   UNL A   1      33.332  28.736  23.358  1.00  0.00    -0.273 OA
BRANCH  78  81
ATOM     81  C   UNL A   1      31.318  28.838  24.740  1.00  0.00     0.185 C 
ATOM     82  C   UNL A   1      30.535  29.413  23.555  1.00  0.00     0.106 C 
ATOM     83  N   UNL A   1      30.929  27.445  24.986  1.00  0.00    -0.316 N 
ATOM     84  S   UNL A   1      29.393  28.153  22.961  1.00  0.00    -0.138 SA
ATOM     85  C   UNL A   1      29.725  27.023  24.309  1.00  0.00     0.190 C 
BRANCH  83  86
ATOM     86  C   UNL A   1      31.478  26.792  26.078  1.00  0.00     0.262 C 
ATOM     87  O   UNL A   1      31.259  27.168  27.231  1.00  0.00    -0.269 OA
BRANCH  86  88
ATOM     88  C   UNL A   1      32.246  25.542  25.852  1.00  0.00     0.124 A 
ATOM     89  C   UNL A   1      31.582  24.384  25.944  1.00  0.00     0.133 A 
ATOM     90  C   UNL A   1      33.692  25.473  25.554  1.00  0.00     0.270 A 
ATOM     91  N   UNL A   1      32.107  23.145  25.685  1.00  0.00    -0.237 NA
ATOM     92  N   UNL A   1      34.170  24.214  25.196  1.00  0.00    -0.267 N 
ATOM     93  O   UNL A   1      34.394  26.482  25.603  1.00  0.00    -0.268 OA
ATOM     94  C   UNL A   1      33.347  23.099  25.307  1.00  0.00     0.139 A 
ATOM     95  C   UNL A   1      35.481  24.092  24.747  1.00  0.00     0.096 A 
ATOM     96  C   UNL A   1      33.943  21.781  24.950  1.00  0.00     0.048 A 
ATOM     97  C   UNL A   1      36.000  22.909  24.394  1.00  0.00     0.019 A 
ATOM     98  C   UNL A   1      35.204  21.717  24.505  1.00  0.00     0.005 A 
ENDBRANCH  86  88
ENDBRANCH  83  86
ENDBRANCH  78  81
ENDBRANCH  76  77
ENDBRANCH  75  76
ENDBRANCH   1  75
TORSDOF 16
ENDMDL
