MODEL 1
REMARK VINA RESULT:     -11.7      0.000      0.000
REMARK SMILES N#C/C(=C\c1ccc(-c2cc(C(F)(F)F)ccc2Cl)o1)C(=O)NCCCCNC(=O)c1ccc(-c2c3nc(c(-c4c(F)cc(S(=O)(=O)[O-])cc4F)c4ccc([nH]4)c(-c4c(F)cc(S(=O)(=O)[O-])cc4F)c4nc(c(-c5c(F)cc(S(=O)(=O)[O-])cc5F)c5ccc2[nH]5)C=C4)C=C3)cc1
REMARK SMILES IDX 25 1 24 2 23 3 21 4 22 5 3 7 4 8 2 9 1 10 5 11 6 12 20 13
REMARK SMILES IDX 7 14 8 15 9 16 10 17 18 18 11 19 17 20 19 21 16 22 12 23
REMARK SMILES IDX 13 24 14 25 15 26 26 27 27 28 28 29 29 30 30 32 31 33 32 34
REMARK SMILES IDX 96 35 33 36 95 37 34 38 35 39 36 40 89 41 37 42 94 43 88 44
REMARK SMILES IDX 90 45 38 46 93 47 87 48 86 49 39 51 73 52 52 53 72 54 53 55
REMARK SMILES IDX 56 56 71 57 91 58 54 59 55 60 70 62 92 63 57 64 40 65 41 66
REMARK SMILES IDX 50 67 42 68 43 69 49 70 51 71 44 72 45 73 46 74 47 75 48 76
REMARK SMILES IDX 74 77 75 78 84 79 76 80 77 81 83 82 85 83 78 84 79 85 80 86
REMARK SMILES IDX 81 87 82 88 58 89 59 90 68 91 60 92 61 93 67 94 69 95 62 96
REMARK SMILES IDX 63 97 64 98 65 99 66 100
REMARK H PARENT 23 6 28 31 90 50 56 61
REMARK Flexibility Score: inf
ROOT
ATOM      1  C   UNL A   1      34.154  32.021  27.993  1.00  0.00     0.023 C 
ENDROOT
BRANCH   1   2
ATOM      2  C   UNL A   1      33.723  30.688  27.372  1.00  0.00     0.116 C 
BRANCH   2   3
ATOM      3  N   UNL A   1      32.580  30.856  26.494  1.00  0.00    -0.351 N 
ATOM      4  C   UNL A   1      31.859  29.998  25.723  1.00  0.00     0.262 C 
ATOM      5  O   UNL A   1      30.904  30.474  25.107  1.00  0.00    -0.268 OA
ATOM      6  H   UNL A   1      32.258  31.786  26.448  1.00  0.00     0.163 HD
BRANCH   4   7
ATOM      7  C   UNL A   1      32.157  28.546  25.585  1.00  0.00     0.120 C 
ATOM      8  C   UNL A   1      32.219  27.597  26.553  1.00  0.00     0.072 C 
BRANCH   7   9
ATOM      9  C   UNL A   1      32.494  28.038  24.193  1.00  0.00     0.105 C 
ATOM     10  N   UNL A   1      32.773  27.617  23.038  1.00  0.00    -0.192 NA
ENDBRANCH   7   9
BRANCH   8  11
ATOM     11  C   UNL A   1      32.560  26.220  26.305  1.00  0.00     0.129 A 
ATOM     12  C   UNL A   1      31.751  25.086  26.314  1.00  0.00     0.051 A 
ATOM     13  O   UNL A   1      33.838  25.802  25.959  1.00  0.00    -0.457 OA
ATOM     14  C   UNL A   1      32.555  23.962  26.029  1.00  0.00     0.051 A 
ATOM     15  C   UNL A   1      33.820  24.445  25.789  1.00  0.00     0.136 A 
BRANCH  15  16
ATOM     16  C   UNL A   1      35.061  23.789  25.385  1.00  0.00     0.036 A 
ATOM     17  C   UNL A   1      36.266  24.108  26.038  1.00  0.00     0.026 A 
ATOM     18  C   UNL A   1      35.077  22.770  24.415  1.00  0.00     0.052 A 
ATOM     19  C   UNL A   1      37.461  23.412  25.753  1.00  0.00     0.056 A 
ATOM     20  C   UNL A   1      36.261  22.086  24.116  1.00  0.00     0.022 A 
ATOM     21  Cl  UNL A   1      33.664  22.300  23.530  1.00  0.00    -0.084 Cl
ATOM     22  C   UNL A   1      37.443  22.400  24.784  1.00  0.00     0.014 A 
BRANCH  19  23
ATOM     23  C   UNL A   1      38.737  23.739  26.495  1.00  0.00     0.416 C 
ATOM     24  F   UNL A   1      39.508  24.645  25.836  1.00  0.00    -0.166 F 
ATOM     25  F   UNL A   1      38.502  24.265  27.729  1.00  0.00    -0.166 F 
ATOM     26  F   UNL A   1      39.534  22.653  26.703  1.00  0.00    -0.166 F 
ENDBRANCH  19  23
ENDBRANCH  15  16
ENDBRANCH   8  11
ENDBRANCH   4   7
ENDBRANCH   2   3
ENDBRANCH   1   2
BRANCH   1  27
ATOM     27  C   UNL A   1      35.655  32.312  27.879  1.00  0.00     0.023 C 
BRANCH  27  28
ATOM     28  C   UNL A   1      36.344  32.653  29.197  1.00  0.00     0.116 C 
BRANCH  28  29
ATOM     29  N   UNL A   1      35.941  31.798  30.301  1.00  0.00    -0.352 N 
ATOM     30  C   UNL A   1      36.619  30.723  30.834  1.00  0.00     0.251 C 
ATOM     31  H   UNL A   1      35.076  32.013  30.721  1.00  0.00     0.163 HD
ATOM     32  O   UNL A   1      36.099  30.031  31.692  1.00  0.00    -0.269 OA
BRANCH  30  33
ATOM     33  C   UNL A   1      37.965  30.398  30.313  1.00  0.00     0.039 A 
ATOM     34  C   UNL A   1      39.036  30.351  31.208  1.00  0.00     0.014 A 
ATOM     35  C   UNL A   1      38.162  30.115  28.960  1.00  0.00     0.014 A 
ATOM     36  C   UNL A   1      40.299  29.968  30.751  1.00  0.00     0.010 A 
ATOM     37  C   UNL A   1      39.402  29.661  28.521  1.00  0.00     0.010 A 
ATOM     38  C   UNL A   1      40.485  29.593  29.409  1.00  0.00    -0.014 A 
BRANCH  38  39
ATOM     39  C   UNL A   1      41.814  29.156  28.912  1.00  0.00     0.031 A 
ATOM     40  C   UNL A   1      42.946  30.145  28.829  1.00  0.00     0.074 A 
ATOM     41  C   UNL A   1      41.984  27.890  28.487  1.00  0.00     0.049 A 
ATOM     42  N   UNL A   1      44.166  29.969  28.393  1.00  0.00    -0.248 NA
ATOM     43  C   UNL A   1      42.658  31.522  29.264  1.00  0.00     0.031 C 
ATOM     44  C   UNL A   1      40.946  26.856  28.463  1.00  0.00     0.029 A 
ATOM     45  N   UNL A   1      43.094  27.255  27.988  1.00  0.00    -0.354 N 
ATOM     46  C   UNL A   1      44.782  31.212  28.479  1.00  0.00     0.074 A 
ATOM     47  C   UNL A   1      43.787  32.145  28.957  1.00  0.00     0.031 C 
ATOM     48  C   UNL A   1      41.478  25.709  28.009  1.00  0.00     0.029 A 
ATOM     49  C   UNL A   1      42.883  25.931  27.681  1.00  0.00     0.049 A 
ATOM     50  H   UNL A   1      43.960  27.705  27.862  1.00  0.00     0.167 HD
ATOM     51  C   UNL A   1      46.067  31.541  28.208  1.00  0.00     0.037 A 
ATOM     52  C   UNL A   1      43.730  25.002  27.198  1.00  0.00     0.037 A 
ATOM     53  C   UNL A   1      47.063  30.597  27.774  1.00  0.00     0.049 A 
ATOM     54  C   UNL A   1      45.163  25.383  26.939  1.00  0.00     0.074 A 
ATOM     55  C   UNL A   1      48.411  30.810  27.547  1.00  0.00     0.029 A 
ATOM     56  N   UNL A   1      46.819  29.258  27.505  1.00  0.00    -0.354 N 
ATOM     57  N   UNL A   1      45.748  26.547  27.096  1.00  0.00    -0.248 NA
ATOM     58  C   UNL A   1      46.052  24.323  26.449  1.00  0.00     0.031 C 
ATOM     59  C   UNL A   1      48.975  29.607  27.106  1.00  0.00     0.029 A 
ATOM     60  C   UNL A   1      47.987  28.635  27.100  1.00  0.00     0.049 A 
ATOM     61  H   UNL A   1      45.943  28.816  27.590  1.00  0.00     0.167 HD
ATOM     62  C   UNL A   1      47.082  26.349  26.758  1.00  0.00     0.074 A 
ATOM     63  C   UNL A   1      47.217  24.954  26.393  1.00  0.00     0.031 C 
ATOM     64  C   UNL A   1      48.104  27.241  26.754  1.00  0.00     0.037 A 
BRANCH  51  65
ATOM     65  C   UNL A   1      46.466  32.981  28.378  1.00  0.00     0.058 A 
ATOM     66  C   UNL A   1      46.402  33.896  27.315  1.00  0.00     0.135 A 
ATOM     67  C   UNL A   1      46.905  33.457  29.624  1.00  0.00     0.135 A 
ATOM     68  F   UNL A   1      46.005  33.492  26.098  1.00  0.00    -0.206 F 
ATOM     69  C   UNL A   1      46.795  35.221  27.469  1.00  0.00     0.059 A 
ATOM     70  C   UNL A   1      47.276  34.786  29.810  1.00  0.00     0.059 A 
ATOM     71  F   UNL A   1      46.985  32.626  30.675  1.00  0.00    -0.206 F 
ATOM     72  C   UNL A   1      47.235  35.656  28.721  1.00  0.00     0.060 A 
BRANCH  72  73
ATOM     73  S   UNL A   1      47.751  37.375  28.905  1.00  0.00     0.124 S 
ATOM     74  O   UNL A   1      46.463  38.054  29.015  1.00  0.00    -0.237 OA
ATOM     75  O   UNL A   1      48.551  37.335  30.125  1.00  0.00    -0.237 OA
ATOM     76  O   UNL A   1      48.496  37.639  27.678  1.00  0.00    -0.744 OA
ENDBRANCH  72  73
ENDBRANCH  51  65
BRANCH  52  77
ATOM     77  C   UNL A   1      43.261  23.609  26.981  1.00  0.00     0.058 A 
ATOM     78  C   UNL A   1      43.018  23.128  25.685  1.00  0.00     0.135 A 
ATOM     79  C   UNL A   1      43.057  22.728  28.053  1.00  0.00     0.135 A 
ATOM     80  F   UNL A   1      43.195  23.934  24.628  1.00  0.00    -0.206 F 
ATOM     81  C   UNL A   1      42.572  21.830  25.460  1.00  0.00     0.059 A 
ATOM     82  C   UNL A   1      42.633  21.417  27.852  1.00  0.00     0.059 A 
ATOM     83  F   UNL A   1      43.292  23.133  29.311  1.00  0.00    -0.206 F 
ATOM     84  C   UNL A   1      42.384  20.981  26.551  1.00  0.00     0.060 A 
BRANCH  84  85
ATOM     85  S   UNL A   1      41.853  19.283  26.244  1.00  0.00     0.124 S 
ATOM     86  O   UNL A   1      42.202  18.633  27.503  1.00  0.00    -0.237 OA
ATOM     87  O   UNL A   1      40.426  19.449  25.985  1.00  0.00    -0.237 OA
ATOM     88  O   UNL A   1      42.649  18.887  25.086  1.00  0.00    -0.744 OA
ENDBRANCH  84  85
ENDBRANCH  52  77
BRANCH  64  89
ATOM     89  C   UNL A   1      49.467  26.724  26.387  1.00  0.00     0.058 A 
ATOM     90  C   UNL A   1      49.945  26.772  25.068  1.00  0.00     0.135 A 
ATOM     91  C   UNL A   1      50.320  26.213  27.378  1.00  0.00     0.135 A 
ATOM     92  F   UNL A   1      49.167  27.247  24.083  1.00  0.00    -0.206 F 
ATOM     93  C   UNL A   1      51.213  26.303  24.741  1.00  0.00     0.059 A 
ATOM     94  C   UNL A   1      51.601  25.763  27.077  1.00  0.00     0.059 A 
ATOM     95  F   UNL A   1      49.914  26.158  28.657  1.00  0.00    -0.206 F 
ATOM     96  C   UNL A   1      52.033  25.798  25.752  1.00  0.00     0.060 A 
BRANCH  96  97
ATOM     97  S   UNL A   1      53.685  25.212  25.319  1.00  0.00     0.124 S 
ATOM     98  O   UNL A   1      53.873  25.813  24.003  1.00  0.00    -0.237 OA
ATOM     99  O   UNL A   1      54.506  25.765  26.391  1.00  0.00    -0.237 OA
ATOM    100  O   UNL A   1      53.542  23.760  25.333  1.00  0.00    -0.744 OA
ENDBRANCH  96  97
ENDBRANCH  64  89
ENDBRANCH  38  39
ENDBRANCH  30  33
ENDBRANCH  28  29
ENDBRANCH  27  28
ENDBRANCH   1  27
TORSDOF 18
ENDMDL
MODEL 2
REMARK VINA RESULT:     -11.7      6.254     11.977
REMARK SMILES N#C/C(=C\c1ccc(-c2cc(C(F)(F)F)ccc2Cl)o1)C(=O)NCCCCNC(=O)c1ccc(-c2c3nc(c(-c4c(F)cc(S(=O)(=O)[O-])cc4F)c4ccc([nH]4)c(-c4c(F)cc(S(=O)(=O)[O-])cc4F)c4nc(c(-c5c(F)cc(S(=O)(=O)[O-])cc5F)c5ccc2[nH]5)C=C4)C=C3)cc1
REMARK SMILES IDX 25 1 24 2 23 3 21 4 22 5 3 7 4 8 2 9 1 10 5 11 6 12 20 13
REMARK SMILES IDX 7 14 8 15 9 16 10 17 18 18 11 19 17 20 19 21 16 22 12 23
REMARK SMILES IDX 13 24 14 25 15 26 26 27 27 28 28 29 29 30 30 32 31 33 32 34
REMARK SMILES IDX 96 35 33 36 95 37 34 38 35 39 36 40 89 41 37 42 94 43 88 44
REMARK SMILES IDX 90 45 38 46 93 47 87 48 86 49 39 51 73 52 52 53 72 54 53 55
REMARK SMILES IDX 56 56 71 57 91 58 54 59 55 60 70 62 92 63 57 64 40 65 41 66
REMARK SMILES IDX 50 67 42 68 43 69 49 70 51 71 44 72 45 73 46 74 47 75 48 76
REMARK SMILES IDX 74 77 75 78 84 79 76 80 77 81 83 82 85 83 78 84 79 85 80 86
REMARK SMILES IDX 81 87 82 88 58 89 59 90 68 91 60 92 61 93 67 94 69 95 62 96
REMARK SMILES IDX 63 97 64 98 65 99 66 100
REMARK H PARENT 23 6 28 31 90 50 56 61
REMARK Flexibility Score: inf
ROOT
ATOM      1  C   UNL A   1      40.212  22.654  27.658  1.00  0.00     0.023 C 
ENDROOT
BRANCH   1   2
ATOM      2  C   UNL A   1      39.334  22.981  26.445  1.00  0.00     0.116 C 
BRANCH   2   3
ATOM      3  N   UNL A   1      38.864  21.774  25.790  1.00  0.00    -0.351 N 
ATOM      4  C   UNL A   1      37.680  21.421  25.220  1.00  0.00     0.262 C 
ATOM      5  O   UNL A   1      37.622  20.300  24.711  1.00  0.00    -0.268 OA
ATOM      6  H   UNL A   1      39.544  21.064  25.748  1.00  0.00     0.163 HD
BRANCH   4   7
ATOM      7  C   UNL A   1      36.477  22.296  25.180  1.00  0.00     0.120 C 
ATOM      8  C   UNL A   1      36.234  23.369  24.385  1.00  0.00     0.072 C 
BRANCH   7   9
ATOM      9  C   UNL A   1      35.378  22.007  26.189  1.00  0.00     0.105 C 
ATOM     10  N   UNL A   1      34.466  21.767  27.026  1.00  0.00    -0.192 NA
ENDBRANCH   7   9
BRANCH   8  11
ATOM     11  C   UNL A   1      35.040  24.172  24.466  1.00  0.00     0.129 A 
ATOM     12  C   UNL A   1      33.840  24.056  23.767  1.00  0.00     0.051 A 
ATOM     13  O   UNL A   1      34.895  25.236  25.345  1.00  0.00    -0.457 OA
ATOM     14  C   UNL A   1      32.981  25.094  24.184  1.00  0.00     0.051 A 
ATOM     15  C   UNL A   1      33.651  25.777  25.171  1.00  0.00     0.136 A 
BRANCH  15  16
ATOM     16  C   UNL A   1      33.267  26.897  26.025  1.00  0.00     0.036 A 
ATOM     17  C   UNL A   1      34.233  27.842  26.418  1.00  0.00     0.026 A 
ATOM     18  C   UNL A   1      31.928  27.118  26.398  1.00  0.00     0.052 A 
ATOM     19  C   UNL A   1      33.876  28.997  27.146  1.00  0.00     0.056 A 
ATOM     20  C   UNL A   1      31.567  28.253  27.132  1.00  0.00     0.022 A 
ATOM     21  Cl  UNL A   1      30.651  26.019  25.991  1.00  0.00    -0.084 Cl
ATOM     22  C   UNL A   1      32.533  29.190  27.499  1.00  0.00     0.014 A 
BRANCH  19  23
ATOM     23  C   UNL A   1      34.921  30.023  27.523  1.00  0.00     0.416 C 
ATOM     24  F   UNL A   1      35.235  29.988  28.846  1.00  0.00    -0.166 F 
ATOM     25  F   UNL A   1      36.090  29.846  26.849  1.00  0.00    -0.166 F 
ATOM     26  F   UNL A   1      34.536  31.305  27.265  1.00  0.00    -0.166 F 
ENDBRANCH  19  23
ENDBRANCH  15  16
ENDBRANCH   8  11
ENDBRANCH   4   7
ENDBRANCH   2   3
ENDBRANCH   1   2
BRANCH   1  27
ATOM     27  C   UNL A   1      41.669  22.326  27.309  1.00  0.00     0.023 C 
BRANCH  27  28
ATOM     28  C   UNL A   1      42.617  23.522  27.324  1.00  0.00     0.116 C 
BRANCH  28  29
ATOM     29  N   UNL A   1      42.700  24.213  26.049  1.00  0.00    -0.352 N 
ATOM     30  C   UNL A   1      42.418  25.536  25.781  1.00  0.00     0.251 C 
ATOM     31  H   UNL A   1      42.994  23.671  25.282  1.00  0.00     0.163 HD
ATOM     32  O   UNL A   1      42.428  25.947  24.633  1.00  0.00    -0.269 OA
BRANCH  30  33
ATOM     33  C   UNL A   1      42.058  26.432  26.902  1.00  0.00     0.039 A 
ATOM     34  C   UNL A   1      40.965  26.097  27.703  1.00  0.00     0.014 A 
ATOM     35  C   UNL A   1      42.810  27.577  27.175  1.00  0.00     0.014 A 
ATOM     36  C   UNL A   1      40.657  26.886  28.814  1.00  0.00     0.010 A 
ATOM     37  C   UNL A   1      42.549  28.318  28.324  1.00  0.00     0.010 A 
ATOM     38  C   UNL A   1      41.464  27.986  29.148  1.00  0.00    -0.014 A 
BRANCH  38  39
ATOM     39  C   UNL A   1      41.170  28.820  30.340  1.00  0.00     0.031 A 
ATOM     40  C   UNL A   1      41.998  28.665  31.587  1.00  0.00     0.074 A 
ATOM     41  C   UNL A   1      40.127  29.672  30.319  1.00  0.00     0.049 A 
ATOM     42  N   UNL A   1      41.879  29.272  32.739  1.00  0.00    -0.248 NA
ATOM     43  C   UNL A   1      43.085  27.672  31.544  1.00  0.00     0.031 C 
ATOM     44  C   UNL A   1      39.215  29.868  29.188  1.00  0.00     0.029 A 
ATOM     45  N   UNL A   1      39.655  30.533  31.276  1.00  0.00    -0.354 N 
ATOM     46  C   UNL A   1      42.855  28.721  33.561  1.00  0.00     0.074 A 
ATOM     47  C   UNL A   1      43.523  27.693  32.794  1.00  0.00     0.031 C 
ATOM     48  C   UNL A   1      38.316  30.813  29.507  1.00  0.00     0.029 A 
ATOM     49  C   UNL A   1      38.567  31.271  30.870  1.00  0.00     0.049 A 
ATOM     50  H   UNL A   1      40.056  30.615  32.172  1.00  0.00     0.167 HD
ATOM     51  C   UNL A   1      43.182  29.059  34.831  1.00  0.00     0.037 A 
ATOM     52  C   UNL A   1      37.860  32.214  31.522  1.00  0.00     0.037 A 
ATOM     53  C   UNL A   1      42.542  30.113  35.572  1.00  0.00     0.049 A 
ATOM     54  C   UNL A   1      38.267  32.598  32.919  1.00  0.00     0.074 A 
ATOM     55  C   UNL A   1      42.849  30.587  36.835  1.00  0.00     0.029 A 
ATOM     56  N   UNL A   1      41.466  30.860  35.115  1.00  0.00    -0.354 N 
ATOM     57  N   UNL A   1      39.241  32.118  33.655  1.00  0.00    -0.248 NA
ATOM     58  C   UNL A   1      37.486  33.658  33.569  1.00  0.00     0.031 C 
ATOM     59  C   UNL A   1      41.935  31.598  37.156  1.00  0.00     0.029 A 
ATOM     60  C   UNL A   1      41.087  31.782  36.075  1.00  0.00     0.049 A 
ATOM     61  H   UNL A   1      41.036  30.750  34.236  1.00  0.00     0.167 HD
ATOM     62  C   UNL A   1      39.212  32.842  34.842  1.00  0.00     0.074 A 
ATOM     63  C   UNL A   1      38.128  33.795  34.722  1.00  0.00     0.031 C 
ATOM     64  C   UNL A   1      40.013  32.732  35.931  1.00  0.00     0.037 A 
BRANCH  51  65
ATOM     65  C   UNL A   1      44.286  28.280  35.494  1.00  0.00     0.058 A 
ATOM     66  C   UNL A   1      44.022  27.139  36.270  1.00  0.00     0.135 A 
ATOM     67  C   UNL A   1      45.626  28.669  35.340  1.00  0.00     0.135 A 
ATOM     68  F   UNL A   1      42.758  26.731  36.464  1.00  0.00    -0.206 F 
ATOM     69  C   UNL A   1      45.042  26.437  36.902  1.00  0.00     0.059 A 
ATOM     70  C   UNL A   1      46.666  27.964  35.939  1.00  0.00     0.059 A 
ATOM     71  F   UNL A   1      45.936  29.751  34.608  1.00  0.00    -0.206 F 
ATOM     72  C   UNL A   1      46.362  26.860  36.733  1.00  0.00     0.060 A 
BRANCH  72  73
ATOM     73  S   UNL A   1      47.675  25.944  37.567  1.00  0.00     0.124 S 
ATOM     74  O   UNL A   1      46.916  24.882  38.223  1.00  0.00    -0.237 OA
ATOM     75  O   UNL A   1      48.520  25.523  36.454  1.00  0.00    -0.237 OA
ATOM     76  O   UNL A   1      48.266  26.935  38.460  1.00  0.00    -0.744 OA
ENDBRANCH  72  73
ENDBRANCH  51  65
BRANCH  52  77
ATOM     77  C   UNL A   1      36.732  32.902  30.840  1.00  0.00     0.058 A 
ATOM     78  C   UNL A   1      35.404  32.614  31.188  1.00  0.00     0.135 A 
ATOM     79  C   UNL A   1      36.954  33.863  29.843  1.00  0.00     0.135 A 
ATOM     80  F   UNL A   1      35.141  31.699  32.133  1.00  0.00    -0.206 F 
ATOM     81  C   UNL A   1      34.333  33.241  30.558  1.00  0.00     0.059 A 
ATOM     82  C   UNL A   1      35.900  34.520  29.214  1.00  0.00     0.059 A 
ATOM     83  F   UNL A   1      38.206  34.187  29.487  1.00  0.00    -0.206 F 
ATOM     84  C   UNL A   1      34.592  34.194  29.573  1.00  0.00     0.060 A 
BRANCH  84  85
ATOM     85  S   UNL A   1      33.196  35.037  28.797  1.00  0.00     0.124 S 
ATOM     86  O   UNL A   1      33.827  36.255  28.302  1.00  0.00    -0.237 OA
ATOM     87  O   UNL A   1      32.780  34.074  27.783  1.00  0.00    -0.237 OA
ATOM     88  O   UNL A   1      32.257  35.216  29.901  1.00  0.00    -0.744 OA
ENDBRANCH  84  85
ENDBRANCH  52  77
BRANCH  64  89
ATOM     89  C   UNL A   1      39.776  33.696  37.060  1.00  0.00     0.058 A 
ATOM     90  C   UNL A   1      38.939  33.378  38.141  1.00  0.00     0.135 A 
ATOM     91  C   UNL A   1      40.431  34.938  37.078  1.00  0.00     0.135 A 
ATOM     92  F   UNL A   1      38.287  32.204  38.168  1.00  0.00    -0.206 F 
ATOM     93  C   UNL A   1      38.737  34.271  39.187  1.00  0.00     0.059 A 
ATOM     94  C   UNL A   1      40.263  35.836  38.127  1.00  0.00     0.059 A 
ATOM     95  F   UNL A   1      41.252  35.284  36.074  1.00  0.00    -0.206 F 
ATOM     96  C   UNL A   1      39.402  35.499  39.170  1.00  0.00     0.060 A 
BRANCH  96  97
ATOM     97  S   UNL A   1      39.149  36.642  40.544  1.00  0.00     0.124 S 
ATOM     98  O   UNL A   1      38.630  37.819  39.854  1.00  0.00    -0.237 OA
ATOM     99  O   UNL A   1      38.191  35.923  41.379  1.00  0.00    -0.237 OA
ATOM    100  O   UNL A   1      40.484  36.786  41.114  1.00  0.00    -0.744 OA
ENDBRANCH  96  97
ENDBRANCH  64  89
ENDBRANCH  38  39
ENDBRANCH  30  33
ENDBRANCH  28  29
ENDBRANCH  27  28
ENDBRANCH   1  27
TORSDOF 18
ENDMDL
MODEL 3
REMARK VINA RESULT:     -11.5      2.154      2.783
REMARK SMILES N#C/C(=C\c1ccc(-c2cc(C(F)(F)F)ccc2Cl)o1)C(=O)NCCCCNC(=O)c1ccc(-c2c3nc(c(-c4c(F)cc(S(=O)(=O)[O-])cc4F)c4ccc([nH]4)c(-c4c(F)cc(S(=O)(=O)[O-])cc4F)c4nc(c(-c5c(F)cc(S(=O)(=O)[O-])cc5F)c5ccc2[nH]5)C=C4)C=C3)cc1
REMARK SMILES IDX 25 1 24 2 23 3 21 4 22 5 3 7 4 8 2 9 1 10 5 11 6 12 20 13
REMARK SMILES IDX 7 14 8 15 9 16 10 17 18 18 11 19 17 20 19 21 16 22 12 23
REMARK SMILES IDX 13 24 14 25 15 26 26 27 27 28 28 29 29 30 30 32 31 33 32 34
REMARK SMILES IDX 96 35 33 36 95 37 34 38 35 39 36 40 89 41 37 42 94 43 88 44
REMARK SMILES IDX 90 45 38 46 93 47 87 48 86 49 39 51 73 52 52 53 72 54 53 55
REMARK SMILES IDX 56 56 71 57 91 58 54 59 55 60 70 62 92 63 57 64 40 65 41 66
REMARK SMILES IDX 50 67 42 68 43 69 49 70 51 71 44 72 45 73 46 74 47 75 48 76
REMARK SMILES IDX 74 77 75 78 84 79 76 80 77 81 83 82 85 83 78 84 79 85 80 86
REMARK SMILES IDX 81 87 82 88 58 89 59 90 68 91 60 92 61 93 67 94 69 95 62 96
REMARK SMILES IDX 63 97 64 98 65 99 66 100
REMARK H PARENT 23 6 28 31 90 50 56 61
REMARK Flexibility Score: inf
ROOT
ATOM      1  C   UNL A   1      35.085  29.315  27.561  1.00  0.00     0.023 C 
ENDROOT
BRANCH   1   2
ATOM      2  C   UNL A   1      33.804  28.607  27.106  1.00  0.00     0.116 C 
BRANCH   2   3
ATOM      3  N   UNL A   1      33.711  28.557  25.659  1.00  0.00    -0.351 N 
ATOM      4  C   UNL A   1      33.592  27.538  24.765  1.00  0.00     0.262 C 
ATOM      5  O   UNL A   1      33.505  27.850  23.577  1.00  0.00    -0.268 OA
ATOM      6  H   UNL A   1      33.739  29.445  25.236  1.00  0.00     0.163 HD
BRANCH   4   7
ATOM      7  C   UNL A   1      33.562  26.097  25.139  1.00  0.00     0.120 C 
ATOM      8  C   UNL A   1      34.571  25.191  25.105  1.00  0.00     0.072 C 
BRANCH   7   9
ATOM      9  C   UNL A   1      32.223  25.522  25.570  1.00  0.00     0.105 C 
ATOM     10  N   UNL A   1      31.111  25.045  25.927  1.00  0.00    -0.192 NA
ENDBRANCH   7   9
BRANCH   8  11
ATOM     11  C   UNL A   1      34.413  23.802  25.453  1.00  0.00     0.129 A 
ATOM     12  C   UNL A   1      34.547  23.172  26.689  1.00  0.00     0.051 A 
ATOM     13  O   UNL A   1      34.041  22.825  24.540  1.00  0.00    -0.457 OA
ATOM     14  C   UNL A   1      34.311  21.793  26.514  1.00  0.00     0.051 A 
ATOM     15  C   UNL A   1      33.976  21.624  25.191  1.00  0.00     0.136 A 
BRANCH  15  16
ATOM     16  C   UNL A   1      33.566  20.451  24.424  1.00  0.00     0.036 A 
ATOM     17  C   UNL A   1      34.166  19.203  24.677  1.00  0.00     0.026 A 
ATOM     18  C   UNL A   1      32.512  20.508  23.493  1.00  0.00     0.052 A 
ATOM     19  C   UNL A   1      33.715  18.029  24.037  1.00  0.00     0.056 A 
ATOM     20  C   UNL A   1      32.069  19.350  22.843  1.00  0.00     0.022 A 
ATOM     21  Cl  UNL A   1      31.706  21.985  23.082  1.00  0.00    -0.084 Cl
ATOM     22  C   UNL A   1      32.662  18.118  23.117  1.00  0.00     0.014 A 
BRANCH  19  23
ATOM     23  C   UNL A   1      34.344  16.691  24.353  1.00  0.00     0.416 C 
ATOM     24  F   UNL A   1      33.594  15.950  25.212  1.00  0.00    -0.166 F 
ATOM     25  F   UNL A   1      34.521  15.924  23.242  1.00  0.00    -0.166 F 
ATOM     26  F   UNL A   1      35.575  16.796  24.928  1.00  0.00    -0.166 F 
ENDBRANCH  19  23
ENDBRANCH  15  16
ENDBRANCH   8  11
ENDBRANCH   4   7
ENDBRANCH   2   3
ENDBRANCH   1   2
BRANCH   1  27
ATOM     27  C   UNL A   1      34.967  30.843  27.637  1.00  0.00     0.023 C 
BRANCH  27  28
ATOM     28  C   UNL A   1      35.904  31.509  28.639  1.00  0.00     0.116 C 
BRANCH  28  29
ATOM     29  N   UNL A   1      35.680  31.089  30.012  1.00  0.00    -0.352 N 
ATOM     30  C   UNL A   1      36.544  30.409  30.844  1.00  0.00     0.251 C 
ATOM     31  H   UNL A   1      34.803  31.318  30.397  1.00  0.00     0.163 HD
ATOM     32  O   UNL A   1      36.171  30.027  31.940  1.00  0.00    -0.269 OA
BRANCH  30  33
ATOM     33  C   UNL A   1      37.912  30.112  30.365  1.00  0.00     0.039 A 
ATOM     34  C   UNL A   1      38.875  29.713  31.293  1.00  0.00     0.014 A 
ATOM     35  C   UNL A   1      38.232  30.200  29.008  1.00  0.00     0.014 A 
ATOM     36  C   UNL A   1      40.150  29.350  30.851  1.00  0.00     0.010 A 
ATOM     37  C   UNL A   1      39.476  29.766  28.561  1.00  0.00     0.010 A 
ATOM     38  C   UNL A   1      40.451  29.348  29.479  1.00  0.00    -0.014 A 
BRANCH  38  39
ATOM     39  C   UNL A   1      41.791  28.939  28.988  1.00  0.00     0.031 A 
ATOM     40  C   UNL A   1      42.906  29.948  28.924  1.00  0.00     0.074 A 
ATOM     41  C   UNL A   1      41.987  27.680  28.553  1.00  0.00     0.049 A 
ATOM     42  N   UNL A   1      44.132  29.798  28.496  1.00  0.00    -0.248 NA
ATOM     43  C   UNL A   1      42.591  31.316  29.369  1.00  0.00     0.031 C 
ATOM     44  C   UNL A   1      40.968  26.628  28.511  1.00  0.00     0.029 A 
ATOM     45  N   UNL A   1      43.111  27.070  28.058  1.00  0.00    -0.354 N 
ATOM     46  C   UNL A   1      44.726  31.051  28.598  1.00  0.00     0.074 A 
ATOM     47  C   UNL A   1      43.710  31.962  29.077  1.00  0.00     0.031 C 
ATOM     48  C   UNL A   1      41.523  25.495  28.051  1.00  0.00     0.029 A 
ATOM     49  C   UNL A   1      42.926  25.745  27.736  1.00  0.00     0.049 A 
ATOM     50  H   UNL A   1      43.971  27.536  27.943  1.00  0.00     0.167 HD
ATOM     51  C   UNL A   1      46.007  31.404  28.340  1.00  0.00     0.037 A 
ATOM     52  C   UNL A   1      43.794  24.835  27.252  1.00  0.00     0.037 A 
ATOM     53  C   UNL A   1      47.023  30.482  27.905  1.00  0.00     0.049 A 
ATOM     54  C   UNL A   1      45.222  25.244  27.008  1.00  0.00     0.074 A 
ATOM     55  C   UNL A   1      48.369  30.722  27.691  1.00  0.00     0.029 A 
ATOM     56  N   UNL A   1      46.805  29.142  27.623  1.00  0.00    -0.354 N 
ATOM     57  N   UNL A   1      45.785  26.416  27.181  1.00  0.00    -0.248 NA
ATOM     58  C   UNL A   1      46.134  24.204  26.515  1.00  0.00     0.031 C 
ATOM     59  C   UNL A   1      48.957  29.532  27.244  1.00  0.00     0.029 A 
ATOM     60  C   UNL A   1      47.987  28.544  27.222  1.00  0.00     0.049 A 
ATOM     61  H   UNL A   1      45.936  28.684  27.696  1.00  0.00     0.167 HD
ATOM     62  C   UNL A   1      47.125  26.245  26.852  1.00  0.00     0.074 A 
ATOM     63  C   UNL A   1      47.288  24.856  26.475  1.00  0.00     0.031 C 
ATOM     64  C   UNL A   1      48.131  27.155  26.864  1.00  0.00     0.037 A 
BRANCH  51  65
ATOM     65  C   UNL A   1      46.379  32.850  28.527  1.00  0.00     0.058 A 
ATOM     66  C   UNL A   1      46.323  33.770  27.467  1.00  0.00     0.135 A 
ATOM     67  C   UNL A   1      46.784  33.326  29.785  1.00  0.00     0.135 A 
ATOM     68  F   UNL A   1      45.958  33.367  26.240  1.00  0.00    -0.206 F 
ATOM     69  C   UNL A   1      46.692  35.100  27.637  1.00  0.00     0.059 A 
ATOM     70  C   UNL A   1      47.129  34.659  29.985  1.00  0.00     0.059 A 
ATOM     71  F   UNL A   1      46.856  32.490  30.833  1.00  0.00    -0.206 F 
ATOM     72  C   UNL A   1      47.098  35.535  28.901  1.00  0.00     0.060 A 
BRANCH  72  73
ATOM     73  S   UNL A   1      47.583  37.261  29.105  1.00  0.00     0.124 S 
ATOM     74  O   UNL A   1      46.577  37.734  30.053  1.00  0.00    -0.237 OA
ATOM     75  O   UNL A   1      48.940  37.147  29.628  1.00  0.00    -0.237 OA
ATOM     76  O   UNL A   1      47.477  37.805  27.755  1.00  0.00    -0.744 OA
ENDBRANCH  72  73
ENDBRANCH  51  65
BRANCH  52  77
ATOM     77  C   UNL A   1      43.351  23.436  27.018  1.00  0.00     0.058 A 
ATOM     78  C   UNL A   1      43.112  22.968  25.717  1.00  0.00     0.135 A 
ATOM     79  C   UNL A   1      43.169  22.537  28.080  1.00  0.00     0.135 A 
ATOM     80  F   UNL A   1      43.268  23.791  24.670  1.00  0.00    -0.206 F 
ATOM     81  C   UNL A   1      42.691  21.664  25.477  1.00  0.00     0.059 A 
ATOM     82  C   UNL A   1      42.770  21.221  27.863  1.00  0.00     0.059 A 
ATOM     83  F   UNL A   1      43.402  22.930  29.342  1.00  0.00    -0.206 F 
ATOM     84  C   UNL A   1      42.524  20.798  26.557  1.00  0.00     0.060 A 
BRANCH  84  85
ATOM     85  S   UNL A   1      42.024  19.093  26.230  1.00  0.00     0.124 S 
ATOM     86  O   UNL A   1      42.262  18.464  27.524  1.00  0.00    -0.237 OA
ATOM     87  O   UNL A   1      40.626  19.252  25.843  1.00  0.00    -0.237 OA
ATOM     88  O   UNL A   1      42.921  18.682  25.154  1.00  0.00    -0.744 OA
ENDBRANCH  84  85
ENDBRANCH  52  77
BRANCH  64  89
ATOM     89  C   UNL A   1      49.506  26.665  26.503  1.00  0.00     0.058 A 
ATOM     90  C   UNL A   1      50.343  26.048  27.447  1.00  0.00     0.135 A 
ATOM     91  C   UNL A   1      49.973  26.778  25.184  1.00  0.00     0.135 A 
ATOM     92  F   UNL A   1      49.944  25.920  28.722  1.00  0.00    -0.206 F 
ATOM     93  C   UNL A   1      51.608  25.587  27.100  1.00  0.00     0.059 A 
ATOM     94  C   UNL A   1      51.224  26.301  24.809  1.00  0.00     0.059 A 
ATOM     95  F   UNL A   1      49.206  27.349  24.242  1.00  0.00    -0.206 F 
ATOM     96  C   UNL A   1      52.040  25.720  25.779  1.00  0.00     0.060 A 
BRANCH  96  97
ATOM     97  S   UNL A   1      53.676  25.098  25.335  1.00  0.00     0.124 S 
ATOM     98  O   UNL A   1      53.923  25.794  24.076  1.00  0.00    -0.237 OA
ATOM     99  O   UNL A   1      54.493  25.526  26.466  1.00  0.00    -0.237 OA
ATOM    100  O   UNL A   1      53.472  23.657  25.226  1.00  0.00    -0.744 OA
ENDBRANCH  96  97
ENDBRANCH  64  89
ENDBRANCH  38  39
ENDBRANCH  30  33
ENDBRANCH  28  29
ENDBRANCH  27  28
ENDBRANCH   1  27
TORSDOF 18
ENDMDL
