MODEL 1
REMARK VINA RESULT:     -10.2      0.000      0.000
REMARK SMILES CC(C)OCCS(=O)(=O)Nc1nccnc1C(=O)NCCCCNC(=O)c1ccc(-c2c3nc(c(-c4c(F)cc(S(=O)(=O)[O-])cc4F)c4ccc([nH]4)c(-c4c(F)cc(S(=O)(=O)[O-])cc4F)c4nc(c(-c5c(F)cc(S(=O)(=O)[O-])cc5F)c5ccc2[nH]5)C=C4)C=C3)cc1
REMARK SMILES IDX 20 1 19 2 17 3 18 4 16 6 11 7 12 8 13 9 15 10 14 11 10 12
REMARK SMILES IDX 7 14 8 15 9 16 6 17 5 18 4 19 2 20 1 21 3 22 21 23 22 24
REMARK SMILES IDX 23 25 24 26 25 27 26 29 27 30 28 31 92 32 29 33 91 34 30 35
REMARK SMILES IDX 31 36 32 37 85 38 33 39 90 40 84 41 86 42 34 43 89 44 83 45
REMARK SMILES IDX 82 46 35 48 69 49 48 50 68 51 49 52 52 53 67 54 87 55 50 56
REMARK SMILES IDX 51 57 66 59 88 60 53 61 36 62 37 63 46 64 38 65 39 66 45 67
REMARK SMILES IDX 47 68 40 69 41 70 42 71 43 72 44 73 70 74 71 75 80 76 72 77
REMARK SMILES IDX 73 78 79 79 81 80 74 81 75 82 76 83 77 84 78 85 54 86 55 87
REMARK SMILES IDX 64 88 56 89 57 90 63 91 65 92 58 93 59 94 60 95 61 96 62 97
REMARK H PARENT 19 5 10 13 24 28 86 47 52 58
REMARK Flexibility Score: inf
ROOT
ATOM      1  C   UNL A   1      33.736  26.364  25.089  1.00  0.00     0.116 C 
ENDROOT
BRANCH   1   2
ATOM      2  N   UNL A   1      33.908  25.854  23.772  1.00  0.00    -0.351 N 
ATOM      3  C   UNL A   1      33.983  24.527  23.451  1.00  0.00     0.273 C 
ATOM      4  O   UNL A   1      33.959  24.230  22.255  1.00  0.00    -0.267 OA
ATOM      5  H   UNL A   1      33.978  26.504  23.037  1.00  0.00     0.163 HD
BRANCH   3   6
ATOM      6  C   UNL A   1      34.156  23.437  24.471  1.00  0.00     0.171 A 
ATOM      7  C   UNL A   1      33.143  22.682  25.090  1.00  0.00     0.171 A 
ATOM      8  N   UNL A   1      33.411  21.388  25.370  1.00  0.00    -0.235 NA
ATOM      9  C   UNL A   1      34.673  20.915  25.190  1.00  0.00     0.133 A 
ATOM     10  N   UNL A   1      35.464  22.992  24.432  1.00  0.00    -0.246 NA
ATOM     11  C   UNL A   1      35.701  21.722  24.787  1.00  0.00     0.132 A 
BRANCH   7  12
ATOM     12  N   UNL A   1      31.727  22.885  25.201  1.00  0.00    -0.265 N 
ATOM     13  H   UNL A   1      31.244  22.764  24.352  1.00  0.00     0.181 HD
BRANCH  12  14
ATOM     14  S   UNL A   1      30.731  23.286  26.489  1.00  0.00     0.236 S 
ATOM     15  O   UNL A   1      31.664  23.466  27.584  1.00  0.00    -0.207 OA
ATOM     16  O   UNL A   1      29.783  22.194  26.609  1.00  0.00    -0.207 OA
BRANCH  14  17
ATOM     17  C   UNL A   1      29.673  24.761  26.417  1.00  0.00     0.188 C 
BRANCH  17  18
ATOM     18  C   UNL A   1      30.238  25.992  25.702  1.00  0.00     0.178 C 
BRANCH  18  19
ATOM     19  O   UNL A   1      30.267  26.010  24.274  1.00  0.00    -0.378 OA
BRANCH  19  20
ATOM     20  C   UNL A   1      30.006  27.241  23.610  1.00  0.00     0.112 C 
ATOM     21  C   UNL A   1      30.924  27.436  22.397  1.00  0.00     0.038 C 
ATOM     22  C   UNL A   1      28.487  27.384  23.539  1.00  0.00     0.038 C 
ENDBRANCH  19  20
ENDBRANCH  18  19
ENDBRANCH  17  18
ENDBRANCH  14  17
ENDBRANCH  12  14
ENDBRANCH   7  12
ENDBRANCH   3   6
ENDBRANCH   1   2
BRANCH   1  23
ATOM     23  C   UNL A   1      33.985  27.843  25.266  1.00  0.00     0.023 C 
BRANCH  23  24
ATOM     24  C   UNL A   1      32.861  28.599  25.959  1.00  0.00     0.023 C 
BRANCH  24  25
ATOM     25  C   UNL A   1      33.042  28.885  27.446  1.00  0.00     0.116 C 
BRANCH  25  26
ATOM     26  N   UNL A   1      33.255  30.288  27.789  1.00  0.00    -0.352 N 
ATOM     27  C   UNL A   1      34.416  30.925  28.172  1.00  0.00     0.251 C 
ATOM     28  H   UNL A   1      32.455  30.861  27.739  1.00  0.00     0.163 HD
ATOM     29  O   UNL A   1      34.428  32.122  28.451  1.00  0.00    -0.269 OA
BRANCH  27  30
ATOM     30  C   UNL A   1      35.649  30.124  28.319  1.00  0.00     0.039 A 
ATOM     31  C   UNL A   1      36.529  30.044  27.239  1.00  0.00     0.014 A 
ATOM     32  C   UNL A   1      36.004  29.598  29.561  1.00  0.00     0.014 A 
ATOM     33  C   UNL A   1      37.824  29.562  27.446  1.00  0.00     0.010 A 
ATOM     34  C   UNL A   1      37.329  29.244  29.791  1.00  0.00     0.010 A 
ATOM     35  C   UNL A   1      38.260  29.236  28.741  1.00  0.00    -0.014 A 
BRANCH  35  36
ATOM     36  C   UNL A   1      39.687  28.912  29.021  1.00  0.00     0.031 A 
ATOM     37  C   UNL A   1      40.596  29.960  29.611  1.00  0.00     0.074 A 
ATOM     38  C   UNL A   1      40.187  27.706  28.672  1.00  0.00     0.049 A 
ATOM     39  N   UNL A   1      41.878  29.895  29.856  1.00  0.00    -0.248 NA
ATOM     40  C   UNL A   1      39.993  31.264  29.930  1.00  0.00     0.031 C 
ATOM     41  C   UNL A   1      39.436  26.630  28.016  1.00  0.00     0.029 A 
ATOM     42  N   UNL A   1      41.449  27.181  28.810  1.00  0.00    -0.354 N 
ATOM     43  C   UNL A   1      42.236  31.151  30.334  1.00  0.00     0.074 A 
ATOM     44  C   UNL A   1      41.052  31.977  30.283  1.00  0.00     0.031 C 
ATOM     45  C   UNL A   1      40.239  25.569  27.842  1.00  0.00     0.029 A 
ATOM     46  C   UNL A   1      41.574  25.894  28.333  1.00  0.00     0.049 A 
ATOM     47  H   UNL A   1      42.197  27.679  29.213  1.00  0.00     0.167 HD
ATOM     48  C   UNL A   1      43.433  31.569  30.805  1.00  0.00     0.037 A 
ATOM     49  C   UNL A   1      42.643  25.073  28.289  1.00  0.00     0.037 A 
ATOM     50  C   UNL A   1      44.597  30.730  30.902  1.00  0.00     0.049 A 
ATOM     51  C   UNL A   1      43.955  25.554  28.851  1.00  0.00     0.074 A 
ATOM     52  C   UNL A   1      45.833  31.034  31.446  1.00  0.00     0.029 A 
ATOM     53  N   UNL A   1      44.670  29.420  30.452  1.00  0.00    -0.354 N 
ATOM     54  N   UNL A   1      44.248  26.717  29.380  1.00  0.00    -0.248 NA
ATOM     55  C   UNL A   1      45.080  24.608  28.817  1.00  0.00     0.031 C 
ATOM     56  C   UNL A   1      46.667  29.926  31.279  1.00  0.00     0.029 A 
ATOM     57  C   UNL A   1      45.936  28.911  30.683  1.00  0.00     0.049 A 
ATOM     58  H   UNL A   1      43.930  28.925  30.029  1.00  0.00     0.167 HD
ATOM     59  C   UNL A   1      45.582  26.633  29.768  1.00  0.00     0.074 A 
ATOM     60  C   UNL A   1      46.032  25.300  29.429  1.00  0.00     0.031 C 
ATOM     61  C   UNL A   1      46.364  27.576  30.350  1.00  0.00     0.037 A 
BRANCH  48  62
ATOM     62  C   UNL A   1      43.546  32.995  31.273  1.00  0.00     0.058 A 
ATOM     63  C   UNL A   1      43.309  33.354  32.610  1.00  0.00     0.135 A 
ATOM     64  C   UNL A   1      43.952  34.005  30.386  1.00  0.00     0.135 A 
ATOM     65  F   UNL A   1      42.898  32.432  33.495  1.00  0.00    -0.206 F 
ATOM     66  C   UNL A   1      43.454  34.666  33.048  1.00  0.00     0.059 A 
ATOM     67  C   UNL A   1      44.133  35.319  30.809  1.00  0.00     0.059 A 
ATOM     68  F   UNL A   1      44.187  33.719  29.096  1.00  0.00    -0.206 F 
ATOM     69  C   UNL A   1      43.873  35.640  32.141  1.00  0.00     0.060 A 
BRANCH  69  70
ATOM     70  S   UNL A   1      44.096  37.329  32.737  1.00  0.00     0.124 S 
ATOM     71  O   UNL A   1      45.457  37.276  33.264  1.00  0.00    -0.237 OA
ATOM     72  O   UNL A   1      43.918  38.115  31.520  1.00  0.00    -0.237 OA
ATOM     73  O   UNL A   1      43.043  37.479  33.737  1.00  0.00    -0.744 OA
ENDBRANCH  69  70
ENDBRANCH  48  62
BRANCH  49  74
ATOM     74  C   UNL A   1      42.521  23.706  27.707  1.00  0.00     0.058 A 
ATOM     75  C   UNL A   1      42.382  22.577  28.530  1.00  0.00     0.135 A 
ATOM     76  C   UNL A   1      42.562  23.497  26.320  1.00  0.00     0.135 A 
ATOM     77  F   UNL A   1      42.343  22.720  29.863  1.00  0.00    -0.206 F 
ATOM     78  C   UNL A   1      42.320  21.290  28.002  1.00  0.00     0.059 A 
ATOM     79  C   UNL A   1      42.471  22.222  25.767  1.00  0.00     0.059 A 
ATOM     80  F   UNL A   1      42.676  24.542  25.486  1.00  0.00    -0.206 F 
ATOM     81  C   UNL A   1      42.366  21.123  26.618  1.00  0.00     0.060 A 
BRANCH  81  82
ATOM     82  S   UNL A   1      42.262  19.451  25.940  1.00  0.00     0.124 S 
ATOM     83  O   UNL A   1      43.187  19.532  24.816  1.00  0.00    -0.237 OA
ATOM     84  O   UNL A   1      42.697  18.635  27.069  1.00  0.00    -0.237 OA
ATOM     85  O   UNL A   1      40.850  19.320  25.589  1.00  0.00    -0.744 OA
ENDBRANCH  81  82
ENDBRANCH  49  74
BRANCH  61  86
ATOM     86  C   UNL A   1      47.776  27.190  30.695  1.00  0.00     0.058 A 
ATOM     87  C   UNL A   1      48.098  26.578  31.918  1.00  0.00     0.135 A 
ATOM     88  C   UNL A   1      48.813  27.390  29.769  1.00  0.00     0.135 A 
ATOM     89  F   UNL A   1      47.145  26.368  32.840  1.00  0.00    -0.206 F 
ATOM     90  C   UNL A   1      49.402  26.204  32.220  1.00  0.00     0.059 A 
ATOM     91  C   UNL A   1      50.119  26.996  30.039  1.00  0.00     0.059 A 
ATOM     92  F   UNL A   1      48.558  27.958  28.581  1.00  0.00    -0.206 F 
ATOM     93  C   UNL A   1      50.407  26.417  31.273  1.00  0.00     0.060 A 
BRANCH  93  94
ATOM     94  S   UNL A   1      52.091  25.904  31.670  1.00  0.00     0.124 S 
ATOM     95  O   UNL A   1      51.894  24.505  32.033  1.00  0.00    -0.237 OA
ATOM     96  O   UNL A   1      52.794  26.139  30.412  1.00  0.00    -0.237 OA
ATOM     97  O   UNL A   1      52.467  26.790  32.766  1.00  0.00    -0.744 OA
ENDBRANCH  93  94
ENDBRANCH  61  86
ENDBRANCH  35  36
ENDBRANCH  27  30
ENDBRANCH  25  26
ENDBRANCH  24  25
ENDBRANCH  23  24
ENDBRANCH   1  23
TORSDOF 20
ENDMDL
MODEL 2
REMARK VINA RESULT:     -10.2      0.978      2.845
REMARK SMILES CC(C)OCCS(=O)(=O)Nc1nccnc1C(=O)NCCCCNC(=O)c1ccc(-c2c3nc(c(-c4c(F)cc(S(=O)(=O)[O-])cc4F)c4ccc([nH]4)c(-c4c(F)cc(S(=O)(=O)[O-])cc4F)c4nc(c(-c5c(F)cc(S(=O)(=O)[O-])cc5F)c5ccc2[nH]5)C=C4)C=C3)cc1
REMARK SMILES IDX 20 1 19 2 17 3 18 4 16 6 11 7 12 8 13 9 15 10 14 11 10 12
REMARK SMILES IDX 7 14 8 15 9 16 6 17 5 18 4 19 2 20 1 21 3 22 21 23 22 24
REMARK SMILES IDX 23 25 24 26 25 27 26 29 27 30 28 31 92 32 29 33 91 34 30 35
REMARK SMILES IDX 31 36 32 37 85 38 33 39 90 40 84 41 86 42 34 43 89 44 83 45
REMARK SMILES IDX 82 46 35 48 69 49 48 50 68 51 49 52 52 53 67 54 87 55 50 56
REMARK SMILES IDX 51 57 66 59 88 60 53 61 36 62 37 63 46 64 38 65 39 66 45 67
REMARK SMILES IDX 47 68 40 69 41 70 42 71 43 72 44 73 70 74 71 75 80 76 72 77
REMARK SMILES IDX 73 78 79 79 81 80 74 81 75 82 76 83 77 84 78 85 54 86 55 87
REMARK SMILES IDX 64 88 56 89 57 90 63 91 65 92 58 93 59 94 60 95 61 96 62 97
REMARK H PARENT 19 5 10 13 24 28 86 47 52 58
REMARK Flexibility Score: inf
ROOT
ATOM      1  C   UNL A   1      33.448  26.692  25.081  1.00  0.00     0.116 C 
ENDROOT
BRANCH   1   2
ATOM      2  N   UNL A   1      33.843  25.851  24.004  1.00  0.00    -0.351 N 
ATOM      3  C   UNL A   1      33.064  25.549  22.922  1.00  0.00     0.273 C 
ATOM      4  O   UNL A   1      33.599  24.950  21.986  1.00  0.00    -0.267 OA
ATOM      5  H   UNL A   1      34.744  25.456  24.040  1.00  0.00     0.163 HD
BRANCH   3   6
ATOM      6  C   UNL A   1      31.595  25.853  22.849  1.00  0.00     0.171 A 
ATOM      7  C   UNL A   1      30.563  25.251  23.594  1.00  0.00     0.171 A 
ATOM      8  N   UNL A   1      29.521  26.029  23.958  1.00  0.00    -0.235 NA
ATOM      9  C   UNL A   1      29.432  27.295  23.471  1.00  0.00     0.133 A 
ATOM     10  N   UNL A   1      31.421  27.082  22.242  1.00  0.00    -0.246 NA
ATOM     11  C   UNL A   1      30.335  27.794  22.575  1.00  0.00     0.132 A 
BRANCH   7  12
ATOM     12  N   UNL A   1      30.515  24.041  24.363  1.00  0.00    -0.265 N 
ATOM     13  H   UNL A   1      30.168  23.269  23.862  1.00  0.00     0.181 HD
BRANCH  12  14
ATOM     14  S   UNL A   1      30.935  23.681  25.946  1.00  0.00     0.236 S 
ATOM     15  O   UNL A   1      30.391  22.351  26.137  1.00  0.00    -0.207 OA
ATOM     16  O   UNL A   1      30.368  24.744  26.755  1.00  0.00    -0.207 OA
BRANCH  14  17
ATOM     17  C   UNL A   1      32.678  23.645  26.457  1.00  0.00     0.188 C 
BRANCH  17  18
ATOM     18  C   UNL A   1      33.590  22.632  25.758  1.00  0.00     0.178 C 
BRANCH  18  19
ATOM     19  O   UNL A   1      34.985  22.917  25.649  1.00  0.00    -0.378 OA
BRANCH  19  20
ATOM     20  C   UNL A   1      35.804  22.010  24.920  1.00  0.00     0.112 C 
ATOM     21  C   UNL A   1      35.230  20.587  24.941  1.00  0.00     0.038 C 
ATOM     22  C   UNL A   1      36.210  22.728  23.634  1.00  0.00     0.038 C 
ENDBRANCH  19  20
ENDBRANCH  18  19
ENDBRANCH  17  18
ENDBRANCH  14  17
ENDBRANCH  12  14
ENDBRANCH   7  12
ENDBRANCH   3   6
ENDBRANCH   1   2
BRANCH   1  23
ATOM     23  C   UNL A   1      33.360  28.168  24.772  1.00  0.00     0.023 C 
BRANCH  23  24
ATOM     24  C   UNL A   1      34.090  29.069  25.757  1.00  0.00     0.023 C 
BRANCH  24  25
ATOM     25  C   UNL A   1      33.578  29.070  27.195  1.00  0.00     0.116 C 
BRANCH  25  26
ATOM     26  N   UNL A   1      33.708  30.341  27.901  1.00  0.00    -0.352 N 
ATOM     27  C   UNL A   1      34.812  30.881  28.526  1.00  0.00     0.251 C 
ATOM     28  H   UNL A   1      32.891  30.889  27.937  1.00  0.00     0.163 HD
ATOM     29  O   UNL A   1      34.755  31.965  29.103  1.00  0.00    -0.269 OA
BRANCH  27  30
ATOM     30  C   UNL A   1      36.064  30.096  28.559  1.00  0.00     0.039 A 
ATOM     31  C   UNL A   1      36.935  30.177  27.473  1.00  0.00     0.014 A 
ATOM     32  C   UNL A   1      36.442  29.421  29.720  1.00  0.00     0.014 A 
ATOM     33  C   UNL A   1      38.242  29.701  27.607  1.00  0.00     0.010 A 
ATOM     34  C   UNL A   1      37.776  29.070  29.893  1.00  0.00     0.010 A 
ATOM     35  C   UNL A   1      38.697  29.220  28.845  1.00  0.00    -0.014 A 
BRANCH  35  36
ATOM     36  C   UNL A   1      40.133  28.895  29.071  1.00  0.00     0.031 A 
ATOM     37  C   UNL A   1      41.058  29.934  29.652  1.00  0.00     0.074 A 
ATOM     38  C   UNL A   1      40.624  27.698  28.682  1.00  0.00     0.049 A 
ATOM     39  N   UNL A   1      42.348  29.868  29.854  1.00  0.00    -0.248 NA
ATOM     40  C   UNL A   1      40.463  31.229  30.018  1.00  0.00     0.031 C 
ATOM     41  C   UNL A   1      39.855  26.633  28.029  1.00  0.00     0.029 A 
ATOM     42  N   UNL A   1      41.892  27.174  28.768  1.00  0.00    -0.354 N 
ATOM     43  C   UNL A   1      42.718  31.115  30.345  1.00  0.00     0.074 A 
ATOM     44  C   UNL A   1      41.532  31.939  30.350  1.00  0.00     0.031 C 
ATOM     45  C   UNL A   1      40.655  25.578  27.808  1.00  0.00     0.029 A 
ATOM     46  C   UNL A   1      42.004  25.898  28.261  1.00  0.00     0.049 A 
ATOM     47  H   UNL A   1      42.651  27.666  29.156  1.00  0.00     0.167 HD
ATOM     48  C   UNL A   1      43.930  31.528  30.785  1.00  0.00     0.037 A 
ATOM     49  C   UNL A   1      43.072  25.081  28.165  1.00  0.00     0.037 A 
ATOM     50  C   UNL A   1      45.098  30.690  30.827  1.00  0.00     0.049 A 
ATOM     51  C   UNL A   1      44.402  25.554  28.693  1.00  0.00     0.074 A 
ATOM     52  C   UNL A   1      46.350  30.987  31.336  1.00  0.00     0.029 A 
ATOM     53  N   UNL A   1      45.159  29.390  30.348  1.00  0.00    -0.354 N 
ATOM     54  N   UNL A   1      44.709  26.707  29.236  1.00  0.00    -0.248 NA
ATOM     55  C   UNL A   1      45.527  24.613  28.603  1.00  0.00     0.031 C 
ATOM     56  C   UNL A   1      47.182  29.885  31.119  1.00  0.00     0.029 A 
ATOM     57  C   UNL A   1      46.433  28.880  30.527  1.00  0.00     0.049 A 
ATOM     58  H   UNL A   1      44.406  28.901  29.940  1.00  0.00     0.167 HD
ATOM     59  C   UNL A   1      46.055  26.620  29.578  1.00  0.00     0.074 A 
ATOM     60  C   UNL A   1      46.497  25.296  29.198  1.00  0.00     0.031 C 
ATOM     61  C   UNL A   1      46.853  27.553  30.153  1.00  0.00     0.037 A 
BRANCH  48  62
ATOM     62  C   UNL A   1      44.054  32.943  31.278  1.00  0.00     0.058 A 
ATOM     63  C   UNL A   1      44.368  34.002  30.411  1.00  0.00     0.135 A 
ATOM     64  C   UNL A   1      43.799  33.254  32.624  1.00  0.00     0.135 A 
ATOM     65  F   UNL A   1      44.641  33.761  29.119  1.00  0.00    -0.206 F 
ATOM     66  C   UNL A   1      44.441  35.316  30.863  1.00  0.00     0.059 A 
ATOM     67  C   UNL A   1      43.838  34.564  33.092  1.00  0.00     0.059 A 
ATOM     68  F   UNL A   1      43.500  32.279  33.498  1.00  0.00    -0.206 F 
ATOM     69  C   UNL A   1      44.167  35.587  32.204  1.00  0.00     0.060 A 
BRANCH  69  70
ATOM     70  S   UNL A   1      44.227  37.302  32.763  1.00  0.00     0.124 S 
ATOM     71  O   UNL A   1      43.092  37.350  33.680  1.00  0.00    -0.237 OA
ATOM     72  O   UNL A   1      45.546  37.381  33.383  1.00  0.00    -0.237 OA
ATOM     73  O   UNL A   1      44.070  38.068  31.531  1.00  0.00    -0.744 OA
ENDBRANCH  69  70
ENDBRANCH  48  62
BRANCH  49  74
ATOM     74  C   UNL A   1      42.936  23.726  27.560  1.00  0.00     0.058 A 
ATOM     75  C   UNL A   1      42.504  22.629  28.324  1.00  0.00     0.135 A 
ATOM     76  C   UNL A   1      43.251  23.492  26.213  1.00  0.00     0.135 A 
ATOM     77  F   UNL A   1      42.194  22.796  29.619  1.00  0.00    -0.206 F 
ATOM     78  C   UNL A   1      42.421  21.348  27.785  1.00  0.00     0.059 A 
ATOM     79  C   UNL A   1      43.148  22.227  25.643  1.00  0.00     0.059 A 
ATOM     80  F   UNL A   1      43.652  24.507  25.431  1.00  0.00    -0.206 F 
ATOM     81  C   UNL A   1      42.747  21.157  26.442  1.00  0.00     0.060 A 
BRANCH  81  82
ATOM     82  S   UNL A   1      42.614  19.495  25.745  1.00  0.00     0.124 S 
ATOM     83  O   UNL A   1      41.191  19.418  25.440  1.00  0.00    -0.237 OA
ATOM     84  O   UNL A   1      43.511  19.573  24.596  1.00  0.00    -0.237 OA
ATOM     85  O   UNL A   1      43.075  18.637  26.832  1.00  0.00    -0.744 OA
ENDBRANCH  81  82
ENDBRANCH  49  74
BRANCH  61  86
ATOM     86  C   UNL A   1      48.277  27.165  30.444  1.00  0.00     0.058 A 
ATOM     87  C   UNL A   1      49.330  27.513  29.582  1.00  0.00     0.135 A 
ATOM     88  C   UNL A   1      48.597  26.478  31.627  1.00  0.00     0.135 A 
ATOM     89  F   UNL A   1      49.078  28.166  28.437  1.00  0.00    -0.206 F 
ATOM     90  C   UNL A   1      50.646  27.170  29.870  1.00  0.00     0.059 A 
ATOM     91  C   UNL A   1      49.910  26.152  31.950  1.00  0.00     0.059 A 
ATOM     92  F   UNL A   1      47.631  26.134  32.492  1.00  0.00    -0.206 F 
ATOM     93  C   UNL A   1      50.927  26.489  31.058  1.00  0.00     0.060 A 
BRANCH  93  94
ATOM     94  S   UNL A   1      52.643  26.072  31.430  1.00  0.00     0.124 S 
ATOM     95  O   UNL A   1      52.494  24.782  32.093  1.00  0.00    -0.237 OA
ATOM     96  O   UNL A   1      53.251  26.037  30.103  1.00  0.00    -0.237 OA
ATOM     97  O   UNL A   1      53.082  27.170  32.285  1.00  0.00    -0.744 OA
ENDBRANCH  93  94
ENDBRANCH  61  86
ENDBRANCH  35  36
ENDBRANCH  27  30
ENDBRANCH  25  26
ENDBRANCH  24  25
ENDBRANCH  23  24
ENDBRANCH   1  23
TORSDOF 20
ENDMDL
MODEL 3
REMARK VINA RESULT:     -10.0      4.646     10.150
REMARK SMILES CC(C)OCCS(=O)(=O)Nc1nccnc1C(=O)NCCCCNC(=O)c1ccc(-c2c3nc(c(-c4c(F)cc(S(=O)(=O)[O-])cc4F)c4ccc([nH]4)c(-c4c(F)cc(S(=O)(=O)[O-])cc4F)c4nc(c(-c5c(F)cc(S(=O)(=O)[O-])cc5F)c5ccc2[nH]5)C=C4)C=C3)cc1
REMARK SMILES IDX 20 1 19 2 17 3 18 4 16 6 11 7 12 8 13 9 15 10 14 11 10 12
REMARK SMILES IDX 7 14 8 15 9 16 6 17 5 18 4 19 2 20 1 21 3 22 21 23 22 24
REMARK SMILES IDX 23 25 24 26 25 27 26 29 27 30 28 31 92 32 29 33 91 34 30 35
REMARK SMILES IDX 31 36 32 37 85 38 33 39 90 40 84 41 86 42 34 43 89 44 83 45
REMARK SMILES IDX 82 46 35 48 69 49 48 50 68 51 49 52 52 53 67 54 87 55 50 56
REMARK SMILES IDX 51 57 66 59 88 60 53 61 36 62 37 63 46 64 38 65 39 66 45 67
REMARK SMILES IDX 47 68 40 69 41 70 42 71 43 72 44 73 70 74 71 75 80 76 72 77
REMARK SMILES IDX 73 78 79 79 81 80 74 81 75 82 76 83 77 84 78 85 54 86 55 87
REMARK SMILES IDX 64 88 56 89 57 90 63 91 65 92 58 93 59 94 60 95 61 96 62 97
REMARK H PARENT 19 5 10 13 24 28 86 47 52 58
REMARK Flexibility Score: inf
ROOT
ATOM      1  C   UNL A   1      38.055  22.545  25.832  1.00  0.00     0.116 C 
ENDROOT
BRANCH   1   2
ATOM      2  N   UNL A   1      37.750  22.671  24.448  1.00  0.00    -0.351 N 
ATOM      3  C   UNL A   1      36.492  22.621  23.918  1.00  0.00     0.273 C 
ATOM      4  O   UNL A   1      36.365  22.918  22.727  1.00  0.00    -0.267 OA
ATOM      5  H   UNL A   1      38.502  22.806  23.826  1.00  0.00     0.163 HD
BRANCH   3   6
ATOM      6  C   UNL A   1      35.286  22.164  24.688  1.00  0.00     0.171 A 
ATOM      7  C   UNL A   1      34.127  22.908  24.976  1.00  0.00     0.171 A 
ATOM      8  N   UNL A   1      32.950  22.247  25.002  1.00  0.00    -0.235 NA
ATOM      9  C   UNL A   1      32.946  20.890  24.906  1.00  0.00     0.133 A 
ATOM     10  N   UNL A   1      35.285  20.783  24.742  1.00  0.00    -0.246 NA
ATOM     11  C   UNL A   1      34.102  20.163  24.841  1.00  0.00     0.132 A 
BRANCH   7  12
ATOM     12  N   UNL A   1      33.854  24.316  24.924  1.00  0.00    -0.265 N 
ATOM     13  H   UNL A   1      34.653  24.877  25.043  1.00  0.00     0.181 HD
BRANCH  12  14
ATOM     14  S   UNL A   1      32.443  25.194  24.701  1.00  0.00     0.236 S 
ATOM     15  O   UNL A   1      31.708  24.957  25.928  1.00  0.00    -0.207 OA
ATOM     16  O   UNL A   1      31.854  24.687  23.475  1.00  0.00    -0.207 OA
BRANCH  14  17
ATOM     17  C   UNL A   1      32.503  26.990  24.431  1.00  0.00     0.188 C 
BRANCH  17  18
ATOM     18  C   UNL A   1      33.667  27.754  25.069  1.00  0.00     0.178 C 
BRANCH  18  19
ATOM     19  O   UNL A   1      33.384  28.747  26.056  1.00  0.00    -0.378 OA
BRANCH  19  20
ATOM     20  C   UNL A   1      32.022  29.030  26.356  1.00  0.00     0.112 C 
ATOM     21  C   UNL A   1      31.549  28.278  27.607  1.00  0.00     0.038 C 
ATOM     22  C   UNL A   1      31.839  30.534  26.166  1.00  0.00     0.038 C 
ENDBRANCH  19  20
ENDBRANCH  18  19
ENDBRANCH  17  18
ENDBRANCH  14  17
ENDBRANCH  12  14
ENDBRANCH   7  12
ENDBRANCH   3   6
ENDBRANCH   1   2
BRANCH   1  23
ATOM     23  C   UNL A   1      39.309  21.773  26.167  1.00  0.00     0.023 C 
BRANCH  23  24
ATOM     24  C   UNL A   1      40.135  22.362  27.301  1.00  0.00     0.023 C 
BRANCH  24  25
ATOM     25  C   UNL A   1      41.474  22.988  26.921  1.00  0.00     0.116 C 
BRANCH  25  26
ATOM     26  N   UNL A   1      41.406  24.029  25.900  1.00  0.00    -0.352 N 
ATOM     27  C   UNL A   1      41.364  25.399  26.053  1.00  0.00     0.251 C 
ATOM     28  H   UNL A   1      41.389  23.707  24.969  1.00  0.00     0.163 HD
ATOM     29  O   UNL A   1      41.285  26.150  25.084  1.00  0.00    -0.269 OA
BRANCH  27  30
ATOM     30  C   UNL A   1      41.336  25.958  27.421  1.00  0.00     0.039 A 
ATOM     31  C   UNL A   1      42.461  26.637  27.890  1.00  0.00     0.014 A 
ATOM     32  C   UNL A   1      40.155  25.952  28.162  1.00  0.00     0.014 A 
ATOM     33  C   UNL A   1      42.354  27.429  29.036  1.00  0.00     0.010 A 
ATOM     34  C   UNL A   1      40.016  26.841  29.222  1.00  0.00     0.010 A 
ATOM     35  C   UNL A   1      41.110  27.603  29.664  1.00  0.00    -0.014 A 
BRANCH  35  36
ATOM     36  C   UNL A   1      40.925  28.593  30.761  1.00  0.00     0.031 A 
ATOM     37  C   UNL A   1      41.755  28.492  32.015  1.00  0.00     0.074 A 
ATOM     38  C   UNL A   1      39.959  29.533  30.667  1.00  0.00     0.049 A 
ATOM     39  N   UNL A   1      41.691  29.209  33.107  1.00  0.00    -0.248 NA
ATOM     40  C   UNL A   1      42.763  27.419  32.065  1.00  0.00     0.031 C 
ATOM     41  C   UNL A   1      39.029  29.689  29.544  1.00  0.00     0.029 A 
ATOM     42  N   UNL A   1      39.588  30.533  31.534  1.00  0.00    -0.354 N 
ATOM     43  C   UNL A   1      42.628  28.660  33.975  1.00  0.00     0.074 A 
ATOM     44  C   UNL A   1      43.201  27.512  33.312  1.00  0.00     0.031 C 
ATOM     45  C   UNL A   1      38.224  30.738  29.775  1.00  0.00     0.029 A 
ATOM     46  C   UNL A   1      38.546  31.309  31.078  1.00  0.00     0.049 A 
ATOM     47  H   UNL A   1      40.028  30.680  32.403  1.00  0.00     0.167 HD
ATOM     48  C   UNL A   1      43.003  29.093  35.201  1.00  0.00     0.037 A 
ATOM     49  C   UNL A   1      37.915  32.356  31.648  1.00  0.00     0.037 A 
ATOM     50  C   UNL A   1      42.468  30.267  35.838  1.00  0.00     0.049 A 
ATOM     51  C   UNL A   1      38.376  32.837  32.999  1.00  0.00     0.074 A 
ATOM     52  C   UNL A   1      42.844  30.838  37.041  1.00  0.00     0.029 A 
ATOM     53  N   UNL A   1      41.446  31.051  35.324  1.00  0.00    -0.354 N 
ATOM     54  N   UNL A   1      39.326  32.358  33.765  1.00  0.00    -0.248 NA
ATOM     55  C   UNL A   1      37.685  34.007  33.560  1.00  0.00     0.031 C 
ATOM     56  C   UNL A   1      42.017  31.939  37.278  1.00  0.00     0.029 A 
ATOM     57  C   UNL A   1      41.163  32.088  36.196  1.00  0.00     0.049 A 
ATOM     58  H   UNL A   1      40.990  30.894  34.465  1.00  0.00     0.167 HD
ATOM     59  C   UNL A   1      39.366  33.183  34.884  1.00  0.00     0.074 A 
ATOM     60  C   UNL A   1      38.357  34.202  34.687  1.00  0.00     0.031 C 
ATOM     61  C   UNL A   1      40.163  33.102  35.978  1.00  0.00     0.037 A 
BRANCH  48  62
ATOM     62  C   UNL A   1      44.059  28.309  35.931  1.00  0.00     0.058 A 
ATOM     63  C   UNL A   1      43.731  27.229  36.766  1.00  0.00     0.135 A 
ATOM     64  C   UNL A   1      45.420  28.605  35.748  1.00  0.00     0.135 A 
ATOM     65  F   UNL A   1      42.446  26.915  36.994  1.00  0.00    -0.206 F 
ATOM     66  C   UNL A   1      44.713  26.481  37.408  1.00  0.00     0.059 A 
ATOM     67  C   UNL A   1      46.420  27.851  36.356  1.00  0.00     0.059 A 
ATOM     68  F   UNL A   1      45.790  29.631  34.965  1.00  0.00    -0.206 F 
ATOM     69  C   UNL A   1      46.055  26.795  37.190  1.00  0.00     0.060 A 
BRANCH  69  70
ATOM     70  S   UNL A   1      47.315  25.787  37.997  1.00  0.00     0.124 S 
ATOM     71  O   UNL A   1      48.409  26.743  38.137  1.00  0.00    -0.237 OA
ATOM     72  O   UNL A   1      46.653  25.396  39.238  1.00  0.00    -0.237 OA
ATOM     73  O   UNL A   1      47.547  24.704  37.046  1.00  0.00    -0.744 OA
ENDBRANCH  69  70
ENDBRANCH  48  62
BRANCH  49  74
ATOM     74  C   UNL A   1      36.791  33.035  30.943  1.00  0.00     0.058 A 
ATOM     75  C   UNL A   1      35.459  32.836  31.339  1.00  0.00     0.135 A 
ATOM     76  C   UNL A   1      37.022  33.883  29.848  1.00  0.00     0.135 A 
ATOM     77  F   UNL A   1      35.182  32.032  32.377  1.00  0.00    -0.206 F 
ATOM     78  C   UNL A   1      34.396  33.424  30.658  1.00  0.00     0.059 A 
ATOM     79  C   UNL A   1      35.978  34.506  29.169  1.00  0.00     0.059 A 
ATOM     80  F   UNL A   1      38.277  34.123  29.437  1.00  0.00    -0.206 F 
ATOM     81  C   UNL A   1      34.667  34.257  29.572  1.00  0.00     0.060 A 
BRANCH  81  82
ATOM     82  S   UNL A   1      33.284  35.034  28.708  1.00  0.00     0.124 S 
ATOM     83  O   UNL A   1      32.441  35.453  29.821  1.00  0.00    -0.237 OA
ATOM     84  O   UNL A   1      33.946  36.104  27.969  1.00  0.00    -0.237 OA
ATOM     85  O   UNL A   1      32.751  33.951  27.885  1.00  0.00    -0.744 OA
ENDBRANCH  81  82
ENDBRANCH  49  74
BRANCH  61  86
ATOM     86  C   UNL A   1      40.008  34.166  37.030  1.00  0.00     0.058 A 
ATOM     87  C   UNL A   1      40.708  35.382  36.961  1.00  0.00     0.135 A 
ATOM     88  C   UNL A   1      39.110  33.986  38.095  1.00  0.00     0.135 A 
ATOM     89  F   UNL A   1      41.582  35.603  35.966  1.00  0.00    -0.206 F 
ATOM     90  C   UNL A   1      40.542  36.369  37.926  1.00  0.00     0.059 A 
ATOM     91  C   UNL A   1      38.906  34.973  39.053  1.00  0.00     0.059 A 
ATOM     92  F   UNL A   1      38.406  32.848  38.200  1.00  0.00    -0.206 F 
ATOM     93  C   UNL A   1      39.638  36.156  38.968  1.00  0.00     0.060 A 
BRANCH  93  94
ATOM     94  S   UNL A   1      39.415  37.456  40.200  1.00  0.00     0.124 S 
ATOM     95  O   UNL A   1      38.928  36.695  41.346  1.00  0.00    -0.237 OA
ATOM     96  O   UNL A   1      40.763  38.001  40.327  1.00  0.00    -0.237 OA
ATOM     97  O   UNL A   1      38.441  38.349  39.580  1.00  0.00    -0.744 OA
ENDBRANCH  93  94
ENDBRANCH  61  86
ENDBRANCH  35  36
ENDBRANCH  27  30
ENDBRANCH  25  26
ENDBRANCH  24  25
ENDBRANCH  23  24
ENDBRANCH   1  23
TORSDOF 20
ENDMDL
