MODEL 1
REMARK VINA RESULT:     -11.4      0.000      0.000
REMARK SMILES C[C@@H](CC1CC1)NC(=O)c1cccn1CC(=O)NCCCCNC(=O)c1ccc(-c2c3nc(c(-c4c(F)cc(S(=O)(=O)[O-])cc4F)c4ccc([nH]4)c(-c4c(F)cc(S(=O)(=O)[O-])cc4F)c4nc(c(-c5c(F)cc(S(=O)(=O)[O-])cc5F)c5ccc2[nH]5)C=C4)C=C3)cc1
REMARK SMILES IDX 19 1 18 2 16 3 17 4 15 6 14 7 10 8 11 9 12 10 13 11 8 12
REMARK SMILES IDX 7 13 9 15 2 16 1 17 3 18 4 19 5 20 6 21 20 22 21 23 22 24
REMARK SMILES IDX 23 25 24 26 25 28 26 29 27 30 91 31 28 32 90 33 29 34 30 35
REMARK SMILES IDX 31 36 84 37 32 38 89 39 83 40 85 41 33 42 88 43 82 44 81 45
REMARK SMILES IDX 34 47 68 48 47 49 67 50 48 51 51 52 66 53 86 54 49 55 50 56
REMARK SMILES IDX 65 58 87 59 52 60 35 61 36 62 45 63 37 64 38 65 44 66 46 67
REMARK SMILES IDX 39 68 40 69 41 70 42 71 43 72 69 73 70 74 79 75 71 76 72 77
REMARK SMILES IDX 78 78 80 79 73 80 74 81 75 82 76 83 77 84 53 85 54 86 63 87
REMARK SMILES IDX 55 88 56 89 62 90 64 91 57 92 58 93 59 94 60 95 61 96
REMARK H PARENT 18 5 7 14 23 27 85 46 51 57
REMARK Flexibility Score: inf
ROOT
ATOM      1  C   UNL A   1      36.600  21.957  25.146  1.00  0.00     0.116 C 
ENDROOT
BRANCH   1   2
ATOM      2  N   UNL A   1      35.942  22.595  24.024  1.00  0.00    -0.355 N 
ATOM      3  C   UNL A   1      34.901  23.482  24.039  1.00  0.00     0.239 C 
ATOM      4  O   UNL A   1      34.399  23.813  22.962  1.00  0.00    -0.273 OA
ATOM      5  H   UNL A   1      36.289  22.358  23.134  1.00  0.00     0.163 HD
BRANCH   3   6
ATOM      6  C   UNL A   1      34.419  24.081  25.347  1.00  0.00     0.222 C 
BRANCH   6   7
ATOM      7  N   UNL A   1      33.018  23.795  25.639  1.00  0.00    -0.334 N 
ATOM      8  C   UNL A   1      32.522  22.656  26.259  1.00  0.00     0.107 A 
ATOM      9  C   UNL A   1      31.143  22.809  26.305  1.00  0.00     0.033 A 
ATOM     10  C   UNL A   1      30.807  24.046  25.708  1.00  0.00     0.020 A 
ATOM     11  C   UNL A   1      31.983  24.643  25.324  1.00  0.00     0.087 A 
BRANCH   8  12
ATOM     12  C   UNL A   1      33.356  21.596  26.789  1.00  0.00     0.268 C 
ATOM     13  N   UNL A   1      33.334  20.348  26.223  1.00  0.00    -0.348 N 
ATOM     14  H   UNL A   1      33.963  19.712  26.633  1.00  0.00     0.164 HD
ATOM     15  O   UNL A   1      34.150  21.782  27.706  1.00  0.00    -0.268 OA
BRANCH  13  16
ATOM     16  C   UNL A   1      32.549  19.785  25.124  1.00  0.00     0.079 C 
ATOM     17  C   UNL A   1      32.898  20.477  23.804  1.00  0.00     0.031 C 
BRANCH  16  18
ATOM     18  C   UNL A   1      32.761  18.261  25.044  1.00  0.00     0.028 C 
BRANCH  18  19
ATOM     19  C   UNL A   1      34.044  17.868  24.351  1.00  0.00    -0.009 C 
ATOM     20  C   UNL A   1      34.763  16.606  24.744  1.00  0.00     0.004 C 
ATOM     21  C   UNL A   1      34.068  16.685  23.414  1.00  0.00     0.004 C 
ENDBRANCH  18  19
ENDBRANCH  16  18
ENDBRANCH  13  16
ENDBRANCH   8  12
ENDBRANCH   6   7
ENDBRANCH   3   6
ENDBRANCH   1   2
BRANCH   1  22
ATOM     22  C   UNL A   1      36.557  20.431  25.021  1.00  0.00     0.023 C 
BRANCH  22  23
ATOM     23  C   UNL A   1      37.919  19.773  24.770  1.00  0.00     0.023 C 
BRANCH  23  24
ATOM     24  C   UNL A   1      39.013  20.160  25.768  1.00  0.00     0.116 C 
BRANCH  24  25
ATOM     25  N   UNL A   1      40.005  19.109  25.927  1.00  0.00    -0.352 N 
ATOM     26  C   UNL A   1      41.368  19.229  26.063  1.00  0.00     0.251 C 
ATOM     27  H   UNL A   1      39.654  18.190  25.939  1.00  0.00     0.163 HD
ATOM     28  O   UNL A   1      42.079  18.252  25.841  1.00  0.00    -0.269 OA
BRANCH  26  29
ATOM     29  C   UNL A   1      41.986  20.517  26.447  1.00  0.00     0.039 A 
ATOM     30  C   UNL A   1      42.516  21.326  25.435  1.00  0.00     0.014 A 
ATOM     31  C   UNL A   1      42.112  20.898  27.788  1.00  0.00     0.014 A 
ATOM     32  C   UNL A   1      43.103  22.546  25.762  1.00  0.00     0.010 A 
ATOM     33  C   UNL A   1      42.684  22.126  28.117  1.00  0.00     0.010 A 
ATOM     34  C   UNL A   1      43.162  22.962  27.101  1.00  0.00    -0.014 A 
BRANCH  34  35
ATOM     35  C   UNL A   1      43.536  24.372  27.383  1.00  0.00     0.031 A 
ATOM     36  C   UNL A   1      42.273  25.240  27.598  1.00  0.00     0.074 A 
ATOM     37  C   UNL A   1      44.866  24.703  27.357  1.00  0.00     0.049 A 
ATOM     38  N   UNL A   1      42.040  26.472  27.266  1.00  0.00    -0.248 NA
ATOM     39  C   UNL A   1      41.046  24.609  28.163  1.00  0.00     0.031 C 
ATOM     40  C   UNL A   1      45.973  23.736  27.176  1.00  0.00     0.029 A 
ATOM     41  N   UNL A   1      45.571  25.889  27.471  1.00  0.00    -0.354 N 
ATOM     42  C   UNL A   1      40.757  26.820  27.760  1.00  0.00     0.074 A 
ATOM     43  C   UNL A   1      40.142  25.594  28.165  1.00  0.00     0.031 C 
ATOM     44  C   UNL A   1      47.167  24.367  27.106  1.00  0.00     0.029 A 
ATOM     45  C   UNL A   1      46.977  25.798  27.246  1.00  0.00     0.049 A 
ATOM     46  H   UNL A   1      45.131  26.741  27.695  1.00  0.00     0.167 HD
ATOM     47  C   UNL A   1      40.348  28.114  27.944  1.00  0.00     0.037 A 
ATOM     48  C   UNL A   1      47.908  26.802  27.137  1.00  0.00     0.037 A 
ATOM     49  C   UNL A   1      41.413  28.994  27.600  1.00  0.00     0.049 A 
ATOM     50  C   UNL A   1      47.189  28.031  27.496  1.00  0.00     0.074 A 
ATOM     51  C   UNL A   1      41.994  29.308  26.400  1.00  0.00     0.029 A 
ATOM     52  N   UNL A   1      42.255  29.349  28.627  1.00  0.00    -0.354 N 
ATOM     53  N   UNL A   1      46.809  28.341  28.698  1.00  0.00    -0.248 NA
ATOM     54  C   UNL A   1      46.819  28.964  26.425  1.00  0.00     0.031 C 
ATOM     55  C   UNL A   1      43.362  29.351  26.724  1.00  0.00     0.029 A 
ATOM     56  C   UNL A   1      43.525  29.345  28.115  1.00  0.00     0.049 A 
ATOM     57  H   UNL A   1      41.996  29.566  29.552  1.00  0.00     0.167 HD
ATOM     58  C   UNL A   1      45.863  29.305  28.458  1.00  0.00     0.074 A 
ATOM     59  C   UNL A   1      46.143  29.853  27.146  1.00  0.00     0.031 C 
ATOM     60  C   UNL A   1      44.637  29.156  29.017  1.00  0.00     0.037 A 
BRANCH  47  61
ATOM     61  C   UNL A   1      39.182  28.749  28.663  1.00  0.00     0.058 A 
ATOM     62  C   UNL A   1      38.400  29.697  27.949  1.00  0.00     0.135 A 
ATOM     63  C   UNL A   1      39.018  28.744  30.054  1.00  0.00     0.135 A 
ATOM     64  F   UNL A   1      38.438  29.749  26.606  1.00  0.00    -0.206 F 
ATOM     65  C   UNL A   1      37.623  30.663  28.580  1.00  0.00     0.059 A 
ATOM     66  C   UNL A   1      38.206  29.679  30.706  1.00  0.00     0.059 A 
ATOM     67  F   UNL A   1      39.701  27.888  30.826  1.00  0.00    -0.206 F 
ATOM     68  C   UNL A   1      37.555  30.665  29.966  1.00  0.00     0.060 A 
BRANCH  68  69
ATOM     69  S   UNL A   1      36.636  31.995  30.772  1.00  0.00     0.124 S 
ATOM     70  O   UNL A   1      35.813  31.257  31.722  1.00  0.00    -0.237 OA
ATOM     71  O   UNL A   1      37.708  32.798  31.354  1.00  0.00    -0.237 OA
ATOM     72  O   UNL A   1      35.921  32.626  29.668  1.00  0.00    -0.744 OA
ENDBRANCH  68  69
ENDBRANCH  47  61
BRANCH  48  73
ATOM     73  C   UNL A   1      49.340  27.028  26.667  1.00  0.00     0.058 A 
ATOM     74  C   UNL A   1      50.412  27.470  27.449  1.00  0.00     0.135 A 
ATOM     75  C   UNL A   1      49.727  26.562  25.370  1.00  0.00     0.135 A 
ATOM     76  F   UNL A   1      50.204  28.074  28.625  1.00  0.00    -0.206 F 
ATOM     77  C   UNL A   1      51.755  27.278  27.061  1.00  0.00     0.059 A 
ATOM     78  C   UNL A   1      51.040  26.297  24.994  1.00  0.00     0.059 A 
ATOM     79  F   UNL A   1      48.821  26.282  24.422  1.00  0.00    -0.206 F 
ATOM     80  C   UNL A   1      52.056  26.619  25.868  1.00  0.00     0.060 A 
BRANCH  80  81
ATOM     81  S   UNL A   1      53.732  26.036  25.520  1.00  0.00     0.124 S 
ATOM     82  O   UNL A   1      54.536  27.212  25.825  1.00  0.00    -0.237 OA
ATOM     83  O   UNL A   1      53.871  24.912  26.441  1.00  0.00    -0.237 OA
ATOM     84  O   UNL A   1      53.668  25.663  24.109  1.00  0.00    -0.744 OA
ENDBRANCH  80  81
ENDBRANCH  48  73
BRANCH  60  85
ATOM     85  C   UNL A   1      44.626  28.435  30.356  1.00  0.00     0.058 A 
ATOM     86  C   UNL A   1      45.273  29.013  31.463  1.00  0.00     0.135 A 
ATOM     87  C   UNL A   1      44.076  27.160  30.573  1.00  0.00     0.135 A 
ATOM     88  F   UNL A   1      45.827  30.232  31.353  1.00  0.00    -0.206 F 
ATOM     89  C   UNL A   1      45.366  28.371  32.702  1.00  0.00     0.059 A 
ATOM     90  C   UNL A   1      44.143  26.496  31.804  1.00  0.00     0.059 A 
ATOM     91  F   UNL A   1      43.459  26.511  29.585  1.00  0.00    -0.206 F 
ATOM     92  C   UNL A   1      44.791  27.112  32.869  1.00  0.00     0.060 A 
BRANCH  92  93
ATOM     93  S   UNL A   1      44.868  26.324  34.494  1.00  0.00     0.124 S 
ATOM     94  O   UNL A   1      43.482  26.400  34.946  1.00  0.00    -0.237 OA
ATOM     95  O   UNL A   1      45.350  24.987  34.161  1.00  0.00    -0.237 OA
ATOM     96  O   UNL A   1      45.808  27.157  35.239  1.00  0.00    -0.744 OA
ENDBRANCH  92  93
ENDBRANCH  60  85
ENDBRANCH  34  35
ENDBRANCH  26  29
ENDBRANCH  24  25
ENDBRANCH  23  24
ENDBRANCH  22  23
ENDBRANCH   1  22
TORSDOF 19
ENDMDL
MODEL 2
REMARK VINA RESULT:     -11.3      1.380      2.925
REMARK SMILES C[C@@H](CC1CC1)NC(=O)c1cccn1CC(=O)NCCCCNC(=O)c1ccc(-c2c3nc(c(-c4c(F)cc(S(=O)(=O)[O-])cc4F)c4ccc([nH]4)c(-c4c(F)cc(S(=O)(=O)[O-])cc4F)c4nc(c(-c5c(F)cc(S(=O)(=O)[O-])cc5F)c5ccc2[nH]5)C=C4)C=C3)cc1
REMARK SMILES IDX 19 1 18 2 16 3 17 4 15 6 14 7 10 8 11 9 12 10 13 11 8 12
REMARK SMILES IDX 7 13 9 15 2 16 1 17 3 18 4 19 5 20 6 21 20 22 21 23 22 24
REMARK SMILES IDX 23 25 24 26 25 28 26 29 27 30 91 31 28 32 90 33 29 34 30 35
REMARK SMILES IDX 31 36 84 37 32 38 89 39 83 40 85 41 33 42 88 43 82 44 81 45
REMARK SMILES IDX 34 47 68 48 47 49 67 50 48 51 51 52 66 53 86 54 49 55 50 56
REMARK SMILES IDX 65 58 87 59 52 60 35 61 36 62 45 63 37 64 38 65 44 66 46 67
REMARK SMILES IDX 39 68 40 69 41 70 42 71 43 72 69 73 70 74 79 75 71 76 72 77
REMARK SMILES IDX 78 78 80 79 73 80 74 81 75 82 76 83 77 84 53 85 54 86 63 87
REMARK SMILES IDX 55 88 56 89 62 90 64 91 57 92 58 93 59 94 60 95 61 96
REMARK H PARENT 18 5 7 14 23 27 85 46 51 57
REMARK Flexibility Score: inf
ROOT
ATOM      1  C   UNL A   1      36.414  21.693  25.966  1.00  0.00     0.116 C 
ENDROOT
BRANCH   1   2
ATOM      2  N   UNL A   1      35.299  21.513  26.873  1.00  0.00    -0.355 N 
ATOM      3  C   UNL A   1      34.243  22.352  27.103  1.00  0.00     0.239 C 
ATOM      4  O   UNL A   1      33.461  22.072  28.014  1.00  0.00    -0.273 OA
ATOM      5  H   UNL A   1      35.302  20.677  27.392  1.00  0.00     0.163 HD
BRANCH   3   6
ATOM      6  C   UNL A   1      34.018  23.564  26.218  1.00  0.00     0.222 C 
BRANCH   6   7
ATOM      7  N   UNL A   1      33.070  23.326  25.133  1.00  0.00    -0.334 N 
ATOM      8  C   UNL A   1      31.704  23.570  25.166  1.00  0.00     0.107 A 
ATOM      9  C   UNL A   1      31.210  23.176  23.930  1.00  0.00     0.033 A 
ATOM     10  C   UNL A   1      32.285  22.692  23.149  1.00  0.00     0.020 A 
ATOM     11  C   UNL A   1      33.423  22.814  23.908  1.00  0.00     0.087 A 
BRANCH   8  12
ATOM     12  C   UNL A   1      31.019  24.186  26.285  1.00  0.00     0.268 C 
ATOM     13  N   UNL A   1      30.722  25.524  26.265  1.00  0.00    -0.348 N 
ATOM     14  H   UNL A   1      30.224  25.835  27.055  1.00  0.00     0.164 HD
ATOM     15  O   UNL A   1      30.625  23.539  27.250  1.00  0.00    -0.268 OA
BRANCH  13  16
ATOM     16  C   UNL A   1      31.008  26.575  25.288  1.00  0.00     0.079 C 
ATOM     17  C   UNL A   1      29.802  26.803  24.373  1.00  0.00     0.031 C 
BRANCH  16  18
ATOM     18  C   UNL A   1      31.431  27.871  26.009  1.00  0.00     0.028 C 
BRANCH  18  19
ATOM     19  C   UNL A   1      32.677  27.712  26.848  1.00  0.00    -0.009 C 
ATOM     20  C   UNL A   1      34.021  27.560  26.189  1.00  0.00     0.004 C 
ATOM     21  C   UNL A   1      33.689  28.829  26.921  1.00  0.00     0.004 C 
ENDBRANCH  18  19
ENDBRANCH  16  18
ENDBRANCH  13  16
ENDBRANCH   8  12
ENDBRANCH   6   7
ENDBRANCH   3   6
ENDBRANCH   1   2
BRANCH   1  22
ATOM     22  C   UNL A   1      36.416  20.624  24.869  1.00  0.00     0.023 C 
BRANCH  22  23
ATOM     23  C   UNL A   1      37.556  19.603  24.974  1.00  0.00     0.023 C 
BRANCH  23  24
ATOM     24  C   UNL A   1      38.850  20.148  25.582  1.00  0.00     0.116 C 
BRANCH  24  25
ATOM     25  N   UNL A   1      39.833  19.100  25.804  1.00  0.00    -0.352 N 
ATOM     26  C   UNL A   1      41.183  19.223  26.032  1.00  0.00     0.251 C 
ATOM     27  H   UNL A   1      39.486  18.179  25.789  1.00  0.00     0.163 HD
ATOM     28  O   UNL A   1      41.912  18.250  25.855  1.00  0.00    -0.269 OA
BRANCH  26  29
ATOM     29  C   UNL A   1      41.770  20.512  26.462  1.00  0.00     0.039 A 
ATOM     30  C   UNL A   1      42.333  21.342  25.487  1.00  0.00     0.014 A 
ATOM     31  C   UNL A   1      41.833  20.873  27.813  1.00  0.00     0.014 A 
ATOM     32  C   UNL A   1      42.892  22.564  25.857  1.00  0.00     0.010 A 
ATOM     33  C   UNL A   1      42.376  22.103  28.185  1.00  0.00     0.010 A 
ATOM     34  C   UNL A   1      42.888  22.958  27.204  1.00  0.00    -0.014 A 
BRANCH  34  35
ATOM     35  C   UNL A   1      43.233  24.368  27.523  1.00  0.00     0.031 A 
ATOM     36  C   UNL A   1      41.952  25.224  27.675  1.00  0.00     0.074 A 
ATOM     37  C   UNL A   1      44.559  24.710  27.578  1.00  0.00     0.049 A 
ATOM     38  N   UNL A   1      41.728  26.457  27.343  1.00  0.00    -0.248 NA
ATOM     39  C   UNL A   1      40.699  24.576  28.161  1.00  0.00     0.031 C 
ATOM     40  C   UNL A   1      45.683  23.754  27.449  1.00  0.00     0.029 A 
ATOM     41  N   UNL A   1      45.246  25.900  27.746  1.00  0.00    -0.354 N 
ATOM     42  C   UNL A   1      40.416  26.790  27.767  1.00  0.00     0.074 A 
ATOM     43  C   UNL A   1      39.789  25.554  28.121  1.00  0.00     0.031 C 
ATOM     44  C   UNL A   1      46.874  24.395  27.456  1.00  0.00     0.029 A 
ATOM     45  C   UNL A   1      46.664  25.822  27.602  1.00  0.00     0.049 A 
ATOM     46  H   UNL A   1      44.786  26.746  27.953  1.00  0.00     0.167 HD
ATOM     47  C   UNL A   1      39.986  28.079  27.942  1.00  0.00     0.037 A 
ATOM     48  C   UNL A   1      47.591  26.835  27.558  1.00  0.00     0.037 A 
ATOM     49  C   UNL A   1      41.061  28.971  27.670  1.00  0.00     0.049 A 
ATOM     50  C   UNL A   1      46.842  28.054  27.889  1.00  0.00     0.074 A 
ATOM     51  C   UNL A   1      41.709  29.304  26.509  1.00  0.00     0.029 A 
ATOM     52  N   UNL A   1      41.840  29.320  28.748  1.00  0.00    -0.354 N 
ATOM     53  N   UNL A   1      46.390  28.347  29.071  1.00  0.00    -0.248 NA
ATOM     54  C   UNL A   1      46.527  28.997  26.809  1.00  0.00     0.031 C 
ATOM     55  C   UNL A   1      43.055  29.353  26.912  1.00  0.00     0.029 A 
ATOM     56  C   UNL A   1      43.137  29.332  28.310  1.00  0.00     0.049 A 
ATOM     57  H   UNL A   1      41.526  29.524  29.659  1.00  0.00     0.167 HD
ATOM     58  C   UNL A   1      45.452  29.306  28.788  1.00  0.00     0.074 A 
ATOM     59  C   UNL A   1      45.802  29.872  27.500  1.00  0.00     0.031 C 
ATOM     60  C   UNL A   1      44.196  29.141  29.273  1.00  0.00     0.037 A 
BRANCH  47  61
ATOM     61  C   UNL A   1      38.775  28.695  28.599  1.00  0.00     0.058 A 
ATOM     62  C   UNL A   1      38.073  29.703  27.883  1.00  0.00     0.135 A 
ATOM     63  C   UNL A   1      38.494  28.610  29.968  1.00  0.00     0.135 A 
ATOM     64  F   UNL A   1      38.225  29.835  26.554  1.00  0.00    -0.206 F 
ATOM     65  C   UNL A   1      37.263  30.647  28.506  1.00  0.00     0.059 A 
ATOM     66  C   UNL A   1      37.646  29.523  30.608  1.00  0.00     0.059 A 
ATOM     67  F   UNL A   1      39.094  27.694  30.740  1.00  0.00    -0.206 F 
ATOM     68  C   UNL A   1      37.079  30.567  29.879  1.00  0.00     0.060 A 
BRANCH  68  69
ATOM     69  S   UNL A   1      36.119  31.866  30.687  1.00  0.00     0.124 S 
ATOM     70  O   UNL A   1      34.975  31.994  29.792  1.00  0.00    -0.237 OA
ATOM     71  O   UNL A   1      35.838  31.272  31.991  1.00  0.00    -0.237 OA
ATOM     72  O   UNL A   1      37.039  32.998  30.709  1.00  0.00    -0.744 OA
ENDBRANCH  68  69
ENDBRANCH  47  61
BRANCH  48  73
ATOM     73  C   UNL A   1      49.046  27.078  27.174  1.00  0.00     0.058 A 
ATOM     74  C   UNL A   1      50.116  27.273  28.053  1.00  0.00     0.135 A 
ATOM     75  C   UNL A   1      49.445  26.891  25.813  1.00  0.00     0.135 A 
ATOM     76  F   UNL A   1      49.905  27.611  29.331  1.00  0.00    -0.206 F 
ATOM     77  C   UNL A   1      51.458  27.096  27.654  1.00  0.00     0.059 A 
ATOM     78  C   UNL A   1      50.753  26.641  25.408  1.00  0.00     0.059 A 
ATOM     79  F   UNL A   1      48.553  26.882  24.811  1.00  0.00    -0.206 F 
ATOM     80  C   UNL A   1      51.758  26.702  26.349  1.00  0.00     0.060 A 
BRANCH  80  81
ATOM     81  S   UNL A   1      53.411  26.116  25.907  1.00  0.00     0.124 S 
ATOM     82  O   UNL A   1      53.162  24.720  25.569  1.00  0.00    -0.237 OA
ATOM     83  O   UNL A   1      53.765  26.988  24.791  1.00  0.00    -0.237 OA
ATOM     84  O   UNL A   1      54.182  26.343  27.126  1.00  0.00    -0.744 OA
ENDBRANCH  80  81
ENDBRANCH  48  73
BRANCH  60  85
ATOM     85  C   UNL A   1      44.114  28.404  30.600  1.00  0.00     0.058 A 
ATOM     86  C   UNL A   1      44.636  29.002  31.762  1.00  0.00     0.135 A 
ATOM     87  C   UNL A   1      43.618  27.099  30.761  1.00  0.00     0.135 A 
ATOM     88  F   UNL A   1      45.130  30.250  31.708  1.00  0.00    -0.206 F 
ATOM     89  C   UNL A   1      44.661  28.350  32.999  1.00  0.00     0.059 A 
ATOM     90  C   UNL A   1      43.620  26.424  31.989  1.00  0.00     0.059 A 
ATOM     91  F   UNL A   1      43.120  26.431  29.720  1.00  0.00    -0.206 F 
ATOM     92  C   UNL A   1      44.143  27.061  33.107  1.00  0.00     0.060 A 
BRANCH  92  93
ATOM     93  S   UNL A   1      44.129  26.258  34.727  1.00  0.00     0.124 S 
ATOM     94  O   UNL A   1      42.953  26.849  35.361  1.00  0.00    -0.237 OA
ATOM     95  O   UNL A   1      44.009  24.848  34.367  1.00  0.00    -0.237 OA
ATOM     96  O   UNL A   1      45.408  26.643  35.317  1.00  0.00    -0.744 OA
ENDBRANCH  92  93
ENDBRANCH  60  85
ENDBRANCH  34  35
ENDBRANCH  26  29
ENDBRANCH  24  25
ENDBRANCH  23  24
ENDBRANCH  22  23
ENDBRANCH   1  22
TORSDOF 19
ENDMDL
MODEL 3
REMARK VINA RESULT:     -10.9      4.145      7.987
REMARK SMILES C[C@@H](CC1CC1)NC(=O)c1cccn1CC(=O)NCCCCNC(=O)c1ccc(-c2c3nc(c(-c4c(F)cc(S(=O)(=O)[O-])cc4F)c4ccc([nH]4)c(-c4c(F)cc(S(=O)(=O)[O-])cc4F)c4nc(c(-c5c(F)cc(S(=O)(=O)[O-])cc5F)c5ccc2[nH]5)C=C4)C=C3)cc1
REMARK SMILES IDX 19 1 18 2 16 3 17 4 15 6 14 7 10 8 11 9 12 10 13 11 8 12
REMARK SMILES IDX 7 13 9 15 2 16 1 17 3 18 4 19 5 20 6 21 20 22 21 23 22 24
REMARK SMILES IDX 23 25 24 26 25 28 26 29 27 30 91 31 28 32 90 33 29 34 30 35
REMARK SMILES IDX 31 36 84 37 32 38 89 39 83 40 85 41 33 42 88 43 82 44 81 45
REMARK SMILES IDX 34 47 68 48 47 49 67 50 48 51 51 52 66 53 86 54 49 55 50 56
REMARK SMILES IDX 65 58 87 59 52 60 35 61 36 62 45 63 37 64 38 65 44 66 46 67
REMARK SMILES IDX 39 68 40 69 41 70 42 71 43 72 69 73 70 74 79 75 71 76 72 77
REMARK SMILES IDX 78 78 80 79 73 80 74 81 75 82 76 83 77 84 53 85 54 86 63 87
REMARK SMILES IDX 55 88 56 89 62 90 64 91 57 92 58 93 59 94 60 95 61 96
REMARK H PARENT 18 5 7 14 23 27 85 46 51 57
REMARK Flexibility Score: inf
ROOT
ATOM      1  C   UNL A   1      31.257  27.335  26.353  1.00  0.00     0.116 C 
ENDROOT
BRANCH   1   2
ATOM      2  N   UNL A   1      30.830  26.047  26.859  1.00  0.00    -0.355 N 
ATOM      3  C   UNL A   1      30.760  24.852  26.197  1.00  0.00     0.239 C 
ATOM      4  O   UNL A   1      30.245  23.892  26.776  1.00  0.00    -0.273 OA
ATOM      5  H   UNL A   1      30.553  26.030  27.803  1.00  0.00     0.163 HD
BRANCH   3   6
ATOM      6  C   UNL A   1      31.353  24.706  24.808  1.00  0.00     0.222 C 
BRANCH   6   7
ATOM      7  N   UNL A   1      32.811  24.634  24.801  1.00  0.00    -0.334 N 
ATOM      8  C   UNL A   1      33.643  24.905  23.723  1.00  0.00     0.107 A 
ATOM      9  C   UNL A   1      34.940  24.686  24.170  1.00  0.00     0.033 A 
ATOM     10  C   UNL A   1      34.887  24.280  25.523  1.00  0.00     0.020 A 
ATOM     11  C   UNL A   1      33.565  24.275  25.894  1.00  0.00     0.087 A 
BRANCH   8  12
ATOM     12  C   UNL A   1      33.173  25.387  22.440  1.00  0.00     0.268 C 
ATOM     13  N   UNL A   1      32.804  26.699  22.286  1.00  0.00    -0.348 N 
ATOM     14  H   UNL A   1      32.535  26.933  21.369  1.00  0.00     0.164 HD
ATOM     15  O   UNL A   1      33.147  24.676  21.441  1.00  0.00    -0.268 OA
BRANCH  13  16
ATOM     16  C   UNL A   1      32.734  27.814  23.231  1.00  0.00     0.079 C 
ATOM     17  C   UNL A   1      34.133  28.366  23.516  1.00  0.00     0.031 C 
BRANCH  16  18
ATOM     18  C   UNL A   1      31.787  28.906  22.697  1.00  0.00     0.028 C 
BRANCH  18  19
ATOM     19  C   UNL A   1      30.496  29.016  23.475  1.00  0.00    -0.009 C 
ATOM     20  C   UNL A   1      29.339  29.799  22.917  1.00  0.00     0.004 C 
ATOM     21  C   UNL A   1      29.258  28.300  22.994  1.00  0.00     0.004 C 
ENDBRANCH  18  19
ENDBRANCH  16  18
ENDBRANCH  13  16
ENDBRANCH   8  12
ENDBRANCH   6   7
ENDBRANCH   3   6
ENDBRANCH   1   2
BRANCH   1  22
ATOM     22  C   UNL A   1      31.770  28.234  27.482  1.00  0.00     0.023 C 
BRANCH  22  23
ATOM     23  C   UNL A   1      32.023  29.691  27.074  1.00  0.00     0.023 C 
BRANCH  23  24
ATOM     24  C   UNL A   1      33.459  30.176  27.288  1.00  0.00     0.116 C 
BRANCH  24  25
ATOM     25  N   UNL A   1      33.508  31.427  28.027  1.00  0.00    -0.352 N 
ATOM     26  C   UNL A   1      34.417  31.827  28.977  1.00  0.00     0.251 C 
ATOM     27  H   UNL A   1      32.794  32.073  27.821  1.00  0.00     0.163 HD
ATOM     28  O   UNL A   1      34.123  32.745  29.740  1.00  0.00    -0.269 OA
BRANCH  26  29
ATOM     29  C   UNL A   1      35.730  31.155  29.108  1.00  0.00     0.039 A 
ATOM     30  C   UNL A   1      36.591  31.162  28.004  1.00  0.00     0.014 A 
ATOM     31  C   UNL A   1      36.087  30.465  30.272  1.00  0.00     0.014 A 
ATOM     32  C   UNL A   1      37.834  30.540  28.094  1.00  0.00     0.010 A 
ATOM     33  C   UNL A   1      37.338  29.857  30.371  1.00  0.00     0.010 A 
ATOM     34  C   UNL A   1      38.222  29.913  29.287  1.00  0.00    -0.014 A 
BRANCH  34  35
ATOM     35  C   UNL A   1      39.644  29.510  29.440  1.00  0.00     0.031 A 
ATOM     36  C   UNL A   1      40.488  30.685  29.991  1.00  0.00     0.074 A 
ATOM     37  C   UNL A   1      40.003  28.249  29.039  1.00  0.00     0.049 A 
ATOM     38  N   UNL A   1      41.709  31.032  29.724  1.00  0.00    -0.248 NA
ATOM     39  C   UNL A   1      39.841  31.689  30.883  1.00  0.00     0.031 C 
ATOM     40  C   UNL A   1      39.057  27.213  28.566  1.00  0.00     0.029 A 
ATOM     41  N   UNL A   1      41.206  27.571  28.941  1.00  0.00    -0.354 N 
ATOM     42  C   UNL A   1      42.038  32.134  30.554  1.00  0.00     0.074 A 
ATOM     43  C   UNL A   1      40.806  32.580  31.127  1.00  0.00     0.031 C 
ATOM     44  C   UNL A   1      39.712  26.102  28.159  1.00  0.00     0.029 A 
ATOM     45  C   UNL A   1      41.141  26.281  28.332  1.00  0.00     0.049 A 
ATOM     46  H   UNL A   1      42.052  27.952  29.270  1.00  0.00     0.167 HD
ATOM     47  C   UNL A   1      43.326  32.508  30.832  1.00  0.00     0.037 A 
ATOM     48  C   UNL A   1      42.163  25.443  27.957  1.00  0.00     0.037 A 
ATOM     49  C   UNL A   1      44.223  31.604  30.196  1.00  0.00     0.049 A 
ATOM     50  C   UNL A   1      43.382  26.064  28.491  1.00  0.00     0.074 A 
ATOM     51  C   UNL A   1      44.529  31.389  28.877  1.00  0.00     0.029 A 
ATOM     52  N   UNL A   1      44.613  30.517  30.943  1.00  0.00    -0.354 N 
ATOM     53  N   UNL A   1      43.704  26.101  29.748  1.00  0.00    -0.248 NA
ATOM     54  C   UNL A   1      44.289  26.742  27.556  1.00  0.00     0.031 C 
ATOM     55  C   UNL A   1      44.607  29.986  28.806  1.00  0.00     0.029 A 
ATOM     56  C   UNL A   1      44.627  29.441  30.096  1.00  0.00     0.049 A 
ATOM     57  H   UNL A   1      44.840  30.514  31.901  1.00  0.00     0.167 HD
ATOM     58  C   UNL A   1      44.643  27.100  29.773  1.00  0.00     0.074 A 
ATOM     59  C   UNL A   1      45.175  27.212  28.429  1.00  0.00     0.031 C 
ATOM     60  C   UNL A   1      44.477  28.118  30.653  1.00  0.00     0.037 A 
BRANCH  47  61
ATOM     61  C   UNL A   1      43.947  33.442  31.842  1.00  0.00     0.058 A 
ATOM     62  C   UNL A   1      43.744  33.159  33.220  1.00  0.00     0.135 A 
ATOM     63  C   UNL A   1      44.404  34.732  31.544  1.00  0.00     0.135 A 
ATOM     64  F   UNL A   1      43.361  31.935  33.622  1.00  0.00    -0.206 F 
ATOM     65  C   UNL A   1      43.848  34.127  34.214  1.00  0.00     0.059 A 
ATOM     66  C   UNL A   1      44.559  35.710  32.535  1.00  0.00     0.059 A 
ATOM     67  F   UNL A   1      44.635  35.107  30.279  1.00  0.00    -0.206 F 
ATOM     68  C   UNL A   1      44.228  35.413  33.856  1.00  0.00     0.060 A 
BRANCH  68  69
ATOM     69  S   UNL A   1      44.246  36.684  35.139  1.00  0.00     0.124 S 
ATOM     70  O   UNL A   1      43.374  37.701  34.565  1.00  0.00    -0.237 OA
ATOM     71  O   UNL A   1      43.706  35.964  36.289  1.00  0.00    -0.237 OA
ATOM     72  O   UNL A   1      45.658  37.039  35.240  1.00  0.00    -0.744 OA
ENDBRANCH  68  69
ENDBRANCH  47  61
BRANCH  48  73
ATOM     73  C   UNL A   1      42.411  24.206  27.103  1.00  0.00     0.058 A 
ATOM     74  C   UNL A   1      42.600  24.177  25.718  1.00  0.00     0.135 A 
ATOM     75  C   UNL A   1      42.696  22.961  27.749  1.00  0.00     0.135 A 
ATOM     76  F   UNL A   1      42.234  25.211  24.950  1.00  0.00    -0.206 F 
ATOM     77  C   UNL A   1      43.207  23.083  25.064  1.00  0.00     0.059 A 
ATOM     78  C   UNL A   1      43.360  21.899  27.143  1.00  0.00     0.059 A 
ATOM     79  F   UNL A   1      42.390  22.749  29.038  1.00  0.00    -0.206 F 
ATOM     80  C   UNL A   1      43.654  21.984  25.799  1.00  0.00     0.060 A 
BRANCH  80  81
ATOM     81  S   UNL A   1      44.749  20.749  25.061  1.00  0.00     0.124 S 
ATOM     82  O   UNL A   1      46.054  21.153  25.567  1.00  0.00    -0.237 OA
ATOM     83  O   UNL A   1      44.217  19.499  25.595  1.00  0.00    -0.237 OA
ATOM     84  O   UNL A   1      44.542  20.936  23.627  1.00  0.00    -0.744 OA
ENDBRANCH  80  81
ENDBRANCH  48  73
BRANCH  60  85
ATOM     85  C   UNL A   1      43.778  27.737  31.949  1.00  0.00     0.058 A 
ATOM     86  C   UNL A   1      44.397  26.835  32.834  1.00  0.00     0.135 A 
ATOM     87  C   UNL A   1      42.488  28.157  32.316  1.00  0.00     0.135 A 
ATOM     88  F   UNL A   1      45.632  26.379  32.570  1.00  0.00    -0.206 F 
ATOM     89  C   UNL A   1      43.779  26.384  34.005  1.00  0.00     0.059 A 
ATOM     90  C   UNL A   1      41.848  27.732  33.486  1.00  0.00     0.059 A 
ATOM     91  F   UNL A   1      41.803  28.995  31.538  1.00  0.00    -0.206 F 
ATOM     92  C   UNL A   1      42.504  26.843  34.330  1.00  0.00     0.060 A 
BRANCH  92  93
ATOM     93  S   UNL A   1      41.745  26.297  35.877  1.00  0.00     0.124 S 
ATOM     94  O   UNL A   1      42.862  25.655  36.566  1.00  0.00    -0.237 OA
ATOM     95  O   UNL A   1      41.290  27.558  36.455  1.00  0.00    -0.237 OA
ATOM     96  O   UNL A   1      40.684  25.392  35.443  1.00  0.00    -0.744 OA
ENDBRANCH  92  93
ENDBRANCH  60  85
ENDBRANCH  34  35
ENDBRANCH  26  29
ENDBRANCH  24  25
ENDBRANCH  23  24
ENDBRANCH  22  23
ENDBRANCH   1  22
TORSDOF 19
ENDMDL
