MODEL 1
REMARK VINA RESULT:     -12.1      0.000      0.000
REMARK SMILES COc1ccc([C@H](C)NC(=O)[C@@H](C)n2cc(C(=O)NCCCCNC(=O)c3ccc(-c4c5nc(c(-c6c(F)cc(S(=O)(=O)[O-])cc6F)c6ccc([nH]6)c(-c6c(F)cc(S(=O)(=O)[O-])cc6F)c6nc(c(-c7c(F)cc(S(=O)(=O)[O-])cc7F)c7ccc4[nH]7)C=C6)C=C5)cc3)cn2)cc1
REMARK SMILES IDX 20 1 19 2 17 3 18 4 16 6 14 7 15 8 94 9 93 10 12 11 13 12
REMARK SMILES IDX 10 13 9 14 11 16 7 17 8 18 6 19 3 20 4 21 96 22 5 23 95 24
REMARK SMILES IDX 2 25 1 26 21 27 22 28 23 29 24 30 25 31 26 33 27 34 28 35
REMARK SMILES IDX 92 36 29 37 91 38 30 39 31 40 32 41 85 42 33 43 90 44 84 45
REMARK SMILES IDX 86 46 34 47 89 48 83 49 82 50 35 52 69 53 48 54 68 55 49 56
REMARK SMILES IDX 52 57 67 58 87 59 50 60 51 61 66 63 88 64 53 65 36 66 37 67
REMARK SMILES IDX 46 68 38 69 39 70 45 71 47 72 40 73 41 74 42 75 43 76 44 77
REMARK SMILES IDX 70 78 71 79 80 80 72 81 73 82 79 83 81 84 74 85 75 86 76 87
REMARK SMILES IDX 77 88 78 89 54 90 55 91 64 92 56 93 57 94 63 95 65 96 58 97
REMARK SMILES IDX 59 98 60 99 61 100 62 101
REMARK H PARENT 19 5 9 15 24 32 86 51 52 62
REMARK Flexibility Score: inf
ROOT
ATOM      1  C   UNL A   1      39.331  21.489  25.830  1.00  0.00     0.116 C 
ENDROOT
BRANCH   1   2
ATOM      2  N   UNL A   1      38.926  22.780  26.354  1.00  0.00    -0.352 N 
ATOM      3  C   UNL A   1      37.849  23.582  26.082  1.00  0.00     0.254 C 
ATOM      4  O   UNL A   1      37.746  24.631  26.729  1.00  0.00    -0.269 OA
ATOM      5  H   UNL A   1      39.539  23.148  27.031  1.00  0.00     0.163 HD
BRANCH   3   6
ATOM      6  C   UNL A   1      36.832  23.217  25.113  1.00  0.00     0.077 A 
ATOM      7  N   UNL A   1      34.958  22.850  24.008  1.00  0.00    -0.260 N 
ATOM      8  C   UNL A   1      35.514  22.838  25.263  1.00  0.00     0.123 A 
ATOM      9  N   UNL A   1      35.882  22.931  23.033  1.00  0.00    -0.180 NA
ATOM     10  C   UNL A   1      37.014  23.167  23.706  1.00  0.00     0.149 A 
BRANCH   7  11
ATOM     11  C   UNL A   1      33.532  22.812  23.717  1.00  0.00     0.193 C 
ATOM     12  C   UNL A   1      32.892  21.431  23.573  1.00  0.00     0.044 C 
BRANCH  11  13
ATOM     13  C   UNL A   1      33.201  23.715  22.531  1.00  0.00     0.245 C 
ATOM     14  N   UNL A   1      32.672  24.961  22.674  1.00  0.00    -0.348 N 
ATOM     15  H   UNL A   1      32.560  25.456  21.830  1.00  0.00     0.164 HD
ATOM     16  O   UNL A   1      33.416  23.320  21.378  1.00  0.00    -0.273 OA
BRANCH  14  17
ATOM     17  C   UNL A   1      32.244  25.691  23.865  1.00  0.00     0.109 C 
ATOM     18  C   UNL A   1      33.447  26.309  24.576  1.00  0.00     0.036 C 
BRANCH  17  19
ATOM     19  C   UNL A   1      31.196  26.728  23.529  1.00  0.00    -0.026 A 
ATOM     20  C   UNL A   1      29.150  28.527  22.874  1.00  0.00     0.118 A 
ATOM     21  C   UNL A   1      28.844  27.339  23.517  1.00  0.00     0.047 A 
ATOM     22  C   UNL A   1      30.485  28.860  22.620  1.00  0.00     0.047 A 
ATOM     23  C   UNL A   1      29.857  26.451  23.848  1.00  0.00     0.009 A 
ATOM     24  C   UNL A   1      31.505  27.962  22.944  1.00  0.00     0.009 A 
BRANCH  20  25
ATOM     25  O   UNL A   1      28.049  29.265  22.551  1.00  0.00    -0.497 OA
ATOM     26  C   UNL A   1      28.268  30.193  21.510  1.00  0.00     0.278 C 
ENDBRANCH  20  25
ENDBRANCH  17  19
ENDBRANCH  14  17
ENDBRANCH  11  13
ENDBRANCH   7  11
ENDBRANCH   3   6
ENDBRANCH   1   2
BRANCH   1  27
ATOM     27  C   UNL A   1      40.318  20.782  26.765  1.00  0.00     0.023 C 
BRANCH  27  28
ATOM     28  C   UNL A   1      41.262  19.777  26.082  1.00  0.00     0.023 C 
BRANCH  28  29
ATOM     29  C   UNL A   1      42.626  19.614  26.748  1.00  0.00     0.116 C 
BRANCH  29  30
ATOM     30  N   UNL A   1      43.720  19.415  25.794  1.00  0.00    -0.352 N 
ATOM     31  C   UNL A   1      44.268  20.353  24.938  1.00  0.00     0.251 C 
ATOM     32  H   UNL A   1      44.108  18.510  25.759  1.00  0.00     0.163 HD
ATOM     33  O   UNL A   1      44.852  20.008  23.912  1.00  0.00    -0.269 OA
BRANCH  31  34
ATOM     34  C   UNL A   1      44.162  21.777  25.298  1.00  0.00     0.039 A 
ATOM     35  C   UNL A   1      43.238  22.639  24.701  1.00  0.00     0.014 A 
ATOM     36  C   UNL A   1      44.997  22.229  26.315  1.00  0.00     0.014 A 
ATOM     37  C   UNL A   1      43.106  23.937  25.201  1.00  0.00     0.010 A 
ATOM     38  C   UNL A   1      44.747  23.442  26.902  1.00  0.00     0.010 A 
ATOM     39  C   UNL A   1      43.852  24.327  26.324  1.00  0.00    -0.014 A 
BRANCH  39  40
ATOM     40  C   UNL A   1      43.609  25.588  27.024  1.00  0.00     0.031 A 
ATOM     41  C   UNL A   1      44.611  26.646  26.727  1.00  0.00     0.074 A 
ATOM     42  C   UNL A   1      42.486  25.854  27.733  1.00  0.00     0.049 A 
ATOM     43  N   UNL A   1      45.500  27.104  27.542  1.00  0.00    -0.248 NA
ATOM     44  C   UNL A   1      44.766  27.134  25.346  1.00  0.00     0.031 C 
ATOM     45  C   UNL A   1      41.314  25.001  27.964  1.00  0.00     0.029 A 
ATOM     46  N   UNL A   1      42.125  27.010  28.362  1.00  0.00    -0.354 N 
ATOM     47  C   UNL A   1      46.175  28.106  26.857  1.00  0.00     0.074 A 
ATOM     48  C   UNL A   1      45.816  27.950  25.470  1.00  0.00     0.031 C 
ATOM     49  C   UNL A   1      40.308  25.734  28.504  1.00  0.00     0.029 A 
ATOM     50  C   UNL A   1      40.794  27.071  28.780  1.00  0.00     0.049 A 
ATOM     51  H   UNL A   1      42.757  27.749  28.510  1.00  0.00     0.167 HD
ATOM     52  C   UNL A   1      46.788  29.119  27.531  1.00  0.00     0.037 A 
ATOM     53  C   UNL A   1      40.150  28.122  29.362  1.00  0.00     0.037 A 
ATOM     54  C   UNL A   1      46.955  28.783  28.925  1.00  0.00     0.049 A 
ATOM     55  C   UNL A   1      41.213  28.927  30.015  1.00  0.00     0.074 A 
ATOM     56  C   UNL A   1      47.605  27.763  29.596  1.00  0.00     0.029 A 
ATOM     57  N   UNL A   1      46.049  29.295  29.824  1.00  0.00    -0.354 N 
ATOM     58  N   UNL A   1      41.920  28.481  31.018  1.00  0.00    -0.248 NA
ATOM     59  C   UNL A   1      41.826  29.991  29.237  1.00  0.00     0.031 C 
ATOM     60  C   UNL A   1      46.714  27.385  30.643  1.00  0.00     0.029 A 
ATOM     61  C   UNL A   1      45.624  28.256  30.618  1.00  0.00     0.049 A 
ATOM     62  H   UNL A   1      45.758  30.233  29.889  1.00  0.00     0.167 HD
ATOM     63  C   UNL A   1      43.218  28.874  30.735  1.00  0.00     0.074 A 
ATOM     64  C   UNL A   1      43.088  29.864  29.661  1.00  0.00     0.031 C 
ATOM     65  C   UNL A   1      44.293  28.160  31.182  1.00  0.00     0.037 A 
BRANCH  52  66
ATOM     66  C   UNL A   1      46.921  30.529  27.010  1.00  0.00     0.058 A 
ATOM     67  C   UNL A   1      48.177  31.169  27.041  1.00  0.00     0.135 A 
ATOM     68  C   UNL A   1      45.820  31.364  26.718  1.00  0.00     0.135 A 
ATOM     69  F   UNL A   1      49.290  30.476  27.329  1.00  0.00    -0.206 F 
ATOM     70  C   UNL A   1      48.320  32.544  26.846  1.00  0.00     0.059 A 
ATOM     71  C   UNL A   1      45.945  32.725  26.468  1.00  0.00     0.059 A 
ATOM     72  F   UNL A   1      44.557  30.921  26.756  1.00  0.00    -0.206 F 
ATOM     73  C   UNL A   1      47.194  33.314  26.567  1.00  0.00     0.060 A 
BRANCH  73  74
ATOM     74  S   UNL A   1      47.365  35.098  26.383  1.00  0.00     0.124 S 
ATOM     75  O   UNL A   1      46.284  35.400  25.454  1.00  0.00    -0.237 OA
ATOM     76  O   UNL A   1      47.181  35.560  27.756  1.00  0.00    -0.237 OA
ATOM     77  O   UNL A   1      48.717  35.252  25.854  1.00  0.00    -0.744 OA
ENDBRANCH  73  74
ENDBRANCH  52  66
BRANCH  53  78
ATOM     78  C   UNL A   1      38.791  28.679  29.072  1.00  0.00     0.058 A 
ATOM     79  C   UNL A   1      37.823  28.864  30.075  1.00  0.00     0.135 A 
ATOM     80  C   UNL A   1      38.521  29.331  27.855  1.00  0.00     0.135 A 
ATOM     81  F   UNL A   1      37.993  28.303  31.281  1.00  0.00    -0.206 F 
ATOM     82  C   UNL A   1      36.693  29.682  29.895  1.00  0.00     0.059 A 
ATOM     83  C   UNL A   1      37.408  30.147  27.643  1.00  0.00     0.059 A 
ATOM     84  F   UNL A   1      39.402  29.269  26.855  1.00  0.00    -0.206 F 
ATOM     85  C   UNL A   1      36.505  30.341  28.680  1.00  0.00     0.060 A 
BRANCH  85  86
ATOM     86  S   UNL A   1      35.160  31.541  28.498  1.00  0.00     0.124 S 
ATOM     87  O   UNL A   1      35.777  32.565  27.663  1.00  0.00    -0.237 OA
ATOM     88  O   UNL A   1      34.117  30.743  27.861  1.00  0.00    -0.237 OA
ATOM     89  O   UNL A   1      34.875  31.945  29.873  1.00  0.00    -0.744 OA
ENDBRANCH  85  86
ENDBRANCH  53  78
BRANCH  65  90
ATOM     90  C   UNL A   1      44.057  27.056  32.191  1.00  0.00     0.058 A 
ATOM     91  C   UNL A   1      44.029  25.681  31.891  1.00  0.00     0.135 A 
ATOM     92  C   UNL A   1      44.017  27.402  33.550  1.00  0.00     0.135 A 
ATOM     93  F   UNL A   1      44.163  25.246  30.632  1.00  0.00    -0.206 F 
ATOM     94  C   UNL A   1      43.926  24.704  32.885  1.00  0.00     0.059 A 
ATOM     95  C   UNL A   1      43.945  26.446  34.561  1.00  0.00     0.059 A 
ATOM     96  F   UNL A   1      44.101  28.693  33.915  1.00  0.00    -0.206 F 
ATOM     97  C   UNL A   1      43.886  25.097  34.221  1.00  0.00     0.060 A 
BRANCH  97  98
ATOM     98  S   UNL A   1      43.814  23.835  35.512  1.00  0.00     0.124 S 
ATOM     99  O   UNL A   1      43.825  22.600  34.735  1.00  0.00    -0.237 OA
ATOM    100  O   UNL A   1      45.021  24.106  36.289  1.00  0.00    -0.237 OA
ATOM    101  O   UNL A   1      42.560  24.126  36.203  1.00  0.00    -0.744 OA
ENDBRANCH  97  98
ENDBRANCH  65  90
ENDBRANCH  39  40
ENDBRANCH  31  34
ENDBRANCH  29  30
ENDBRANCH  28  29
ENDBRANCH  27  28
ENDBRANCH   1  27
TORSDOF 19
ENDMDL
MODEL 2
REMARK VINA RESULT:     -11.7      2.320      3.169
REMARK SMILES COc1ccc([C@H](C)NC(=O)[C@@H](C)n2cc(C(=O)NCCCCNC(=O)c3ccc(-c4c5nc(c(-c6c(F)cc(S(=O)(=O)[O-])cc6F)c6ccc([nH]6)c(-c6c(F)cc(S(=O)(=O)[O-])cc6F)c6nc(c(-c7c(F)cc(S(=O)(=O)[O-])cc7F)c7ccc4[nH]7)C=C6)C=C5)cc3)cn2)cc1
REMARK SMILES IDX 20 1 19 2 17 3 18 4 16 6 14 7 15 8 94 9 93 10 12 11 13 12
REMARK SMILES IDX 10 13 9 14 11 16 7 17 8 18 6 19 3 20 4 21 96 22 5 23 95 24
REMARK SMILES IDX 2 25 1 26 21 27 22 28 23 29 24 30 25 31 26 33 27 34 28 35
REMARK SMILES IDX 92 36 29 37 91 38 30 39 31 40 32 41 85 42 33 43 90 44 84 45
REMARK SMILES IDX 86 46 34 47 89 48 83 49 82 50 35 52 69 53 48 54 68 55 49 56
REMARK SMILES IDX 52 57 67 58 87 59 50 60 51 61 66 63 88 64 53 65 36 66 37 67
REMARK SMILES IDX 46 68 38 69 39 70 45 71 47 72 40 73 41 74 42 75 43 76 44 77
REMARK SMILES IDX 70 78 71 79 80 80 72 81 73 82 79 83 81 84 74 85 75 86 76 87
REMARK SMILES IDX 77 88 78 89 54 90 55 91 64 92 56 93 57 94 63 95 65 96 58 97
REMARK SMILES IDX 59 98 60 99 61 100 62 101
REMARK H PARENT 19 5 9 15 24 32 86 51 52 62
REMARK Flexibility Score: inf
ROOT
ATOM      1  C   UNL A   1      37.263  21.077  24.683  1.00  0.00     0.116 C 
ENDROOT
BRANCH   1   2
ATOM      2  N   UNL A   1      36.038  20.814  25.416  1.00  0.00    -0.352 N 
ATOM      3  C   UNL A   1      34.767  21.309  25.281  1.00  0.00     0.254 C 
ATOM      4  O   UNL A   1      33.901  20.859  26.041  1.00  0.00    -0.269 OA
ATOM      5  H   UNL A   1      36.138  20.159  26.144  1.00  0.00     0.163 HD
BRANCH   3   6
ATOM      6  C   UNL A   1      34.415  22.284  24.266  1.00  0.00     0.077 A 
ATOM      7  N   UNL A   1      33.501  23.894  23.065  1.00  0.00    -0.260 N 
ATOM      8  C   UNL A   1      33.211  22.866  23.927  1.00  0.00     0.123 A 
ATOM      9  N   UNL A   1      34.763  23.841  22.602  1.00  0.00    -0.180 NA
ATOM     10  C   UNL A   1      35.318  22.873  23.341  1.00  0.00     0.149 A 
BRANCH   7  11
ATOM     11  C   UNL A   1      32.586  24.962  22.689  1.00  0.00     0.193 C 
ATOM     12  C   UNL A   1      32.741  25.543  21.283  1.00  0.00     0.044 C 
BRANCH  11  13
ATOM     13  C   UNL A   1      32.570  26.056  23.754  1.00  0.00     0.245 C 
ATOM     14  N   UNL A   1      31.430  26.681  24.156  1.00  0.00    -0.348 N 
ATOM     15  H   UNL A   1      31.556  27.327  24.889  1.00  0.00     0.164 HD
ATOM     16  O   UNL A   1      33.628  26.406  24.292  1.00  0.00    -0.273 OA
BRANCH  14  17
ATOM     17  C   UNL A   1      30.051  26.556  23.689  1.00  0.00     0.109 C 
ATOM     18  C   UNL A   1      29.144  26.073  24.819  1.00  0.00     0.036 C 
BRANCH  17  19
ATOM     19  C   UNL A   1      29.554  27.850  23.084  1.00  0.00    -0.026 A 
ATOM     20  C   UNL A   1      28.781  30.314  21.998  1.00  0.00     0.118 A 
ATOM     21  C   UNL A   1      30.087  29.878  21.855  1.00  0.00     0.047 A 
ATOM     22  C   UNL A   1      27.833  29.493  22.620  1.00  0.00     0.047 A 
ATOM     23  C   UNL A   1      30.469  28.654  22.386  1.00  0.00     0.009 A 
ATOM     24  C   UNL A   1      28.220  28.265  23.163  1.00  0.00     0.009 A 
BRANCH  20  25
ATOM     25  O   UNL A   1      28.569  31.562  21.488  1.00  0.00    -0.497 OA
ATOM     26  C   UNL A   1      28.738  32.601  22.427  1.00  0.00     0.278 C 
ENDBRANCH  20  25
ENDBRANCH  17  19
ENDBRANCH  14  17
ENDBRANCH  11  13
ENDBRANCH   7  11
ENDBRANCH   3   6
ENDBRANCH   1   2
BRANCH   1  27
ATOM     27  C   UNL A   1      38.499  20.612  25.462  1.00  0.00     0.023 C 
BRANCH  27  28
ATOM     28  C   UNL A   1      39.364  21.740  26.051  1.00  0.00     0.023 C 
BRANCH  28  29
ATOM     29  C   UNL A   1      40.661  21.283  26.714  1.00  0.00     0.116 C 
BRANCH  29  30
ATOM     30  N   UNL A   1      41.855  21.564  25.913  1.00  0.00    -0.352 N 
ATOM     31  C   UNL A   1      42.399  22.804  25.625  1.00  0.00     0.251 C 
ATOM     32  H   UNL A   1      42.323  20.783  25.539  1.00  0.00     0.163 HD
ATOM     33  O   UNL A   1      43.106  22.967  24.633  1.00  0.00    -0.269 OA
BRANCH  31  34
ATOM     34  C   UNL A   1      42.133  23.918  26.549  1.00  0.00     0.039 A 
ATOM     35  C   UNL A   1      42.846  24.098  27.738  1.00  0.00     0.014 A 
ATOM     36  C   UNL A   1      41.161  24.834  26.161  1.00  0.00     0.014 A 
ATOM     37  C   UNL A   1      42.629  25.259  28.485  1.00  0.00     0.010 A 
ATOM     38  C   UNL A   1      41.073  26.038  26.810  1.00  0.00     0.010 A 
ATOM     39  C   UNL A   1      41.751  26.242  28.000  1.00  0.00    -0.014 A 
BRANCH  39  40
ATOM     40  C   UNL A   1      41.639  27.563  28.618  1.00  0.00     0.031 A 
ATOM     41  C   UNL A   1      42.744  28.491  28.261  1.00  0.00     0.074 A 
ATOM     42  C   UNL A   1      40.549  27.987  29.301  1.00  0.00     0.049 A 
ATOM     43  N   UNL A   1      43.677  28.906  29.052  1.00  0.00    -0.248 NA
ATOM     44  C   UNL A   1      42.949  28.873  26.853  1.00  0.00     0.031 C 
ATOM     45  C   UNL A   1      39.296  27.276  29.578  1.00  0.00     0.029 A 
ATOM     46  N   UNL A   1      40.309  29.212  29.853  1.00  0.00    -0.354 N 
ATOM     47  C   UNL A   1      44.450  29.788  28.309  1.00  0.00     0.074 A 
ATOM     48  C   UNL A   1      44.078  29.583  26.933  1.00  0.00     0.031 C 
ATOM     49  C   UNL A   1      38.370  28.141  30.063  1.00  0.00     0.029 A 
ATOM     50  C   UNL A   1      38.991  29.435  30.258  1.00  0.00     0.049 A 
ATOM     51  H   UNL A   1      41.014  29.890  29.959  1.00  0.00     0.167 HD
ATOM     52  C   UNL A   1      45.165  30.774  28.922  1.00  0.00     0.037 A 
ATOM     53  C   UNL A   1      38.460  30.582  30.768  1.00  0.00     0.037 A 
ATOM     54  C   UNL A   1      45.296  30.512  30.336  1.00  0.00     0.049 A 
ATOM     55  C   UNL A   1      39.599  31.314  31.377  1.00  0.00     0.074 A 
ATOM     56  C   UNL A   1      45.838  29.475  31.074  1.00  0.00     0.029 A 
ATOM     57  N   UNL A   1      44.447  31.170  31.194  1.00  0.00    -0.354 N 
ATOM     58  N   UNL A   1      40.256  30.862  32.410  1.00  0.00    -0.248 NA
ATOM     59  C   UNL A   1      40.319  32.257  30.536  1.00  0.00     0.031 C 
ATOM     60  C   UNL A   1      44.912  29.258  32.137  1.00  0.00     0.029 A 
ATOM     61  C   UNL A   1      43.917  30.232  32.049  1.00  0.00     0.049 A 
ATOM     62  H   UNL A   1      44.254  32.136  31.198  1.00  0.00     0.167 HD
ATOM     63  C   UNL A   1      41.588  31.100  32.111  1.00  0.00     0.074 A 
ATOM     64  C   UNL A   1      41.560  32.029  30.976  1.00  0.00     0.031 C 
ATOM     65  C   UNL A   1      42.584  30.310  32.609  1.00  0.00     0.037 A 
BRANCH  52  66
ATOM     66  C   UNL A   1      45.442  32.127  28.313  1.00  0.00     0.058 A 
ATOM     67  C   UNL A   1      46.774  32.561  28.157  1.00  0.00     0.135 A 
ATOM     68  C   UNL A   1      44.452  33.115  28.115  1.00  0.00     0.135 A 
ATOM     69  F   UNL A   1      47.797  31.712  28.342  1.00  0.00    -0.206 F 
ATOM     70  C   UNL A   1      47.098  33.889  27.872  1.00  0.00     0.059 A 
ATOM     71  C   UNL A   1      44.750  34.430  27.779  1.00  0.00     0.059 A 
ATOM     72  F   UNL A   1      43.153  32.878  28.331  1.00  0.00    -0.206 F 
ATOM     73  C   UNL A   1      46.076  34.818  27.692  1.00  0.00     0.060 A 
BRANCH  73  74
ATOM     74  S   UNL A   1      46.492  36.544  27.394  1.00  0.00     0.124 S 
ATOM     75  O   UNL A   1      46.287  36.649  25.955  1.00  0.00    -0.237 OA
ATOM     76  O   UNL A   1      45.518  37.237  28.233  1.00  0.00    -0.237 OA
ATOM     77  O   UNL A   1      47.877  36.638  27.845  1.00  0.00    -0.744 OA
ENDBRANCH  73  74
ENDBRANCH  52  66
BRANCH  53  78
ATOM     78  C   UNL A   1      37.165  31.256  30.434  1.00  0.00     0.058 A 
ATOM     79  C   UNL A   1      36.422  31.974  31.389  1.00  0.00     0.135 A 
ATOM     80  C   UNL A   1      36.785  31.471  29.098  1.00  0.00     0.135 A 
ATOM     81  F   UNL A   1      36.716  31.859  32.692  1.00  0.00    -0.206 F 
ATOM     82  C   UNL A   1      35.407  32.881  31.032  1.00  0.00     0.059 A 
ATOM     83  C   UNL A   1      35.780  32.361  28.711  1.00  0.00     0.059 A 
ATOM     84  F   UNL A   1      37.461  30.884  28.109  1.00  0.00    -0.206 F 
ATOM     85  C   UNL A   1      35.108  33.086  29.685  1.00  0.00     0.060 A 
BRANCH  85  86
ATOM     86  S   UNL A   1      33.938  34.383  29.205  1.00  0.00     0.124 S 
ATOM     87  O   UNL A   1      33.100  33.691  28.231  1.00  0.00    -0.237 OA
ATOM     88  O   UNL A   1      33.299  34.711  30.475  1.00  0.00    -0.237 OA
ATOM     89  O   UNL A   1      34.796  35.431  28.656  1.00  0.00    -0.744 OA
ENDBRANCH  85  86
ENDBRANCH  53  78
BRANCH  65  90
ATOM     90  C   UNL A   1      42.236  29.302  33.685  1.00  0.00     0.058 A 
ATOM     91  C   UNL A   1      41.791  27.988  33.445  1.00  0.00     0.135 A 
ATOM     92  C   UNL A   1      42.519  29.635  35.017  1.00  0.00     0.135 A 
ATOM     93  F   UNL A   1      41.590  27.544  32.199  1.00  0.00    -0.206 F 
ATOM     94  C   UNL A   1      41.600  27.066  34.479  1.00  0.00     0.059 A 
ATOM     95  C   UNL A   1      42.367  28.725  36.062  1.00  0.00     0.059 A 
ATOM     96  F   UNL A   1      43.005  30.852  35.315  1.00  0.00    -0.206 F 
ATOM     97  C   UNL A   1      41.892  27.445  35.787  1.00  0.00     0.060 A 
BRANCH  97  98
ATOM     98  S   UNL A   1      41.705  26.239  37.119  1.00  0.00     0.124 S 
ATOM     99  O   UNL A   1      40.392  26.578  37.659  1.00  0.00    -0.237 OA
ATOM    100  O   UNL A   1      41.788  24.965  36.410  1.00  0.00    -0.237 OA
ATOM    101  O   UNL A   1      42.835  26.526  38.000  1.00  0.00    -0.744 OA
ENDBRANCH  97  98
ENDBRANCH  65  90
ENDBRANCH  39  40
ENDBRANCH  31  34
ENDBRANCH  29  30
ENDBRANCH  28  29
ENDBRANCH  27  28
ENDBRANCH   1  27
TORSDOF 19
ENDMDL
MODEL 3
REMARK VINA RESULT:     -11.4      2.479      3.318
REMARK SMILES COc1ccc([C@H](C)NC(=O)[C@@H](C)n2cc(C(=O)NCCCCNC(=O)c3ccc(-c4c5nc(c(-c6c(F)cc(S(=O)(=O)[O-])cc6F)c6ccc([nH]6)c(-c6c(F)cc(S(=O)(=O)[O-])cc6F)c6nc(c(-c7c(F)cc(S(=O)(=O)[O-])cc7F)c7ccc4[nH]7)C=C6)C=C5)cc3)cn2)cc1
REMARK SMILES IDX 20 1 19 2 17 3 18 4 16 6 14 7 15 8 94 9 93 10 12 11 13 12
REMARK SMILES IDX 10 13 9 14 11 16 7 17 8 18 6 19 3 20 4 21 96 22 5 23 95 24
REMARK SMILES IDX 2 25 1 26 21 27 22 28 23 29 24 30 25 31 26 33 27 34 28 35
REMARK SMILES IDX 92 36 29 37 91 38 30 39 31 40 32 41 85 42 33 43 90 44 84 45
REMARK SMILES IDX 86 46 34 47 89 48 83 49 82 50 35 52 69 53 48 54 68 55 49 56
REMARK SMILES IDX 52 57 67 58 87 59 50 60 51 61 66 63 88 64 53 65 36 66 37 67
REMARK SMILES IDX 46 68 38 69 39 70 45 71 47 72 40 73 41 74 42 75 43 76 44 77
REMARK SMILES IDX 70 78 71 79 80 80 72 81 73 82 79 83 81 84 74 85 75 86 76 87
REMARK SMILES IDX 77 88 78 89 54 90 55 91 64 92 56 93 57 94 63 95 65 96 58 97
REMARK SMILES IDX 59 98 60 99 61 100 62 101
REMARK H PARENT 19 5 9 15 24 32 86 51 52 62
REMARK Flexibility Score: inf
ROOT
ATOM      1  C   UNL A   1      38.902  22.691  26.324  1.00  0.00     0.116 C 
ENDROOT
BRANCH   1   2
ATOM      2  N   UNL A   1      38.601  21.387  25.764  1.00  0.00    -0.352 N 
ATOM      3  C   UNL A   1      37.604  20.958  24.927  1.00  0.00     0.254 C 
ATOM      4  O   UNL A   1      37.628  19.770  24.581  1.00  0.00    -0.269 OA
ATOM      5  H   UNL A   1      39.229  20.679  26.035  1.00  0.00     0.163 HD
BRANCH   3   6
ATOM      6  C   UNL A   1      36.580  21.849  24.416  1.00  0.00     0.077 A 
ATOM      7  N   UNL A   1      34.884  23.235  24.146  1.00  0.00    -0.260 N 
ATOM      8  C   UNL A   1      35.312  22.149  24.869  1.00  0.00     0.123 A 
ATOM      9  N   UNL A   1      35.658  23.480  23.073  1.00  0.00    -0.180 NA
ATOM     10  C   UNL A   1      36.692  22.648  23.247  1.00  0.00     0.149 A 
BRANCH   7  11
ATOM     11  C   UNL A   1      33.744  24.075  24.482  1.00  0.00     0.193 C 
ATOM     12  C   UNL A   1      33.371  24.176  25.961  1.00  0.00     0.044 C 
BRANCH  11  13
ATOM     13  C   UNL A   1      32.537  23.712  23.620  1.00  0.00     0.245 C 
ATOM     14  N   UNL A   1      32.152  24.444  22.539  1.00  0.00    -0.348 N 
ATOM     15  H   UNL A   1      31.392  24.067  22.040  1.00  0.00     0.164 HD
ATOM     16  O   UNL A   1      31.864  22.711  23.893  1.00  0.00    -0.273 OA
BRANCH  14  17
ATOM     17  C   UNL A   1      32.676  25.694  21.991  1.00  0.00     0.109 C 
ATOM     18  C   UNL A   1      32.576  25.694  20.466  1.00  0.00     0.036 C 
BRANCH  17  19
ATOM     19  C   UNL A   1      31.987  26.895  22.599  1.00  0.00    -0.026 A 
ATOM     20  C   UNL A   1      30.612  29.124  23.594  1.00  0.00     0.118 A 
ATOM     21  C   UNL A   1      29.928  28.157  22.876  1.00  0.00     0.047 A 
ATOM     22  C   UNL A   1      31.969  28.951  23.884  1.00  0.00     0.047 A 
ATOM     23  C   UNL A   1      30.607  27.049  22.389  1.00  0.00     0.009 A 
ATOM     24  C   UNL A   1      32.656  27.840  23.386  1.00  0.00     0.009 A 
BRANCH  20  25
ATOM     25  O   UNL A   1      29.832  30.186  23.948  1.00  0.00    -0.497 OA
ATOM     26  C   UNL A   1      29.187  30.812  22.860  1.00  0.00     0.278 C 
ENDBRANCH  20  25
ENDBRANCH  17  19
ENDBRANCH  14  17
ENDBRANCH  11  13
ENDBRANCH   7  11
ENDBRANCH   3   6
ENDBRANCH   1   2
BRANCH   1  27
ATOM     27  C   UNL A   1      40.338  22.760  26.859  1.00  0.00     0.023 C 
BRANCH  27  28
ATOM     28  C   UNL A   1      41.339  21.816  26.170  1.00  0.00     0.023 C 
BRANCH  28  29
ATOM     29  C   UNL A   1      42.766  21.884  26.706  1.00  0.00     0.116 C 
BRANCH  29  30
ATOM     30  N   UNL A   1      43.708  22.512  25.776  1.00  0.00    -0.352 N 
ATOM     31  C   UNL A   1      43.794  23.854  25.448  1.00  0.00     0.251 C 
ATOM     32  H   UNL A   1      44.352  21.911  25.336  1.00  0.00     0.163 HD
ATOM     33  O   UNL A   1      44.293  24.212  24.382  1.00  0.00    -0.269 OA
BRANCH  31  34
ATOM     34  C   UNL A   1      43.299  24.845  26.416  1.00  0.00     0.039 A 
ATOM     35  C   UNL A   1      43.792  24.938  27.721  1.00  0.00     0.014 A 
ATOM     36  C   UNL A   1      42.338  25.741  25.958  1.00  0.00     0.014 A 
ATOM     37  C   UNL A   1      43.370  25.997  28.528  1.00  0.00     0.010 A 
ATOM     38  C   UNL A   1      42.056  26.862  26.695  1.00  0.00     0.010 A 
ATOM     39  C   UNL A   1      42.514  26.975  27.997  1.00  0.00    -0.014 A 
BRANCH  39  40
ATOM     40  C   UNL A   1      42.205  28.214  28.711  1.00  0.00     0.031 A 
ATOM     41  C   UNL A   1      43.242  29.269  28.565  1.00  0.00     0.074 A 
ATOM     42  C   UNL A   1      41.012  28.469  29.300  1.00  0.00     0.049 A 
ATOM     43  N   UNL A   1      44.039  29.687  29.490  1.00  0.00    -0.248 NA
ATOM     44  C   UNL A   1      43.554  29.803  27.229  1.00  0.00     0.031 C 
ATOM     45  C   UNL A   1      39.815  27.623  29.369  1.00  0.00     0.029 A 
ATOM     46  N   UNL A   1      40.593  29.606  29.926  1.00  0.00    -0.354 N 
ATOM     47  C   UNL A   1      44.794  30.704  28.921  1.00  0.00     0.074 A 
ATOM     48  C   UNL A   1      44.591  30.601  27.498  1.00  0.00     0.031 C 
ATOM     49  C   UNL A   1      38.761  28.349  29.819  1.00  0.00     0.029 A 
ATOM     50  C   UNL A   1      39.224  29.669  30.195  1.00  0.00     0.049 A 
ATOM     51  H   UNL A   1      41.211  30.332  30.170  1.00  0.00     0.167 HD
ATOM     52  C   UNL A   1      45.337  31.686  29.695  1.00  0.00     0.037 A 
ATOM     53  C   UNL A   1      38.528  30.707  30.739  1.00  0.00     0.037 A 
ATOM     54  C   UNL A   1      45.344  31.300  31.086  1.00  0.00     0.049 A 
ATOM     55  C   UNL A   1      39.518  31.476  31.536  1.00  0.00     0.074 A 
ATOM     56  C   UNL A   1      45.907  30.249  31.788  1.00  0.00     0.029 A 
ATOM     57  N   UNL A   1      44.348  31.791  31.896  1.00  0.00    -0.354 N 
ATOM     58  N   UNL A   1      40.105  30.987  32.594  1.00  0.00    -0.248 NA
ATOM     59  C   UNL A   1      40.223  32.559  30.868  1.00  0.00     0.031 C 
ATOM     60  C   UNL A   1      44.901  29.846  32.715  1.00  0.00     0.029 A 
ATOM     61  C   UNL A   1      43.828  30.730  32.600  1.00  0.00     0.049 A 
ATOM     62  H   UNL A   1      44.059  32.730  31.962  1.00  0.00     0.167 HD
ATOM     63  C   UNL A   1      41.430  31.373  32.471  1.00  0.00     0.074 A 
ATOM     64  C   UNL A   1      41.428  32.402  31.426  1.00  0.00     0.031 C 
ATOM     65  C   UNL A   1      42.442  30.631  33.009  1.00  0.00     0.037 A 
BRANCH  52  66
ATOM     66  C   UNL A   1      45.539  33.111  29.242  1.00  0.00     0.058 A 
ATOM     67  C   UNL A   1      44.418  33.913  28.944  1.00  0.00     0.135 A 
ATOM     68  C   UNL A   1      46.787  33.639  28.846  1.00  0.00     0.135 A 
ATOM     69  F   UNL A   1      43.179  33.501  29.257  1.00  0.00    -0.206 F 
ATOM     70  C   UNL A   1      44.528  35.126  28.260  1.00  0.00     0.059 A 
ATOM     71  C   UNL A   1      46.925  34.867  28.211  1.00  0.00     0.059 A 
ATOM     72  F   UNL A   1      47.927  32.946  28.967  1.00  0.00    -0.206 F 
ATOM     73  C   UNL A   1      45.788  35.589  27.891  1.00  0.00     0.060 A 
BRANCH  73  74
ATOM     74  S   UNL A   1      45.928  37.117  26.948  1.00  0.00     0.124 S 
ATOM     75  O   UNL A   1      44.531  37.396  26.636  1.00  0.00    -0.237 OA
ATOM     76  O   UNL A   1      46.560  38.010  27.915  1.00  0.00    -0.237 OA
ATOM     77  O   UNL A   1      46.766  36.736  25.815  1.00  0.00    -0.744 OA
ENDBRANCH  73  74
ENDBRANCH  52  66
BRANCH  53  78
ATOM     78  C   UNL A   1      37.214  31.291  30.320  1.00  0.00     0.058 A 
ATOM     79  C   UNL A   1      36.318  31.866  31.239  1.00  0.00     0.135 A 
ATOM     80  C   UNL A   1      36.948  31.575  28.969  1.00  0.00     0.135 A 
ATOM     81  F   UNL A   1      36.494  31.675  32.555  1.00  0.00    -0.206 F 
ATOM     82  C   UNL A   1      35.263  32.706  30.842  1.00  0.00     0.059 A 
ATOM     83  C   UNL A   1      35.906  32.402  28.542  1.00  0.00     0.059 A 
ATOM     84  F   UNL A   1      37.769  31.127  28.018  1.00  0.00    -0.206 F 
ATOM     85  C   UNL A   1      35.078  32.988  29.489  1.00  0.00     0.060 A 
BRANCH  85  86
ATOM     86  S   UNL A   1      33.843  34.213  28.979  1.00  0.00     0.124 S 
ATOM     87  O   UNL A   1      33.032  33.451  28.035  1.00  0.00    -0.237 OA
ATOM     88  O   UNL A   1      33.198  34.548  30.245  1.00  0.00    -0.237 OA
ATOM     89  O   UNL A   1      34.645  35.283  28.391  1.00  0.00    -0.744 OA
ENDBRANCH  85  86
ENDBRANCH  53  78
BRANCH  65  90
ATOM     90  C   UNL A   1      42.086  29.496  33.945  1.00  0.00     0.058 A 
ATOM     91  C   UNL A   1      41.876  28.161  33.551  1.00  0.00     0.135 A 
ATOM     92  C   UNL A   1      42.117  29.745  35.325  1.00  0.00     0.135 A 
ATOM     93  F   UNL A   1      41.928  27.805  32.262  1.00  0.00    -0.206 F 
ATOM     94  C   UNL A   1      41.667  27.135  34.478  1.00  0.00     0.059 A 
ATOM     95  C   UNL A   1      41.943  28.734  36.269  1.00  0.00     0.059 A 
ATOM     96  F   UNL A   1      42.373  30.984  35.777  1.00  0.00    -0.206 F 
ATOM     97  C   UNL A   1      41.704  27.432  35.838  1.00  0.00     0.060 A 
BRANCH  97  98
ATOM     98  S   UNL A   1      41.496  26.099  37.040  1.00  0.00     0.124 S 
ATOM     99  O   UNL A   1      42.685  26.248  37.872  1.00  0.00    -0.237 OA
ATOM    100  O   UNL A   1      40.228  26.442  37.679  1.00  0.00    -0.237 OA
ATOM    101  O   UNL A   1      41.461  24.896  36.212  1.00  0.00    -0.744 OA
ENDBRANCH  97  98
ENDBRANCH  65  90
ENDBRANCH  39  40
ENDBRANCH  31  34
ENDBRANCH  29  30
ENDBRANCH  28  29
ENDBRANCH  27  28
ENDBRANCH   1  27
TORSDOF 19
ENDMDL
