MODEL 1
REMARK VINA RESULT:     -11.2      0.000      0.000
REMARK SMILES COCCCC(=O)N[C@H]1CC[C@@H](C(=O)NCCCCNC(=O)c2ccc(-c3c4nc(c(-c5c(F)cc(S(=O)(=O)[O-])cc5F)c5ccc([nH]5)c(-c5c(F)cc(S(=O)(=O)[O-])cc5F)c5nc(c(-c6c(F)cc(S(=O)(=O)[O-])cc6F)c6ccc3[nH]6)C=C5)C=C4)cc2)CC1
REMARK SMILES IDX 16 1 15 2 13 3 14 4 12 6 9 7 10 8 90 9 11 10 89 11 8 12 6 13
REMARK SMILES IDX 7 14 5 16 4 17 3 18 2 19 1 20 17 21 18 22 19 23 20 24 21 25
REMARK SMILES IDX 22 27 23 28 24 29 88 30 25 31 87 32 26 33 27 34 28 35 81 36
REMARK SMILES IDX 29 37 86 38 80 39 82 40 30 41 85 42 79 43 78 44 31 46 65 47
REMARK SMILES IDX 44 48 64 49 45 50 48 51 63 52 83 53 46 54 47 55 62 57 84 58
REMARK SMILES IDX 49 59 32 60 33 61 42 62 34 63 35 64 41 65 43 66 36 67 37 68
REMARK SMILES IDX 38 69 39 70 40 71 66 72 67 73 76 74 68 75 69 76 75 77 77 78
REMARK SMILES IDX 70 79 71 80 72 81 73 82 74 83 50 84 51 85 60 86 52 87 53 88
REMARK SMILES IDX 59 89 61 90 54 91 55 92 56 93 57 94 58 95
REMARK H PARENT 15 5 8 15 20 26 82 45 48 56
REMARK Flexibility Score: inf
ROOT
ATOM      1  C   UNL A   1      38.123  21.789  25.366  1.00  0.00     0.116 C 
ENDROOT
BRANCH   1   2
ATOM      2  N   UNL A   1      36.955  21.896  26.199  1.00  0.00    -0.356 N 
ATOM      3  C   UNL A   1      35.640  21.974  25.873  1.00  0.00     0.223 C 
ATOM      4  O   UNL A   1      34.836  21.791  26.797  1.00  0.00    -0.275 OA
ATOM      5  H   UNL A   1      37.139  21.917  27.167  1.00  0.00     0.163 HD
BRANCH   3   6
ATOM      6  C   UNL A   1      35.091  22.249  24.457  1.00  0.00     0.078 C 
ATOM      7  C   UNL A   1      32.632  24.047  24.144  1.00  0.00     0.082 C 
ATOM      8  C   UNL A   1      34.057  24.582  24.320  1.00  0.00     0.026 C 
ATOM      9  C   UNL A   1      32.511  22.498  24.104  1.00  0.00     0.026 C 
ATOM     10  C   UNL A   1      35.212  23.674  23.947  1.00  0.00     0.015 C 
ATOM     11  C   UNL A   1      33.765  21.622  24.064  1.00  0.00     0.015 C 
BRANCH   7  12
ATOM     12  N   UNL A   1      31.712  24.515  25.210  1.00  0.00    -0.353 N 
ATOM     13  C   UNL A   1      30.703  25.407  25.330  1.00  0.00     0.220 C 
ATOM     14  O   UNL A   1      30.424  25.739  26.485  1.00  0.00    -0.275 OA
ATOM     15  H   UNL A   1      31.884  24.051  26.061  1.00  0.00     0.163 HD
BRANCH  13  16
ATOM     16  C   UNL A   1      29.933  25.959  24.162  1.00  0.00     0.102 C 
BRANCH  16  17
ATOM     17  C   UNL A   1      30.115  27.456  23.906  1.00  0.00     0.038 C 
BRANCH  17  18
ATOM     18  C   UNL A   1      30.386  27.844  22.447  1.00  0.00     0.160 C 
BRANCH  18  19
ATOM     19  O   UNL A   1      29.577  28.939  22.026  1.00  0.00    -0.385 OA
ATOM     20  C   UNL A   1      29.317  29.892  23.051  1.00  0.00     0.194 C 
ENDBRANCH  18  19
ENDBRANCH  17  18
ENDBRANCH  16  17
ENDBRANCH  13  16
ENDBRANCH   7  12
ENDBRANCH   3   6
ENDBRANCH   1   2
BRANCH   1  21
ATOM     21  C   UNL A   1      39.417  21.476  26.105  1.00  0.00     0.023 C 
BRANCH  21  22
ATOM     22  C   UNL A   1      39.821  22.530  27.128  1.00  0.00     0.023 C 
BRANCH  22  23
ATOM     23  C   UNL A   1      41.235  23.089  26.977  1.00  0.00     0.116 C 
BRANCH  23  24
ATOM     24  N   UNL A   1      41.411  24.048  25.893  1.00  0.00    -0.352 N 
ATOM     25  C   UNL A   1      41.487  25.424  25.968  1.00  0.00     0.251 C 
ATOM     26  H   UNL A   1      41.484  23.665  24.990  1.00  0.00     0.163 HD
ATOM     27  O   UNL A   1      41.551  26.125  24.962  1.00  0.00    -0.269 OA
BRANCH  25  28
ATOM     28  C   UNL A   1      41.451  26.059  27.297  1.00  0.00     0.039 A 
ATOM     29  C   UNL A   1      42.556  26.794  27.724  1.00  0.00     0.014 A 
ATOM     30  C   UNL A   1      40.282  26.014  28.060  1.00  0.00     0.014 A 
ATOM     31  C   UNL A   1      42.445  27.587  28.865  1.00  0.00     0.010 A 
ATOM     32  C   UNL A   1      40.140  26.883  29.133  1.00  0.00     0.010 A 
ATOM     33  C   UNL A   1      41.216  27.689  29.539  1.00  0.00    -0.014 A 
BRANCH  33  34
ATOM     34  C   UNL A   1      41.024  28.649  30.653  1.00  0.00     0.031 A 
ATOM     35  C   UNL A   1      41.876  28.544  31.887  1.00  0.00     0.074 A 
ATOM     36  C   UNL A   1      40.025  29.553  30.589  1.00  0.00     0.049 A 
ATOM     37  N   UNL A   1      41.800  29.222  33.002  1.00  0.00    -0.248 NA
ATOM     38  C   UNL A   1      42.925  27.511  31.883  1.00  0.00     0.031 C 
ATOM     39  C   UNL A   1      39.082  29.700  29.476  1.00  0.00     0.029 A 
ATOM     40  N   UNL A   1      39.627  30.514  31.484  1.00  0.00    -0.354 N 
ATOM     41  C   UNL A   1      42.770  28.681  33.838  1.00  0.00     0.074 A 
ATOM     42  C   UNL A   1      43.381  27.582  33.125  1.00  0.00     0.031 C 
ATOM     43  C   UNL A   1      38.240  30.713  29.740  1.00  0.00     0.029 A 
ATOM     44  C   UNL A   1      38.556  31.263  31.054  1.00  0.00     0.049 A 
ATOM     45  H   UNL A   1      40.068  30.655  32.353  1.00  0.00     0.167 HD
ATOM     46  C   UNL A   1      43.139  29.085  35.077  1.00  0.00     0.037 A 
ATOM     47  C   UNL A   1      37.903  32.278  31.652  1.00  0.00     0.037 A 
ATOM     48  C   UNL A   1      42.561  30.212  35.757  1.00  0.00     0.049 A 
ATOM     49  C   UNL A   1      38.362  32.739  33.009  1.00  0.00     0.074 A 
ATOM     50  C   UNL A   1      42.912  30.752  36.981  1.00  0.00     0.029 A 
ATOM     51  N   UNL A   1      41.512  30.977  35.267  1.00  0.00    -0.354 N 
ATOM     52  N   UNL A   1      39.328  32.261  33.757  1.00  0.00    -0.248 NA
ATOM     53  C   UNL A   1      37.651  33.880  33.600  1.00  0.00     0.031 C 
ATOM     54  C   UNL A   1      42.057  31.827  37.245  1.00  0.00     0.029 A 
ATOM     55  C   UNL A   1      41.198  31.980  36.168  1.00  0.00     0.049 A 
ATOM     56  H   UNL A   1      41.059  30.829  34.405  1.00  0.00     0.167 HD
ATOM     57  C   UNL A   1      39.357  33.057  34.895  1.00  0.00     0.074 A 
ATOM     58  C   UNL A   1      38.319  34.055  34.732  1.00  0.00     0.031 C 
ATOM     59  C   UNL A   1      40.167  32.970  35.979  1.00  0.00     0.037 A 
BRANCH  46  60
ATOM     60  C   UNL A   1      44.232  28.311  35.760  1.00  0.00     0.058 A 
ATOM     61  C   UNL A   1      43.945  27.246  36.629  1.00  0.00     0.135 A 
ATOM     62  C   UNL A   1      45.580  28.629  35.536  1.00  0.00     0.135 A 
ATOM     63  F   UNL A   1      42.671  26.913  36.893  1.00  0.00    -0.206 F 
ATOM     64  C   UNL A   1      44.955  26.546  37.281  1.00  0.00     0.059 A 
ATOM     65  C   UNL A   1      46.608  27.922  36.154  1.00  0.00     0.059 A 
ATOM     66  F   UNL A   1      45.911  29.638  34.716  1.00  0.00    -0.206 F 
ATOM     67  C   UNL A   1      46.284  26.893  37.038  1.00  0.00     0.060 A 
BRANCH  67  68
ATOM     68  S   UNL A   1      47.584  25.976  37.890  1.00  0.00     0.124 S 
ATOM     69  O   UNL A   1      46.821  24.892  38.501  1.00  0.00    -0.237 OA
ATOM     70  O   UNL A   1      48.466  25.589  36.793  1.00  0.00    -0.237 OA
ATOM     71  O   UNL A   1      48.138  26.956  38.819  1.00  0.00    -0.744 OA
ENDBRANCH  67  68
ENDBRANCH  46  60
BRANCH  47  72
ATOM     72  C   UNL A   1      36.771  32.949  30.958  1.00  0.00     0.058 A 
ATOM     73  C   UNL A   1      35.448  32.743  31.375  1.00  0.00     0.135 A 
ATOM     74  C   UNL A   1      36.989  33.819  29.879  1.00  0.00     0.135 A 
ATOM     75  F   UNL A   1      35.190  31.917  32.401  1.00  0.00    -0.206 F 
ATOM     76  C   UNL A   1      34.377  33.361  30.738  1.00  0.00     0.059 A 
ATOM     77  C   UNL A   1      35.935  34.467  29.240  1.00  0.00     0.059 A 
ATOM     78  F   UNL A   1      38.237  34.065  29.453  1.00  0.00    -0.206 F 
ATOM     79  C   UNL A   1      34.631  34.223  29.671  1.00  0.00     0.060 A 
BRANCH  79  80
ATOM     80  S   UNL A   1      33.239  35.060  28.881  1.00  0.00     0.124 S 
ATOM     81  O   UNL A   1      32.715  34.008  28.019  1.00  0.00    -0.237 OA
ATOM     82  O   UNL A   1      32.407  35.422  30.025  1.00  0.00    -0.237 OA
ATOM     83  O   UNL A   1      33.869  36.185  28.195  1.00  0.00    -0.744 OA
ENDBRANCH  79  80
ENDBRANCH  47  72
BRANCH  59  84
ATOM     84  C   UNL A   1      39.988  33.999  37.058  1.00  0.00     0.058 A 
ATOM     85  C   UNL A   1      40.559  35.277  36.957  1.00  0.00     0.135 A 
ATOM     86  C   UNL A   1      39.185  33.722  38.176  1.00  0.00     0.135 A 
ATOM     87  F   UNL A   1      41.339  35.587  35.910  1.00  0.00    -0.206 F 
ATOM     88  C   UNL A   1      40.355  36.240  37.939  1.00  0.00     0.059 A 
ATOM     89  C   UNL A   1      38.948  34.678  39.157  1.00  0.00     0.059 A 
ATOM     90  F   UNL A   1      38.608  32.517  38.312  1.00  0.00    -0.206 F 
ATOM     91  C   UNL A   1      39.546  35.932  39.034  1.00  0.00     0.060 A 
BRANCH  91  92
ATOM     92  S   UNL A   1      39.256  37.203  40.282  1.00  0.00     0.124 S 
ATOM     93  O   UNL A   1      40.619  37.542  40.679  1.00  0.00    -0.237 OA
ATOM     94  O   UNL A   1      38.543  38.228  39.527  1.00  0.00    -0.237 OA
ATOM     95  O   UNL A   1      38.461  36.512  41.292  1.00  0.00    -0.744 OA
ENDBRANCH  91  92
ENDBRANCH  59  84
ENDBRANCH  33  34
ENDBRANCH  25  28
ENDBRANCH  23  24
ENDBRANCH  22  23
ENDBRANCH  21  22
ENDBRANCH   1  21
TORSDOF 19
ENDMDL
MODEL 2
REMARK VINA RESULT:     -11.1      4.917     10.352
REMARK SMILES COCCCC(=O)N[C@H]1CC[C@@H](C(=O)NCCCCNC(=O)c2ccc(-c3c4nc(c(-c5c(F)cc(S(=O)(=O)[O-])cc5F)c5ccc([nH]5)c(-c5c(F)cc(S(=O)(=O)[O-])cc5F)c5nc(c(-c6c(F)cc(S(=O)(=O)[O-])cc6F)c6ccc3[nH]6)C=C5)C=C4)cc2)CC1
REMARK SMILES IDX 16 1 15 2 13 3 14 4 12 6 9 7 10 8 90 9 11 10 89 11 8 12 6 13
REMARK SMILES IDX 7 14 5 16 4 17 3 18 2 19 1 20 17 21 18 22 19 23 20 24 21 25
REMARK SMILES IDX 22 27 23 28 24 29 88 30 25 31 87 32 26 33 27 34 28 35 81 36
REMARK SMILES IDX 29 37 86 38 80 39 82 40 30 41 85 42 79 43 78 44 31 46 65 47
REMARK SMILES IDX 44 48 64 49 45 50 48 51 63 52 83 53 46 54 47 55 62 57 84 58
REMARK SMILES IDX 49 59 32 60 33 61 42 62 34 63 35 64 41 65 43 66 36 67 37 68
REMARK SMILES IDX 38 69 39 70 40 71 66 72 67 73 76 74 68 75 69 76 75 77 77 78
REMARK SMILES IDX 70 79 71 80 72 81 73 82 74 83 50 84 51 85 60 86 52 87 53 88
REMARK SMILES IDX 59 89 61 90 54 91 55 92 56 93 57 94 58 95
REMARK H PARENT 15 5 8 15 20 26 82 45 48 56
REMARK Flexibility Score: inf
ROOT
ATOM      1  C   UNL A   1      32.446  25.868  25.846  1.00  0.00     0.116 C 
ENDROOT
BRANCH   1   2
ATOM      2  N   UNL A   1      32.865  24.511  25.612  1.00  0.00    -0.356 N 
ATOM      3  C   UNL A   1      32.770  23.734  24.503  1.00  0.00     0.223 C 
ATOM      4  O   UNL A   1      33.448  22.699  24.502  1.00  0.00    -0.275 OA
ATOM      5  H   UNL A   1      33.289  24.072  26.385  1.00  0.00     0.163 HD
BRANCH   3   6
ATOM      6  C   UNL A   1      31.908  24.058  23.264  1.00  0.00     0.078 C 
ATOM      7  C   UNL A   1      30.904  26.923  22.866  1.00  0.00     0.082 C 
ATOM      8  C   UNL A   1      32.310  26.456  22.479  1.00  0.00     0.026 C 
ATOM      9  C   UNL A   1      29.985  25.821  23.463  1.00  0.00     0.026 C 
ATOM     10  C   UNL A   1      32.528  24.977  22.227  1.00  0.00     0.015 C 
ATOM     11  C   UNL A   1      30.433  24.358  23.472  1.00  0.00     0.015 C 
BRANCH   7  12
ATOM     12  N   UNL A   1      30.924  28.034  23.851  1.00  0.00    -0.353 N 
ATOM     13  C   UNL A   1      30.490  29.313  23.914  1.00  0.00     0.220 C 
ATOM     14  O   UNL A   1      31.012  30.007  24.790  1.00  0.00    -0.275 OA
ATOM     15  H   UNL A   1      31.376  27.767  24.683  1.00  0.00     0.163 HD
BRANCH  13  16
ATOM     16  C   UNL A   1      29.429  29.881  23.012  1.00  0.00     0.102 C 
BRANCH  16  17
ATOM     17  C   UNL A   1      28.761  31.164  23.512  1.00  0.00     0.038 C 
BRANCH  17  18
ATOM     18  C   UNL A   1      28.001  31.965  22.447  1.00  0.00     0.160 C 
BRANCH  18  19
ATOM     19  O   UNL A   1      28.310  33.356  22.504  1.00  0.00    -0.385 OA
ATOM     20  C   UNL A   1      29.400  33.670  23.364  1.00  0.00     0.194 C 
ENDBRANCH  18  19
ENDBRANCH  17  18
ENDBRANCH  16  17
ENDBRANCH  13  16
ENDBRANCH   7  12
ENDBRANCH   3   6
ENDBRANCH   1   2
BRANCH   1  21
ATOM     21  C   UNL A   1      33.576  26.880  25.969  1.00  0.00     0.023 C 
BRANCH  21  22
ATOM     22  C   UNL A   1      33.243  28.084  26.840  1.00  0.00     0.023 C 
BRANCH  22  23
ATOM     23  C   UNL A   1      33.895  29.401  26.426  1.00  0.00     0.116 C 
BRANCH  23  24
ATOM     24  N   UNL A   1      33.774  30.486  27.394  1.00  0.00    -0.352 N 
ATOM     25  C   UNL A   1      34.663  30.861  28.379  1.00  0.00     0.251 C 
ATOM     26  H   UNL A   1      32.949  31.020  27.337  1.00  0.00     0.163 HD
ATOM     27  O   UNL A   1      34.398  31.745  29.189  1.00  0.00    -0.269 OA
BRANCH  25  28
ATOM     28  C   UNL A   1      35.948  30.146  28.477  1.00  0.00     0.039 A 
ATOM     29  C   UNL A   1      36.823  30.178  27.391  1.00  0.00     0.014 A 
ATOM     30  C   UNL A   1      36.322  29.545  29.681  1.00  0.00     0.014 A 
ATOM     31  C   UNL A   1      38.125  29.710  27.554  1.00  0.00     0.010 A 
ATOM     32  C   UNL A   1      37.647  29.177  29.871  1.00  0.00     0.010 A 
ATOM     33  C   UNL A   1      38.565  29.269  28.813  1.00  0.00    -0.014 A 
BRANCH  33  34
ATOM     34  C   UNL A   1      39.988  28.922  29.056  1.00  0.00     0.031 A 
ATOM     35  C   UNL A   1      40.926  29.957  29.612  1.00  0.00     0.074 A 
ATOM     36  C   UNL A   1      40.449  27.708  28.692  1.00  0.00     0.049 A 
ATOM     37  N   UNL A   1      42.217  29.881  29.805  1.00  0.00    -0.248 NA
ATOM     38  C   UNL A   1      40.343  31.264  29.958  1.00  0.00     0.031 C 
ATOM     39  C   UNL A   1      39.652  26.646  28.070  1.00  0.00     0.029 A 
ATOM     40  N   UNL A   1      41.706  27.163  28.781  1.00  0.00    -0.354 N 
ATOM     41  C   UNL A   1      42.602  31.134  30.267  1.00  0.00     0.074 A 
ATOM     42  C   UNL A   1      41.421  31.968  30.270  1.00  0.00     0.031 C 
ATOM     43  C   UNL A   1      40.429  25.570  27.867  1.00  0.00     0.029 A 
ATOM     44  C   UNL A   1      41.786  25.875  28.306  1.00  0.00     0.049 A 
ATOM     45  H   UNL A   1      42.477  27.649  29.151  1.00  0.00     0.167 HD
ATOM     46  C   UNL A   1      43.824  31.544  30.681  1.00  0.00     0.037 A 
ATOM     47  C   UNL A   1      42.836  25.034  28.234  1.00  0.00     0.037 A 
ATOM     48  C   UNL A   1      44.982  30.691  30.724  1.00  0.00     0.049 A 
ATOM     49  C   UNL A   1      44.174  25.496  28.744  1.00  0.00     0.074 A 
ATOM     50  C   UNL A   1      46.249  30.984  31.196  1.00  0.00     0.029 A 
ATOM     51  N   UNL A   1      45.011  29.376  30.283  1.00  0.00    -0.354 N 
ATOM     52  N   UNL A   1      44.506  26.663  29.244  1.00  0.00    -0.248 NA
ATOM     53  C   UNL A   1      45.278  24.528  28.689  1.00  0.00     0.031 C 
ATOM     54  C   UNL A   1      47.053  29.853  31.015  1.00  0.00     0.029 A 
ATOM     55  C   UNL A   1      46.277  28.845  30.463  1.00  0.00     0.049 A 
ATOM     56  H   UNL A   1      44.245  28.892  29.898  1.00  0.00     0.167 HD
ATOM     57  C   UNL A   1      45.849  26.562  29.585  1.00  0.00     0.074 A 
ATOM     58  C   UNL A   1      46.265  25.216  29.246  1.00  0.00     0.031 C 
ATOM     59  C   UNL A   1      46.665  27.498  30.128  1.00  0.00     0.037 A 
BRANCH  46  60
ATOM     60  C   UNL A   1      43.959  32.969  31.138  1.00  0.00     0.058 A 
ATOM     61  C   UNL A   1      43.774  33.330  32.483  1.00  0.00     0.135 A 
ATOM     62  C   UNL A   1      44.286  33.984  30.226  1.00  0.00     0.135 A 
ATOM     63  F   UNL A   1      43.440  32.402  33.393  1.00  0.00    -0.206 F 
ATOM     64  C   UNL A   1      43.874  34.653  32.901  1.00  0.00     0.059 A 
ATOM     65  C   UNL A   1      44.422  35.310  30.628  1.00  0.00     0.059 A 
ATOM     66  F   UNL A   1      44.472  33.695  28.929  1.00  0.00    -0.206 F 
ATOM     67  C   UNL A   1      44.196  35.637  31.965  1.00  0.00     0.060 A 
BRANCH  67  68
ATOM     68  S   UNL A   1      44.323  37.349  32.522  1.00  0.00     0.124 S 
ATOM     69  O   UNL A   1      45.660  37.364  33.107  1.00  0.00    -0.237 OA
ATOM     70  O   UNL A   1      44.168  38.096  31.278  1.00  0.00    -0.237 OA
ATOM     71  O   UNL A   1      43.222  37.480  33.470  1.00  0.00    -0.744 OA
ENDBRANCH  67  68
ENDBRANCH  46  60
BRANCH  47  72
ATOM     72  C   UNL A   1      42.656  23.661  27.691  1.00  0.00     0.058 A 
ATOM     73  C   UNL A   1      42.770  23.411  26.316  1.00  0.00     0.135 A 
ATOM     74  C   UNL A   1      42.385  22.572  28.533  1.00  0.00     0.135 A 
ATOM     75  F   UNL A   1      43.024  24.421  25.470  1.00  0.00    -0.206 F 
ATOM     76  C   UNL A   1      42.604  22.134  25.789  1.00  0.00     0.059 A 
ATOM     77  C   UNL A   1      42.238  21.281  28.033  1.00  0.00     0.059 A 
ATOM     78  F   UNL A   1      42.286  22.754  29.858  1.00  0.00    -0.206 F 
ATOM     79  C   UNL A   1      42.339  21.074  26.657  1.00  0.00     0.060 A 
BRANCH  79  80
ATOM     80  S   UNL A   1      42.174  19.411  25.971  1.00  0.00     0.124 S 
ATOM     81  O   UNL A   1      43.014  19.499  24.783  1.00  0.00    -0.237 OA
ATOM     82  O   UNL A   1      42.686  18.578  27.055  1.00  0.00    -0.237 OA
ATOM     83  O   UNL A   1      40.739  19.291  25.725  1.00  0.00    -0.744 OA
ENDBRANCH  79  80
ENDBRANCH  47  72
BRANCH  59  84
ATOM     84  C   UNL A   1      48.081  27.092  30.422  1.00  0.00     0.058 A 
ATOM     85  C   UNL A   1      49.108  27.281  29.485  1.00  0.00     0.135 A 
ATOM     86  C   UNL A   1      48.422  26.563  31.677  1.00  0.00     0.135 A 
ATOM     87  F   UNL A   1      48.832  27.778  28.270  1.00  0.00    -0.206 F 
ATOM     88  C   UNL A   1      50.425  26.941  29.778  1.00  0.00     0.059 A 
ATOM     89  C   UNL A   1      49.735  26.239  31.998  1.00  0.00     0.059 A 
ATOM     90  F   UNL A   1      47.475  26.373  32.610  1.00  0.00    -0.206 F 
ATOM     91  C   UNL A   1      50.728  26.423  31.038  1.00  0.00     0.060 A 
BRANCH  91  92
ATOM     92  S   UNL A   1      52.447  26.024  31.420  1.00  0.00     0.124 S 
ATOM     93  O   UNL A   1      52.782  27.062  32.390  1.00  0.00    -0.237 OA
ATOM     94  O   UNL A   1      52.344  24.669  31.953  1.00  0.00    -0.237 OA
ATOM     95  O   UNL A   1      53.115  26.132  30.127  1.00  0.00    -0.744 OA
ENDBRANCH  91  92
ENDBRANCH  59  84
ENDBRANCH  33  34
ENDBRANCH  25  28
ENDBRANCH  23  24
ENDBRANCH  22  23
ENDBRANCH  21  22
ENDBRANCH   1  21
TORSDOF 19
ENDMDL
MODEL 3
REMARK VINA RESULT:     -10.9      4.881     10.680
REMARK SMILES COCCCC(=O)N[C@H]1CC[C@@H](C(=O)NCCCCNC(=O)c2ccc(-c3c4nc(c(-c5c(F)cc(S(=O)(=O)[O-])cc5F)c5ccc([nH]5)c(-c5c(F)cc(S(=O)(=O)[O-])cc5F)c5nc(c(-c6c(F)cc(S(=O)(=O)[O-])cc6F)c6ccc3[nH]6)C=C5)C=C4)cc2)CC1
REMARK SMILES IDX 16 1 15 2 13 3 14 4 12 6 9 7 10 8 90 9 11 10 89 11 8 12 6 13
REMARK SMILES IDX 7 14 5 16 4 17 3 18 2 19 1 20 17 21 18 22 19 23 20 24 21 25
REMARK SMILES IDX 22 27 23 28 24 29 88 30 25 31 87 32 26 33 27 34 28 35 81 36
REMARK SMILES IDX 29 37 86 38 80 39 82 40 30 41 85 42 79 43 78 44 31 46 65 47
REMARK SMILES IDX 44 48 64 49 45 50 48 51 63 52 83 53 46 54 47 55 62 57 84 58
REMARK SMILES IDX 49 59 32 60 33 61 42 62 34 63 35 64 41 65 43 66 36 67 37 68
REMARK SMILES IDX 38 69 39 70 40 71 66 72 67 73 76 74 68 75 69 76 75 77 77 78
REMARK SMILES IDX 70 79 71 80 72 81 73 82 74 83 50 84 51 85 60 86 52 87 53 88
REMARK SMILES IDX 59 89 61 90 54 91 55 92 56 93 57 94 58 95
REMARK H PARENT 15 5 8 15 20 26 82 45 48 56
REMARK Flexibility Score: inf
ROOT
ATOM      1  C   UNL A   1      31.567  27.146  25.342  1.00  0.00     0.116 C 
ENDROOT
BRANCH   1   2
ATOM      2  N   UNL A   1      30.783  27.769  24.309  1.00  0.00    -0.356 N 
ATOM      3  C   UNL A   1      30.893  27.710  22.957  1.00  0.00     0.223 C 
ATOM      4  O   UNL A   1      29.924  28.131  22.312  1.00  0.00    -0.275 OA
ATOM      5  H   UNL A   1      30.044  28.332  24.636  1.00  0.00     0.163 HD
BRANCH   3   6
ATOM      6  C   UNL A   1      32.108  27.149  22.189  1.00  0.00     0.078 C 
ATOM      7  C   UNL A   1      33.569  24.704  23.313  1.00  0.00     0.082 C 
ATOM      8  C   UNL A   1      32.282  24.617  22.488  1.00  0.00     0.026 C 
ATOM      9  C   UNL A   1      34.118  26.141  23.527  1.00  0.00     0.026 C 
ATOM     10  C   UNL A   1      31.944  25.774  21.568  1.00  0.00     0.015 C 
ATOM     11  C   UNL A   1      33.489  27.329  22.796  1.00  0.00     0.015 C 
BRANCH   7  12
ATOM     12  N   UNL A   1      33.423  24.102  24.662  1.00  0.00    -0.353 N 
ATOM     13  C   UNL A   1      34.235  23.727  25.676  1.00  0.00     0.220 C 
ATOM     14  O   UNL A   1      33.737  22.949  26.493  1.00  0.00    -0.275 OA
ATOM     15  H   UNL A   1      32.478  23.929  24.876  1.00  0.00     0.163 HD
BRANCH  13  16
ATOM     16  C   UNL A   1      35.645  24.222  25.844  1.00  0.00     0.102 C 
BRANCH  16  17
ATOM     17  C   UNL A   1      36.701  23.486  25.017  1.00  0.00     0.038 C 
BRANCH  17  18
ATOM     18  C   UNL A   1      36.639  21.955  25.088  1.00  0.00     0.160 C 
BRANCH  18  19
ATOM     19  O   UNL A   1      37.898  21.385  25.439  1.00  0.00    -0.385 OA
ATOM     20  C   UNL A   1      38.783  22.294  26.084  1.00  0.00     0.194 C 
ENDBRANCH  18  19
ENDBRANCH  17  18
ENDBRANCH  16  17
ENDBRANCH  13  16
ENDBRANCH   7  12
ENDBRANCH   3   6
ENDBRANCH   1   2
BRANCH   1  21
ATOM     21  C   UNL A   1      31.325  27.678  26.747  1.00  0.00     0.023 C 
BRANCH  21  22
ATOM     22  C   UNL A   1      32.597  27.911  27.553  1.00  0.00     0.023 C 
BRANCH  22  23
ATOM     23  C   UNL A   1      33.575  28.928  26.967  1.00  0.00     0.116 C 
BRANCH  23  24
ATOM     24  N   UNL A   1      33.586  30.229  27.627  1.00  0.00    -0.352 N 
ATOM     25  C   UNL A   1      34.608  30.820  28.341  1.00  0.00     0.251 C 
ATOM     26  H   UNL A   1      32.757  30.754  27.553  1.00  0.00     0.163 HD
ATOM     27  O   UNL A   1      34.457  31.890  28.923  1.00  0.00    -0.269 OA
BRANCH  25  28
ATOM     28  C   UNL A   1      35.900  30.117  28.434  1.00  0.00     0.039 A 
ATOM     29  C   UNL A   1      36.779  30.175  27.354  1.00  0.00     0.014 A 
ATOM     30  C   UNL A   1      36.274  29.501  29.631  1.00  0.00     0.014 A 
ATOM     31  C   UNL A   1      38.086  29.719  27.516  1.00  0.00     0.010 A 
ATOM     32  C   UNL A   1      37.602  29.145  29.822  1.00  0.00     0.010 A 
ATOM     33  C   UNL A   1      38.525  29.263  28.770  1.00  0.00    -0.014 A 
BRANCH  33  34
ATOM     34  C   UNL A   1      39.950  28.927  29.015  1.00  0.00     0.031 A 
ATOM     35  C   UNL A   1      40.879  29.970  29.570  1.00  0.00     0.074 A 
ATOM     36  C   UNL A   1      40.421  27.717  28.653  1.00  0.00     0.049 A 
ATOM     37  N   UNL A   1      42.170  29.905  29.765  1.00  0.00    -0.248 NA
ATOM     38  C   UNL A   1      40.286  31.273  29.914  1.00  0.00     0.031 C 
ATOM     39  C   UNL A   1      39.632  26.648  28.032  1.00  0.00     0.029 A 
ATOM     40  N   UNL A   1      41.682  27.182  28.744  1.00  0.00    -0.354 N 
ATOM     41  C   UNL A   1      42.546  31.161  30.225  1.00  0.00     0.074 A 
ATOM     42  C   UNL A   1      41.358  31.986  30.226  1.00  0.00     0.031 C 
ATOM     43  C   UNL A   1      40.418  25.577  27.831  1.00  0.00     0.029 A 
ATOM     44  C   UNL A   1      41.773  25.893  28.271  1.00  0.00     0.049 A 
ATOM     45  H   UNL A   1      42.449  27.674  29.114  1.00  0.00     0.167 HD
ATOM     46  C   UNL A   1      43.764  31.581  30.640  1.00  0.00     0.037 A 
ATOM     47  C   UNL A   1      42.829  25.060  28.201  1.00  0.00     0.037 A 
ATOM     48  C   UNL A   1      44.928  30.738  30.685  1.00  0.00     0.049 A 
ATOM     49  C   UNL A   1      44.163  25.534  28.712  1.00  0.00     0.074 A 
ATOM     50  C   UNL A   1      46.193  31.041  31.158  1.00  0.00     0.029 A 
ATOM     51  N   UNL A   1      44.968  29.422  30.246  1.00  0.00    -0.354 N 
ATOM     52  N   UNL A   1      44.485  26.704  29.210  1.00  0.00    -0.248 NA
ATOM     53  C   UNL A   1      45.274  24.574  28.660  1.00  0.00     0.031 C 
ATOM     54  C   UNL A   1      47.006  29.916  30.979  1.00  0.00     0.029 A 
ATOM     55  C   UNL A   1      46.238  28.902  30.428  1.00  0.00     0.049 A 
ATOM     56  H   UNL A   1      44.206  28.932  29.861  1.00  0.00     0.167 HD
ATOM     57  C   UNL A   1      45.829  26.614  29.553  1.00  0.00     0.074 A 
ATOM     58  C   UNL A   1      46.256  25.270  29.216  1.00  0.00     0.031 C 
ATOM     59  C   UNL A   1      46.637  27.557  30.096  1.00  0.00     0.037 A 
BRANCH  46  60
ATOM     60  C   UNL A   1      43.887  33.009  31.095  1.00  0.00     0.058 A 
ATOM     61  C   UNL A   1      44.299  34.026  30.219  1.00  0.00     0.135 A 
ATOM     62  C   UNL A   1      43.579  33.366  32.417  1.00  0.00     0.135 A 
ATOM     63  F   UNL A   1      44.624  33.734  28.950  1.00  0.00    -0.206 F 
ATOM     64  C   UNL A   1      44.437  35.342  30.647  1.00  0.00     0.059 A 
ATOM     65  C   UNL A   1      43.680  34.683  32.858  1.00  0.00     0.059 A 
ATOM     66  F   UNL A   1      43.181  32.434  33.296  1.00  0.00    -0.206 F 
ATOM     67  C   UNL A   1      44.128  35.661  31.970  1.00  0.00     0.060 A 
BRANCH  67  68
ATOM     68  S   UNL A   1      44.311  37.373  32.510  1.00  0.00     0.124 S 
ATOM     69  O   UNL A   1      43.846  38.099  31.333  1.00  0.00    -0.237 OA
ATOM     70  O   UNL A   1      43.433  37.429  33.676  1.00  0.00    -0.237 OA
ATOM     71  O   UNL A   1      45.736  37.488  32.796  1.00  0.00    -0.744 OA
ENDBRANCH  67  68
ENDBRANCH  46  60
BRANCH  47  72
ATOM     72  C   UNL A   1      42.660  23.685  27.660  1.00  0.00     0.058 A 
ATOM     73  C   UNL A   1      42.436  22.598  28.518  1.00  0.00     0.135 A 
ATOM     74  C   UNL A   1      42.702  23.431  26.281  1.00  0.00     0.135 A 
ATOM     75  F   UNL A   1      42.392  22.790  29.846  1.00  0.00    -0.206 F 
ATOM     76  C   UNL A   1      42.277  21.304  28.031  1.00  0.00     0.059 A 
ATOM     77  C   UNL A   1      42.522  22.150  25.768  1.00  0.00     0.059 A 
ATOM     78  F   UNL A   1      42.895  24.439  25.417  1.00  0.00    -0.206 F 
ATOM     79  C   UNL A   1      42.320  21.091  26.653  1.00  0.00     0.060 A 
BRANCH  79  80
ATOM     80  S   UNL A   1      42.063  19.416  26.027  1.00  0.00     0.124 S 
ATOM     81  O   UNL A   1      42.871  19.428  24.814  1.00  0.00    -0.237 OA
ATOM     82  O   UNL A   1      42.570  18.595  27.123  1.00  0.00    -0.237 OA
ATOM     83  O   UNL A   1      40.618  19.352  25.824  1.00  0.00    -0.744 OA
ENDBRANCH  79  80
ENDBRANCH  47  72
BRANCH  59  84
ATOM     84  C   UNL A   1      48.055  27.162  30.391  1.00  0.00     0.058 A 
ATOM     85  C   UNL A   1      49.099  27.447  29.497  1.00  0.00     0.135 A 
ATOM     86  C   UNL A   1      48.381  26.545  31.609  1.00  0.00     0.135 A 
ATOM     87  F   UNL A   1      48.837  28.031  28.317  1.00  0.00    -0.206 F 
ATOM     88  C   UNL A   1      50.416  27.117  29.795  1.00  0.00     0.059 A 
ATOM     89  C   UNL A   1      49.695  26.228  31.937  1.00  0.00     0.059 A 
ATOM     90  F   UNL A   1      47.419  26.261  32.502  1.00  0.00    -0.206 F 
ATOM     91  C   UNL A   1      50.705  26.509  31.018  1.00  0.00     0.060 A 
BRANCH  91  92
ATOM     92  S   UNL A   1      52.423  26.121  31.409  1.00  0.00     0.124 S 
ATOM     93  O   UNL A   1      52.758  27.186  32.350  1.00  0.00    -0.237 OA
ATOM     94  O   UNL A   1      52.322  24.782  31.979  1.00  0.00    -0.237 OA
ATOM     95  O   UNL A   1      53.091  26.195  30.113  1.00  0.00    -0.744 OA
ENDBRANCH  91  92
ENDBRANCH  59  84
ENDBRANCH  33  34
ENDBRANCH  25  28
ENDBRANCH  23  24
ENDBRANCH  22  23
ENDBRANCH  21  22
ENDBRANCH   1  21
TORSDOF 19
ENDMDL
