MODEL 1
REMARK VINA RESULT:     -11.7      0.000      0.000
REMARK SMILES CC[NH+]1CCC2(CC1)OC[C@H](C(=O)NCCCCNC(=O)c1ccc(-c3c4nc(c(-c5c(F)cc(S(=O)(=O)[O-])cc5F)c5ccc([nH]5)c(-c5c(F)cc(S(=O)(=O)[O-])cc5F)c5nc(c(-c6c(F)cc(S(=O)(=O)[O-])cc6F)c6ccc3[nH]6)C=C5)C=C4)cc1)N2C(=O)c1ccccc1
REMARK SMILES IDX 17 1 16 2 15 3 14 4 12 5 13 6 11 8 3 9 4 10 8 11 5 13 7 14
REMARK SMILES IDX 6 15 9 16 88 17 10 18 2 19 1 20 89 21 90 22 91 23 92 24
REMARK SMILES IDX 96 25 93 26 95 27 94 28 18 29 19 30 20 31 21 33 22 34 23 35
REMARK SMILES IDX 87 36 24 37 86 38 25 39 26 40 27 41 80 42 28 43 85 44 79 45
REMARK SMILES IDX 81 46 29 47 84 48 78 49 77 50 30 52 64 53 43 54 63 55 44 56
REMARK SMILES IDX 47 57 62 58 82 59 45 60 46 61 61 63 83 64 48 65 31 66 32 67
REMARK SMILES IDX 41 68 33 69 34 70 40 71 42 72 35 73 36 74 37 75 38 76 39 77
REMARK SMILES IDX 65 78 66 79 75 80 67 81 68 82 74 83 76 84 69 85 70 86 71 87
REMARK SMILES IDX 72 88 73 89 49 90 50 91 59 92 51 93 52 94 58 95 60 96 53 97
REMARK SMILES IDX 54 98 55 99 56 100 57 101
REMARK H PARENT 14 7 3 12 19 32 81 51 47 62
REMARK Flexibility Score: inf
ROOT
ATOM      1  C   UNL A   1      33.634  28.089  25.703  1.00  0.00     0.023 C 
ENDROOT
BRANCH   1   2
ATOM      2  C   UNL A   1      32.264  28.101  25.020  1.00  0.00     0.023 C 
BRANCH   2   3
ATOM      3  C   UNL A   1      31.416  26.852  25.249  1.00  0.00     0.116 C 
BRANCH   3   4
ATOM      4  N   UNL A   1      31.466  25.948  24.117  1.00  0.00    -0.354 N 
ATOM      5  C   UNL A   1      32.176  24.798  23.937  1.00  0.00     0.245 C 
ATOM      6  O   UNL A   1      31.990  24.206  22.869  1.00  0.00    -0.273 OA
ATOM      7  H   UNL A   1      30.897  26.207  23.357  1.00  0.00     0.163 HD
BRANCH   5   8
ATOM      8  C   UNL A   1      33.196  24.305  24.992  1.00  0.00     0.203 C 
ATOM      9  N   UNL A   1      33.103  19.141  24.098  1.00  0.00    -0.335 N 
ATOM     10  C   UNL A   1      32.524  20.255  23.361  1.00  0.00     0.267 C 
ATOM     11  C   UNL A   1      34.040  19.545  25.148  1.00  0.00     0.267 C 
ATOM     12  H   UNL A   1      33.642  18.683  23.362  1.00  0.00     0.348 HD
ATOM     13  C   UNL A   1      31.958  21.348  24.236  1.00  0.00     0.120 C 
ATOM     14  C   UNL A   1      33.681  20.785  25.973  1.00  0.00     0.120 C 
ATOM     15  C   UNL A   1      32.991  21.925  25.210  1.00  0.00     0.155 C 
ATOM     16  O   UNL A   1      32.177  22.582  26.239  1.00  0.00    -0.352 OA
ATOM     17  N   UNL A   1      33.827  23.025  24.673  1.00  0.00    -0.295 N 
ATOM     18  C   UNL A   1      32.484  23.980  26.281  1.00  0.00     0.198 C 
BRANCH   9  19
ATOM     19  C   UNL A   1      32.194  18.087  24.549  1.00  0.00     0.258 C 
ATOM     20  C   UNL A   1      32.773  17.102  25.559  1.00  0.00     0.071 C 
ENDBRANCH   9  19
BRANCH  17  21
ATOM     21  C   UNL A   1      35.077  23.086  24.076  1.00  0.00     0.256 C 
ATOM     22  O   UNL A   1      35.235  23.415  22.899  1.00  0.00    -0.269 OA
BRANCH  21  23
ATOM     23  C   UNL A   1      36.329  22.859  24.800  1.00  0.00     0.040 A 
ATOM     24  C   UNL A   1      36.877  23.915  25.538  1.00  0.00     0.014 A 
ATOM     25  C   UNL A   1      37.055  21.682  24.609  1.00  0.00     0.014 A 
ATOM     26  C   UNL A   1      38.097  23.739  26.192  1.00  0.00     0.001 A 
ATOM     27  C   UNL A   1      38.261  21.498  25.290  1.00  0.00     0.001 A 
ATOM     28  C   UNL A   1      38.773  22.522  26.091  1.00  0.00     0.000 A 
ENDBRANCH  21  23
ENDBRANCH  17  21
ENDBRANCH   5   8
ENDBRANCH   3   4
ENDBRANCH   2   3
ENDBRANCH   1   2
BRANCH   1  29
ATOM     29  C   UNL A   1      33.619  28.302  27.213  1.00  0.00     0.116 C 
BRANCH  29  30
ATOM     30  N   UNL A   1      33.509  29.702  27.593  1.00  0.00    -0.352 N 
ATOM     31  C   UNL A   1      34.454  30.522  28.164  1.00  0.00     0.251 C 
ATOM     32  H   UNL A   1      32.635  30.121  27.416  1.00  0.00     0.163 HD
ATOM     33  O   UNL A   1      34.153  31.653  28.520  1.00  0.00    -0.269 OA
BRANCH  31  34
ATOM     34  C   UNL A   1      35.826  30.012  28.380  1.00  0.00     0.039 A 
ATOM     35  C   UNL A   1      36.739  30.074  27.324  1.00  0.00     0.014 A 
ATOM     36  C   UNL A   1      36.216  29.501  29.621  1.00  0.00     0.014 A 
ATOM     37  C   UNL A   1      38.065  29.689  27.533  1.00  0.00     0.010 A 
ATOM     38  C   UNL A   1      37.553  29.184  29.846  1.00  0.00     0.010 A 
ATOM     39  C   UNL A   1      38.492  29.277  28.807  1.00  0.00    -0.014 A 
BRANCH  39  40
ATOM     40  C   UNL A   1      39.915  28.949  29.075  1.00  0.00     0.031 A 
ATOM     41  C   UNL A   1      40.839  29.997  29.634  1.00  0.00     0.074 A 
ATOM     42  C   UNL A   1      40.393  27.733  28.743  1.00  0.00     0.049 A 
ATOM     43  N   UNL A   1      42.127  29.930  29.853  1.00  0.00    -0.248 NA
ATOM     44  C   UNL A   1      40.241  31.301  29.962  1.00  0.00     0.031 C 
ATOM     45  C   UNL A   1      39.609  26.649  28.146  1.00  0.00     0.029 A 
ATOM     46  N   UNL A   1      41.657  27.208  28.846  1.00  0.00    -0.354 N 
ATOM     47  C   UNL A   1      42.497  31.184  30.326  1.00  0.00     0.074 A 
ATOM     48  C   UNL A   1      41.305  32.006  30.316  1.00  0.00     0.031 C 
ATOM     49  C   UNL A   1      40.405  25.586  27.951  1.00  0.00     0.029 A 
ATOM     50  C   UNL A   1      41.762  25.921  28.373  1.00  0.00     0.049 A 
ATOM     51  H   UNL A   1      42.418  27.705  29.224  1.00  0.00     0.167 HD
ATOM     52  C   UNL A   1      43.712  31.605  30.749  1.00  0.00     0.037 A 
ATOM     53  C   UNL A   1      42.830  25.106  28.278  1.00  0.00     0.037 A 
ATOM     54  C   UNL A   1      44.887  30.772  30.784  1.00  0.00     0.049 A 
ATOM     55  C   UNL A   1      44.168  25.590  28.766  1.00  0.00     0.074 A 
ATOM     56  C   UNL A   1      46.149  31.085  31.255  1.00  0.00     0.029 A 
ATOM     57  N   UNL A   1      44.943  29.463  30.327  1.00  0.00    -0.354 N 
ATOM     58  N   UNL A   1      44.486  26.759  29.271  1.00  0.00    -0.248 NA
ATOM     59  C   UNL A   1      45.291  24.647  28.679  1.00  0.00     0.031 C 
ATOM     60  C   UNL A   1      46.980  29.979  31.046  1.00  0.00     0.029 A 
ATOM     61  C   UNL A   1      46.224  28.960  30.489  1.00  0.00     0.049 A 
ATOM     62  H   UNL A   1      44.186  28.965  29.945  1.00  0.00     0.167 HD
ATOM     63  C   UNL A   1      45.837  26.681  29.588  1.00  0.00     0.074 A 
ATOM     64  C   UNL A   1      46.274  25.349  29.225  1.00  0.00     0.031 C 
ATOM     65  C   UNL A   1      46.643  27.628  30.131  1.00  0.00     0.037 A 
BRANCH  52  66
ATOM     66  C   UNL A   1      43.832  33.031  31.212  1.00  0.00     0.058 A 
ATOM     67  C   UNL A   1      43.597  33.396  32.548  1.00  0.00     0.135 A 
ATOM     68  C   UNL A   1      44.213  34.043  30.316  1.00  0.00     0.135 A 
ATOM     69  F   UNL A   1      43.217  32.471  33.443  1.00  0.00    -0.206 F 
ATOM     70  C   UNL A   1      43.702  34.717  32.971  1.00  0.00     0.059 A 
ATOM     71  C   UNL A   1      44.353  35.367  30.723  1.00  0.00     0.059 A 
ATOM     72  F   UNL A   1      44.451  33.751  29.027  1.00  0.00    -0.206 F 
ATOM     73  C   UNL A   1      44.078  35.696  32.051  1.00  0.00     0.060 A 
BRANCH  73  74
ATOM     74  S   UNL A   1      44.207  37.406  32.614  1.00  0.00     0.124 S 
ATOM     75  O   UNL A   1      45.583  37.448  33.100  1.00  0.00    -0.237 OA
ATOM     76  O   UNL A   1      43.944  38.159  31.393  1.00  0.00    -0.237 OA
ATOM     77  O   UNL A   1      43.175  37.504  33.642  1.00  0.00    -0.744 OA
ENDBRANCH  73  74
ENDBRANCH  52  66
BRANCH  53  78
ATOM     78  C   UNL A   1      42.670  23.738  27.718  1.00  0.00     0.058 A 
ATOM     79  C   UNL A   1      42.751  23.510  26.336  1.00  0.00     0.135 A 
ATOM     80  C   UNL A   1      42.457  22.629  28.551  1.00  0.00     0.135 A 
ATOM     81  F   UNL A   1      42.947  24.540  25.499  1.00  0.00    -0.206 F 
ATOM     82  C   UNL A   1      42.616  22.235  25.797  1.00  0.00     0.059 A 
ATOM     83  C   UNL A   1      42.342  21.340  28.039  1.00  0.00     0.059 A 
ATOM     84  F   UNL A   1      42.388  22.790  29.882  1.00  0.00    -0.206 F 
ATOM     85  C   UNL A   1      42.415  21.154  26.658  1.00  0.00     0.060 A 
BRANCH  85  86
ATOM     86  S   UNL A   1      42.298  19.496  25.953  1.00  0.00     0.124 S 
ATOM     87  O   UNL A   1      40.864  19.378  25.717  1.00  0.00    -0.237 OA
ATOM     88  O   UNL A   1      43.135  19.609  24.763  1.00  0.00    -0.237 OA
ATOM     89  O   UNL A   1      42.836  18.644  27.010  1.00  0.00    -0.744 OA
ENDBRANCH  85  86
ENDBRANCH  53  78
BRANCH  65  90
ATOM     90  C   UNL A   1      48.072  27.249  30.404  1.00  0.00     0.058 A 
ATOM     91  C   UNL A   1      49.111  27.607  29.531  1.00  0.00     0.135 A 
ATOM     92  C   UNL A   1      48.412  26.569  31.585  1.00  0.00     0.135 A 
ATOM     93  F   UNL A   1      48.838  28.253  28.386  1.00  0.00    -0.206 F 
ATOM     94  C   UNL A   1      50.435  27.288  29.810  1.00  0.00     0.059 A 
ATOM     95  C   UNL A   1      49.732  26.261  31.896  1.00  0.00     0.059 A 
ATOM     96  F   UNL A   1      47.457  26.212  32.458  1.00  0.00    -0.206 F 
ATOM     97  C   UNL A   1      50.737  26.616  30.996  1.00  0.00     0.060 A 
BRANCH  97  98
ATOM     98  S   UNL A   1      52.463  26.241  31.365  1.00  0.00     0.124 S 
ATOM     99  O   UNL A   1      53.013  26.038  30.028  1.00  0.00    -0.237 OA
ATOM    100  O   UNL A   1      52.906  27.449  32.056  1.00  0.00    -0.237 OA
ATOM    101  O   UNL A   1      52.381  25.045  32.199  1.00  0.00    -0.744 OA
ENDBRANCH  97  98
ENDBRANCH  65  90
ENDBRANCH  39  40
ENDBRANCH  31  34
ENDBRANCH  29  30
ENDBRANCH   1  29
TORSDOF 17
ENDMDL
MODEL 2
REMARK VINA RESULT:     -11.6      2.954      9.462
REMARK SMILES CC[NH+]1CCC2(CC1)OC[C@H](C(=O)NCCCCNC(=O)c1ccc(-c3c4nc(c(-c5c(F)cc(S(=O)(=O)[O-])cc5F)c5ccc([nH]5)c(-c5c(F)cc(S(=O)(=O)[O-])cc5F)c5nc(c(-c6c(F)cc(S(=O)(=O)[O-])cc6F)c6ccc3[nH]6)C=C5)C=C4)cc1)N2C(=O)c1ccccc1
REMARK SMILES IDX 17 1 16 2 15 3 14 4 12 5 13 6 11 8 3 9 4 10 8 11 5 13 7 14
REMARK SMILES IDX 6 15 9 16 88 17 10 18 2 19 1 20 89 21 90 22 91 23 92 24
REMARK SMILES IDX 96 25 93 26 95 27 94 28 18 29 19 30 20 31 21 33 22 34 23 35
REMARK SMILES IDX 87 36 24 37 86 38 25 39 26 40 27 41 80 42 28 43 85 44 79 45
REMARK SMILES IDX 81 46 29 47 84 48 78 49 77 50 30 52 64 53 43 54 63 55 44 56
REMARK SMILES IDX 47 57 62 58 82 59 45 60 46 61 61 63 83 64 48 65 31 66 32 67
REMARK SMILES IDX 41 68 33 69 34 70 40 71 42 72 35 73 36 74 37 75 38 76 39 77
REMARK SMILES IDX 65 78 66 79 75 80 67 81 68 82 74 83 76 84 69 85 70 86 71 87
REMARK SMILES IDX 72 88 73 89 49 90 50 91 59 92 51 93 52 94 58 95 60 96 53 97
REMARK SMILES IDX 54 98 55 99 56 100 57 101
REMARK H PARENT 14 7 3 12 19 32 81 51 47 62
REMARK Flexibility Score: inf
ROOT
ATOM      1  C   UNL A   1      35.836  23.769  26.122  1.00  0.00     0.023 C 
ENDROOT
BRANCH   1   2
ATOM      2  C   UNL A   1      34.692  22.776  25.897  1.00  0.00     0.023 C 
BRANCH   2   3
ATOM      3  C   UNL A   1      33.295  23.327  26.174  1.00  0.00     0.116 C 
BRANCH   3   4
ATOM      4  N   UNL A   1      32.480  23.363  24.976  1.00  0.00    -0.354 N 
ATOM      5  C   UNL A   1      32.340  24.339  24.034  1.00  0.00     0.245 C 
ATOM      6  O   UNL A   1      31.593  24.076  23.086  1.00  0.00    -0.273 OA
ATOM      7  H   UNL A   1      31.942  22.554  24.818  1.00  0.00     0.163 HD
BRANCH   5   8
ATOM      8  C   UNL A   1      33.034  25.714  24.185  1.00  0.00     0.203 C 
ATOM      9  N   UNL A   1      28.993  28.945  23.347  1.00  0.00    -0.335 N 
ATOM     10  C   UNL A   1      29.048  27.502  23.535  1.00  0.00     0.267 C 
ATOM     11  C   UNL A   1      30.250  29.632  23.648  1.00  0.00     0.267 C 
ATOM     12  H   UNL A   1      28.318  29.206  24.066  1.00  0.00     0.348 HD
ATOM     13  C   UNL A   1      30.230  26.837  22.872  1.00  0.00     0.120 C 
ATOM     14  C   UNL A   1      31.549  28.945  23.215  1.00  0.00     0.120 C 
ATOM     15  C   UNL A   1      31.574  27.414  23.333  1.00  0.00     0.155 C 
ATOM     16  O   UNL A   1      32.512  27.005  22.282  1.00  0.00    -0.352 OA
ATOM     17  N   UNL A   1      32.139  26.808  24.561  1.00  0.00    -0.295 N 
ATOM     18  C   UNL A   1      33.541  26.182  22.844  1.00  0.00     0.198 C 
BRANCH   9  19
ATOM     19  C   UNL A   1      28.377  29.441  22.116  1.00  0.00     0.258 C 
ATOM     20  C   UNL A   1      27.978  30.913  22.123  1.00  0.00     0.071 C 
ENDBRANCH   9  19
BRANCH  17  21
ATOM     21  C   UNL A   1      32.093  27.131  25.909  1.00  0.00     0.256 C 
ATOM     22  O   UNL A   1      31.521  26.425  26.741  1.00  0.00    -0.269 OA
BRANCH  21  23
ATOM     23  C   UNL A   1      32.789  28.280  26.487  1.00  0.00     0.040 A 
ATOM     24  C   UNL A   1      32.054  29.440  26.761  1.00  0.00     0.014 A 
ATOM     25  C   UNL A   1      34.181  28.289  26.590  1.00  0.00     0.014 A 
ATOM     26  C   UNL A   1      32.706  30.569  27.262  1.00  0.00     0.001 A 
ATOM     27  C   UNL A   1      34.827  29.408  27.121  1.00  0.00     0.001 A 
ATOM     28  C   UNL A   1      34.087  30.541  27.469  1.00  0.00     0.000 A 
ENDBRANCH  21  23
ENDBRANCH  17  21
ENDBRANCH   5   8
ENDBRANCH   3   4
ENDBRANCH   2   3
ENDBRANCH   1   2
BRANCH   1  29
ATOM     29  C   UNL A   1      36.930  23.767  25.060  1.00  0.00     0.116 C 
BRANCH  29  30
ATOM     30  N   UNL A   1      37.974  22.787  25.316  1.00  0.00    -0.352 N 
ATOM     31  C   UNL A   1      39.143  22.933  26.027  1.00  0.00     0.251 C 
ATOM     32  H   UNL A   1      37.824  21.896  24.925  1.00  0.00     0.163 HD
ATOM     33  O   UNL A   1      39.966  22.027  26.050  1.00  0.00    -0.269 OA
BRANCH  31  34
ATOM     34  C   UNL A   1      39.414  24.204  26.731  1.00  0.00     0.039 A 
ATOM     35  C   UNL A   1      38.933  24.367  28.033  1.00  0.00     0.014 A 
ATOM     36  C   UNL A   1      40.159  25.219  26.123  1.00  0.00     0.014 A 
ATOM     37  C   UNL A   1      39.259  25.520  28.752  1.00  0.00     0.010 A 
ATOM     38  C   UNL A   1      40.541  26.334  26.865  1.00  0.00     0.010 A 
ATOM     39  C   UNL A   1      40.098  26.495  28.187  1.00  0.00    -0.014 A 
BRANCH  39  40
ATOM     40  C   UNL A   1      40.530  27.684  28.963  1.00  0.00     0.031 A 
ATOM     41  C   UNL A   1      41.853  27.677  29.681  1.00  0.00     0.074 A 
ATOM     42  C   UNL A   1      39.700  28.739  29.086  1.00  0.00     0.049 A 
ATOM     43  N   UNL A   1      42.365  28.579  30.477  1.00  0.00    -0.248 NA
ATOM     44  C   UNL A   1      42.697  26.484  29.503  1.00  0.00     0.031 C 
ATOM     45  C   UNL A   1      38.370  28.844  28.480  1.00  0.00     0.029 A 
ATOM     46  N   UNL A   1      39.844  29.918  29.774  1.00  0.00    -0.354 N 
ATOM     47  C   UNL A   1      43.579  28.058  30.910  1.00  0.00     0.074 A 
ATOM     48  C   UNL A   1      43.704  26.740  30.324  1.00  0.00     0.031 C 
ATOM     49  C   UNL A   1      37.829  30.027  28.811  1.00  0.00     0.029 A 
ATOM     50  C   UNL A   1      38.753  30.750  29.679  1.00  0.00     0.049 A 
ATOM     51  H   UNL A   1      40.653  30.148  30.286  1.00  0.00     0.167 HD
ATOM     52  C   UNL A   1      44.513  28.633  31.703  1.00  0.00     0.037 A 
ATOM     53  C   UNL A   1      38.518  31.954  30.237  1.00  0.00     0.037 A 
ATOM     54  C   UNL A   1      44.395  29.957  32.258  1.00  0.00     0.049 A 
ATOM     55  C   UNL A   1      39.575  32.579  31.105  1.00  0.00     0.074 A 
ATOM     56  C   UNL A   1      45.315  30.655  33.020  1.00  0.00     0.029 A 
ATOM     57  N   UNL A   1      43.290  30.782  32.111  1.00  0.00    -0.354 N 
ATOM     58  N   UNL A   1      40.746  32.099  31.451  1.00  0.00    -0.248 NA
ATOM     59  C   UNL A   1      39.285  33.911  31.654  1.00  0.00     0.031 C 
ATOM     60  C   UNL A   1      44.749  31.886  33.370  1.00  0.00     0.029 A 
ATOM     61  C   UNL A   1      43.495  31.975  32.784  1.00  0.00     0.049 A 
ATOM     62  H   UNL A   1      42.478  30.554  31.603  1.00  0.00     0.167 HD
ATOM     63  C   UNL A   1      41.344  33.081  32.233  1.00  0.00     0.074 A 
ATOM     64  C   UNL A   1      40.409  34.184  32.303  1.00  0.00     0.031 C 
ATOM     65  C   UNL A   1      42.558  33.069  32.838  1.00  0.00     0.037 A 
BRANCH  52  66
ATOM     66  C   UNL A   1      45.749  27.833  32.017  1.00  0.00     0.058 A 
ATOM     67  C   UNL A   1      45.775  26.896  33.062  1.00  0.00     0.135 A 
ATOM     68  C   UNL A   1      46.913  27.987  31.246  1.00  0.00     0.135 A 
ATOM     69  F   UNL A   1      44.695  26.719  33.839  1.00  0.00    -0.206 F 
ATOM     70  C   UNL A   1      46.922  26.164  33.353  1.00  0.00     0.059 A 
ATOM     71  C   UNL A   1      48.062  27.244  31.502  1.00  0.00     0.059 A 
ATOM     72  F   UNL A   1      46.943  28.868  30.234  1.00  0.00    -0.206 F 
ATOM     73  C   UNL A   1      48.061  26.347  32.570  1.00  0.00     0.060 A 
BRANCH  73  74
ATOM     74  S   UNL A   1      49.541  25.391  32.963  1.00  0.00     0.124 S 
ATOM     75  O   UNL A   1      50.423  26.427  33.492  1.00  0.00    -0.237 OA
ATOM     76  O   UNL A   1      49.041  24.427  33.938  1.00  0.00    -0.237 OA
ATOM     77  O   UNL A   1      49.935  24.828  31.675  1.00  0.00    -0.744 OA
ENDBRANCH  73  74
ENDBRANCH  52  66
BRANCH  53  78
ATOM     78  C   UNL A   1      37.234  32.655  29.970  1.00  0.00     0.058 A 
ATOM     79  C   UNL A   1      36.088  32.375  30.730  1.00  0.00     0.135 A 
ATOM     80  C   UNL A   1      37.131  33.633  28.970  1.00  0.00     0.135 A 
ATOM     81  F   UNL A   1      36.136  31.442  31.694  1.00  0.00    -0.206 F 
ATOM     82  C   UNL A   1      34.883  33.030  30.502  1.00  0.00     0.059 A 
ATOM     83  C   UNL A   1      35.943  34.320  28.737  1.00  0.00     0.059 A 
ATOM     84  F   UNL A   1      38.202  33.950  28.226  1.00  0.00    -0.206 F 
ATOM     85  C   UNL A   1      34.821  34.005  29.504  1.00  0.00     0.060 A 
BRANCH  85  86
ATOM     86  S   UNL A   1      33.268  34.891  29.254  1.00  0.00     0.124 S 
ATOM     87  O   UNL A   1      32.606  34.049  28.265  1.00  0.00    -0.237 OA
ATOM     88  O   UNL A   1      32.689  34.879  30.593  1.00  0.00    -0.237 OA
ATOM     89  O   UNL A   1      33.702  36.201  28.779  1.00  0.00    -0.744 OA
ENDBRANCH  85  86
ENDBRANCH  53  78
BRANCH  65  90
ATOM     90  C   UNL A   1      42.966  34.300  33.599  1.00  0.00     0.058 A 
ATOM     91  C   UNL A   1      42.742  34.424  34.978  1.00  0.00     0.135 A 
ATOM     92  C   UNL A   1      43.642  35.345  32.947  1.00  0.00     0.135 A 
ATOM     93  F   UNL A   1      42.094  33.457  35.647  1.00  0.00    -0.206 F 
ATOM     94  C   UNL A   1      43.157  35.548  35.682  1.00  0.00     0.059 A 
ATOM     95  C   UNL A   1      44.089  36.467  33.636  1.00  0.00     0.059 A 
ATOM     96  F   UNL A   1      43.890  35.272  31.630  1.00  0.00    -0.206 F 
ATOM     97  C   UNL A   1      43.832  36.565  35.003  1.00  0.00     0.060 A 
BRANCH  97  98
ATOM     98  S   UNL A   1      44.400  38.002  35.936  1.00  0.00     0.124 S 
ATOM     99  O   UNL A   1      45.841  37.772  35.983  1.00  0.00    -0.237 OA
ATOM    100  O   UNL A   1      43.963  39.114  35.097  1.00  0.00    -0.237 OA
ATOM    101  O   UNL A   1      43.703  37.877  37.213  1.00  0.00    -0.744 OA
ENDBRANCH  97  98
ENDBRANCH  65  90
ENDBRANCH  39  40
ENDBRANCH  31  34
ENDBRANCH  29  30
ENDBRANCH   1  29
TORSDOF 17
ENDMDL
MODEL 3
REMARK VINA RESULT:     -11.2      2.887      9.614
REMARK SMILES CC[NH+]1CCC2(CC1)OC[C@H](C(=O)NCCCCNC(=O)c1ccc(-c3c4nc(c(-c5c(F)cc(S(=O)(=O)[O-])cc5F)c5ccc([nH]5)c(-c5c(F)cc(S(=O)(=O)[O-])cc5F)c5nc(c(-c6c(F)cc(S(=O)(=O)[O-])cc6F)c6ccc3[nH]6)C=C5)C=C4)cc1)N2C(=O)c1ccccc1
REMARK SMILES IDX 17 1 16 2 15 3 14 4 12 5 13 6 11 8 3 9 4 10 8 11 5 13 7 14
REMARK SMILES IDX 6 15 9 16 88 17 10 18 2 19 1 20 89 21 90 22 91 23 92 24
REMARK SMILES IDX 96 25 93 26 95 27 94 28 18 29 19 30 20 31 21 33 22 34 23 35
REMARK SMILES IDX 87 36 24 37 86 38 25 39 26 40 27 41 80 42 28 43 85 44 79 45
REMARK SMILES IDX 81 46 29 47 84 48 78 49 77 50 30 52 64 53 43 54 63 55 44 56
REMARK SMILES IDX 47 57 62 58 82 59 45 60 46 61 61 63 83 64 48 65 31 66 32 67
REMARK SMILES IDX 41 68 33 69 34 70 40 71 42 72 35 73 36 74 37 75 38 76 39 77
REMARK SMILES IDX 65 78 66 79 75 80 67 81 68 82 74 83 76 84 69 85 70 86 71 87
REMARK SMILES IDX 72 88 73 89 49 90 50 91 59 92 51 93 52 94 58 95 60 96 53 97
REMARK SMILES IDX 54 98 55 99 56 100 57 101
REMARK H PARENT 14 7 3 12 19 32 81 51 47 62
REMARK Flexibility Score: inf
ROOT
ATOM      1  C   UNL A   1      35.437  23.190  25.100  1.00  0.00     0.023 C 
ENDROOT
BRANCH   1   2
ATOM      2  C   UNL A   1      34.985  22.478  23.823  1.00  0.00     0.023 C 
BRANCH   2   3
ATOM      3  C   UNL A   1      33.600  22.877  23.317  1.00  0.00     0.116 C 
BRANCH   3   4
ATOM      4  N   UNL A   1      33.670  23.914  22.307  1.00  0.00    -0.354 N 
ATOM      5  C   UNL A   1      32.910  25.033  22.137  1.00  0.00     0.245 C 
ATOM      6  O   UNL A   1      33.227  25.769  21.197  1.00  0.00    -0.273 OA
ATOM      7  H   UNL A   1      34.381  23.792  21.638  1.00  0.00     0.163 HD
BRANCH   5   8
ATOM      8  C   UNL A   1      31.686  25.323  23.040  1.00  0.00     0.203 C 
ATOM      9  N   UNL A   1      33.423  29.466  25.740  1.00  0.00    -0.335 N 
ATOM     10  C   UNL A   1      33.974  28.770  24.585  1.00  0.00     0.267 C 
ATOM     11  C   UNL A   1      32.053  29.070  26.074  1.00  0.00     0.267 C 
ATOM     12  H   UNL A   1      33.392  30.424  25.389  1.00  0.00     0.348 HD
ATOM     13  C   UNL A   1      33.812  27.270  24.632  1.00  0.00     0.120 C 
ATOM     14  C   UNL A   1      31.699  27.586  25.949  1.00  0.00     0.120 C 
ATOM     15  C   UNL A   1      32.350  26.833  24.780  1.00  0.00     0.155 C 
ATOM     16  O   UNL A   1      32.442  25.453  25.271  1.00  0.00    -0.352 OA
ATOM     17  N   UNL A   1      31.593  26.703  23.513  1.00  0.00    -0.295 N 
ATOM     18  C   UNL A   1      31.816  24.565  24.338  1.00  0.00     0.198 C 
BRANCH   9  19
ATOM     19  C   UNL A   1      34.269  29.573  26.928  1.00  0.00     0.258 C 
ATOM     20  C   UNL A   1      34.330  30.953  27.574  1.00  0.00     0.071 C 
ENDBRANCH   9  19
BRANCH  17  21
ATOM     21  C   UNL A   1      30.759  27.546  22.794  1.00  0.00     0.256 C 
ATOM     22  O   UNL A   1      31.146  28.185  21.814  1.00  0.00    -0.269 OA
BRANCH  21  23
ATOM     23  C   UNL A   1      29.328  27.688  23.065  1.00  0.00     0.040 A 
ATOM     24  C   UNL A   1      28.710  28.911  22.774  1.00  0.00     0.014 A 
ATOM     25  C   UNL A   1      28.637  26.700  23.767  1.00  0.00     0.014 A 
ATOM     26  C   UNL A   1      27.358  29.090  23.074  1.00  0.00     0.001 A 
ATOM     27  C   UNL A   1      27.277  26.870  24.039  1.00  0.00     0.001 A 
ATOM     28  C   UNL A   1      26.637  28.058  23.679  1.00  0.00     0.000 A 
ENDBRANCH  21  23
ENDBRANCH  17  21
ENDBRANCH   5   8
ENDBRANCH   3   4
ENDBRANCH   2   3
ENDBRANCH   1   2
BRANCH   1  29
ATOM     29  C   UNL A   1      36.848  23.767  25.070  1.00  0.00     0.116 C 
BRANCH  29  30
ATOM     30  N   UNL A   1      37.879  22.772  25.318  1.00  0.00    -0.352 N 
ATOM     31  C   UNL A   1      39.057  22.901  26.017  1.00  0.00     0.251 C 
ATOM     32  H   UNL A   1      37.710  21.882  24.932  1.00  0.00     0.163 HD
ATOM     33  O   UNL A   1      39.866  21.982  26.034  1.00  0.00    -0.269 OA
BRANCH  31  34
ATOM     34  C   UNL A   1      39.355  24.170  26.715  1.00  0.00     0.039 A 
ATOM     35  C   UNL A   1      38.896  24.341  28.023  1.00  0.00     0.014 A 
ATOM     36  C   UNL A   1      40.104  25.173  26.094  1.00  0.00     0.014 A 
ATOM     37  C   UNL A   1      39.248  25.490  28.735  1.00  0.00     0.010 A 
ATOM     38  C   UNL A   1      40.512  26.284  26.828  1.00  0.00     0.010 A 
ATOM     39  C   UNL A   1      40.091  26.453  28.155  1.00  0.00    -0.014 A 
BRANCH  39  40
ATOM     40  C   UNL A   1      40.551  27.638  28.924  1.00  0.00     0.031 A 
ATOM     41  C   UNL A   1      41.896  27.625  29.598  1.00  0.00     0.074 A 
ATOM     42  C   UNL A   1      39.727  28.694  29.078  1.00  0.00     0.049 A 
ATOM     43  N   UNL A   1      42.436  28.522  30.382  1.00  0.00    -0.248 NA
ATOM     44  C   UNL A   1      42.731  26.432  29.387  1.00  0.00     0.031 C 
ATOM     45  C   UNL A   1      38.378  28.805  28.516  1.00  0.00     0.029 A 
ATOM     46  N   UNL A   1      39.895  29.869  29.766  1.00  0.00    -0.354 N 
ATOM     47  C   UNL A   1      43.661  27.997  30.772  1.00  0.00     0.074 A 
ATOM     48  C   UNL A   1      43.765  26.682  30.176  1.00  0.00     0.031 C 
ATOM     49  C   UNL A   1      37.850  29.987  28.869  1.00  0.00     0.029 A 
ATOM     50  C   UNL A   1      38.804  30.704  29.711  1.00  0.00     0.049 A 
ATOM     51  H   UNL A   1      40.720  30.095  30.253  1.00  0.00     0.167 HD
ATOM     52  C   UNL A   1      44.622  28.567  31.537  1.00  0.00     0.037 A 
ATOM     53  C   UNL A   1      38.589  31.905  30.282  1.00  0.00     0.037 A 
ATOM     54  C   UNL A   1      44.525  29.888  32.102  1.00  0.00     0.049 A 
ATOM     55  C   UNL A   1      39.675  32.525  31.118  1.00  0.00     0.074 A 
ATOM     56  C   UNL A   1      45.470  30.581  32.837  1.00  0.00     0.029 A 
ATOM     57  N   UNL A   1      43.416  30.716  31.995  1.00  0.00    -0.354 N 
ATOM     58  N   UNL A   1      40.856  32.041  31.424  1.00  0.00    -0.248 NA
ATOM     59  C   UNL A   1      39.405  33.854  31.683  1.00  0.00     0.031 C 
ATOM     60  C   UNL A   1      44.918  31.811  33.211  1.00  0.00     0.029 A 
ATOM     61  C   UNL A   1      43.646  31.905  32.667  1.00  0.00     0.049 A 
ATOM     62  H   UNL A   1      42.588  30.491  31.513  1.00  0.00     0.167 HD
ATOM     63  C   UNL A   1      41.480  33.018  32.191  1.00  0.00     0.074 A 
ATOM     64  C   UNL A   1      40.550  34.122  32.297  1.00  0.00     0.031 C 
ATOM     65  C   UNL A   1      42.713  33.001  32.756  1.00  0.00     0.037 A 
BRANCH  52  66
ATOM     66  C   UNL A   1      45.865  27.763  31.807  1.00  0.00     0.058 A 
ATOM     67  C   UNL A   1      46.987  27.835  30.966  1.00  0.00     0.135 A 
ATOM     68  C   UNL A   1      45.946  26.931  32.936  1.00  0.00     0.135 A 
ATOM     69  F   UNL A   1      46.959  28.604  29.866  1.00  0.00    -0.206 F 
ATOM     70  C   UNL A   1      48.133  27.085  31.215  1.00  0.00     0.059 A 
ATOM     71  C   UNL A   1      47.092  26.194  33.220  1.00  0.00     0.059 A 
ATOM     72  F   UNL A   1      44.903  26.825  33.774  1.00  0.00    -0.206 F 
ATOM     73  C   UNL A   1      48.175  26.265  32.343  1.00  0.00     0.060 A 
BRANCH  73  74
ATOM     74  S   UNL A   1      49.666  25.296  32.650  1.00  0.00     0.124 S 
ATOM     75  O   UNL A   1      49.157  24.253  33.534  1.00  0.00    -0.237 OA
ATOM     76  O   UNL A   1      50.039  24.862  31.308  1.00  0.00    -0.237 OA
ATOM     77  O   UNL A   1      50.574  26.257  33.270  1.00  0.00    -0.744 OA
ENDBRANCH  73  74
ENDBRANCH  52  66
BRANCH  53  78
ATOM     78  C   UNL A   1      37.299  32.610  30.060  1.00  0.00     0.058 A 
ATOM     79  C   UNL A   1      36.179  32.332  30.859  1.00  0.00     0.135 A 
ATOM     80  C   UNL A   1      37.164  33.589  29.065  1.00  0.00     0.135 A 
ATOM     81  F   UNL A   1      36.257  31.399  31.819  1.00  0.00    -0.206 F 
ATOM     82  C   UNL A   1      34.968  32.991  30.673  1.00  0.00     0.059 A 
ATOM     83  C   UNL A   1      35.970  34.279  28.874  1.00  0.00     0.059 A 
ATOM     84  F   UNL A   1      38.210  33.904  28.285  1.00  0.00    -0.206 F 
ATOM     85  C   UNL A   1      34.875  33.967  29.678  1.00  0.00     0.060 A 
BRANCH  85  86
ATOM     86  S   UNL A   1      33.316  34.857  29.482  1.00  0.00     0.124 S 
ATOM     87  O   UNL A   1      32.581  33.970  28.588  1.00  0.00    -0.237 OA
ATOM     88  O   UNL A   1      32.828  34.927  30.856  1.00  0.00    -0.237 OA
ATOM     89  O   UNL A   1      33.729  36.134  28.907  1.00  0.00    -0.744 OA
ENDBRANCH  85  86
ENDBRANCH  53  78
BRANCH  65  90
ATOM     90  C   UNL A   1      43.148  34.227  33.509  1.00  0.00     0.058 A 
ATOM     91  C   UNL A   1      43.706  35.336  32.855  1.00  0.00     0.135 A 
ATOM     92  C   UNL A   1      42.949  34.314  34.897  1.00  0.00     0.135 A 
ATOM     93  F   UNL A   1      43.923  35.302  31.531  1.00  0.00    -0.206 F 
ATOM     94  C   UNL A   1      44.069  36.482  33.554  1.00  0.00     0.059 A 
ATOM     95  C   UNL A   1      43.282  35.460  35.612  1.00  0.00     0.059 A 
ATOM     96  F   UNL A   1      42.410  33.285  35.569  1.00  0.00    -0.206 F 
ATOM     97  C   UNL A   1      43.852  36.536  34.932  1.00  0.00     0.060 A 
BRANCH  97  98
ATOM     98  S   UNL A   1      44.293  38.044  35.822  1.00  0.00     0.124 S 
ATOM     99  O   UNL A   1      43.545  37.882  37.064  1.00  0.00    -0.237 OA
ATOM    100  O   UNL A   1      45.743  37.929  35.935  1.00  0.00    -0.237 OA
ATOM    101  O   UNL A   1      43.823  39.109  34.940  1.00  0.00    -0.744 OA
ENDBRANCH  97  98
ENDBRANCH  65  90
ENDBRANCH  39  40
ENDBRANCH  31  34
ENDBRANCH  29  30
ENDBRANCH   1  29
TORSDOF 17
ENDMDL
