MODEL 1
REMARK VINA RESULT:     -13.4      0.000      0.000
REMARK SMILES CC[C@@]1(CC(=O)NCCCCNC(=O)c2ccc(-c3c4nc(c(-c5c(F)cc(S(=O)(=O)[O-])cc5F)c5ccc([nH]5)c(-c5c(F)cc(S(=O)(=O)[O-])cc5F)c5nc(c(-c6c(F)cc(S(=O)(=O)[O-])cc6F)c6ccc3[nH]6)C=C5)C=C4)cc2)OC[C@H](Cc2ccccc2)c2c1[nH]c1ccccc21
REMARK SMILES IDX 9 1 8 2 7 3 5 4 6 5 4 7 3 8 81 9 92 10 82 11 91 12 93 13
REMARK SMILES IDX 83 14 99 15 94 16 98 18 95 19 97 20 96 21 2 22 1 23 84 24
REMARK SMILES IDX 85 25 86 26 90 27 87 28 89 29 88 30 10 31 11 32 12 33 13 34
REMARK SMILES IDX 14 36 15 37 16 38 80 39 17 40 79 41 18 42 19 43 20 44 73 45
REMARK SMILES IDX 21 46 78 47 72 48 74 49 22 50 77 51 71 52 70 53 23 55 57 56
REMARK SMILES IDX 36 57 56 58 37 59 40 60 55 61 75 62 38 63 39 64 54 66 76 67
REMARK SMILES IDX 41 68 24 69 25 70 34 71 26 72 27 73 33 74 35 75 28 76 29 77
REMARK SMILES IDX 30 78 31 79 32 80 58 81 59 82 68 83 60 84 61 85 67 86 69 87
REMARK SMILES IDX 62 88 63 89 64 90 65 91 66 92 42 93 43 94 52 95 44 96 45 97
REMARK SMILES IDX 51 98 53 99 46 100 47 101 48 102 49 103 50 104
REMARK H PARENT 7 6 93 17 12 35 74 54 40 65
REMARK Flexibility Score: inf
ROOT
ATOM      1  C   UNL A   1      36.980  22.449  25.367  1.00  0.00     0.023 C 
ENDROOT
BRANCH   1   2
ATOM      2  C   UNL A   1      35.715  23.226  25.712  1.00  0.00     0.116 C 
BRANCH   2   3
ATOM      3  N   UNL A   1      35.353  24.144  24.654  1.00  0.00    -0.356 N 
ATOM      4  C   UNL A   1      34.136  24.369  24.082  1.00  0.00     0.223 C 
ATOM      5  O   UNL A   1      34.048  25.252  23.227  1.00  0.00    -0.275 OA
ATOM      6  H   UNL A   1      36.093  24.687  24.296  1.00  0.00     0.163 HD
BRANCH   4   7
ATOM      7  C   UNL A   1      32.919  23.605  24.562  1.00  0.00     0.142 C 
BRANCH   7   8
ATOM      8  C   UNL A   1      31.991  24.369  25.527  1.00  0.00     0.117 C 
ATOM      9  O   UNL A   1      30.610  24.288  25.087  1.00  0.00    -0.368 OA
ATOM     10  C   UNL A   1      32.358  25.831  25.523  1.00  0.00     0.052 A 
ATOM     11  C   UNL A   1      30.242  25.078  23.955  1.00  0.00     0.170 C 
ATOM     12  C   UNL A   1      31.615  26.871  25.012  1.00  0.00    -0.011 A 
ATOM     13  N   UNL A   1      33.513  26.367  26.027  1.00  0.00    -0.356 N 
ATOM     14  C   UNL A   1      30.387  26.608  24.194  1.00  0.00     0.052 C 
ATOM     15  C   UNL A   1      32.164  28.072  25.549  1.00  0.00     0.003 A 
ATOM     16  C   UNL A   1      33.349  27.721  26.196  1.00  0.00     0.046 A 
ATOM     17  H   UNL A   1      34.332  25.863  26.237  1.00  0.00     0.166 HD
ATOM     18  C   UNL A   1      31.756  29.419  25.594  1.00  0.00     0.010 A 
ATOM     19  C   UNL A   1      34.147  28.635  26.891  1.00  0.00     0.026 A 
ATOM     20  C   UNL A   1      32.527  30.345  26.313  1.00  0.00     0.001 A 
ATOM     21  C   UNL A   1      33.702  29.955  26.952  1.00  0.00     0.002 A 
BRANCH   8  22
ATOM     22  C   UNL A   1      31.896  23.832  26.981  1.00  0.00     0.039 C 
ATOM     23  C   UNL A   1      32.574  22.511  27.326  1.00  0.00     0.007 C 
ENDBRANCH   8  22
BRANCH  14  24
ATOM     24  C   UNL A   1      30.464  27.343  22.840  1.00  0.00     0.046 C 
BRANCH  24  25
ATOM     25  C   UNL A   1      29.523  28.517  22.728  1.00  0.00    -0.047 A 
ATOM     26  C   UNL A   1      29.991  29.761  22.291  1.00  0.00     0.004 A 
ATOM     27  C   UNL A   1      28.179  28.385  23.103  1.00  0.00     0.004 A 
ATOM     28  C   UNL A   1      29.132  30.860  22.243  1.00  0.00     0.000 A 
ATOM     29  C   UNL A   1      27.320  29.484  23.053  1.00  0.00     0.000 A 
ATOM     30  C   UNL A   1      27.799  30.720  22.626  1.00  0.00     0.000 A 
ENDBRANCH  24  25
ENDBRANCH  14  24
ENDBRANCH   7   8
ENDBRANCH   4   7
ENDBRANCH   2   3
ENDBRANCH   1   2
BRANCH   1  31
ATOM     31  C   UNL A   1      38.266  23.106  25.851  1.00  0.00     0.023 C 
BRANCH  31  32
ATOM     32  C   UNL A   1      39.279  22.141  26.480  1.00  0.00     0.116 C 
BRANCH  32  33
ATOM     33  N   UNL A   1      40.570  22.107  25.818  1.00  0.00    -0.352 N 
ATOM     34  C   UNL A   1      41.685  22.901  25.865  1.00  0.00     0.251 C 
ATOM     35  H   UNL A   1      40.667  21.347  25.200  1.00  0.00     0.163 HD
ATOM     36  O   UNL A   1      42.699  22.444  25.331  1.00  0.00    -0.269 OA
BRANCH  34  37
ATOM     37  C   UNL A   1      41.732  24.266  26.454  1.00  0.00     0.039 A 
ATOM     38  C   UNL A   1      42.133  24.545  27.757  1.00  0.00     0.014 A 
ATOM     39  C   UNL A   1      41.226  25.320  25.670  1.00  0.00     0.014 A 
ATOM     40  C   UNL A   1      41.927  25.800  28.306  1.00  0.00     0.010 A 
ATOM     41  C   UNL A   1      41.052  26.596  26.205  1.00  0.00     0.010 A 
ATOM     42  C   UNL A   1      41.355  26.818  27.543  1.00  0.00    -0.014 A 
BRANCH  42  43
ATOM     43  C   UNL A   1      41.168  28.100  28.215  1.00  0.00     0.031 A 
ATOM     44  C   UNL A   1      42.282  29.077  28.031  1.00  0.00     0.074 A 
ATOM     45  C   UNL A   1      40.083  28.425  28.943  1.00  0.00     0.049 A 
ATOM     46  N   UNL A   1      43.116  29.520  28.915  1.00  0.00    -0.248 NA
ATOM     47  C   UNL A   1      42.581  29.506  26.657  1.00  0.00     0.031 C 
ATOM     48  C   UNL A   1      38.799  27.729  29.041  1.00  0.00     0.029 A 
ATOM     49  N   UNL A   1      39.894  29.531  29.714  1.00  0.00    -0.354 N 
ATOM     50  C   UNL A   1      43.939  30.428  28.251  1.00  0.00     0.074 A 
ATOM     51  C   UNL A   1      43.651  30.280  26.847  1.00  0.00     0.031 C 
ATOM     52  C   UNL A   1      37.900  28.539  29.646  1.00  0.00     0.029 A 
ATOM     53  C   UNL A   1      38.579  29.739  30.105  1.00  0.00     0.049 A 
ATOM     54  H   UNL A   1      40.629  30.134  29.972  1.00  0.00     0.167 HD
ATOM     55  C   UNL A   1      44.678  31.362  28.913  1.00  0.00     0.037 A 
ATOM     56  C   UNL A   1      38.086  30.849  30.708  1.00  0.00     0.037 A 
ATOM     57  C   UNL A   1      44.842  31.024  30.303  1.00  0.00     0.049 A 
ATOM     58  C   UNL A   1      39.229  31.543  31.359  1.00  0.00     0.074 A 
ATOM     59  C   UNL A   1      45.439  29.983  30.987  1.00  0.00     0.029 A 
ATOM     60  N   UNL A   1      44.051  31.666  31.224  1.00  0.00    -0.354 N 
ATOM     61  N   UNL A   1      39.892  31.064  32.376  1.00  0.00    -0.248 NA
ATOM     62  C   UNL A   1      39.910  32.587  30.609  1.00  0.00     0.031 C 
ATOM     63  C   UNL A   1      44.609  29.762  32.125  1.00  0.00     0.029 A 
ATOM     64  C   UNL A   1      43.580  30.705  32.084  1.00  0.00     0.049 A 
ATOM     65  H   UNL A   1      43.859  32.630  31.261  1.00  0.00     0.167 HD
ATOM     66  C   UNL A   1      41.209  31.438  32.154  1.00  0.00     0.074 A 
ATOM     67  C   UNL A   1      41.142  32.449  31.102  1.00  0.00     0.031 C 
ATOM     68  C   UNL A   1      42.251  30.710  32.652  1.00  0.00     0.037 A 
BRANCH  55  69
ATOM     69  C   UNL A   1      44.993  32.738  28.376  1.00  0.00     0.058 A 
ATOM     70  C   UNL A   1      46.334  33.115  28.152  1.00  0.00     0.135 A 
ATOM     71  C   UNL A   1      44.052  33.791  28.343  1.00  0.00     0.135 A 
ATOM     72  F   UNL A   1      47.314  32.196  28.163  1.00  0.00    -0.206 F 
ATOM     73  C   UNL A   1      46.719  34.447  27.990  1.00  0.00     0.059 A 
ATOM     74  C   UNL A   1      44.408  35.118  28.129  1.00  0.00     0.059 A 
ATOM     75  F   UNL A   1      42.756  33.599  28.616  1.00  0.00    -0.206 F 
ATOM     76  C   UNL A   1      45.748  35.443  28.000  1.00  0.00     0.060 A 
BRANCH  76  77
ATOM     77  S   UNL A   1      46.252  37.172  27.930  1.00  0.00     0.124 S 
ATOM     78  O   UNL A   1      47.558  37.119  28.576  1.00  0.00    -0.237 OA
ATOM     79  O   UNL A   1      46.256  37.428  26.494  1.00  0.00    -0.237 OA
ATOM     80  O   UNL A   1      45.204  37.857  28.681  1.00  0.00    -0.744 OA
ENDBRANCH  76  77
ENDBRANCH  55  69
BRANCH  56  81
ATOM     81  C   UNL A   1      36.795  31.530  30.423  1.00  0.00     0.058 A 
ATOM     82  C   UNL A   1      36.004  32.050  31.462  1.00  0.00     0.135 A 
ATOM     83  C   UNL A   1      36.456  31.943  29.117  1.00  0.00     0.135 A 
ATOM     84  F   UNL A   1      36.268  31.727  32.737  1.00  0.00    -0.206 F 
ATOM     85  C   UNL A   1      34.976  32.970  31.228  1.00  0.00     0.059 A 
ATOM     86  C   UNL A   1      35.429  32.849  28.859  1.00  0.00     0.059 A 
ATOM     87  F   UNL A   1      37.177  31.553  28.056  1.00  0.00    -0.206 F 
ATOM     88  C   UNL A   1      34.712  33.382  29.923  1.00  0.00     0.060 A 
BRANCH  88  89
ATOM     89  S   UNL A   1      33.513  34.704  29.633  1.00  0.00     0.124 S 
ATOM     90  O   UNL A   1      32.562  34.058  28.737  1.00  0.00    -0.237 OA
ATOM     91  O   UNL A   1      33.032  34.982  30.982  1.00  0.00    -0.237 OA
ATOM     92  O   UNL A   1      34.317  35.765  29.031  1.00  0.00    -0.744 OA
ENDBRANCH  88  89
ENDBRANCH  56  81
BRANCH  68  93
ATOM     93  C   UNL A   1      41.956  29.655  33.688  1.00  0.00     0.058 A 
ATOM     94  C   UNL A   1      41.545  28.345  33.385  1.00  0.00     0.135 A 
ATOM     95  C   UNL A   1      42.264  29.934  35.028  1.00  0.00     0.135 A 
ATOM     96  F   UNL A   1      41.330  27.966  32.116  1.00  0.00    -0.206 F 
ATOM     97  C   UNL A   1      41.415  27.368  34.373  1.00  0.00     0.059 A 
ATOM     98  C   UNL A   1      42.172  28.968  36.027  1.00  0.00     0.059 A 
ATOM     99  F   UNL A   1      42.722  31.150  35.373  1.00  0.00    -0.206 F 
ATOM    100  C   UNL A   1      41.737  27.688  35.692  1.00  0.00     0.060 A 
BRANCH 100 101
ATOM    101  S   UNL A   1      41.664  26.398  36.955  1.00  0.00     0.124 S 
ATOM    102  O   UNL A   1      42.898  26.633  37.705  1.00  0.00    -0.237 OA
ATOM    103  O   UNL A   1      40.426  26.723  37.664  1.00  0.00    -0.237 OA
ATOM    104  O   UNL A   1      41.628  25.164  36.187  1.00  0.00    -0.744 OA
ENDBRANCH 100 101
ENDBRANCH  68  93
ENDBRANCH  42  43
ENDBRANCH  34  37
ENDBRANCH  32  33
ENDBRANCH  31  32
ENDBRANCH   1  31
TORSDOF 18
ENDMDL
MODEL 2
REMARK VINA RESULT:     -13.0      2.939      9.573
REMARK SMILES CC[C@@]1(CC(=O)NCCCCNC(=O)c2ccc(-c3c4nc(c(-c5c(F)cc(S(=O)(=O)[O-])cc5F)c5ccc([nH]5)c(-c5c(F)cc(S(=O)(=O)[O-])cc5F)c5nc(c(-c6c(F)cc(S(=O)(=O)[O-])cc6F)c6ccc3[nH]6)C=C5)C=C4)cc2)OC[C@H](Cc2ccccc2)c2c1[nH]c1ccccc21
REMARK SMILES IDX 9 1 8 2 7 3 5 4 6 5 4 7 3 8 81 9 92 10 82 11 91 12 93 13
REMARK SMILES IDX 83 14 99 15 94 16 98 18 95 19 97 20 96 21 2 22 1 23 84 24
REMARK SMILES IDX 85 25 86 26 90 27 87 28 89 29 88 30 10 31 11 32 12 33 13 34
REMARK SMILES IDX 14 36 15 37 16 38 80 39 17 40 79 41 18 42 19 43 20 44 73 45
REMARK SMILES IDX 21 46 78 47 72 48 74 49 22 50 77 51 71 52 70 53 23 55 57 56
REMARK SMILES IDX 36 57 56 58 37 59 40 60 55 61 75 62 38 63 39 64 54 66 76 67
REMARK SMILES IDX 41 68 24 69 25 70 34 71 26 72 27 73 33 74 35 75 28 76 29 77
REMARK SMILES IDX 30 78 31 79 32 80 58 81 59 82 68 83 60 84 61 85 67 86 69 87
REMARK SMILES IDX 62 88 63 89 64 90 65 91 66 92 42 93 43 94 52 95 44 96 45 97
REMARK SMILES IDX 51 98 53 99 46 100 47 101 48 102 49 103 50 104
REMARK H PARENT 7 6 93 17 12 35 74 54 40 65
REMARK Flexibility Score: inf
ROOT
ATOM      1  C   UNL A   1      33.153  28.814  27.138  1.00  0.00     0.023 C 
ENDROOT
BRANCH   1   2
ATOM      2  C   UNL A   1      32.637  27.817  26.109  1.00  0.00     0.116 C 
BRANCH   2   3
ATOM      3  N   UNL A   1      32.534  26.486  26.666  1.00  0.00    -0.356 N 
ATOM      4  C   UNL A   1      32.078  25.337  26.087  1.00  0.00     0.223 C 
ATOM      5  O   UNL A   1      32.137  24.293  26.738  1.00  0.00    -0.275 OA
ATOM      6  H   UNL A   1      32.836  26.395  27.599  1.00  0.00     0.163 HD
BRANCH   4   7
ATOM      7  C   UNL A   1      31.602  25.351  24.649  1.00  0.00     0.142 C 
BRANCH   7   8
ATOM      8  C   UNL A   1      32.627  24.867  23.604  1.00  0.00     0.117 C 
ATOM      9  O   UNL A   1      32.014  23.937  22.672  1.00  0.00    -0.368 OA
ATOM     10  C   UNL A   1      33.734  24.115  24.297  1.00  0.00     0.052 A 
ATOM     11  C   UNL A   1      31.742  22.620  23.156  1.00  0.00     0.170 C 
ATOM     12  C   UNL A   1      33.989  22.764  24.225  1.00  0.00    -0.011 A 
ATOM     13  N   UNL A   1      34.671  24.661  25.132  1.00  0.00    -0.356 N 
ATOM     14  C   UNL A   1      33.020  21.832  23.562  1.00  0.00     0.052 C 
ATOM     15  C   UNL A   1      35.310  22.568  24.723  1.00  0.00     0.003 A 
ATOM     16  C   UNL A   1      35.719  23.784  25.274  1.00  0.00     0.046 A 
ATOM     17  H   UNL A   1      34.606  25.544  25.562  1.00  0.00     0.166 HD
ATOM     18  C   UNL A   1      36.224  21.497  24.727  1.00  0.00     0.010 A 
ATOM     19  C   UNL A   1      36.989  23.993  25.820  1.00  0.00     0.026 A 
ATOM     20  C   UNL A   1      37.513  21.697  25.242  1.00  0.00     0.001 A 
ATOM     21  C   UNL A   1      37.887  22.927  25.778  1.00  0.00     0.002 A 
BRANCH   8  22
ATOM     22  C   UNL A   1      33.211  25.940  22.646  1.00  0.00     0.039 C 
ATOM     23  C   UNL A   1      32.734  25.977  21.198  1.00  0.00     0.007 C 
ENDBRANCH   8  22
BRANCH  14  24
ATOM     24  C   UNL A   1      32.641  20.675  24.508  1.00  0.00     0.046 C 
BRANCH  24  25
ATOM     25  C   UNL A   1      33.161  19.329  24.065  1.00  0.00    -0.047 A 
ATOM     26  C   UNL A   1      32.500  18.608  23.064  1.00  0.00     0.004 A 
ATOM     27  C   UNL A   1      34.287  18.767  24.684  1.00  0.00     0.004 A 
ATOM     28  C   UNL A   1      32.949  17.339  22.697  1.00  0.00     0.000 A 
ATOM     29  C   UNL A   1      34.735  17.498  24.314  1.00  0.00     0.000 A 
ATOM     30  C   UNL A   1      34.064  16.785  23.324  1.00  0.00     0.000 A 
ENDBRANCH  24  25
ENDBRANCH  14  24
ENDBRANCH   7   8
ENDBRANCH   4   7
ENDBRANCH   2   3
ENDBRANCH   1   2
BRANCH   1  31
ATOM     31  C   UNL A   1      32.608  30.226  26.966  1.00  0.00     0.023 C 
BRANCH  31  32
ATOM     32  C   UNL A   1      33.630  31.340  27.220  1.00  0.00     0.116 C 
BRANCH  32  33
ATOM     33  N   UNL A   1      33.730  31.762  28.606  1.00  0.00    -0.352 N 
ATOM     34  C   UNL A   1      34.760  31.841  29.505  1.00  0.00     0.251 C 
ATOM     35  H   UNL A   1      32.869  32.056  28.982  1.00  0.00     0.163 HD
ATOM     36  O   UNL A   1      34.526  32.465  30.544  1.00  0.00    -0.269 OA
BRANCH  34  37
ATOM     37  C   UNL A   1      36.087  31.192  29.337  1.00  0.00     0.039 A 
ATOM     38  C   UNL A   1      36.275  29.827  29.147  1.00  0.00     0.014 A 
ATOM     39  C   UNL A   1      37.224  32.006  29.498  1.00  0.00     0.014 A 
ATOM     40  C   UNL A   1      37.540  29.268  29.234  1.00  0.00     0.010 A 
ATOM     41  C   UNL A   1      38.503  31.456  29.548  1.00  0.00     0.010 A 
ATOM     42  C   UNL A   1      38.653  30.076  29.469  1.00  0.00    -0.014 A 
BRANCH  42  43
ATOM     43  C   UNL A   1      39.939  29.392  29.557  1.00  0.00     0.031 A 
ATOM     44  C   UNL A   1      40.415  29.124  30.947  1.00  0.00     0.074 A 
ATOM     45  C   UNL A   1      40.667  29.002  28.494  1.00  0.00     0.049 A 
ATOM     46  N   UNL A   1      41.429  29.641  31.562  1.00  0.00    -0.248 NA
ATOM     47  C   UNL A   1      39.570  28.273  31.796  1.00  0.00     0.031 C 
ATOM     48  C   UNL A   1      40.277  28.943  27.085  1.00  0.00     0.029 A 
ATOM     49  N   UNL A   1      41.930  28.494  28.487  1.00  0.00    -0.354 N 
ATOM     50  C   UNL A   1      41.463  29.045  32.821  1.00  0.00     0.074 A 
ATOM     51  C   UNL A   1      40.228  28.317  32.956  1.00  0.00     0.031 C 
ATOM     52  C   UNL A   1      41.199  28.228  26.399  1.00  0.00     0.029 A 
ATOM     53  C   UNL A   1      42.306  27.911  27.286  1.00  0.00     0.049 A 
ATOM     54  H   UNL A   1      42.527  28.536  29.269  1.00  0.00     0.167 HD
ATOM     55  C   UNL A   1      42.582  29.050  33.601  1.00  0.00     0.037 A 
ATOM     56  C   UNL A   1      43.421  27.171  27.066  1.00  0.00     0.037 A 
ATOM     57  C   UNL A   1      43.515  30.065  33.186  1.00  0.00     0.049 A 
ATOM     58  C   UNL A   1      44.408  27.537  28.116  1.00  0.00     0.074 A 
ATOM     59  C   UNL A   1      43.487  31.444  33.119  1.00  0.00     0.029 A 
ATOM     60  N   UNL A   1      44.599  29.681  32.435  1.00  0.00    -0.354 N 
ATOM     61  N   UNL A   1      44.981  28.706  28.205  1.00  0.00    -0.248 NA
ATOM     62  C   UNL A   1      44.446  26.732  29.327  1.00  0.00     0.031 C 
ATOM     63  C   UNL A   1      44.238  31.774  31.953  1.00  0.00     0.029 A 
ATOM     64  C   UNL A   1      44.709  30.580  31.404  1.00  0.00     0.049 A 
ATOM     65  H   UNL A   1      45.185  28.909  32.605  1.00  0.00     0.167 HD
ATOM     66  C   UNL A   1      45.083  28.953  29.566  1.00  0.00     0.074 A 
ATOM     67  C   UNL A   1      44.822  27.665  30.204  1.00  0.00     0.031 C 
ATOM     68  C   UNL A   1      45.108  30.225  30.061  1.00  0.00     0.037 A 
BRANCH  55  69
ATOM     69  C   UNL A   1      42.969  27.936  34.544  1.00  0.00     0.058 A 
ATOM     70  C   UNL A   1      43.130  28.204  35.919  1.00  0.00     0.135 A 
ATOM     71  C   UNL A   1      43.461  26.686  34.106  1.00  0.00     0.135 A 
ATOM     72  F   UNL A   1      42.701  29.363  36.446  1.00  0.00    -0.206 F 
ATOM     73  C   UNL A   1      43.803  27.333  36.778  1.00  0.00     0.059 A 
ATOM     74  C   UNL A   1      44.086  25.780  34.956  1.00  0.00     0.059 A 
ATOM     75  F   UNL A   1      43.450  26.327  32.817  1.00  0.00    -0.206 F 
ATOM     76  C   UNL A   1      44.295  26.131  36.279  1.00  0.00     0.060 A 
BRANCH  76  77
ATOM     77  S   UNL A   1      45.282  25.067  37.347  1.00  0.00     0.124 S 
ATOM     78  O   UNL A   1      44.542  25.148  38.600  1.00  0.00    -0.237 OA
ATOM     79  O   UNL A   1      45.217  23.790  36.645  1.00  0.00    -0.237 OA
ATOM     80  O   UNL A   1      46.593  25.711  37.344  1.00  0.00    -0.744 OA
ENDBRANCH  76  77
ENDBRANCH  55  69
BRANCH  56  81
ATOM     81  C   UNL A   1      43.528  25.920  26.268  1.00  0.00     0.058 A 
ATOM     82  C   UNL A   1      44.616  25.701  25.406  1.00  0.00     0.135 A 
ATOM     83  C   UNL A   1      42.727  24.796  26.556  1.00  0.00     0.135 A 
ATOM     84  F   UNL A   1      45.444  26.710  25.094  1.00  0.00    -0.206 F 
ATOM     85  C   UNL A   1      44.927  24.432  24.905  1.00  0.00     0.059 A 
ATOM     86  C   UNL A   1      43.010  23.525  26.059  1.00  0.00     0.059 A 
ATOM     87  F   UNL A   1      41.696  24.877  27.411  1.00  0.00    -0.206 F 
ATOM     88  C   UNL A   1      44.130  23.345  25.258  1.00  0.00     0.060 A 
BRANCH  88  89
ATOM     89  S   UNL A   1      44.630  21.678  24.765  1.00  0.00     0.124 S 
ATOM     90  O   UNL A   1      45.955  21.572  25.365  1.00  0.00    -0.237 OA
ATOM     91  O   UNL A   1      43.588  20.855  25.369  1.00  0.00    -0.237 OA
ATOM     92  O   UNL A   1      44.608  21.734  23.306  1.00  0.00    -0.744 OA
ENDBRANCH  88  89
ENDBRANCH  56  81
BRANCH  68  93
ATOM     93  C   UNL A   1      45.313  31.365  29.095  1.00  0.00     0.058 A 
ATOM     94  C   UNL A   1      46.572  31.885  28.745  1.00  0.00     0.135 A 
ATOM     95  C   UNL A   1      44.205  31.832  28.373  1.00  0.00     0.135 A 
ATOM     96  F   UNL A   1      47.693  31.419  29.315  1.00  0.00    -0.206 F 
ATOM     97  C   UNL A   1      46.717  32.849  27.746  1.00  0.00     0.059 A 
ATOM     98  C   UNL A   1      44.329  32.771  27.351  1.00  0.00     0.059 A 
ATOM     99  F   UNL A   1      42.982  31.329  28.617  1.00  0.00    -0.206 F 
ATOM    100  C   UNL A   1      45.589  33.282  27.049  1.00  0.00     0.060 A 
BRANCH 100 101
ATOM    101  S   UNL A   1      45.788  34.455  25.690  1.00  0.00     0.124 S 
ATOM    102  O   UNL A   1      45.473  35.729  26.336  1.00  0.00    -0.237 OA
ATOM    103  O   UNL A   1      47.192  34.268  25.319  1.00  0.00    -0.237 OA
ATOM    104  O   UNL A   1      44.825  34.003  24.700  1.00  0.00    -0.744 OA
ENDBRANCH 100 101
ENDBRANCH  68  93
ENDBRANCH  42  43
ENDBRANCH  34  37
ENDBRANCH  32  33
ENDBRANCH  31  32
ENDBRANCH   1  31
TORSDOF 18
ENDMDL
MODEL 3
REMARK VINA RESULT:     -13.0      2.854      9.590
REMARK SMILES CC[C@@]1(CC(=O)NCCCCNC(=O)c2ccc(-c3c4nc(c(-c5c(F)cc(S(=O)(=O)[O-])cc5F)c5ccc([nH]5)c(-c5c(F)cc(S(=O)(=O)[O-])cc5F)c5nc(c(-c6c(F)cc(S(=O)(=O)[O-])cc6F)c6ccc3[nH]6)C=C5)C=C4)cc2)OC[C@H](Cc2ccccc2)c2c1[nH]c1ccccc21
REMARK SMILES IDX 9 1 8 2 7 3 5 4 6 5 4 7 3 8 81 9 92 10 82 11 91 12 93 13
REMARK SMILES IDX 83 14 99 15 94 16 98 18 95 19 97 20 96 21 2 22 1 23 84 24
REMARK SMILES IDX 85 25 86 26 90 27 87 28 89 29 88 30 10 31 11 32 12 33 13 34
REMARK SMILES IDX 14 36 15 37 16 38 80 39 17 40 79 41 18 42 19 43 20 44 73 45
REMARK SMILES IDX 21 46 78 47 72 48 74 49 22 50 77 51 71 52 70 53 23 55 57 56
REMARK SMILES IDX 36 57 56 58 37 59 40 60 55 61 75 62 38 63 39 64 54 66 76 67
REMARK SMILES IDX 41 68 24 69 25 70 34 71 26 72 27 73 33 74 35 75 28 76 29 77
REMARK SMILES IDX 30 78 31 79 32 80 58 81 59 82 68 83 60 84 61 85 67 86 69 87
REMARK SMILES IDX 62 88 63 89 64 90 65 91 66 92 42 93 43 94 52 95 44 96 45 97
REMARK SMILES IDX 51 98 53 99 46 100 47 101 48 102 49 103 50 104
REMARK H PARENT 7 6 93 17 12 35 74 54 40 65
REMARK Flexibility Score: inf
ROOT
ATOM      1  C   UNL A   1      32.395  28.271  27.230  1.00  0.00     0.023 C 
ENDROOT
BRANCH   1   2
ATOM      2  C   UNL A   1      33.227  27.416  26.283  1.00  0.00     0.116 C 
BRANCH   2   3
ATOM      3  N   UNL A   1      32.836  27.618  24.905  1.00  0.00    -0.356 N 
ATOM      4  C   UNL A   1      32.783  26.720  23.879  1.00  0.00     0.223 C 
ATOM      5  O   UNL A   1      32.358  27.106  22.789  1.00  0.00    -0.275 OA
ATOM      6  H   UNL A   1      32.570  28.538  24.673  1.00  0.00     0.163 HD
BRANCH   4   7
ATOM      7  C   UNL A   1      33.153  25.272  24.119  1.00  0.00     0.142 C 
BRANCH   7   8
ATOM      8  C   UNL A   1      32.011  24.366  24.618  1.00  0.00     0.117 C 
ATOM      9  O   UNL A   1      31.849  24.485  26.057  1.00  0.00    -0.368 OA
ATOM     10  C   UNL A   1      32.356  22.925  24.342  1.00  0.00     0.052 A 
ATOM     11  C   UNL A   1      32.836  23.853  26.874  1.00  0.00     0.170 C 
ATOM     12  C   UNL A   1      32.663  21.954  25.268  1.00  0.00    -0.011 A 
ATOM     13  N   UNL A   1      32.430  22.343  23.105  1.00  0.00    -0.356 N 
ATOM     14  C   UNL A   1      32.882  22.307  26.708  1.00  0.00     0.052 C 
ATOM     15  C   UNL A   1      32.554  20.699  24.601  1.00  0.00     0.003 A 
ATOM     16  C   UNL A   1      32.392  20.977  23.242  1.00  0.00     0.046 A 
ATOM     17  H   UNL A   1      32.498  22.827  22.250  1.00  0.00     0.166 HD
ATOM     18  C   UNL A   1      32.532  19.353  25.010  1.00  0.00     0.010 A 
ATOM     19  C   UNL A   1      32.201  19.989  22.272  1.00  0.00     0.026 A 
ATOM     20  C   UNL A   1      32.310  18.349  24.056  1.00  0.00     0.001 A 
ATOM     21  C   UNL A   1      32.146  18.665  22.709  1.00  0.00     0.002 A 
BRANCH   8  22
ATOM     22  C   UNL A   1      30.582  24.695  24.108  1.00  0.00     0.039 C 
ATOM     23  C   UNL A   1      29.684  25.592  24.952  1.00  0.00     0.007 C 
ENDBRANCH   8  22
BRANCH  14  24
ATOM     24  C   UNL A   1      34.239  21.769  27.203  1.00  0.00     0.046 C 
BRANCH  24  25
ATOM     25  C   UNL A   1      35.388  22.057  26.269  1.00  0.00    -0.047 A 
ATOM     26  C   UNL A   1      35.895  23.356  26.149  1.00  0.00     0.004 A 
ATOM     27  C   UNL A   1      35.931  21.035  25.477  1.00  0.00     0.004 A 
ATOM     28  C   UNL A   1      36.919  23.632  25.242  1.00  0.00     0.000 A 
ATOM     29  C   UNL A   1      36.955  21.312  24.571  1.00  0.00     0.000 A 
ATOM     30  C   UNL A   1      37.446  22.610  24.453  1.00  0.00     0.000 A 
ENDBRANCH  24  25
ENDBRANCH  14  24
ENDBRANCH   7   8
ENDBRANCH   4   7
ENDBRANCH   2   3
ENDBRANCH   1   2
BRANCH   1  31
ATOM     31  C   UNL A   1      32.237  29.719  26.785  1.00  0.00     0.023 C 
BRANCH  31  32
ATOM     32  C   UNL A   1      33.522  30.554  26.858  1.00  0.00     0.116 C 
BRANCH  32  33
ATOM     33  N   UNL A   1      33.698  31.282  28.102  1.00  0.00    -0.352 N 
ATOM     34  C   UNL A   1      34.780  31.571  28.890  1.00  0.00     0.251 C 
ATOM     35  H   UNL A   1      32.856  31.648  28.456  1.00  0.00     0.163 HD
ATOM     36  O   UNL A   1      34.598  32.414  29.772  1.00  0.00    -0.269 OA
BRANCH  34  37
ATOM     37  C   UNL A   1      36.108  30.909  28.787  1.00  0.00     0.039 A 
ATOM     38  C   UNL A   1      36.292  29.544  28.594  1.00  0.00     0.014 A 
ATOM     39  C   UNL A   1      37.242  31.710  29.017  1.00  0.00     0.014 A 
ATOM     40  C   UNL A   1      37.545  28.971  28.744  1.00  0.00     0.010 A 
ATOM     41  C   UNL A   1      38.512  31.146  29.132  1.00  0.00     0.010 A 
ATOM     42  C   UNL A   1      38.651  29.765  29.047  1.00  0.00    -0.014 A 
BRANCH  42  43
ATOM     43  C   UNL A   1      39.924  29.067  29.198  1.00  0.00     0.031 A 
ATOM     44  C   UNL A   1      40.397  28.919  30.606  1.00  0.00     0.074 A 
ATOM     45  C   UNL A   1      40.641  28.565  28.175  1.00  0.00     0.049 A 
ATOM     46  N   UNL A   1      41.423  29.471  31.170  1.00  0.00    -0.248 NA
ATOM     47  C   UNL A   1      39.537  28.167  31.530  1.00  0.00     0.031 C 
ATOM     48  C   UNL A   1      40.248  28.384  26.777  1.00  0.00     0.029 A 
ATOM     49  N   UNL A   1      41.894  28.034  28.215  1.00  0.00    -0.354 N 
ATOM     50  C   UNL A   1      41.448  28.993  32.480  1.00  0.00     0.074 A 
ATOM     51  C   UNL A   1      40.198  28.306  32.681  1.00  0.00     0.031 C 
ATOM     52  C   UNL A   1      41.154  27.590  26.161  1.00  0.00     0.029 A 
ATOM     53  C   UNL A   1      42.256  27.334  27.073  1.00  0.00     0.049 A 
ATOM     54  H   UNL A   1      42.493  28.136  28.990  1.00  0.00     0.167 HD
ATOM     55  C   UNL A   1      42.568  29.049  33.255  1.00  0.00     0.037 A 
ATOM     56  C   UNL A   1      43.355  26.555  26.922  1.00  0.00     0.037 A 
ATOM     57  C   UNL A   1      43.520  30.001  32.747  1.00  0.00     0.049 A 
ATOM     58  C   UNL A   1      44.352  26.997  27.933  1.00  0.00     0.074 A 
ATOM     59  C   UNL A   1      43.519  31.368  32.553  1.00  0.00     0.029 A 
ATOM     60  N   UNL A   1      44.595  29.528  32.035  1.00  0.00    -0.354 N 
ATOM     61  N   UNL A   1      44.949  28.158  27.914  1.00  0.00    -0.248 NA
ATOM     62  C   UNL A   1      44.377  26.307  29.214  1.00  0.00     0.031 C 
ATOM     63  C   UNL A   1      44.274  31.574  31.361  1.00  0.00     0.029 A 
ATOM     64  C   UNL A   1      44.720  30.325  30.926  1.00  0.00     0.049 A 
ATOM     65  H   UNL A   1      45.165  28.763  32.276  1.00  0.00     0.167 HD
ATOM     66  C   UNL A   1      45.058  28.528  29.246  1.00  0.00     0.074 A 
ATOM     67  C   UNL A   1      44.773  27.310  30.001  1.00  0.00     0.031 C 
ATOM     68  C   UNL A   1      45.109  29.840  29.621  1.00  0.00     0.037 A 
BRANCH  55  69
ATOM     69  C   UNL A   1      42.934  28.019  34.297  1.00  0.00     0.058 A 
ATOM     70  C   UNL A   1      43.047  28.399  35.651  1.00  0.00     0.135 A 
ATOM     71  C   UNL A   1      43.453  26.744  33.978  1.00  0.00     0.135 A 
ATOM     72  F   UNL A   1      42.589  29.591  36.068  1.00  0.00    -0.206 F 
ATOM     73  C   UNL A   1      43.700  27.608  36.598  1.00  0.00     0.059 A 
ATOM     74  C   UNL A   1      44.059  25.917  34.918  1.00  0.00     0.059 A 
ATOM     75  F   UNL A   1      43.489  26.282  32.723  1.00  0.00    -0.206 F 
ATOM     76  C   UNL A   1      44.220  26.377  36.215  1.00  0.00     0.060 A 
BRANCH  76  77
ATOM     77  S   UNL A   1      45.182  25.414  37.396  1.00  0.00     0.124 S 
ATOM     78  O   UNL A   1      44.629  25.876  38.664  1.00  0.00    -0.237 OA
ATOM     79  O   UNL A   1      44.852  24.047  37.013  1.00  0.00    -0.237 OA
ATOM     80  O   UNL A   1      46.557  25.823  37.121  1.00  0.00    -0.744 OA
ENDBRANCH  76  77
ENDBRANCH  55  69
BRANCH  56  81
ATOM     81  C   UNL A   1      43.436  25.234  26.244  1.00  0.00     0.058 A 
ATOM     82  C   UNL A   1      44.391  24.990  25.242  1.00  0.00     0.135 A 
ATOM     83  C   UNL A   1      42.781  24.099  26.767  1.00  0.00     0.135 A 
ATOM     84  F   UNL A   1      45.078  26.009  24.702  1.00  0.00    -0.206 F 
ATOM     85  C   UNL A   1      44.720  23.697  24.823  1.00  0.00     0.059 A 
ATOM     86  C   UNL A   1      43.083  22.803  26.358  1.00  0.00     0.059 A 
ATOM     87  F   UNL A   1      41.893  24.209  27.766  1.00  0.00    -0.206 F 
ATOM     88  C   UNL A   1      44.076  22.606  25.406  1.00  0.00     0.060 A 
BRANCH  88  89
ATOM     89  S   UNL A   1      44.624  20.931  25.004  1.00  0.00     0.124 S 
ATOM     90  O   UNL A   1      43.606  20.115  25.655  1.00  0.00    -0.237 OA
ATOM     91  O   UNL A   1      44.596  20.941  23.545  1.00  0.00    -0.237 OA
ATOM     92  O   UNL A   1      45.957  20.857  25.598  1.00  0.00    -0.744 OA
ENDBRANCH  88  89
ENDBRANCH  56  81
BRANCH  68  93
ATOM     93  C   UNL A   1      45.335  30.880  28.553  1.00  0.00     0.058 A 
ATOM     94  C   UNL A   1      44.313  31.431  27.760  1.00  0.00     0.135 A 
ATOM     95  C   UNL A   1      46.609  31.459  28.449  1.00  0.00     0.135 A 
ATOM     96  F   UNL A   1      43.047  31.005  27.873  1.00  0.00    -0.206 F 
ATOM     97  C   UNL A   1      44.555  32.487  26.879  1.00  0.00     0.059 A 
ATOM     98  C   UNL A   1      46.867  32.534  27.601  1.00  0.00     0.059 A 
ATOM     99  F   UNL A   1      47.614  31.019  29.225  1.00  0.00    -0.206 F 
ATOM    100  C   UNL A   1      45.835  33.037  26.811  1.00  0.00     0.060 A 
BRANCH 100 101
ATOM    101  S   UNL A   1      46.125  34.467  25.746  1.00  0.00     0.124 S 
ATOM    102  O   UNL A   1      45.225  34.200  24.624  1.00  0.00    -0.237 OA
ATOM    103  O   UNL A   1      45.739  35.584  26.610  1.00  0.00    -0.237 OA
ATOM    104  O   UNL A   1      47.543  34.388  25.440  1.00  0.00    -0.744 OA
ENDBRANCH 100 101
ENDBRANCH  68  93
ENDBRANCH  42  43
ENDBRANCH  34  37
ENDBRANCH  32  33
ENDBRANCH  31  32
ENDBRANCH   1  31
TORSDOF 18
ENDMDL
