MODEL 1
REMARK VINA RESULT:     -11.9      0.000      0.000
REMARK SMILES COC(=O)c1ccc(Cl)c(-c2ccc(C(=O)NCCCCNC(=O)c3ccc(-c4c5nc(c(-c6c(F)cc(S(=O)(=O)[O-])cc6F)c6ccc([nH]6)c(-c6c(F)cc(S(=O)(=O)[O-])cc6F)c6nc(c(-c7c(F)cc(S(=O)(=O)[O-])cc7F)c7ccc4[nH]7)C=C6)C=C5)cc3)nc2)c1
REMARK SMILES IDX 19 1 18 2 17 3 15 4 16 5 14 7 11 8 12 9 92 10 13 11 91 12
REMARK SMILES IDX 10 13 5 14 6 15 93 16 7 17 8 18 9 19 3 20 4 21 2 22 1 23
REMARK SMILES IDX 20 24 21 25 22 26 23 27 24 29 25 30 26 31 90 32 27 33 89 34
REMARK SMILES IDX 28 35 29 36 30 37 83 38 31 39 88 40 82 41 84 42 32 43 87 44
REMARK SMILES IDX 81 45 80 46 33 48 67 49 46 50 66 51 47 52 50 53 65 54 85 55
REMARK SMILES IDX 48 56 49 57 64 59 86 60 51 61 34 62 35 63 44 64 36 65 37 66
REMARK SMILES IDX 43 67 45 68 38 69 39 70 40 71 41 72 42 73 68 74 69 75 78 76
REMARK SMILES IDX 70 77 71 78 77 79 79 80 72 81 73 82 74 83 75 84 76 85 52 86
REMARK SMILES IDX 53 87 62 88 54 89 55 90 61 91 63 92 56 93 57 94 58 95 59 96
REMARK SMILES IDX 60 97
REMARK H PARENT 17 6 22 28 84 47 50 58
REMARK Flexibility Score: inf
ROOT
ATOM      1  C   UNL A   1      31.665  28.852  25.532  1.00  0.00     0.023 C 
ENDROOT
BRANCH   1   2
ATOM      2  C   UNL A   1      31.324  28.033  24.285  1.00  0.00     0.116 C 
BRANCH   2   3
ATOM      3  N   UNL A   1      32.307  28.254  23.245  1.00  0.00    -0.351 N 
ATOM      4  C   UNL A   1      33.350  27.494  22.767  1.00  0.00     0.269 C 
ATOM      5  O   UNL A   1      33.997  27.984  21.838  1.00  0.00    -0.268 OA
ATOM      6  H   UNL A   1      32.209  29.121  22.790  1.00  0.00     0.163 HD
BRANCH   4   7
ATOM      7  C   UNL A   1      33.713  26.125  23.289  1.00  0.00     0.128 A 
ATOM      8  C   UNL A   1      34.348  23.517  24.017  1.00  0.00     0.002 A 
ATOM      9  C   UNL A   1      34.361  24.535  24.970  1.00  0.00     0.013 A 
ATOM     10  C   UNL A   1      34.029  23.889  22.717  1.00  0.00     0.120 A 
ATOM     11  C   UNL A   1      34.071  25.849  24.601  1.00  0.00     0.035 A 
ATOM     12  N   UNL A   1      33.705  25.148  22.341  1.00  0.00    -0.250 NA
BRANCH   8  13
ATOM     13  C   UNL A   1      34.718  22.146  24.374  1.00  0.00     0.003 A 
ATOM     14  C   UNL A   1      34.028  19.818  24.637  1.00  0.00     0.060 A 
ATOM     15  C   UNL A   1      35.338  19.450  24.951  1.00  0.00     0.017 A 
ATOM     16  C   UNL A   1      33.723  21.152  24.342  1.00  0.00     0.026 A 
ATOM     17  C   UNL A   1      36.338  20.424  24.986  1.00  0.00     0.022 A 
ATOM     18  C   UNL A   1      36.030  21.761  24.708  1.00  0.00     0.048 A 
ATOM     19  Cl  UNL A   1      37.322  22.909  24.798  1.00  0.00    -0.084 Cl
BRANCH  14  20
ATOM     20  C   UNL A   1      32.921  18.835  24.595  1.00  0.00     0.337 C 
ATOM     21  O   UNL A   1      32.173  18.621  25.527  1.00  0.00    -0.246 OA
BRANCH  20  22
ATOM     22  O   UNL A   1      32.961  18.167  23.415  1.00  0.00    -0.465 OA
ATOM     23  C   UNL A   1      33.334  16.796  23.553  1.00  0.00     0.282 C 
ENDBRANCH  20  22
ENDBRANCH  14  20
ENDBRANCH   8  13
ENDBRANCH   4   7
ENDBRANCH   2   3
ENDBRANCH   1   2
BRANCH   1  24
ATOM     24  C   UNL A   1      32.277  28.031  26.672  1.00  0.00     0.023 C 
BRANCH  24  25
ATOM     25  C   UNL A   1      33.590  28.575  27.222  1.00  0.00     0.116 C 
BRANCH  25  26
ATOM     26  N   UNL A   1      33.497  29.950  27.692  1.00  0.00    -0.352 N 
ATOM     27  C   UNL A   1      34.465  30.702  28.312  1.00  0.00     0.251 C 
ATOM     28  H   UNL A   1      32.631  30.397  27.547  1.00  0.00     0.163 HD
ATOM     29  O   UNL A   1      34.202  31.819  28.746  1.00  0.00    -0.269 OA
BRANCH  27  30
ATOM     30  C   UNL A   1      35.811  30.123  28.484  1.00  0.00     0.039 A 
ATOM     31  C   UNL A   1      36.696  30.137  27.405  1.00  0.00     0.014 A 
ATOM     32  C   UNL A   1      36.215  29.635  29.730  1.00  0.00     0.014 A 
ATOM     33  C   UNL A   1      38.015  29.724  27.595  1.00  0.00     0.010 A 
ATOM     34  C   UNL A   1      37.547  29.298  29.936  1.00  0.00     0.010 A 
ATOM     35  C   UNL A   1      38.461  29.340  28.871  1.00  0.00    -0.014 A 
BRANCH  35  36
ATOM     36  C   UNL A   1      39.884  28.994  29.116  1.00  0.00     0.031 A 
ATOM     37  C   UNL A   1      40.830  30.029  29.658  1.00  0.00     0.074 A 
ATOM     38  C   UNL A   1      40.337  27.773  28.775  1.00  0.00     0.049 A 
ATOM     39  N   UNL A   1      42.114  29.934  29.888  1.00  0.00    -0.248 NA
ATOM     40  C   UNL A   1      40.264  31.356  29.950  1.00  0.00     0.031 C 
ATOM     41  C   UNL A   1      39.531  26.708  28.174  1.00  0.00     0.029 A 
ATOM     42  N   UNL A   1      41.592  27.224  28.870  1.00  0.00    -0.354 N 
ATOM     43  C   UNL A   1      42.513  31.189  30.330  1.00  0.00     0.074 A 
ATOM     44  C   UNL A   1      41.346  32.044  30.284  1.00  0.00     0.031 C 
ATOM     45  C   UNL A   1      40.304  25.629  27.972  1.00  0.00     0.029 A 
ATOM     46  C   UNL A   1      41.667  25.935  28.394  1.00  0.00     0.049 A 
ATOM     47  H   UNL A   1      42.365  27.706  29.242  1.00  0.00     0.167 HD
ATOM     48  C   UNL A   1      43.735  31.586  30.757  1.00  0.00     0.037 A 
ATOM     49  C   UNL A   1      42.717  25.097  28.302  1.00  0.00     0.037 A 
ATOM     50  C   UNL A   1      44.883  30.722  30.820  1.00  0.00     0.049 A 
ATOM     51  C   UNL A   1      44.061  25.548  28.805  1.00  0.00     0.074 A 
ATOM     52  C   UNL A   1      46.145  31.001  31.314  1.00  0.00     0.029 A 
ATOM     53  N   UNL A   1      44.914  29.411  30.364  1.00  0.00    -0.354 N 
ATOM     54  N   UNL A   1      44.402  26.711  29.309  1.00  0.00    -0.248 NA
ATOM     55  C   UNL A   1      45.158  24.575  28.738  1.00  0.00     0.031 C 
ATOM     56  C   UNL A   1      46.954  29.877  31.109  1.00  0.00     0.029 A 
ATOM     57  C   UNL A   1      46.180  28.876  30.539  1.00  0.00     0.049 A 
ATOM     58  H   UNL A   1      44.148  28.931  29.974  1.00  0.00     0.167 HD
ATOM     59  C   UNL A   1      45.749  26.604  29.636  1.00  0.00     0.074 A 
ATOM     60  C   UNL A   1      46.155  25.257  29.287  1.00  0.00     0.031 C 
ATOM     61  C   UNL A   1      46.572  27.534  30.180  1.00  0.00     0.037 A 
BRANCH  48  62
ATOM     62  C   UNL A   1      43.887  33.024  31.180  1.00  0.00     0.058 A 
ATOM     63  C   UNL A   1      44.260  34.029  30.272  1.00  0.00     0.135 A 
ATOM     64  C   UNL A   1      43.655  33.402  32.512  1.00  0.00     0.135 A 
ATOM     65  F   UNL A   1      44.508  33.723  28.988  1.00  0.00    -0.206 F 
ATOM     66  C   UNL A   1      44.445  35.346  30.679  1.00  0.00     0.059 A 
ATOM     67  C   UNL A   1      43.802  34.721  32.934  1.00  0.00     0.059 A 
ATOM     68  F   UNL A   1      43.293  32.486  33.423  1.00  0.00    -0.206 F 
ATOM     69  C   UNL A   1      44.219  35.681  32.014  1.00  0.00     0.060 A 
BRANCH  69  70
ATOM     70  S   UNL A   1      44.486  37.390  32.531  1.00  0.00     0.124 S 
ATOM     71  O   UNL A   1      43.934  38.126  31.398  1.00  0.00    -0.237 OA
ATOM     72  O   UNL A   1      43.718  37.465  33.770  1.00  0.00    -0.237 OA
ATOM     73  O   UNL A   1      45.934  37.475  32.688  1.00  0.00    -0.744 OA
ENDBRANCH  69  70
ENDBRANCH  48  62
BRANCH  49  74
ATOM     74  C   UNL A   1      42.520  23.736  27.737  1.00  0.00     0.058 A 
ATOM     75  C   UNL A   1      42.539  23.518  26.352  1.00  0.00     0.135 A 
ATOM     76  C   UNL A   1      42.369  22.617  28.572  1.00  0.00     0.135 A 
ATOM     77  F   UNL A   1      42.675  24.556  25.511  1.00  0.00    -0.206 F 
ATOM     78  C   UNL A   1      42.417  22.242  25.812  1.00  0.00     0.059 A 
ATOM     79  C   UNL A   1      42.268  21.329  28.058  1.00  0.00     0.059 A 
ATOM     80  F   UNL A   1      42.363  22.770  29.905  1.00  0.00    -0.206 F 
ATOM     81  C   UNL A   1      42.291  21.151  26.675  1.00  0.00     0.060 A 
BRANCH  81  82
ATOM     82  S   UNL A   1      42.222  19.491  25.966  1.00  0.00     0.124 S 
ATOM     83  O   UNL A   1      43.106  19.625  24.814  1.00  0.00    -0.237 OA
ATOM     84  O   UNL A   1      42.724  18.670  27.063  1.00  0.00    -0.237 OA
ATOM     85  O   UNL A   1      40.806  19.316  25.660  1.00  0.00    -0.744 OA
ENDBRANCH  81  82
ENDBRANCH  49  74
BRANCH  61  86
ATOM     86  C   UNL A   1      47.994  27.127  30.455  1.00  0.00     0.058 A 
ATOM     87  C   UNL A   1      49.039  27.457  29.578  1.00  0.00     0.135 A 
ATOM     88  C   UNL A   1      48.322  26.446  31.639  1.00  0.00     0.135 A 
ATOM     89  F   UNL A   1      48.780  28.101  28.429  1.00  0.00    -0.206 F 
ATOM     90  C   UNL A   1      50.357  27.109  29.855  1.00  0.00     0.059 A 
ATOM     91  C   UNL A   1      49.636  26.114  31.950  1.00  0.00     0.059 A 
ATOM     92  F   UNL A   1      47.362  26.116  32.517  1.00  0.00    -0.206 F 
ATOM     93  C   UNL A   1      50.646  26.439  31.046  1.00  0.00     0.060 A 
BRANCH  93  94
ATOM     94  S   UNL A   1      52.365  26.024  31.411  1.00  0.00     0.124 S 
ATOM     95  O   UNL A   1      52.753  27.124  32.286  1.00  0.00    -0.237 OA
ATOM     96  O   UNL A   1      52.242  24.718  32.052  1.00  0.00    -0.237 OA
ATOM     97  O   UNL A   1      52.998  26.013  30.096  1.00  0.00    -0.744 OA
ENDBRANCH  93  94
ENDBRANCH  61  86
ENDBRANCH  35  36
ENDBRANCH  27  30
ENDBRANCH  25  26
ENDBRANCH  24  25
ENDBRANCH   1  24
TORSDOF 17
ENDMDL
MODEL 2
REMARK VINA RESULT:     -11.6      2.918      3.829
REMARK SMILES COC(=O)c1ccc(Cl)c(-c2ccc(C(=O)NCCCCNC(=O)c3ccc(-c4c5nc(c(-c6c(F)cc(S(=O)(=O)[O-])cc6F)c6ccc([nH]6)c(-c6c(F)cc(S(=O)(=O)[O-])cc6F)c6nc(c(-c7c(F)cc(S(=O)(=O)[O-])cc7F)c7ccc4[nH]7)C=C6)C=C5)cc3)nc2)c1
REMARK SMILES IDX 19 1 18 2 17 3 15 4 16 5 14 7 11 8 12 9 92 10 13 11 91 12
REMARK SMILES IDX 10 13 5 14 6 15 93 16 7 17 8 18 9 19 3 20 4 21 2 22 1 23
REMARK SMILES IDX 20 24 21 25 22 26 23 27 24 29 25 30 26 31 90 32 27 33 89 34
REMARK SMILES IDX 28 35 29 36 30 37 83 38 31 39 88 40 82 41 84 42 32 43 87 44
REMARK SMILES IDX 81 45 80 46 33 48 67 49 46 50 66 51 47 52 50 53 65 54 85 55
REMARK SMILES IDX 48 56 49 57 64 59 86 60 51 61 34 62 35 63 44 64 36 65 37 66
REMARK SMILES IDX 43 67 45 68 38 69 39 70 40 71 41 72 42 73 68 74 69 75 78 76
REMARK SMILES IDX 70 77 71 78 77 79 79 80 72 81 73 82 74 83 75 84 76 85 52 86
REMARK SMILES IDX 53 87 62 88 54 89 55 90 61 91 63 92 56 93 57 94 58 95 59 96
REMARK SMILES IDX 60 97
REMARK H PARENT 17 6 22 28 84 47 50 58
REMARK Flexibility Score: inf
ROOT
ATOM      1  C   UNL A   1      33.602  30.428  26.635  1.00  0.00     0.023 C 
ENDROOT
BRANCH   1   2
ATOM      2  C   UNL A   1      32.086  30.391  26.837  1.00  0.00     0.116 C 
BRANCH   2   3
ATOM      3  N   UNL A   1      31.403  30.320  25.562  1.00  0.00    -0.351 N 
ATOM      4  C   UNL A   1      31.312  29.338  24.602  1.00  0.00     0.269 C 
ATOM      5  O   UNL A   1      30.617  29.603  23.618  1.00  0.00    -0.268 OA
ATOM      6  H   UNL A   1      30.904  31.138  25.338  1.00  0.00     0.163 HD
BRANCH   4   7
ATOM      7  C   UNL A   1      31.979  27.988  24.703  1.00  0.00     0.128 A 
ATOM      8  C   UNL A   1      33.359  25.573  24.700  1.00  0.00     0.002 A 
ATOM      9  C   UNL A   1      32.321  25.788  25.606  1.00  0.00     0.013 A 
ATOM     10  C   UNL A   1      33.660  26.625  23.842  1.00  0.00     0.120 A 
ATOM     11  C   UNL A   1      31.647  27.009  25.630  1.00  0.00     0.035 A 
ATOM     12  N   UNL A   1      32.996  27.803  23.817  1.00  0.00    -0.250 NA
BRANCH   8  13
ATOM     13  C   UNL A   1      34.123  24.324  24.710  1.00  0.00     0.003 A 
ATOM     14  C   UNL A   1      36.182  23.162  25.323  1.00  0.00     0.060 A 
ATOM     15  C   UNL A   1      35.652  21.953  24.867  1.00  0.00     0.017 A 
ATOM     16  C   UNL A   1      35.420  24.334  25.254  1.00  0.00     0.026 A 
ATOM     17  C   UNL A   1      34.366  21.924  24.325  1.00  0.00     0.022 A 
ATOM     18  C   UNL A   1      33.610  23.100  24.239  1.00  0.00     0.048 A 
ATOM     19  Cl  UNL A   1      32.035  22.983  23.531  1.00  0.00    -0.084 Cl
BRANCH  14  20
ATOM     20  C   UNL A   1      37.543  23.260  25.897  1.00  0.00     0.337 C 
ATOM     21  O   UNL A   1      38.060  24.305  26.234  1.00  0.00    -0.246 OA
BRANCH  20  22
ATOM     22  O   UNL A   1      38.125  22.034  25.880  1.00  0.00    -0.465 OA
ATOM     23  C   UNL A   1      39.443  22.027  26.428  1.00  0.00     0.282 C 
ENDBRANCH  20  22
ENDBRANCH  14  20
ENDBRANCH   8  13
ENDBRANCH   4   7
ENDBRANCH   2   3
ENDBRANCH   1   2
BRANCH   1  24
ATOM     24  C   UNL A   1      34.331  29.177  27.137  1.00  0.00     0.023 C 
BRANCH  24  25
ATOM     25  C   UNL A   1      35.619  29.449  27.906  1.00  0.00     0.116 C 
BRANCH  25  26
ATOM     26  N   UNL A   1      35.398  29.799  29.302  1.00  0.00    -0.352 N 
ATOM     27  C   UNL A   1      36.330  29.924  30.303  1.00  0.00     0.251 C 
ATOM     28  H   UNL A   1      34.462  29.967  29.561  1.00  0.00     0.163 HD
ATOM     29  O   UNL A   1      35.977  30.124  31.460  1.00  0.00    -0.269 OA
BRANCH  27  30
ATOM     30  C   UNL A   1      37.758  29.770  29.966  1.00  0.00     0.039 A 
ATOM     31  C   UNL A   1      38.633  29.275  30.936  1.00  0.00     0.014 A 
ATOM     32  C   UNL A   1      38.211  30.045  28.673  1.00  0.00     0.014 A 
ATOM     33  C   UNL A   1      39.952  28.990  30.586  1.00  0.00     0.010 A 
ATOM     34  C   UNL A   1      39.504  29.688  28.308  1.00  0.00     0.010 A 
ATOM     35  C   UNL A   1      40.387  29.156  29.260  1.00  0.00    -0.014 A 
BRANCH  35  36
ATOM     36  C   UNL A   1      41.757  28.763  28.845  1.00  0.00     0.031 A 
ATOM     37  C   UNL A   1      42.850  29.792  28.776  1.00  0.00     0.074 A 
ATOM     38  C   UNL A   1      41.994  27.495  28.456  1.00  0.00     0.049 A 
ATOM     39  N   UNL A   1      44.091  29.654  28.388  1.00  0.00    -0.248 NA
ATOM     40  C   UNL A   1      42.491  31.166  29.164  1.00  0.00     0.031 C 
ATOM     41  C   UNL A   1      40.996  26.424  28.412  1.00  0.00     0.029 A 
ATOM     42  N   UNL A   1      43.144  26.895  28.009  1.00  0.00    -0.354 N 
ATOM     43  C   UNL A   1      44.655  30.922  28.465  1.00  0.00     0.074 A 
ATOM     44  C   UNL A   1      43.606  31.826  28.883  1.00  0.00     0.031 C 
ATOM     45  C   UNL A   1      41.581  25.294  27.981  1.00  0.00     0.029 A 
ATOM     46  C   UNL A   1      42.984  25.567  27.685  1.00  0.00     0.049 A 
ATOM     47  H   UNL A   1      44.003  27.369  27.927  1.00  0.00     0.167 HD
ATOM     48  C   UNL A   1      45.936  31.293  28.230  1.00  0.00     0.037 A 
ATOM     49  C   UNL A   1      43.865  24.673  27.199  1.00  0.00     0.037 A 
ATOM     50  C   UNL A   1      46.977  30.381  27.836  1.00  0.00     0.049 A 
ATOM     51  C   UNL A   1      45.288  25.099  26.968  1.00  0.00     0.074 A 
ATOM     52  C   UNL A   1      48.324  30.639  27.652  1.00  0.00     0.029 A 
ATOM     53  N   UNL A   1      46.786  29.036  27.552  1.00  0.00    -0.354 N 
ATOM     54  N   UNL A   1      45.830  26.283  27.134  1.00  0.00    -0.248 NA
ATOM     55  C   UNL A   1      46.223  24.070  26.494  1.00  0.00     0.031 C 
ATOM     56  C   UNL A   1      48.938  29.463  27.208  1.00  0.00     0.029 A 
ATOM     57  C   UNL A   1      47.984  28.456  27.168  1.00  0.00     0.049 A 
ATOM     58  H   UNL A   1      45.925  28.562  27.615  1.00  0.00     0.167 HD
ATOM     59  C   UNL A   1      47.173  26.138  26.804  1.00  0.00     0.074 A 
ATOM     60  C   UNL A   1      47.363  24.747  26.443  1.00  0.00     0.031 C 
ATOM     61  C   UNL A   1      48.158  27.070  26.805  1.00  0.00     0.037 A 
BRANCH  48  62
ATOM     62  C   UNL A   1      46.273  32.753  28.386  1.00  0.00     0.058 A 
ATOM     63  C   UNL A   1      46.177  33.655  27.314  1.00  0.00     0.135 A 
ATOM     64  C   UNL A   1      46.698  33.256  29.626  1.00  0.00     0.135 A 
ATOM     65  F   UNL A   1      45.789  33.227  26.102  1.00  0.00    -0.206 F 
ATOM     66  C   UNL A   1      46.535  34.992  27.454  1.00  0.00     0.059 A 
ATOM     67  C   UNL A   1      47.029  34.598  29.797  1.00  0.00     0.059 A 
ATOM     68  F   UNL A   1      46.806  32.441  30.687  1.00  0.00    -0.206 F 
ATOM     69  C   UNL A   1      46.966  35.453  28.697  1.00  0.00     0.060 A 
BRANCH  69  70
ATOM     70  S   UNL A   1      47.450  37.184  28.856  1.00  0.00     0.124 S 
ATOM     71  O   UNL A   1      46.944  37.742  27.605  1.00  0.00    -0.237 OA
ATOM     72  O   UNL A   1      46.743  37.597  30.065  1.00  0.00    -0.237 OA
ATOM     73  O   UNL A   1      48.903  37.122  28.973  1.00  0.00    -0.744 OA
ENDBRANCH  69  70
ENDBRANCH  48  62
BRANCH  49  74
ATOM     74  C   UNL A   1      43.422  23.280  26.930  1.00  0.00     0.058 A 
ATOM     75  C   UNL A   1      43.271  22.808  25.618  1.00  0.00     0.135 A 
ATOM     76  C   UNL A   1      43.197  22.374  27.979  1.00  0.00     0.135 A 
ATOM     77  F   UNL A   1      43.468  23.637  24.581  1.00  0.00    -0.206 F 
ATOM     78  C   UNL A   1      42.915  21.490  25.353  1.00  0.00     0.059 A 
ATOM     79  C   UNL A   1      42.864  21.045  27.739  1.00  0.00     0.059 A 
ATOM     80  F   UNL A   1      43.346  22.771  29.252  1.00  0.00    -0.206 F 
ATOM     81  C   UNL A   1      42.723  20.612  26.421  1.00  0.00     0.060 A 
BRANCH  81  82
ATOM     82  S   UNL A   1      42.348  18.882  26.063  1.00  0.00     0.124 S 
ATOM     83  O   UNL A   1      43.266  18.603  24.965  1.00  0.00    -0.237 OA
ATOM     84  O   UNL A   1      42.658  18.234  27.334  1.00  0.00    -0.237 OA
ATOM     85  O   UNL A   1      40.932  18.911  25.713  1.00  0.00    -0.744 OA
ENDBRANCH  81  82
ENDBRANCH  49  74
BRANCH  61  86
ATOM     86  C   UNL A   1      49.541  26.618  26.423  1.00  0.00     0.058 A 
ATOM     87  C   UNL A   1      50.392  25.986  27.344  1.00  0.00     0.135 A 
ATOM     88  C   UNL A   1      49.999  26.768  25.104  1.00  0.00     0.135 A 
ATOM     89  F   UNL A   1      50.006  25.823  28.620  1.00  0.00    -0.206 F 
ATOM     90  C   UNL A   1      51.656  25.538  26.975  1.00  0.00     0.059 A 
ATOM     91  C   UNL A   1      51.247  26.302  24.707  1.00  0.00     0.059 A 
ATOM     92  F   UNL A   1      49.221  27.355  24.181  1.00  0.00    -0.206 F 
ATOM     93  C   UNL A   1      52.074  25.698  25.653  1.00  0.00     0.060 A 
BRANCH  93  94
ATOM     94  S   UNL A   1      53.703  25.081  25.179  1.00  0.00     0.124 S 
ATOM     95  O   UNL A   1      54.566  25.768  26.132  1.00  0.00    -0.237 OA
ATOM     96  O   UNL A   1      53.561  23.641  25.375  1.00  0.00    -0.237 OA
ATOM     97  O   UNL A   1      53.837  25.507  23.789  1.00  0.00    -0.744 OA
ENDBRANCH  93  94
ENDBRANCH  61  86
ENDBRANCH  35  36
ENDBRANCH  27  30
ENDBRANCH  25  26
ENDBRANCH  24  25
ENDBRANCH   1  24
TORSDOF 17
ENDMDL
MODEL 3
REMARK VINA RESULT:     -11.4      4.597      7.971
REMARK SMILES COC(=O)c1ccc(Cl)c(-c2ccc(C(=O)NCCCCNC(=O)c3ccc(-c4c5nc(c(-c6c(F)cc(S(=O)(=O)[O-])cc6F)c6ccc([nH]6)c(-c6c(F)cc(S(=O)(=O)[O-])cc6F)c6nc(c(-c7c(F)cc(S(=O)(=O)[O-])cc7F)c7ccc4[nH]7)C=C6)C=C5)cc3)nc2)c1
REMARK SMILES IDX 19 1 18 2 17 3 15 4 16 5 14 7 11 8 12 9 92 10 13 11 91 12
REMARK SMILES IDX 10 13 5 14 6 15 93 16 7 17 8 18 9 19 3 20 4 21 2 22 1 23
REMARK SMILES IDX 20 24 21 25 22 26 23 27 24 29 25 30 26 31 90 32 27 33 89 34
REMARK SMILES IDX 28 35 29 36 30 37 83 38 31 39 88 40 82 41 84 42 32 43 87 44
REMARK SMILES IDX 81 45 80 46 33 48 67 49 46 50 66 51 47 52 50 53 65 54 85 55
REMARK SMILES IDX 48 56 49 57 64 59 86 60 51 61 34 62 35 63 44 64 36 65 37 66
REMARK SMILES IDX 43 67 45 68 38 69 39 70 40 71 41 72 42 73 68 74 69 75 78 76
REMARK SMILES IDX 70 77 71 78 77 79 79 80 72 81 73 82 74 83 75 84 76 85 52 86
REMARK SMILES IDX 53 87 62 88 54 89 55 90 61 91 63 92 56 93 57 94 58 95 59 96
REMARK SMILES IDX 60 97
REMARK H PARENT 17 6 22 28 84 47 50 58
REMARK Flexibility Score: inf
ROOT
ATOM      1  C   UNL A   1      33.070  34.488  28.529  1.00  0.00     0.023 C 
ENDROOT
BRANCH   1   2
ATOM      2  C   UNL A   1      33.497  35.806  29.180  1.00  0.00     0.116 C 
BRANCH   2   3
ATOM      3  N   UNL A   1      32.566  36.185  30.223  1.00  0.00    -0.351 N 
ATOM      4  C   UNL A   1      32.573  36.016  31.589  1.00  0.00     0.269 C 
ATOM      5  O   UNL A   1      31.609  36.486  32.199  1.00  0.00    -0.268 OA
ATOM      6  H   UNL A   1      31.771  36.657  29.888  1.00  0.00     0.163 HD
BRANCH   4   7
ATOM      7  C   UNL A   1      33.677  35.329  32.354  1.00  0.00     0.128 A 
ATOM      8  C   UNL A   1      35.551  33.872  33.803  1.00  0.00     0.002 A 
ATOM      9  C   UNL A   1      35.885  35.120  33.280  1.00  0.00     0.013 A 
ATOM     10  C   UNL A   1      34.267  33.412  33.539  1.00  0.00     0.120 A 
ATOM     11  C   UNL A   1      34.956  35.840  32.527  1.00  0.00     0.035 A 
ATOM     12  N   UNL A   1      33.335  34.107  32.848  1.00  0.00    -0.250 NA
BRANCH   8  13
ATOM     13  C   UNL A   1      36.537  33.072  34.534  1.00  0.00     0.003 A 
ATOM     14  C   UNL A   1      37.894  32.795  36.546  1.00  0.00     0.060 A 
ATOM     15  C   UNL A   1      38.365  31.567  36.075  1.00  0.00     0.017 A 
ATOM     16  C   UNL A   1      36.982  33.535  35.786  1.00  0.00     0.026 A 
ATOM     17  C   UNL A   1      37.935  31.092  34.836  1.00  0.00     0.022 A 
ATOM     18  C   UNL A   1      37.035  31.841  34.067  1.00  0.00     0.048 A 
ATOM     19  Cl  UNL A   1      36.570  31.194  32.531  1.00  0.00    -0.084 Cl
BRANCH  14  20
ATOM     20  C   UNL A   1      38.323  33.358  37.847  1.00  0.00     0.337 C 
ATOM     21  O   UNL A   1      38.715  34.497  37.992  1.00  0.00    -0.246 OA
BRANCH  20  22
ATOM     22  O   UNL A   1      38.301  32.379  38.787  1.00  0.00    -0.465 OA
ATOM     23  C   UNL A   1      36.998  32.131  39.314  1.00  0.00     0.282 C 
ENDBRANCH  20  22
ENDBRANCH  14  20
ENDBRANCH   8  13
ENDBRANCH   4   7
ENDBRANCH   2   3
ENDBRANCH   1   2
BRANCH   1  24
ATOM     24  C   UNL A   1      34.239  33.608  28.075  1.00  0.00     0.023 C 
BRANCH  24  25
ATOM     25  C   UNL A   1      34.355  32.271  28.798  1.00  0.00     0.116 C 
BRANCH  25  26
ATOM     26  N   UNL A   1      34.060  31.125  27.949  1.00  0.00    -0.352 N 
ATOM     27  C   UNL A   1      34.866  30.047  27.669  1.00  0.00     0.251 C 
ATOM     28  H   UNL A   1      33.172  31.122  27.522  1.00  0.00     0.163 HD
ATOM     29  O   UNL A   1      34.516  29.207  26.847  1.00  0.00    -0.269 OA
BRANCH  27  30
ATOM     30  C   UNL A   1      36.175  29.947  28.342  1.00  0.00     0.039 A 
ATOM     31  C   UNL A   1      36.251  29.304  29.579  1.00  0.00     0.014 A 
ATOM     32  C   UNL A   1      37.328  30.423  27.714  1.00  0.00     0.014 A 
ATOM     33  C   UNL A   1      37.501  29.077  30.156  1.00  0.00     0.010 A 
ATOM     34  C   UNL A   1      38.575  30.128  28.254  1.00  0.00     0.010 A 
ATOM     35  C   UNL A   1      38.674  29.451  29.479  1.00  0.00    -0.014 A 
BRANCH  35  36
ATOM     36  C   UNL A   1      40.015  29.127  30.028  1.00  0.00     0.031 A 
ATOM     37  C   UNL A   1      40.603  29.966  31.127  1.00  0.00     0.074 A 
ATOM     38  C   UNL A   1      40.732  28.127  29.481  1.00  0.00     0.049 A 
ATOM     39  N   UNL A   1      41.776  29.875  31.699  1.00  0.00    -0.248 NA
ATOM     40  C   UNL A   1      39.776  31.076  31.629  1.00  0.00     0.031 C 
ATOM     41  C   UNL A   1      40.296  27.289  28.362  1.00  0.00     0.029 A 
ATOM     42  N   UNL A   1      41.985  27.654  29.780  1.00  0.00    -0.354 N 
ATOM     43  C   UNL A   1      41.836  30.923  32.609  1.00  0.00     0.074 A 
ATOM     44  C   UNL A   1      40.605  31.670  32.475  1.00  0.00     0.031 C 
ATOM     45  C   UNL A   1      41.257  26.393  28.082  1.00  0.00     0.029 A 
ATOM     46  C   UNL A   1      42.389  26.615  28.975  1.00  0.00     0.049 A 
ATOM     47  H   UNL A   1      42.542  28.025  30.502  1.00  0.00     0.167 HD
ATOM     48  C   UNL A   1      42.819  31.220  33.492  1.00  0.00     0.037 A 
ATOM     49  C   UNL A   1      43.545  25.923  28.954  1.00  0.00     0.037 A 
ATOM     50  C   UNL A   1      44.031  30.456  33.632  1.00  0.00     0.049 A 
ATOM     51  C   UNL A   1      44.614  26.253  29.958  1.00  0.00     0.074 A 
ATOM     52  C   UNL A   1      45.052  30.623  34.550  1.00  0.00     0.029 A 
ATOM     53  N   UNL A   1      44.391  29.387  32.824  1.00  0.00    -0.354 N 
ATOM     54  N   UNL A   1      44.618  27.190  30.878  1.00  0.00    -0.248 NA
ATOM     55  C   UNL A   1      45.829  25.429  29.932  1.00  0.00     0.031 C 
ATOM     56  C   UNL A   1      46.054  29.688  34.264  1.00  0.00     0.029 A 
ATOM     57  C   UNL A   1      45.632  28.901  33.203  1.00  0.00     0.049 A 
ATOM     58  H   UNL A   1      43.845  29.026  32.089  1.00  0.00     0.167 HD
ATOM     59  C   UNL A   1      45.826  27.057  31.553  1.00  0.00     0.074 A 
ATOM     60  C   UNL A   1      46.520  25.939  30.944  1.00  0.00     0.031 C 
ATOM     61  C   UNL A   1      46.314  27.790  32.584  1.00  0.00     0.037 A 
BRANCH  48  62
ATOM     62  C   UNL A   1      42.622  32.431  34.366  1.00  0.00     0.058 A 
ATOM     63  C   UNL A   1      42.021  32.341  35.632  1.00  0.00     0.135 A 
ATOM     64  C   UNL A   1      43.042  33.698  33.933  1.00  0.00     0.135 A 
ATOM     65  F   UNL A   1      41.587  31.156  36.093  1.00  0.00    -0.206 F 
ATOM     66  C   UNL A   1      41.799  33.469  36.415  1.00  0.00     0.059 A 
ATOM     67  C   UNL A   1      42.860  34.836  34.714  1.00  0.00     0.059 A 
ATOM     68  F   UNL A   1      43.625  33.845  32.733  1.00  0.00    -0.206 F 
ATOM     69  C   UNL A   1      42.217  34.713  35.945  1.00  0.00     0.060 A 
BRANCH  69  70
ATOM     70  S   UNL A   1      41.901  36.171  36.961  1.00  0.00     0.124 S 
ATOM     71  O   UNL A   1      43.069  36.994  36.660  1.00  0.00    -0.237 OA
ATOM     72  O   UNL A   1      40.631  36.654  36.427  1.00  0.00    -0.237 OA
ATOM     73  O   UNL A   1      41.844  35.635  38.317  1.00  0.00    -0.744 OA
ENDBRANCH  69  70
ENDBRANCH  48  62
BRANCH  49  74
ATOM     74  C   UNL A   1      43.726  24.831  27.961  1.00  0.00     0.058 A 
ATOM     75  C   UNL A   1      44.443  25.043  26.775  1.00  0.00     0.135 A 
ATOM     76  C   UNL A   1      43.237  23.538  28.207  1.00  0.00     0.135 A 
ATOM     77  F   UNL A   1      44.926  26.262  26.492  1.00  0.00    -0.206 F 
ATOM     78  C   UNL A   1      44.672  24.014  25.868  1.00  0.00     0.059 A 
ATOM     79  C   UNL A   1      43.472  22.487  27.326  1.00  0.00     0.059 A 
ATOM     80  F   UNL A   1      42.560  23.279  29.337  1.00  0.00    -0.206 F 
ATOM     81  C   UNL A   1      44.190  22.736  26.157  1.00  0.00     0.060 A 
BRANCH  81  82
ATOM     82  S   UNL A   1      44.569  21.389  25.014  1.00  0.00     0.124 S 
ATOM     83  O   UNL A   1      44.434  22.052  23.723  1.00  0.00    -0.237 OA
ATOM     84  O   UNL A   1      45.927  21.028  25.408  1.00  0.00    -0.237 OA
ATOM     85  O   UNL A   1      43.550  20.391  25.324  1.00  0.00    -0.744 OA
ENDBRANCH  81  82
ENDBRANCH  49  74
BRANCH  61  86
ATOM     86  C   UNL A   1      47.655  27.398  33.140  1.00  0.00     0.058 A 
ATOM     87  C   UNL A   1      48.849  27.947  32.646  1.00  0.00     0.135 A 
ATOM     88  C   UNL A   1      47.743  26.505  34.220  1.00  0.00     0.135 A 
ATOM     89  F   UNL A   1      48.822  28.801  31.610  1.00  0.00    -0.206 F 
ATOM     90  C   UNL A   1      50.084  27.608  33.189  1.00  0.00     0.059 A 
ATOM     91  C   UNL A   1      48.964  26.174  34.797  1.00  0.00     0.059 A 
ATOM     92  F   UNL A   1      46.632  25.959  34.739  1.00  0.00    -0.206 F 
ATOM     93  C   UNL A   1      50.131  26.721  34.267  1.00  0.00     0.060 A 
BRANCH  93  94
ATOM     94  S   UNL A   1      51.737  26.317  34.985  1.00  0.00     0.124 S 
ATOM     95  O   UNL A   1      51.393  26.138  36.391  1.00  0.00    -0.237 OA
ATOM     96  O   UNL A   1      52.106  25.102  34.264  1.00  0.00    -0.237 OA
ATOM     97  O   UNL A   1      52.551  27.490  34.681  1.00  0.00    -0.744 OA
ENDBRANCH  93  94
ENDBRANCH  61  86
ENDBRANCH  35  36
ENDBRANCH  27  30
ENDBRANCH  25  26
ENDBRANCH  24  25
ENDBRANCH   1  24
TORSDOF 17
ENDMDL
