MODEL 1
REMARK VINA RESULT:     -12.9      0.000      0.000
REMARK SMILES CCc1ncc(C[N@H+]2CCC[C@@H](c3cccc(C(=O)NCCCCNC(=O)c4ccc(-c5c6nc(c(-c7c(F)cc(S(=O)(=O)[O-])cc7F)c7ccc([nH]7)c(-c7c(F)cc(S(=O)(=O)[O-])cc7F)c7nc(c(-c8c(F)cc(S(=O)(=O)[O-])cc8F)c8ccc5[nH]8)C=C7)C=C6)cc4)c3)C2)cn1
REMARK SMILES IDX 22 1 21 2 20 3 18 4 19 5 17 7 13 8 14 9 94 10 15 11 16 12
REMARK SMILES IDX 12 13 8 14 9 15 95 16 10 18 11 19 7 20 6 21 3 22 4 23 97 24
REMARK SMILES IDX 5 25 96 26 2 27 1 28 23 29 24 30 25 31 26 32 27 34 28 35
REMARK SMILES IDX 29 36 93 37 30 38 92 39 31 40 32 41 33 42 86 43 34 44 91 45
REMARK SMILES IDX 85 46 87 47 35 48 90 49 84 50 83 51 36 53 70 54 49 55 69 56
REMARK SMILES IDX 50 57 53 58 68 59 88 60 51 61 52 62 67 64 89 65 54 66 37 67
REMARK SMILES IDX 38 68 47 69 39 70 40 71 46 72 48 73 41 74 42 75 43 76 44 77
REMARK SMILES IDX 45 78 71 79 72 80 81 81 73 82 74 83 80 84 82 85 75 86 76 87
REMARK SMILES IDX 77 88 78 89 79 90 55 91 56 92 65 93 57 94 58 95 64 96 66 97
REMARK SMILES IDX 59 98 60 99 61 100 62 101 63 102
REMARK H PARENT 20 6 8 17 25 33 87 52 53 63
REMARK Flexibility Score: inf
ROOT
ATOM      1  C   UNL A   1      32.615  30.182  27.257  1.00  0.00     0.023 C 
ENDROOT
BRANCH   1   2
ATOM      2  C   UNL A   1      31.768  30.395  26.013  1.00  0.00     0.116 C 
BRANCH   2   3
ATOM      3  N   UNL A   1      32.404  30.050  24.750  1.00  0.00    -0.352 N 
ATOM      4  C   UNL A   1      32.103  29.067  23.826  1.00  0.00     0.251 C 
ATOM      5  O   UNL A   1      32.778  28.973  22.804  1.00  0.00    -0.269 OA
ATOM      6  H   UNL A   1      33.179  30.610  24.513  1.00  0.00     0.163 HD
BRANCH   4   7
ATOM      7  C   UNL A   1      31.030  28.069  24.078  1.00  0.00     0.040 A 
ATOM      8  C   UNL A   1      30.396  25.846  24.806  1.00  0.00    -0.039 A 
ATOM      9  C   UNL A   1      29.172  25.985  24.142  1.00  0.00     0.004 A 
ATOM     10  C   UNL A   1      31.241  26.956  24.889  1.00  0.00     0.018 A 
ATOM     11  C   UNL A   1      28.862  27.178  23.484  1.00  0.00     0.001 A 
ATOM     12  C   UNL A   1      29.807  28.203  23.416  1.00  0.00     0.014 A 
BRANCH   8  13
ATOM     13  C   UNL A   1      30.909  24.530  25.362  1.00  0.00     0.074 C 
ATOM     14  N   UNL A   1      32.010  22.374  24.786  1.00  0.00    -0.331 N 
ATOM     15  C   UNL A   1      32.960  22.542  25.894  1.00  0.00     0.262 C 
ATOM     16  C   UNL A   1      31.539  23.669  24.267  1.00  0.00     0.270 C 
ATOM     17  H   UNL A   1      31.200  21.894  25.179  1.00  0.00     0.348 HD
ATOM     18  C   UNL A   1      32.353  23.354  27.040  1.00  0.00     0.062 C 
ATOM     19  C   UNL A   1      31.870  24.713  26.547  1.00  0.00     0.020 C 
BRANCH  14  20
ATOM     20  C   UNL A   1      32.512  21.487  23.716  1.00  0.00     0.302 C 
BRANCH  20  21
ATOM     21  C   UNL A   1      32.430  20.021  24.018  1.00  0.00     0.043 A 
ATOM     22  C   UNL A   1      32.699  17.373  24.553  1.00  0.00     0.127 A 
ATOM     23  N   UNL A   1      32.617  18.221  25.598  1.00  0.00    -0.241 NA
ATOM     24  N   UNL A   1      32.592  17.742  23.264  1.00  0.00    -0.241 NA
ATOM     25  C   UNL A   1      32.470  19.526  25.303  1.00  0.00     0.124 A 
ATOM     26  C   UNL A   1      32.449  19.060  23.028  1.00  0.00     0.124 A 
BRANCH  22  27
ATOM     27  C   UNL A   1      33.101  15.949  24.819  1.00  0.00     0.074 C 
ATOM     28  C   UNL A   1      34.546  15.799  25.263  1.00  0.00     0.012 C 
ENDBRANCH  22  27
ENDBRANCH  20  21
ENDBRANCH  14  20
ENDBRANCH   8  13
ENDBRANCH   4   7
ENDBRANCH   2   3
ENDBRANCH   1   2
BRANCH   1  29
ATOM     29  C   UNL A   1      33.592  29.018  27.223  1.00  0.00     0.023 C 
BRANCH  29  30
ATOM     30  C   UNL A   1      35.026  29.337  27.622  1.00  0.00     0.116 C 
BRANCH  30  31
ATOM     31  N   UNL A   1      35.143  30.173  28.808  1.00  0.00    -0.352 N 
ATOM     32  C   UNL A   1      36.243  30.414  29.605  1.00  0.00     0.251 C 
ATOM     33  H   UNL A   1      34.318  30.634  29.079  1.00  0.00     0.163 HD
ATOM     34  O   UNL A   1      36.136  31.108  30.604  1.00  0.00    -0.269 OA
BRANCH  32  35
ATOM     35  C   UNL A   1      37.540  29.783  29.266  1.00  0.00     0.039 A 
ATOM     36  C   UNL A   1      37.944  29.751  27.929  1.00  0.00     0.014 A 
ATOM     37  C   UNL A   1      38.374  29.278  30.265  1.00  0.00     0.014 A 
ATOM     38  C   UNL A   1      39.226  29.300  27.606  1.00  0.00     0.010 A 
ATOM     39  C   UNL A   1      39.680  28.915  29.953  1.00  0.00     0.010 A 
ATOM     40  C   UNL A   1      40.122  28.925  28.621  1.00  0.00    -0.014 A 
BRANCH  40  41
ATOM     41  C   UNL A   1      41.525  28.542  28.318  1.00  0.00     0.031 A 
ATOM     42  C   UNL A   1      42.606  29.588  28.316  1.00  0.00     0.074 A 
ATOM     43  C   UNL A   1      41.811  27.274  27.961  1.00  0.00     0.049 A 
ATOM     44  N   UNL A   1      43.868  29.472  27.994  1.00  0.00    -0.248 NA
ATOM     45  C   UNL A   1      42.204  30.953  28.689  1.00  0.00     0.031 C 
ATOM     46  C   UNL A   1      40.844  26.178  27.872  1.00  0.00     0.029 A 
ATOM     47  N   UNL A   1      43.001  26.694  27.598  1.00  0.00    -0.354 N 
ATOM     48  C   UNL A   1      44.403  30.751  28.096  1.00  0.00     0.074 A 
ATOM     49  C   UNL A   1      43.316  31.634  28.461  1.00  0.00     0.031 C 
ATOM     50  C   UNL A   1      41.484  25.053  27.513  1.00  0.00     0.029 A 
ATOM     51  C   UNL A   1      42.899  25.352  27.312  1.00  0.00     0.049 A 
ATOM     52  H   UNL A   1      43.849  27.191  27.547  1.00  0.00     0.167 HD
ATOM     53  C   UNL A   1      45.685  31.151  27.923  1.00  0.00     0.037 A 
ATOM     54  C   UNL A   1      43.839  24.465  26.933  1.00  0.00     0.037 A 
ATOM     55  C   UNL A   1      46.770  30.261  27.602  1.00  0.00     0.049 A 
ATOM     56  C   UNL A   1      45.262  24.924  26.773  1.00  0.00     0.074 A 
ATOM     57  C   UNL A   1      48.117  30.553  27.486  1.00  0.00     0.029 A 
ATOM     58  N   UNL A   1      46.629  28.906  27.346  1.00  0.00    -0.354 N 
ATOM     59  N   UNL A   1      45.763  26.125  26.938  1.00  0.00    -0.248 NA
ATOM     60  C   UNL A   1      46.247  23.909  26.378  1.00  0.00     0.031 C 
ATOM     61  C   UNL A   1      48.788  29.378  27.126  1.00  0.00     0.029 A 
ATOM     62  C   UNL A   1      47.863  28.347  27.057  1.00  0.00     0.049 A 
ATOM     63  H   UNL A   1      45.777  28.412  27.367  1.00  0.00     0.167 HD
ATOM     64  C   UNL A   1      47.127  26.004  26.699  1.00  0.00     0.074 A 
ATOM     65  C   UNL A   1      47.371  24.612  26.378  1.00  0.00     0.031 C 
ATOM     66  C   UNL A   1      48.090  26.957  26.747  1.00  0.00     0.037 A 
BRANCH  53  67
ATOM     67  C   UNL A   1      45.972  32.619  28.077  1.00  0.00     0.058 A 
ATOM     68  C   UNL A   1      46.395  33.165  29.301  1.00  0.00     0.135 A 
ATOM     69  C   UNL A   1      45.803  33.496  26.995  1.00  0.00     0.135 A 
ATOM     70  F   UNL A   1      46.559  32.373  30.374  1.00  0.00    -0.206 F 
ATOM     71  C   UNL A   1      46.586  34.532  29.461  1.00  0.00     0.059 A 
ATOM     72  C   UNL A   1      46.017  34.865  27.124  1.00  0.00     0.059 A 
ATOM     73  F   UNL A   1      45.404  33.029  25.801  1.00  0.00    -0.206 F 
ATOM     74  C   UNL A   1      46.384  35.377  28.368  1.00  0.00     0.060 A 
BRANCH  74  75
ATOM     75  S   UNL A   1      46.593  37.155  28.597  1.00  0.00     0.124 S 
ATOM     76  O   UNL A   1      47.653  37.194  29.600  1.00  0.00    -0.237 OA
ATOM     77  O   UNL A   1      46.972  37.604  27.261  1.00  0.00    -0.237 OA
ATOM     78  O   UNL A   1      45.279  37.594  29.054  1.00  0.00    -0.744 OA
ENDBRANCH  74  75
ENDBRANCH  53  67
BRANCH  54  79
ATOM     79  C   UNL A   1      43.470  23.038  26.740  1.00  0.00     0.058 A 
ATOM     80  C   UNL A   1      43.458  22.474  25.456  1.00  0.00     0.135 A 
ATOM     81  C   UNL A   1      43.164  22.202  27.825  1.00  0.00     0.135 A 
ATOM     82  F   UNL A   1      43.739  23.236  24.387  1.00  0.00    -0.206 F 
ATOM     83  C   UNL A   1      43.154  21.132  25.251  1.00  0.00     0.059 A 
ATOM     84  C   UNL A   1      42.875  20.852  27.647  1.00  0.00     0.059 A 
ATOM     85  F   UNL A   1      43.176  22.691  29.075  1.00  0.00    -0.206 F 
ATOM     86  C   UNL A   1      42.870  20.328  26.355  1.00  0.00     0.060 A 
BRANCH  86  87
ATOM     87  S   UNL A   1      42.551  18.571  26.083  1.00  0.00     0.124 S 
ATOM     88  O   UNL A   1      43.472  18.269  24.993  1.00  0.00    -0.237 OA
ATOM     89  O   UNL A   1      42.888  17.993  27.381  1.00  0.00    -0.237 OA
ATOM     90  O   UNL A   1      41.133  18.537  25.740  1.00  0.00    -0.744 OA
ENDBRANCH  86  87
ENDBRANCH  54  79
BRANCH  66  91
ATOM     91  C   UNL A   1      49.505  26.524  26.484  1.00  0.00     0.058 A 
ATOM     92  C   UNL A   1      50.290  25.924  27.479  1.00  0.00     0.135 A 
ATOM     93  C   UNL A   1      50.061  26.668  25.203  1.00  0.00     0.135 A 
ATOM     94  F   UNL A   1      49.808  25.771  28.721  1.00  0.00    -0.206 F 
ATOM     95  C   UNL A   1      51.588  25.495  27.217  1.00  0.00     0.059 A 
ATOM     96  C   UNL A   1      51.348  26.225  24.913  1.00  0.00     0.059 A 
ATOM     97  F   UNL A   1      49.347  27.228  24.214  1.00  0.00    -0.206 F 
ATOM     98  C   UNL A   1      52.108  25.650  25.930  1.00  0.00     0.060 A 
BRANCH  98  99
ATOM     99  S   UNL A   1      53.779  25.055  25.590  1.00  0.00     0.124 S 
ATOM    100  O   UNL A   1      54.490  25.478  26.792  1.00  0.00    -0.237 OA
ATOM    101  O   UNL A   1      53.577  23.616  25.445  1.00  0.00    -0.237 OA
ATOM    102  O   UNL A   1      54.145  25.756  24.363  1.00  0.00    -0.744 OA
ENDBRANCH  98  99
ENDBRANCH  66  91
ENDBRANCH  40  41
ENDBRANCH  32  35
ENDBRANCH  30  31
ENDBRANCH  29  30
ENDBRANCH   1  29
TORSDOF 18
ENDMDL
MODEL 2
REMARK VINA RESULT:     -12.7      6.556     12.361
REMARK SMILES CCc1ncc(C[N@H+]2CCC[C@@H](c3cccc(C(=O)NCCCCNC(=O)c4ccc(-c5c6nc(c(-c7c(F)cc(S(=O)(=O)[O-])cc7F)c7ccc([nH]7)c(-c7c(F)cc(S(=O)(=O)[O-])cc7F)c7nc(c(-c8c(F)cc(S(=O)(=O)[O-])cc8F)c8ccc5[nH]8)C=C7)C=C6)cc4)c3)C2)cn1
REMARK SMILES IDX 22 1 21 2 20 3 18 4 19 5 17 7 13 8 14 9 94 10 15 11 16 12
REMARK SMILES IDX 12 13 8 14 9 15 95 16 10 18 11 19 7 20 6 21 3 22 4 23 97 24
REMARK SMILES IDX 5 25 96 26 2 27 1 28 23 29 24 30 25 31 26 32 27 34 28 35
REMARK SMILES IDX 29 36 93 37 30 38 92 39 31 40 32 41 33 42 86 43 34 44 91 45
REMARK SMILES IDX 85 46 87 47 35 48 90 49 84 50 83 51 36 53 70 54 49 55 69 56
REMARK SMILES IDX 50 57 53 58 68 59 88 60 51 61 52 62 67 64 89 65 54 66 37 67
REMARK SMILES IDX 38 68 47 69 39 70 40 71 46 72 48 73 41 74 42 75 43 76 44 77
REMARK SMILES IDX 45 78 71 79 72 80 81 81 73 82 74 83 80 84 82 85 75 86 76 87
REMARK SMILES IDX 77 88 78 89 79 90 55 91 56 92 65 93 57 94 58 95 64 96 66 97
REMARK SMILES IDX 59 98 60 99 61 100 62 101 63 102
REMARK H PARENT 20 6 8 17 25 33 87 52 53 63
REMARK Flexibility Score: inf
ROOT
ATOM      1  C   UNL A   1      40.375  22.411  27.607  1.00  0.00     0.023 C 
ENDROOT
BRANCH   1   2
ATOM      2  C   UNL A   1      39.407  22.508  26.440  1.00  0.00     0.116 C 
BRANCH   2   3
ATOM      3  N   UNL A   1      38.828  21.249  25.994  1.00  0.00    -0.352 N 
ATOM      4  C   UNL A   1      37.736  20.994  25.184  1.00  0.00     0.251 C 
ATOM      5  O   UNL A   1      37.439  19.831  24.923  1.00  0.00    -0.269 OA
ATOM      6  H   UNL A   1      39.289  20.445  26.324  1.00  0.00     0.163 HD
BRANCH   4   7
ATOM      7  C   UNL A   1      36.866  22.092  24.687  1.00  0.00     0.040 A 
ATOM      8  C   UNL A   1      34.880  23.453  24.968  1.00  0.00    -0.039 A 
ATOM      9  C   UNL A   1      34.933  23.797  23.613  1.00  0.00     0.004 A 
ATOM     10  C   UNL A   1      35.941  22.726  25.514  1.00  0.00     0.018 A 
ATOM     11  C   UNL A   1      35.972  23.325  22.808  1.00  0.00     0.001 A 
ATOM     12  C   UNL A   1      36.914  22.438  23.334  1.00  0.00     0.014 A 
BRANCH   8  13
ATOM     13  C   UNL A   1      33.689  23.737  25.865  1.00  0.00     0.074 C 
ATOM     14  N   UNL A   1      31.687  25.181  26.184  1.00  0.00    -0.331 N 
ATOM     15  C   UNL A   1      30.851  23.999  26.434  1.00  0.00     0.262 C 
ATOM     16  C   UNL A   1      32.828  24.870  25.307  1.00  0.00     0.270 C 
ATOM     17  H   UNL A   1      32.069  25.453  27.090  1.00  0.00     0.348 HD
ATOM     18  C   UNL A   1      31.662  22.854  27.045  1.00  0.00     0.062 C 
ATOM     19  C   UNL A   1      32.843  22.487  26.154  1.00  0.00     0.020 C 
BRANCH  14  20
ATOM     20  C   UNL A   1      30.917  26.351  25.715  1.00  0.00     0.302 C 
BRANCH  20  21
ATOM     21  C   UNL A   1      31.523  27.682  26.046  1.00  0.00     0.043 A 
ATOM     22  C   UNL A   1      32.981  29.884  26.675  1.00  0.00     0.127 A 
ATOM     23  N   UNL A   1      32.812  29.593  25.369  1.00  0.00    -0.241 NA
ATOM     24  N   UNL A   1      32.423  29.194  27.686  1.00  0.00    -0.241 NA
ATOM     25  C   UNL A   1      32.073  28.505  25.087  1.00  0.00     0.124 A 
ATOM     26  C   UNL A   1      31.696  28.113  27.345  1.00  0.00     0.124 A 
BRANCH  22  27
ATOM     27  C   UNL A   1      33.986  30.938  27.048  1.00  0.00     0.074 C 
ATOM     28  C   UNL A   1      35.186  30.392  27.804  1.00  0.00     0.012 C 
ENDBRANCH  22  27
ENDBRANCH  20  21
ENDBRANCH  14  20
ENDBRANCH   8  13
ENDBRANCH   4   7
ENDBRANCH   2   3
ENDBRANCH   1   2
BRANCH   1  29
ATOM     29  C   UNL A   1      41.813  22.051  27.270  1.00  0.00     0.023 C 
BRANCH  29  30
ATOM     30  C   UNL A   1      42.762  23.222  27.055  1.00  0.00     0.116 C 
BRANCH  30  31
ATOM     31  N   UNL A   1      42.418  24.070  25.923  1.00  0.00    -0.352 N 
ATOM     32  C   UNL A   1      42.001  25.385  25.908  1.00  0.00     0.251 C 
ATOM     33  H   UNL A   1      42.495  23.643  25.040  1.00  0.00     0.163 HD
ATOM     34  O   UNL A   1      41.699  25.920  24.853  1.00  0.00    -0.269 OA
BRANCH  32  35
ATOM     35  C   UNL A   1      41.875  26.124  27.186  1.00  0.00     0.039 A 
ATOM     36  C   UNL A   1      42.844  27.076  27.511  1.00  0.00     0.014 A 
ATOM     37  C   UNL A   1      40.781  25.917  28.028  1.00  0.00     0.014 A 
ATOM     38  C   UNL A   1      42.663  27.889  28.632  1.00  0.00     0.010 A 
ATOM     39  C   UNL A   1      40.558  26.786  29.091  1.00  0.00     0.010 A 
ATOM     40  C   UNL A   1      41.494  27.784  29.403  1.00  0.00    -0.014 A 
BRANCH  40  41
ATOM     41  C   UNL A   1      41.225  28.703  30.539  1.00  0.00     0.031 A 
ATOM     42  C   UNL A   1      42.054  28.613  31.791  1.00  0.00     0.074 A 
ATOM     43  C   UNL A   1      40.183  29.556  30.479  1.00  0.00     0.049 A 
ATOM     44  N   UNL A   1      41.922  29.262  32.919  1.00  0.00    -0.248 NA
ATOM     45  C   UNL A   1      43.154  27.636  31.785  1.00  0.00     0.031 C 
ATOM     46  C   UNL A   1      39.270  29.702  29.343  1.00  0.00     0.029 A 
ATOM     47  N   UNL A   1      39.712  30.459  31.399  1.00  0.00    -0.354 N 
ATOM     48  C   UNL A   1      42.899  28.752  33.765  1.00  0.00     0.074 A 
ATOM     49  C   UNL A   1      43.583  27.705  33.036  1.00  0.00     0.031 C 
ATOM     50  C   UNL A   1      38.371  30.660  29.621  1.00  0.00     0.029 A 
ATOM     51  C   UNL A   1      38.619  31.172  30.965  1.00  0.00     0.049 A 
ATOM     52  H   UNL A   1      40.117  30.583  32.288  1.00  0.00     0.167 HD
ATOM     53  C   UNL A   1      43.215  29.133  35.026  1.00  0.00     0.037 A 
ATOM     54  C   UNL A   1      37.901  32.132  31.580  1.00  0.00     0.037 A 
ATOM     55  C   UNL A   1      42.559  30.203  35.730  1.00  0.00     0.049 A 
ATOM     56  C   UNL A   1      38.284  32.560  32.971  1.00  0.00     0.074 A 
ATOM     57  C   UNL A   1      42.856  30.722  36.978  1.00  0.00     0.029 A 
ATOM     58  N   UNL A   1      41.474  30.920  35.246  1.00  0.00    -0.354 N 
ATOM     59  N   UNL A   1      39.253  32.112  33.732  1.00  0.00    -0.248 NA
ATOM     60  C   UNL A   1      37.477  33.624  33.584  1.00  0.00     0.031 C 
ATOM     61  C   UNL A   1      41.928  31.731  37.263  1.00  0.00     0.029 A 
ATOM     62  C   UNL A   1      41.078  31.866  36.176  1.00  0.00     0.049 A 
ATOM     63  H   UNL A   1      41.049  30.776  34.370  1.00  0.00     0.167 HD
ATOM     64  C   UNL A   1      39.195  32.862  34.902  1.00  0.00     0.074 A 
ATOM     65  C   UNL A   1      38.094  33.791  34.746  1.00  0.00     0.031 C 
ATOM     66  C   UNL A   1      39.985  32.790  36.001  1.00  0.00     0.037 A 
BRANCH  53  67
ATOM     67  C   UNL A   1      44.316  28.377  35.716  1.00  0.00     0.058 A 
ATOM     68  C   UNL A   1      45.667  28.727  35.552  1.00  0.00     0.135 A 
ATOM     69  C   UNL A   1      44.021  27.278  36.535  1.00  0.00     0.135 A 
ATOM     70  F   UNL A   1      46.007  29.763  34.766  1.00  0.00    -0.206 F 
ATOM     71  C   UNL A   1      46.687  27.981  36.129  1.00  0.00     0.059 A 
ATOM     72  C   UNL A   1      45.025  26.533  37.148  1.00  0.00     0.059 A 
ATOM     73  F   UNL A   1      42.747  26.901  36.730  1.00  0.00    -0.206 F 
ATOM     74  C   UNL A   1      46.356  26.877  36.918  1.00  0.00     0.060 A 
BRANCH  74  75
ATOM     75  S   UNL A   1      47.690  25.890  37.629  1.00  0.00     0.124 S 
ATOM     76  O   UNL A   1      46.950  25.015  38.534  1.00  0.00    -0.237 OA
ATOM     77  O   UNL A   1      48.265  25.242  36.454  1.00  0.00    -0.237 OA
ATOM     78  O   UNL A   1      48.541  26.885  38.273  1.00  0.00    -0.744 OA
ENDBRANCH  74  75
ENDBRANCH  53  67
BRANCH  54  79
ATOM     79  C   UNL A   1      36.784  32.794  30.858  1.00  0.00     0.058 A 
ATOM     80  C   UNL A   1      35.453  32.445  31.130  1.00  0.00     0.135 A 
ATOM     81  C   UNL A   1      37.014  33.811  29.917  1.00  0.00     0.135 A 
ATOM     82  F   UNL A   1      35.184  31.474  32.017  1.00  0.00    -0.206 F 
ATOM     83  C   UNL A   1      34.389  33.076  30.495  1.00  0.00     0.059 A 
ATOM     84  C   UNL A   1      35.966  34.471  29.284  1.00  0.00     0.059 A 
ATOM     85  F   UNL A   1      38.270  34.191  29.633  1.00  0.00    -0.206 F 
ATOM     86  C   UNL A   1      34.656  34.093  29.578  1.00  0.00     0.060 A 
BRANCH  86  87
ATOM     87  S   UNL A   1      33.263  34.956  28.818  1.00  0.00     0.124 S 
ATOM     88  O   UNL A   1      32.423  35.238  29.975  1.00  0.00    -0.237 OA
ATOM     89  O   UNL A   1      33.915  36.111  28.205  1.00  0.00    -0.237 OA
ATOM     90  O   UNL A   1      32.734  33.974  27.877  1.00  0.00    -0.744 OA
ENDBRANCH  86  87
ENDBRANCH  54  79
BRANCH  66  91
ATOM     91  C   UNL A   1      39.715  33.768  37.110  1.00  0.00     0.058 A 
ATOM     92  C   UNL A   1      38.925  33.426  38.218  1.00  0.00     0.135 A 
ATOM     93  C   UNL A   1      40.298  35.044  37.086  1.00  0.00     0.135 A 
ATOM     94  F   UNL A   1      38.338  32.221  38.285  1.00  0.00    -0.206 F 
ATOM     95  C   UNL A   1      38.708  34.325  39.257  1.00  0.00     0.059 A 
ATOM     96  C   UNL A   1      40.113  35.950  38.125  1.00  0.00     0.059 A 
ATOM     97  F   UNL A   1      41.070  35.416  36.052  1.00  0.00    -0.206 F 
ATOM     98  C   UNL A   1      39.307  35.585  39.202  1.00  0.00     0.060 A 
BRANCH  98  99
ATOM     99  S   UNL A   1      39.050  36.731  40.574  1.00  0.00     0.124 S 
ATOM    100  O   UNL A   1      40.386  36.792  41.159  1.00  0.00    -0.237 OA
ATOM    101  O   UNL A   1      38.601  37.942  39.892  1.00  0.00    -0.237 OA
ATOM    102  O   UNL A   1      38.038  36.066  41.387  1.00  0.00    -0.744 OA
ENDBRANCH  98  99
ENDBRANCH  66  91
ENDBRANCH  40  41
ENDBRANCH  32  35
ENDBRANCH  30  31
ENDBRANCH  29  30
ENDBRANCH   1  29
TORSDOF 18
ENDMDL
MODEL 3
REMARK VINA RESULT:     -12.4      0.948      8.064
REMARK SMILES CCc1ncc(C[N@H+]2CCC[C@@H](c3cccc(C(=O)NCCCCNC(=O)c4ccc(-c5c6nc(c(-c7c(F)cc(S(=O)(=O)[O-])cc7F)c7ccc([nH]7)c(-c7c(F)cc(S(=O)(=O)[O-])cc7F)c7nc(c(-c8c(F)cc(S(=O)(=O)[O-])cc8F)c8ccc5[nH]8)C=C7)C=C6)cc4)c3)C2)cn1
REMARK SMILES IDX 22 1 21 2 20 3 18 4 19 5 17 7 13 8 14 9 94 10 15 11 16 12
REMARK SMILES IDX 12 13 8 14 9 15 95 16 10 18 11 19 7 20 6 21 3 22 4 23 97 24
REMARK SMILES IDX 5 25 96 26 2 27 1 28 23 29 24 30 25 31 26 32 27 34 28 35
REMARK SMILES IDX 29 36 93 37 30 38 92 39 31 40 32 41 33 42 86 43 34 44 91 45
REMARK SMILES IDX 85 46 87 47 35 48 90 49 84 50 83 51 36 53 70 54 49 55 69 56
REMARK SMILES IDX 50 57 53 58 68 59 88 60 51 61 52 62 67 64 89 65 54 66 37 67
REMARK SMILES IDX 38 68 47 69 39 70 40 71 46 72 48 73 41 74 42 75 43 76 44 77
REMARK SMILES IDX 45 78 71 79 72 80 81 81 73 82 74 83 80 84 82 85 75 86 76 87
REMARK SMILES IDX 77 88 78 89 79 90 55 91 56 92 65 93 57 94 58 95 64 96 66 97
REMARK SMILES IDX 59 98 60 99 61 100 62 101 63 102
REMARK H PARENT 20 6 8 17 25 33 87 52 53 63
REMARK Flexibility Score: inf
ROOT
ATOM      1  C   UNL A   1      33.334  29.574  27.120  1.00  0.00     0.023 C 
ENDROOT
BRANCH   1   2
ATOM      2  C   UNL A   1      32.435  30.120  26.024  1.00  0.00     0.116 C 
BRANCH   2   3
ATOM      3  N   UNL A   1      32.889  29.885  24.660  1.00  0.00    -0.352 N 
ATOM      4  C   UNL A   1      32.528  28.914  23.744  1.00  0.00     0.251 C 
ATOM      5  O   UNL A   1      33.038  28.923  22.626  1.00  0.00    -0.269 OA
ATOM      6  H   UNL A   1      33.566  30.522  24.336  1.00  0.00     0.163 HD
BRANCH   4   7
ATOM      7  C   UNL A   1      31.598  27.813  24.107  1.00  0.00     0.040 A 
ATOM      8  C   UNL A   1      31.275  25.499  24.751  1.00  0.00    -0.039 A 
ATOM      9  C   UNL A   1      29.939  25.578  24.340  1.00  0.00     0.004 A 
ATOM     10  C   UNL A   1      32.039  26.669  24.767  1.00  0.00     0.018 A 
ATOM     11  C   UNL A   1      29.424  26.782  23.853  1.00  0.00     0.001 A 
ATOM     12  C   UNL A   1      30.264  27.887  23.697  1.00  0.00     0.014 A 
BRANCH   8  13
ATOM     13  C   UNL A   1      31.978  24.196  25.089  1.00  0.00     0.074 C 
ATOM     14  N   UNL A   1      32.528  21.913  24.265  1.00  0.00    -0.331 N 
ATOM     15  C   UNL A   1      33.935  22.094  24.648  1.00  0.00     0.262 C 
ATOM     16  C   UNL A   1      31.880  23.195  23.938  1.00  0.00     0.270 C 
ATOM     17  H   UNL A   1      32.057  21.539  25.089  1.00  0.00     0.348 HD
ATOM     18  C   UNL A   1      34.078  23.050  25.835  1.00  0.00     0.062 C 
ATOM     19  C   UNL A   1      33.436  24.399  25.528  1.00  0.00     0.020 C 
BRANCH  14  20
ATOM     20  C   UNL A   1      32.337  20.899  23.208  1.00  0.00     0.302 C 
BRANCH  20  21
ATOM     21  C   UNL A   1      32.458  19.476  23.666  1.00  0.00     0.043 A 
ATOM     22  C   UNL A   1      33.090  16.960  24.463  1.00  0.00     0.127 A 
ATOM     23  N   UNL A   1      32.933  17.901  25.415  1.00  0.00    -0.241 NA
ATOM     24  N   UNL A   1      32.892  17.168  23.148  1.00  0.00    -0.241 NA
ATOM     25  C   UNL A   1      32.606  19.135  24.992  1.00  0.00     0.124 A 
ATOM     26  C   UNL A   1      32.569  18.422  22.782  1.00  0.00     0.124 A 
BRANCH  22  27
ATOM     27  C   UNL A   1      33.684  15.636  24.857  1.00  0.00     0.074 C 
ATOM     28  C   UNL A   1      35.140  15.727  25.282  1.00  0.00     0.012 C 
ENDBRANCH  22  27
ENDBRANCH  20  21
ENDBRANCH  14  20
ENDBRANCH   8  13
ENDBRANCH   4   7
ENDBRANCH   2   3
ENDBRANCH   1   2
BRANCH   1  29
ATOM     29  C   UNL A   1      34.563  30.399  27.466  1.00  0.00     0.023 C 
BRANCH  29  30
ATOM     30  C   UNL A   1      35.676  29.666  28.202  1.00  0.00     0.116 C 
BRANCH  30  31
ATOM     31  N   UNL A   1      35.589  29.750  29.652  1.00  0.00    -0.352 N 
ATOM     32  C   UNL A   1      36.599  29.770  30.592  1.00  0.00     0.251 C 
ATOM     33  H   UNL A   1      34.675  29.802  30.016  1.00  0.00     0.163 HD
ATOM     34  O   UNL A   1      36.328  29.788  31.782  1.00  0.00    -0.269 OA
BRANCH  32  35
ATOM     35  C   UNL A   1      38.010  29.719  30.144  1.00  0.00     0.039 A 
ATOM     36  C   UNL A   1      38.980  29.245  31.030  1.00  0.00     0.014 A 
ATOM     37  C   UNL A   1      38.363  30.086  28.844  1.00  0.00     0.014 A 
ATOM     38  C   UNL A   1      40.288  29.045  30.580  1.00  0.00     0.010 A 
ATOM     39  C   UNL A   1      39.641  29.802  28.373  1.00  0.00     0.010 A 
ATOM     40  C   UNL A   1      40.617  29.276  29.234  1.00  0.00    -0.014 A 
BRANCH  40  41
ATOM     41  C   UNL A   1      41.970  28.975  28.701  1.00  0.00     0.031 A 
ATOM     42  C   UNL A   1      42.292  27.591  28.207  1.00  0.00     0.074 A 
ATOM     43  C   UNL A   1      42.932  29.918  28.741  1.00  0.00     0.049 A 
ATOM     44  N   UNL A   1      43.432  27.107  27.787  1.00  0.00    -0.248 NA
ATOM     45  C   UNL A   1      41.193  26.612  28.222  1.00  0.00     0.031 C 
ATOM     46  C   UNL A   1      42.763  31.282  29.246  1.00  0.00     0.029 A 
ATOM     47  N   UNL A   1      44.249  29.870  28.356  1.00  0.00    -0.354 N 
ATOM     48  C   UNL A   1      43.196  25.763  27.519  1.00  0.00     0.074 A 
ATOM     49  C   UNL A   1      41.818  25.499  27.871  1.00  0.00     0.031 C 
ATOM     50  C   UNL A   1      43.920  31.949  29.109  1.00  0.00     0.029 A 
ATOM     51  C   UNL A   1      44.923  31.054  28.540  1.00  0.00     0.049 A 
ATOM     52  H   UNL A   1      44.672  29.063  27.983  1.00  0.00     0.167 HD
ATOM     53  C   UNL A   1      44.042  24.838  27.006  1.00  0.00     0.037 A 
ATOM     54  C   UNL A   1      46.203  31.381  28.278  1.00  0.00     0.037 A 
ATOM     55  C   UNL A   1      45.400  25.118  26.618  1.00  0.00     0.049 A 
ATOM     56  C   UNL A   1      47.119  30.347  27.684  1.00  0.00     0.074 A 
ATOM     57  C   UNL A   1      46.313  24.273  26.013  1.00  0.00     0.029 A 
ATOM     58  N   UNL A   1      46.037  26.336  26.796  1.00  0.00    -0.354 N 
ATOM     59  N   UNL A   1      46.862  29.099  27.374  1.00  0.00    -0.248 NA
ATOM     60  C   UNL A   1      48.499  30.767  27.401  1.00  0.00     0.031 C 
ATOM     61  C   UNL A   1      47.516  24.972  25.857  1.00  0.00     0.029 A 
ATOM     62  C   UNL A   1      47.338  26.264  26.328  1.00  0.00     0.049 A 
ATOM     63  H   UNL A   1      45.625  27.136  27.196  1.00  0.00     0.167 HD
ATOM     64  C   UNL A   1      48.037  28.592  26.830  1.00  0.00     0.074 A 
ATOM     65  C   UNL A   1      49.005  29.670  26.853  1.00  0.00     0.031 C 
ATOM     66  C   UNL A   1      48.287  27.350  26.350  1.00  0.00     0.037 A 
BRANCH  53  67
ATOM     67  C   UNL A   1      43.514  23.441  26.844  1.00  0.00     0.058 A 
ATOM     68  C   UNL A   1      43.385  22.568  27.938  1.00  0.00     0.135 A 
ATOM     69  C   UNL A   1      43.149  22.959  25.577  1.00  0.00     0.135 A 
ATOM     70  F   UNL A   1      43.733  22.973  29.170  1.00  0.00    -0.206 F 
ATOM     71  C   UNL A   1      42.968  21.252  27.773  1.00  0.00     0.059 A 
ATOM     72  C   UNL A   1      42.701  21.653  25.393  1.00  0.00     0.059 A 
ATOM     73  F   UNL A   1      43.249  23.750  24.497  1.00  0.00    -0.206 F 
ATOM     74  C   UNL A   1      42.638  20.800  26.494  1.00  0.00     0.060 A 
BRANCH  74  75
ATOM     75  S   UNL A   1      42.138  19.078  26.286  1.00  0.00     0.124 S 
ATOM     76  O   UNL A   1      42.274  18.572  27.648  1.00  0.00    -0.237 OA
ATOM     77  O   UNL A   1      40.771  19.204  25.792  1.00  0.00    -0.237 OA
ATOM     78  O   UNL A   1      43.105  18.560  25.323  1.00  0.00    -0.744 OA
ENDBRANCH  74  75
ENDBRANCH  53  67
BRANCH  54  79
ATOM     79  C   UNL A   1      46.674  32.770  28.521  1.00  0.00     0.058 A 
ATOM     80  C   UNL A   1      47.232  33.126  29.758  1.00  0.00     0.135 A 
ATOM     81  C   UNL A   1      46.616  33.754  27.522  1.00  0.00     0.135 A 
ATOM     82  F   UNL A   1      47.303  32.221  30.746  1.00  0.00    -0.206 F 
ATOM     83  C   UNL A   1      47.714  34.408  29.999  1.00  0.00     0.059 A 
ATOM     84  C   UNL A   1      47.110  35.038  27.732  1.00  0.00     0.059 A 
ATOM     85  F   UNL A   1      46.104  33.458  26.317  1.00  0.00    -0.206 F 
ATOM     86  C   UNL A   1      47.655  35.356  28.976  1.00  0.00     0.060 A 
BRANCH  86  87
ATOM     87  S   UNL A   1      48.354  36.994  29.275  1.00  0.00     0.124 S 
ATOM     88  O   UNL A   1      48.750  36.894  30.675  1.00  0.00    -0.237 OA
ATOM     89  O   UNL A   1      49.444  37.045  28.305  1.00  0.00    -0.237 OA
ATOM     90  O   UNL A   1      47.236  37.891  28.997  1.00  0.00    -0.744 OA
ENDBRANCH  86  87
ENDBRANCH  54  79
BRANCH  66  91
ATOM     91  C   UNL A   1      49.652  27.094  25.773  1.00  0.00     0.058 A 
ATOM     92  C   UNL A   1      50.710  26.623  26.564  1.00  0.00     0.135 A 
ATOM     93  C   UNL A   1      49.885  27.276  24.401  1.00  0.00     0.135 A 
ATOM     94  F   UNL A   1      50.541  26.442  27.883  1.00  0.00    -0.206 F 
ATOM     95  C   UNL A   1      51.961  26.357  26.016  1.00  0.00     0.059 A 
ATOM     96  C   UNL A   1      51.120  26.994  23.828  1.00  0.00     0.059 A 
ATOM     97  F   UNL A   1      48.901  27.716  23.600  1.00  0.00    -0.206 F 
ATOM     98  C   UNL A   1      52.156  26.545  24.646  1.00  0.00     0.060 A 
BRANCH  98  99
ATOM     99  S   UNL A   1      53.772  26.160  23.937  1.00  0.00     0.124 S 
ATOM    100  O   UNL A   1      53.448  26.035  22.519  1.00  0.00    -0.237 OA
ATOM    101  O   UNL A   1      54.564  27.330  24.306  1.00  0.00    -0.237 OA
ATOM    102  O   UNL A   1      54.149  24.919  24.607  1.00  0.00    -0.744 OA
ENDBRANCH  98  99
ENDBRANCH  66  91
ENDBRANCH  40  41
ENDBRANCH  32  35
ENDBRANCH  30  31
ENDBRANCH  29  30
ENDBRANCH   1  29
TORSDOF 18
ENDMDL
