MODEL 1
REMARK VINA RESULT:     -11.4      0.000      0.000
REMARK SMILES CC(C)CCC(=O)N1CC[C@H](C(=O)NCCCCNC(=O)c2ccc(-c3c4nc(c(-c5c(F)cc(S(=O)(=O)[O-])cc5F)c5ccc([nH]5)c(-c5c(F)cc(S(=O)(=O)[O-])cc5F)c5nc(c(-c6c(F)cc(S(=O)(=O)[O-])cc6F)c6ccc3[nH]6)C=C5)C=C4)cc2)[C@H]1C
REMARK SMILES IDX 16 1 15 2 14 3 12 4 13 5 11 7 8 8 9 9 88 10 10 11 89 12 6 13
REMARK SMILES IDX 7 14 5 15 4 16 2 17 1 18 3 19 17 20 18 21 19 22 20 23 21 25
REMARK SMILES IDX 22 26 23 27 87 28 24 29 86 30 25 31 26 32 27 33 80 34 28 35
REMARK SMILES IDX 85 36 79 37 81 38 29 39 84 40 78 41 77 42 30 44 64 45 43 46
REMARK SMILES IDX 63 47 44 48 47 49 62 50 82 51 45 52 46 53 61 55 83 56 48 57
REMARK SMILES IDX 31 58 32 59 41 60 33 61 34 62 40 63 42 64 35 65 36 66 37 67
REMARK SMILES IDX 38 68 39 69 65 70 66 71 75 72 67 73 68 74 74 75 76 76 69 77
REMARK SMILES IDX 70 78 71 79 72 80 73 81 49 82 50 83 59 84 51 85 52 86 58 87
REMARK SMILES IDX 60 88 53 89 54 90 55 91 56 92 57 93
REMARK H PARENT 14 6 19 24 81 43 47 54
REMARK Flexibility Score: inf
ROOT
ATOM      1  C   UNL A   1      37.933  21.847  25.451  1.00  0.00     0.023 C 
ENDROOT
BRANCH   1   2
ATOM      2  C   UNL A   1      36.867  20.935  24.851  1.00  0.00     0.116 C 
BRANCH   2   3
ATOM      3  N   UNL A   1      35.722  20.752  25.717  1.00  0.00    -0.356 N 
ATOM      4  C   UNL A   1      34.428  21.130  25.601  1.00  0.00     0.225 C 
ATOM      5  O   UNL A   1      33.651  20.680  26.454  1.00  0.00    -0.275 OA
ATOM      6  H   UNL A   1      35.923  20.261  26.547  1.00  0.00     0.163 HD
BRANCH   4   7
ATOM      7  C   UNL A   1      33.866  22.055  24.521  1.00  0.00     0.102 C 
ATOM      8  N   UNL A   1      32.496  23.891  25.138  1.00  0.00    -0.339 N 
ATOM      9  C   UNL A   1      31.589  22.893  24.592  1.00  0.00     0.120 C 
ATOM     10  C   UNL A   1      33.882  23.562  24.814  1.00  0.00     0.094 C 
ATOM     11  C   UNL A   1      32.451  21.772  24.030  1.00  0.00     0.037 C 
ATOM     12  C   UNL A   1      34.323  24.313  23.552  1.00  0.00     0.032 C 
BRANCH   8  13
ATOM     13  C   UNL A   1      32.030  24.805  26.061  1.00  0.00     0.222 C 
ATOM     14  O   UNL A   1      31.713  24.430  27.196  1.00  0.00    -0.275 OA
BRANCH  13  15
ATOM     15  C   UNL A   1      31.713  26.243  25.656  1.00  0.00     0.100 C 
BRANCH  15  16
ATOM     16  C   UNL A   1      31.029  27.221  26.616  1.00  0.00     0.013 C 
BRANCH  16  17
ATOM     17  C   UNL A   1      31.816  28.501  26.978  1.00  0.00    -0.017 C 
ATOM     18  C   UNL A   1      33.300  28.271  27.271  1.00  0.00     0.007 C 
ATOM     19  C   UNL A   1      31.678  29.560  25.881  1.00  0.00     0.007 C 
ENDBRANCH  16  17
ENDBRANCH  15  16
ENDBRANCH  13  15
ENDBRANCH   8  13
ENDBRANCH   4   7
ENDBRANCH   2   3
ENDBRANCH   1   2
BRANCH   1  20
ATOM     20  C   UNL A   1      37.540  23.315  25.570  1.00  0.00     0.023 C 
BRANCH  20  21
ATOM     21  C   UNL A   1      38.453  24.149  26.456  1.00  0.00     0.116 C 
BRANCH  21  22
ATOM     22  N   UNL A   1      39.875  23.911  26.233  1.00  0.00    -0.352 N 
ATOM     23  C   UNL A   1      40.931  24.647  26.720  1.00  0.00     0.251 C 
ATOM     24  H   UNL A   1      40.105  23.137  25.671  1.00  0.00     0.163 HD
ATOM     25  O   UNL A   1      42.085  24.395  26.389  1.00  0.00    -0.269 OA
BRANCH  23  26
ATOM     26  C   UNL A   1      40.637  25.780  27.618  1.00  0.00     0.039 A 
ATOM     27  C   UNL A   1      39.638  25.641  28.581  1.00  0.00     0.014 A 
ATOM     28  C   UNL A   1      41.431  26.930  27.569  1.00  0.00     0.014 A 
ATOM     29  C   UNL A   1      39.485  26.629  29.553  1.00  0.00     0.010 A 
ATOM     30  C   UNL A   1      41.331  27.870  28.586  1.00  0.00     0.010 A 
ATOM     31  C   UNL A   1      40.359  27.729  29.588  1.00  0.00    -0.014 A 
BRANCH  31  32
ATOM     32  C   UNL A   1      40.282  28.743  30.668  1.00  0.00     0.031 A 
ATOM     33  C   UNL A   1      41.140  28.598  31.893  1.00  0.00     0.074 A 
ATOM     34  C   UNL A   1      39.373  29.734  30.588  1.00  0.00     0.049 A 
ATOM     35  N   UNL A   1      41.162  29.329  32.977  1.00  0.00    -0.248 NA
ATOM     36  C   UNL A   1      42.066  27.455  31.921  1.00  0.00     0.031 C 
ATOM     37  C   UNL A   1      38.425  29.928  29.488  1.00  0.00     0.029 A 
ATOM     38  N   UNL A   1      39.082  30.752  31.459  1.00  0.00    -0.354 N 
ATOM     39  C   UNL A   1      42.077  28.719  33.824  1.00  0.00     0.074 A 
ATOM     40  C   UNL A   1      42.550  27.529  33.151  1.00  0.00     0.031 C 
ATOM     41  C   UNL A   1      37.666  31.005  29.745  1.00  0.00     0.029 A 
ATOM     42  C   UNL A   1      38.054  31.564  31.037  1.00  0.00     0.049 A 
ATOM     43  H   UNL A   1      39.563  30.891  32.306  1.00  0.00     0.167 HD
ATOM     44  C   UNL A   1      42.502  29.124  35.045  1.00  0.00     0.037 A 
ATOM     45  C   UNL A   1      37.485  32.632  31.627  1.00  0.00     0.037 A 
ATOM     46  C   UNL A   1      42.057  30.332  35.687  1.00  0.00     0.049 A 
ATOM     47  C   UNL A   1      38.017  33.107  32.950  1.00  0.00     0.074 A 
ATOM     48  C   UNL A   1      42.501  30.890  36.872  1.00  0.00     0.029 A 
ATOM     49  N   UNL A   1      41.064  31.168  35.197  1.00  0.00    -0.354 N 
ATOM     50  N   UNL A   1      38.956  32.576  33.696  1.00  0.00    -0.248 NA
ATOM     51  C   UNL A   1      37.425  34.330  33.506  1.00  0.00     0.031 C 
ATOM     52  C   UNL A   1      41.748  32.045  37.118  1.00  0.00     0.029 A 
ATOM     53  C   UNL A   1      40.864  32.227  36.066  1.00  0.00     0.049 A 
ATOM     54  H   UNL A   1      40.573  31.029  34.355  1.00  0.00     0.167 HD
ATOM     55  C   UNL A   1      39.081  33.408  34.802  1.00  0.00     0.074 A 
ATOM     56  C   UNL A   1      38.128  34.485  34.621  1.00  0.00     0.031 C 
ATOM     57  C   UNL A   1      39.908  33.290  35.870  1.00  0.00     0.037 A 
BRANCH  44  58
ATOM     58  C   UNL A   1      43.495  28.247  35.755  1.00  0.00     0.058 A 
ATOM     59  C   UNL A   1      44.878  28.370  35.538  1.00  0.00     0.135 A 
ATOM     60  C   UNL A   1      43.059  27.262  36.654  1.00  0.00     0.135 A 
ATOM     61  F   UNL A   1      45.349  29.285  34.676  1.00  0.00    -0.206 F 
ATOM     62  C   UNL A   1      45.789  27.513  36.147  1.00  0.00     0.059 A 
ATOM     63  C   UNL A   1      43.955  26.414  37.299  1.00  0.00     0.059 A 
ATOM     64  F   UNL A   1      41.749  27.102  36.900  1.00  0.00    -0.206 F 
ATOM     65  C   UNL A   1      45.316  26.532  37.019  1.00  0.00     0.060 A 
BRANCH  65  66
ATOM     66  S   UNL A   1      46.504  25.405  37.779  1.00  0.00     0.124 S 
ATOM     67  O   UNL A   1      45.715  24.183  37.887  1.00  0.00    -0.237 OA
ATOM     68  O   UNL A   1      47.584  25.376  36.797  1.00  0.00    -0.237 OA
ATOM     69  O   UNL A   1      46.829  26.058  39.043  1.00  0.00    -0.744 OA
ENDBRANCH  65  66
ENDBRANCH  44  58
BRANCH  45  70
ATOM     70  C   UNL A   1      36.371  33.337  30.941  1.00  0.00     0.058 A 
ATOM     71  C   UNL A   1      35.073  33.323  31.470  1.00  0.00     0.135 A 
ATOM     72  C   UNL A   1      36.597  34.091  29.779  1.00  0.00     0.135 A 
ATOM     73  F   UNL A   1      34.808  32.610  32.576  1.00  0.00    -0.206 F 
ATOM     74  C   UNL A   1      34.036  34.033  30.874  1.00  0.00     0.059 A 
ATOM     75  C   UNL A   1      35.581  34.826  29.177  1.00  0.00     0.059 A 
ATOM     76  F   UNL A   1      37.827  34.151  29.245  1.00  0.00    -0.206 F 
ATOM     77  C   UNL A   1      34.302  34.791  29.733  1.00  0.00     0.060 A 
BRANCH  77  78
ATOM     78  S   UNL A   1      32.971  35.784  29.021  1.00  0.00     0.124 S 
ATOM     79  O   UNL A   1      32.361  34.838  28.094  1.00  0.00    -0.237 OA
ATOM     80  O   UNL A   1      32.180  36.125  30.199  1.00  0.00    -0.237 OA
ATOM     81  O   UNL A   1      33.680  36.904  28.409  1.00  0.00    -0.744 OA
ENDBRANCH  77  78
ENDBRANCH  45  70
BRANCH  57  82
ATOM     82  C   UNL A   1      39.836  34.361  36.921  1.00  0.00     0.058 A 
ATOM     83  C   UNL A   1      40.535  35.570  36.787  1.00  0.00     0.135 A 
ATOM     84  C   UNL A   1      39.011  34.201  38.045  1.00  0.00     0.135 A 
ATOM     85  F   UNL A   1      41.344  35.770  35.732  1.00  0.00    -0.206 F 
ATOM     86  C   UNL A   1      40.432  36.579  37.739  1.00  0.00     0.059 A 
ATOM     87  C   UNL A   1      38.874  35.204  38.998  1.00  0.00     0.059 A 
ATOM     88  F   UNL A   1      38.312  33.066  38.214  1.00  0.00    -0.206 F 
ATOM     89  C   UNL A   1      39.597  36.387  38.841  1.00  0.00     0.060 A 
BRANCH  89  90
ATOM     90  S   UNL A   1      39.439  37.717  40.052  1.00  0.00     0.124 S 
ATOM     91  O   UNL A   1      38.250  38.410  39.572  1.00  0.00    -0.237 OA
ATOM     92  O   UNL A   1      39.283  36.984  41.304  1.00  0.00    -0.237 OA
ATOM     93  O   UNL A   1      40.693  38.452  39.915  1.00  0.00    -0.744 OA
ENDBRANCH  89  90
ENDBRANCH  57  82
ENDBRANCH  31  32
ENDBRANCH  23  26
ENDBRANCH  21  22
ENDBRANCH  20  21
ENDBRANCH   1  20
TORSDOF 18
ENDMDL
MODEL 2
REMARK VINA RESULT:     -11.1      4.660     10.652
REMARK SMILES CC(C)CCC(=O)N1CC[C@H](C(=O)NCCCCNC(=O)c2ccc(-c3c4nc(c(-c5c(F)cc(S(=O)(=O)[O-])cc5F)c5ccc([nH]5)c(-c5c(F)cc(S(=O)(=O)[O-])cc5F)c5nc(c(-c6c(F)cc(S(=O)(=O)[O-])cc6F)c6ccc3[nH]6)C=C5)C=C4)cc2)[C@H]1C
REMARK SMILES IDX 16 1 15 2 14 3 12 4 13 5 11 7 8 8 9 9 88 10 10 11 89 12 6 13
REMARK SMILES IDX 7 14 5 15 4 16 2 17 1 18 3 19 17 20 18 21 19 22 20 23 21 25
REMARK SMILES IDX 22 26 23 27 87 28 24 29 86 30 25 31 26 32 27 33 80 34 28 35
REMARK SMILES IDX 85 36 79 37 81 38 29 39 84 40 78 41 77 42 30 44 64 45 43 46
REMARK SMILES IDX 63 47 44 48 47 49 62 50 82 51 45 52 46 53 61 55 83 56 48 57
REMARK SMILES IDX 31 58 32 59 41 60 33 61 34 62 40 63 42 64 35 65 36 66 37 67
REMARK SMILES IDX 38 68 39 69 65 70 66 71 75 72 67 73 68 74 74 75 76 76 69 77
REMARK SMILES IDX 70 78 71 79 72 80 73 81 49 82 50 83 59 84 51 85 52 86 58 87
REMARK SMILES IDX 60 88 53 89 54 90 55 91 56 92 57 93
REMARK H PARENT 14 6 19 24 81 43 47 54
REMARK Flexibility Score: inf
ROOT
ATOM      1  C   UNL A   1      31.291  27.065  26.811  1.00  0.00     0.023 C 
ENDROOT
BRANCH   1   2
ATOM      2  C   UNL A   1      30.576  26.177  25.796  1.00  0.00     0.116 C 
BRANCH   2   3
ATOM      3  N   UNL A   1      30.171  24.901  26.343  1.00  0.00    -0.356 N 
ATOM      4  C   UNL A   1      30.880  23.871  26.863  1.00  0.00     0.225 C 
ATOM      5  O   UNL A   1      30.218  22.970  27.395  1.00  0.00    -0.275 OA
ATOM      6  H   UNL A   1      29.198  24.752  26.335  1.00  0.00     0.163 HD
BRANCH   4   7
ATOM      7  C   UNL A   1      32.403  23.740  26.838  1.00  0.00     0.102 C 
ATOM      8  N   UNL A   1      33.417  22.025  25.550  1.00  0.00    -0.339 N 
ATOM      9  C   UNL A   1      33.516  21.584  26.933  1.00  0.00     0.120 C 
ATOM     10  C   UNL A   1      33.056  23.439  25.482  1.00  0.00     0.094 C 
ATOM     11  C   UNL A   1      33.029  22.737  27.800  1.00  0.00     0.037 C 
ATOM     12  C   UNL A   1      34.316  24.299  25.332  1.00  0.00     0.032 C 
BRANCH   8  13
ATOM     13  C   UNL A   1      33.391  21.089  24.536  1.00  0.00     0.222 C 
ATOM     14  O   UNL A   1      32.730  21.303  23.513  1.00  0.00    -0.275 OA
BRANCH  13  15
ATOM     15  C   UNL A   1      34.009  19.704  24.726  1.00  0.00     0.100 C 
BRANCH  15  16
ATOM     16  C   UNL A   1      33.209  18.422  24.480  1.00  0.00     0.013 C 
BRANCH  16  17
ATOM     17  C   UNL A   1      34.011  17.102  24.446  1.00  0.00    -0.017 C 
ATOM     18  C   UNL A   1      33.420  15.978  25.300  1.00  0.00     0.007 C 
ATOM     19  C   UNL A   1      34.189  16.603  23.009  1.00  0.00     0.007 C 
ENDBRANCH  16  17
ENDBRANCH  15  16
ENDBRANCH  13  15
ENDBRANCH   8  13
ENDBRANCH   4   7
ENDBRANCH   2   3
ENDBRANCH   1   2
BRANCH   1  20
ATOM     20  C   UNL A   1      32.262  28.078  26.218  1.00  0.00     0.023 C 
BRANCH  20  21
ATOM     21  C   UNL A   1      33.351  28.549  27.170  1.00  0.00     0.116 C 
BRANCH  21  22
ATOM     22  N   UNL A   1      33.291  29.971  27.485  1.00  0.00    -0.352 N 
ATOM     23  C   UNL A   1      34.289  30.750  28.022  1.00  0.00     0.251 C 
ATOM     24  H   UNL A   1      32.440  30.425  27.290  1.00  0.00     0.163 HD
ATOM     25  O   UNL A   1      34.087  31.923  28.323  1.00  0.00    -0.269 OA
BRANCH  23  26
ATOM     26  C   UNL A   1      35.603  30.127  28.273  1.00  0.00     0.039 A 
ATOM     27  C   UNL A   1      36.552  30.112  27.251  1.00  0.00     0.014 A 
ATOM     28  C   UNL A   1      35.920  29.663  29.553  1.00  0.00     0.014 A 
ATOM     29  C   UNL A   1      37.854  29.700  27.536  1.00  0.00     0.010 A 
ATOM     30  C   UNL A   1      37.235  29.335  29.853  1.00  0.00     0.010 A 
ATOM     31  C   UNL A   1      38.215  29.351  28.848  1.00  0.00    -0.014 A 
BRANCH  31  32
ATOM     32  C   UNL A   1      39.614  29.006  29.199  1.00  0.00     0.031 A 
ATOM     33  C   UNL A   1      40.503  30.037  29.835  1.00  0.00     0.074 A 
ATOM     34  C   UNL A   1      40.110  27.801  28.855  1.00  0.00     0.049 A 
ATOM     35  N   UNL A   1      41.771  29.957  30.142  1.00  0.00    -0.248 NA
ATOM     36  C   UNL A   1      39.895  31.345  30.127  1.00  0.00     0.031 C 
ATOM     37  C   UNL A   1      39.368  26.749  28.155  1.00  0.00     0.029 A 
ATOM     38  N   UNL A   1      41.361  27.266  29.027  1.00  0.00    -0.354 N 
ATOM     39  C   UNL A   1      42.119  31.209  30.633  1.00  0.00     0.074 A 
ATOM     40  C   UNL A   1      40.943  32.045  30.534  1.00  0.00     0.031 C 
ATOM     41  C   UNL A   1      40.175  25.692  27.968  1.00  0.00     0.029 A 
ATOM     42  C   UNL A   1      41.496  25.999  28.510  1.00  0.00     0.049 A 
ATOM     43  H   UNL A   1      42.093  27.744  29.478  1.00  0.00     0.167 HD
ATOM     44  C   UNL A   1      43.306  31.620  31.140  1.00  0.00     0.037 A 
ATOM     45  C   UNL A   1      42.564  25.179  28.472  1.00  0.00     0.037 A 
ATOM     46  C   UNL A   1      44.458  30.768  31.274  1.00  0.00     0.049 A 
ATOM     47  C   UNL A   1      43.853  25.628  29.102  1.00  0.00     0.074 A 
ATOM     48  C   UNL A   1      45.673  31.052  31.870  1.00  0.00     0.029 A 
ATOM     49  N   UNL A   1      44.536  29.466  30.802  1.00  0.00    -0.354 N 
ATOM     50  N   UNL A   1      44.139  26.782  29.655  1.00  0.00    -0.248 NA
ATOM     51  C   UNL A   1      44.959  24.662  29.116  1.00  0.00     0.031 C 
ATOM     52  C   UNL A   1      46.501  29.932  31.725  1.00  0.00     0.029 A 
ATOM     53  C   UNL A   1      45.786  28.938  31.075  1.00  0.00     0.049 A 
ATOM     54  H   UNL A   1      43.809  28.986  30.342  1.00  0.00     0.167 HD
ATOM     55  C   UNL A   1      45.451  26.678  30.098  1.00  0.00     0.074 A 
ATOM     56  C   UNL A   1      45.900  25.342  29.760  1.00  0.00     0.031 C 
ATOM     57  C   UNL A   1      46.216  27.604  30.727  1.00  0.00     0.037 A 
BRANCH  44  58
ATOM     58  C   UNL A   1      43.407  33.053  31.582  1.00  0.00     0.058 A 
ATOM     59  C   UNL A   1      43.776  34.077  30.695  1.00  0.00     0.135 A 
ATOM     60  C   UNL A   1      43.143  33.406  32.915  1.00  0.00     0.135 A 
ATOM     61  F   UNL A   1      44.054  33.794  29.412  1.00  0.00    -0.206 F 
ATOM     62  C   UNL A   1      43.931  35.392  31.124  1.00  0.00     0.059 A 
ATOM     63  C   UNL A   1      43.262  34.720  33.360  1.00  0.00     0.059 A 
ATOM     64  F   UNL A   1      42.785  32.468  33.806  1.00  0.00    -0.206 F 
ATOM     65  C   UNL A   1      43.680  35.701  32.461  1.00  0.00     0.060 A 
BRANCH  65  66
ATOM     66  S   UNL A   1      43.916  37.403  33.014  1.00  0.00     0.124 S 
ATOM     67  O   UNL A   1      42.791  37.568  33.928  1.00  0.00    -0.237 OA
ATOM     68  O   UNL A   1      45.235  37.353  33.637  1.00  0.00    -0.237 OA
ATOM     69  O   UNL A   1      43.840  38.174  31.778  1.00  0.00    -0.744 OA
ENDBRANCH  65  66
ENDBRANCH  44  58
BRANCH  45  70
ATOM     70  C   UNL A   1      42.434  23.839  27.842  1.00  0.00     0.058 A 
ATOM     71  C   UNL A   1      42.494  23.687  26.449  1.00  0.00     0.135 A 
ATOM     72  C   UNL A   1      42.311  22.680  28.624  1.00  0.00     0.135 A 
ATOM     73  F   UNL A   1      42.605  24.768  25.662  1.00  0.00    -0.206 F 
ATOM     74  C   UNL A   1      42.440  22.432  25.852  1.00  0.00     0.059 A 
ATOM     75  C   UNL A   1      42.276  21.413  28.050  1.00  0.00     0.059 A 
ATOM     76  F   UNL A   1      42.268  22.773  29.962  1.00  0.00    -0.206 F 
ATOM     77  C   UNL A   1      42.340  21.300  26.661  1.00  0.00     0.060 A 
BRANCH  77  78
ATOM     78  S   UNL A   1      42.366  19.671  25.880  1.00  0.00     0.124 S 
ATOM     79  O   UNL A   1      40.988  19.543  25.422  1.00  0.00    -0.237 OA
ATOM     80  O   UNL A   1      43.373  19.846  24.838  1.00  0.00    -0.237 OA
ATOM     81  O   UNL A   1      42.756  18.782  26.971  1.00  0.00    -0.744 OA
ENDBRANCH  77  78
ENDBRANCH  45  70
BRANCH  57  82
ATOM     82  C   UNL A   1      47.613  27.203  31.110  1.00  0.00     0.058 A 
ATOM     83  C   UNL A   1      47.906  26.684  32.380  1.00  0.00     0.135 A 
ATOM     84  C   UNL A   1      48.657  27.283  30.176  1.00  0.00     0.135 A 
ATOM     85  F   UNL A   1      46.942  26.593  33.312  1.00  0.00    -0.206 F 
ATOM     86  C   UNL A   1      49.190  26.271  32.717  1.00  0.00     0.059 A 
ATOM     87  C   UNL A   1      49.944  26.855  30.482  1.00  0.00     0.059 A 
ATOM     88  F   UNL A   1      48.425  27.764  28.942  1.00  0.00    -0.206 F 
ATOM     89  C   UNL A   1      50.203  26.360  31.760  1.00  0.00     0.060 A 
BRANCH  89  90
ATOM     90  S   UNL A   1      51.859  25.785  32.193  1.00  0.00     0.124 S 
ATOM     91  O   UNL A   1      52.697  26.696  31.421  1.00  0.00    -0.237 OA
ATOM     92  O   UNL A   1      51.887  25.972  33.640  1.00  0.00    -0.237 OA
ATOM     93  O   UNL A   1      51.864  24.395  31.747  1.00  0.00    -0.744 OA
ENDBRANCH  89  90
ENDBRANCH  57  82
ENDBRANCH  31  32
ENDBRANCH  23  26
ENDBRANCH  21  22
ENDBRANCH  20  21
ENDBRANCH   1  20
TORSDOF 18
ENDMDL
MODEL 3
REMARK VINA RESULT:     -11.1      4.972      9.919
REMARK SMILES CC(C)CCC(=O)N1CC[C@H](C(=O)NCCCCNC(=O)c2ccc(-c3c4nc(c(-c5c(F)cc(S(=O)(=O)[O-])cc5F)c5ccc([nH]5)c(-c5c(F)cc(S(=O)(=O)[O-])cc5F)c5nc(c(-c6c(F)cc(S(=O)(=O)[O-])cc6F)c6ccc3[nH]6)C=C5)C=C4)cc2)[C@H]1C
REMARK SMILES IDX 16 1 15 2 14 3 12 4 13 5 11 7 8 8 9 9 88 10 10 11 89 12 6 13
REMARK SMILES IDX 7 14 5 15 4 16 2 17 1 18 3 19 17 20 18 21 19 22 20 23 21 25
REMARK SMILES IDX 22 26 23 27 87 28 24 29 86 30 25 31 26 32 27 33 80 34 28 35
REMARK SMILES IDX 85 36 79 37 81 38 29 39 84 40 78 41 77 42 30 44 64 45 43 46
REMARK SMILES IDX 63 47 44 48 47 49 62 50 82 51 45 52 46 53 61 55 83 56 48 57
REMARK SMILES IDX 31 58 32 59 41 60 33 61 34 62 40 63 42 64 35 65 36 66 37 67
REMARK SMILES IDX 38 68 39 69 65 70 66 71 75 72 67 73 68 74 74 75 76 76 69 77
REMARK SMILES IDX 70 78 71 79 72 80 73 81 49 82 50 83 59 84 51 85 52 86 58 87
REMARK SMILES IDX 60 88 53 89 54 90 55 91 56 92 57 93
REMARK H PARENT 14 6 19 24 81 43 47 54
REMARK Flexibility Score: inf
ROOT
ATOM      1  C   UNL A   1      33.430  29.332  24.803  1.00  0.00     0.023 C 
ENDROOT
BRANCH   1   2
ATOM      2  C   UNL A   1      32.893  28.883  23.447  1.00  0.00     0.116 C 
BRANCH   2   3
ATOM      3  N   UNL A   1      33.573  27.719  22.923  1.00  0.00    -0.356 N 
ATOM      4  C   UNL A   1      33.190  26.427  22.795  1.00  0.00     0.225 C 
ATOM      5  O   UNL A   1      33.957  25.694  22.156  1.00  0.00    -0.275 OA
ATOM      6  H   UNL A   1      34.485  27.900  22.601  1.00  0.00     0.163 HD
BRANCH   4   7
ATOM      7  C   UNL A   1      31.912  25.818  23.370  1.00  0.00     0.102 C 
ATOM      8  N   UNL A   1      32.056  24.121  25.023  1.00  0.00    -0.339 N 
ATOM      9  C   UNL A   1      31.689  23.437  23.792  1.00  0.00     0.120 C 
ATOM     10  C   UNL A   1      31.879  25.564  24.884  1.00  0.00     0.094 C 
ATOM     11  C   UNL A   1      31.422  24.515  22.750  1.00  0.00     0.037 C 
ATOM     12  C   UNL A   1      30.510  25.984  25.432  1.00  0.00     0.032 C 
BRANCH   8  13
ATOM     13  C   UNL A   1      32.740  23.435  26.006  1.00  0.00     0.222 C 
ATOM     14  O   UNL A   1      32.151  22.597  26.699  1.00  0.00    -0.275 OA
BRANCH  13  15
ATOM     15  C   UNL A   1      34.166  23.823  26.391  1.00  0.00     0.100 C 
BRANCH  15  16
ATOM     16  C   UNL A   1      35.193  24.267  25.346  1.00  0.00     0.013 C 
BRANCH  16  17
ATOM     17  C   UNL A   1      36.363  23.296  25.068  1.00  0.00    -0.017 C 
ATOM     18  C   UNL A   1      36.643  23.049  23.584  1.00  0.00     0.007 C 
ATOM     19  C   UNL A   1      37.646  23.773  25.751  1.00  0.00     0.007 C 
ENDBRANCH  16  17
ENDBRANCH  15  16
ENDBRANCH  13  15
ENDBRANCH   8  13
ENDBRANCH   4   7
ENDBRANCH   2   3
ENDBRANCH   1   2
BRANCH   1  20
ATOM     20  C   UNL A   1      34.030  28.226  25.663  1.00  0.00     0.023 C 
BRANCH  20  21
ATOM     21  C   UNL A   1      33.712  28.330  27.146  1.00  0.00     0.116 C 
BRANCH  21  22
ATOM     22  N   UNL A   1      33.555  29.698  27.625  1.00  0.00    -0.352 N 
ATOM     23  C   UNL A   1      34.518  30.500  28.193  1.00  0.00     0.251 C 
ATOM     24  H   UNL A   1      32.658  30.093  27.531  1.00  0.00     0.163 HD
ATOM     25  O   UNL A   1      34.239  31.609  28.637  1.00  0.00    -0.269 OA
BRANCH  23  26
ATOM     26  C   UNL A   1      35.892  29.973  28.298  1.00  0.00     0.039 A 
ATOM     27  C   UNL A   1      36.751  30.099  27.206  1.00  0.00     0.014 A 
ATOM     28  C   UNL A   1      36.349  29.460  29.515  1.00  0.00     0.014 A 
ATOM     29  C   UNL A   1      38.100  29.780  27.361  1.00  0.00     0.010 A 
ATOM     30  C   UNL A   1      37.706  29.224  29.689  1.00  0.00     0.010 A 
ATOM     31  C   UNL A   1      38.595  29.383  28.614  1.00  0.00    -0.014 A 
BRANCH  31  32
ATOM     32  C   UNL A   1      40.041  29.133  28.831  1.00  0.00     0.031 A 
ATOM     33  C   UNL A   1      40.633  27.799  28.474  1.00  0.00     0.074 A 
ATOM     34  C   UNL A   1      40.795  30.071  29.438  1.00  0.00     0.049 A 
ATOM     35  N   UNL A   1      41.850  27.360  28.659  1.00  0.00    -0.248 NA
ATOM     36  C   UNL A   1      39.724  26.815  27.865  1.00  0.00     0.031 C 
ATOM     37  C   UNL A   1      40.313  31.371  29.910  1.00  0.00     0.029 A 
ATOM     38  N   UNL A   1      42.122  30.065  29.783  1.00  0.00    -0.354 N 
ATOM     39  C   UNL A   1      41.845  26.042  28.220  1.00  0.00     0.074 A 
ATOM     40  C   UNL A   1      40.492  25.738  27.808  1.00  0.00     0.031 C 
ATOM     41  C   UNL A   1      41.332  32.041  30.472  1.00  0.00     0.029 A 
ATOM     42  C   UNL A   1      42.532  31.210  30.424  1.00  0.00     0.049 A 
ATOM     43  H   UNL A   1      42.726  29.311  29.590  1.00  0.00     0.167 HD
ATOM     44  C   UNL A   1      42.879  25.170  28.147  1.00  0.00     0.037 A 
ATOM     45  C   UNL A   1      43.736  31.551  30.923  1.00  0.00     0.037 A 
ATOM     46  C   UNL A   1      44.230  25.497  28.519  1.00  0.00     0.049 A 
ATOM     47  C   UNL A   1      44.887  30.597  30.770  1.00  0.00     0.074 A 
ATOM     48  C   UNL A   1      45.369  24.724  28.386  1.00  0.00     0.029 A 
ATOM     49  N   UNL A   1      44.621  26.694  29.101  1.00  0.00    -0.354 N 
ATOM     50  N   UNL A   1      44.891  29.389  30.259  1.00  0.00    -0.248 NA
ATOM     51  C   UNL A   1      46.199  31.053  31.247  1.00  0.00     0.031 C 
ATOM     52  C   UNL A   1      46.446  25.441  28.922  1.00  0.00     0.029 A 
ATOM     53  C   UNL A   1      45.983  26.675  29.352  1.00  0.00     0.049 A 
ATOM     54  H   UNL A   1      44.020  27.446  29.305  1.00  0.00     0.167 HD
ATOM     55  C   UNL A   1      46.205  28.945  30.337  1.00  0.00     0.074 A 
ATOM     56  C   UNL A   1      46.972  30.021  30.933  1.00  0.00     0.031 C 
ATOM     57  C   UNL A   1      46.729  27.756  29.950  1.00  0.00     0.037 A 
BRANCH  44  58
ATOM     58  C   UNL A   1      42.578  23.785  27.646  1.00  0.00     0.058 A 
ATOM     59  C   UNL A   1      42.339  22.716  28.525  1.00  0.00     0.135 A 
ATOM     60  C   UNL A   1      42.540  23.520  26.268  1.00  0.00     0.135 A 
ATOM     61  F   UNL A   1      42.378  22.910  29.853  1.00  0.00    -0.206 F 
ATOM     62  C   UNL A   1      42.125  21.423  28.058  1.00  0.00     0.059 A 
ATOM     63  C   UNL A   1      42.297  22.240  25.777  1.00  0.00     0.059 A 
ATOM     64  F   UNL A   1      42.759  24.505  25.383  1.00  0.00    -0.206 F 
ATOM     65  C   UNL A   1      42.115  21.194  26.681  1.00  0.00     0.060 A 
BRANCH  65  66
ATOM     66  S   UNL A   1      41.869  19.508  26.087  1.00  0.00     0.124 S 
ATOM     67  O   UNL A   1      42.259  18.728  27.258  1.00  0.00    -0.237 OA
ATOM     68  O   UNL A   1      40.447  19.492  25.762  1.00  0.00    -0.237 OA
ATOM     69  O   UNL A   1      42.770  19.417  24.943  1.00  0.00    -0.744 OA
ENDBRANCH  65  66
ENDBRANCH  44  58
BRANCH  45  70
ATOM     70  C   UNL A   1      43.907  32.873  31.578  1.00  0.00     0.058 A 
ATOM     71  C   UNL A   1      44.179  34.024  30.824  1.00  0.00     0.135 A 
ATOM     72  C   UNL A   1      43.738  33.023  32.964  1.00  0.00     0.135 A 
ATOM     73  F   UNL A   1      44.354  33.928  29.497  1.00  0.00    -0.206 F 
ATOM     74  C   UNL A   1      44.275  35.278  31.418  1.00  0.00     0.059 A 
ATOM     75  C   UNL A   1      43.809  34.270  33.577  1.00  0.00     0.059 A 
ATOM     76  F   UNL A   1      43.458  31.955  33.726  1.00  0.00    -0.206 F 
ATOM     77  C   UNL A   1      44.079  35.393  32.795  1.00  0.00     0.060 A 
BRANCH  77  78
ATOM     78  S   UNL A   1      44.114  37.037  33.541  1.00  0.00     0.124 S 
ATOM     79  O   UNL A   1      43.023  36.946  34.504  1.00  0.00    -0.237 OA
ATOM     80  O   UNL A   1      45.460  37.091  34.103  1.00  0.00    -0.237 OA
ATOM     81  O   UNL A   1      43.883  37.925  32.405  1.00  0.00    -0.744 OA
ENDBRANCH  77  78
ENDBRANCH  45  70
BRANCH  57  82
ATOM     82  C   UNL A   1      48.206  27.557  30.142  1.00  0.00     0.058 A 
ATOM     83  C   UNL A   1      48.717  26.886  31.263  1.00  0.00     0.135 A 
ATOM     84  C   UNL A   1      49.116  27.987  29.163  1.00  0.00     0.135 A 
ATOM     85  F   UNL A   1      47.888  26.460  32.231  1.00  0.00    -0.206 F 
ATOM     86  C   UNL A   1      50.081  26.662  31.417  1.00  0.00     0.059 A 
ATOM     87  C   UNL A   1      50.481  27.755  29.284  1.00  0.00     0.059 A 
ATOM     88  F   UNL A   1      48.676  28.625  28.066  1.00  0.00    -0.206 F 
ATOM     89  C   UNL A   1      50.955  27.099  30.420  1.00  0.00     0.060 A 
BRANCH  89  90
ATOM     90  S   UNL A   1      52.721  26.770  30.609  1.00  0.00     0.124 S 
ATOM     91  O   UNL A   1      52.713  25.680  31.578  1.00  0.00    -0.237 OA
ATOM     92  O   UNL A   1      53.120  26.410  29.253  1.00  0.00    -0.237 OA
ATOM     93  O   UNL A   1      53.253  28.040  31.097  1.00  0.00    -0.744 OA
ENDBRANCH  89  90
ENDBRANCH  57  82
ENDBRANCH  31  32
ENDBRANCH  23  26
ENDBRANCH  21  22
ENDBRANCH  20  21
ENDBRANCH   1  20
TORSDOF 18
ENDMDL
