MODEL 1
REMARK VINA RESULT:     -12.5      0.000      0.000
REMARK SMILES O=C(NCCCCNC(=O)c1ccc(F)cc1NC(=O)[C@H]1CCS(=O)(=O)C1)c1ccc(-c2c3nc(c(-c4c(F)cc(S(=O)(=O)[O-])cc4F)c4ccc([nH]4)c(-c4c(F)cc(S(=O)(=O)[O-])cc4F)c4nc(c(-c5c(F)cc(S(=O)(=O)[O-])cc5F)c5ccc2[nH]5)C=C4)C=C3)cc1
REMARK SMILES IDX 5 1 4 2 3 3 1 4 2 5 28 7 29 8 93 9 30 10 92 11 31 12 32 13
REMARK SMILES IDX 33 14 86 15 34 16 91 17 85 18 87 19 35 20 90 21 84 22 83 23
REMARK SMILES IDX 36 25 70 26 49 27 69 28 50 29 53 30 68 31 88 32 51 33 52 34
REMARK SMILES IDX 67 36 89 37 54 38 37 39 38 40 47 41 39 42 40 43 46 44 48 45
REMARK SMILES IDX 41 46 42 47 43 48 44 49 45 50 71 51 72 52 81 53 73 54 74 55
REMARK SMILES IDX 80 56 82 57 75 58 76 59 77 60 78 61 79 62 55 63 56 64 65 65
REMARK SMILES IDX 57 66 58 67 64 68 66 69 59 70 60 71 61 72 62 73 63 74 6 75
REMARK SMILES IDX 7 76 8 77 9 78 10 80 11 81 12 82 17 83 13 84 16 85 14 86
REMARK SMILES IDX 15 87 18 88 19 89 20 91 21 92 22 93 27 94 23 95 24 96 25 97
REMARK SMILES IDX 26 98
REMARK H PARENT 3 6 87 24 53 35 8 79 18 90
REMARK Flexibility Score: inf
ROOT
ATOM      1  C   UNL A   1      33.845  28.727  27.301  1.00  0.00     0.023 C 
ENDROOT
BRANCH   1   2
ATOM      2  C   UNL A   1      35.223  29.278  27.642  1.00  0.00     0.116 C 
BRANCH   2   3
ATOM      3  N   UNL A   1      35.205  30.155  28.803  1.00  0.00    -0.352 N 
ATOM      4  O   UNL A   1      35.979  31.093  30.701  1.00  0.00    -0.269 OA
ATOM      5  C   UNL A   1      36.221  30.455  29.680  1.00  0.00     0.251 C 
ATOM      6  H   UNL A   1      34.345  30.596  28.987  1.00  0.00     0.163 HD
BRANCH   5   7
ATOM      7  C   UNL A   1      37.594  29.986  29.397  1.00  0.00     0.039 A 
ATOM      8  C   UNL A   1      38.403  29.494  30.424  1.00  0.00     0.014 A 
ATOM      9  C   UNL A   1      38.076  30.047  28.087  1.00  0.00     0.014 A 
ATOM     10  C   UNL A   1      39.737  29.198  30.171  1.00  0.00     0.010 A 
ATOM     11  C   UNL A   1      39.393  29.663  27.820  1.00  0.00     0.010 A 
ATOM     12  C   UNL A   1      40.241  29.261  28.863  1.00  0.00    -0.014 A 
BRANCH  12  13
ATOM     13  C   UNL A   1      41.634  28.828  28.586  1.00  0.00     0.031 A 
ATOM     14  C   UNL A   1      42.773  29.805  28.626  1.00  0.00     0.074 A 
ATOM     15  C   UNL A   1      41.856  27.538  28.274  1.00  0.00     0.049 A 
ATOM     16  N   UNL A   1      44.037  29.604  28.352  1.00  0.00    -0.248 NA
ATOM     17  C   UNL A   1      42.456  31.187  29.018  1.00  0.00     0.031 C 
ATOM     18  C   UNL A   1      40.822  26.501  28.204  1.00  0.00     0.029 A 
ATOM     19  N   UNL A   1      43.013  26.873  27.954  1.00  0.00    -0.354 N 
ATOM     20  C   UNL A   1      44.663  30.835  28.510  1.00  0.00     0.074 A 
ATOM     21  C   UNL A   1      43.635  31.782  28.887  1.00  0.00     0.031 C 
ATOM     22  C   UNL A   1      41.393  25.331  27.887  1.00  0.00     0.029 A 
ATOM     23  C   UNL A   1      42.818  25.546  27.659  1.00  0.00     0.049 A 
ATOM     24  H   UNL A   1      43.896  27.307  27.936  1.00  0.00     0.167 HD
ATOM     25  C   UNL A   1      45.974  31.139  28.354  1.00  0.00     0.037 A 
ATOM     26  C   UNL A   1      43.677  24.606  27.219  1.00  0.00     0.037 A 
ATOM     27  C   UNL A   1      46.983  30.177  27.987  1.00  0.00     0.049 A 
ATOM     28  C   UNL A   1      45.116  24.973  27.011  1.00  0.00     0.074 A 
ATOM     29  C   UNL A   1      48.347  30.374  27.859  1.00  0.00     0.029 A 
ATOM     30  N   UNL A   1      46.741  28.847  27.671  1.00  0.00    -0.354 N 
ATOM     31  N   UNL A   1      45.701  26.130  27.207  1.00  0.00    -0.248 NA
ATOM     32  C   UNL A   1      46.012  23.919  26.521  1.00  0.00     0.031 C 
ATOM     33  C   UNL A   1      48.918  29.183  27.403  1.00  0.00     0.029 A 
ATOM     34  C   UNL A   1      47.923  28.222  27.311  1.00  0.00     0.049 A 
ATOM     35  H   UNL A   1      45.858  28.411  27.700  1.00  0.00     0.167 HD
ATOM     36  C   UNL A   1      47.037  25.943  26.876  1.00  0.00     0.074 A 
ATOM     37  C   UNL A   1      47.176  24.558  26.475  1.00  0.00     0.031 C 
ATOM     38  C   UNL A   1      48.052  26.839  26.910  1.00  0.00     0.037 A 
BRANCH  25  39
ATOM     39  C   UNL A   1      46.395  32.571  28.543  1.00  0.00     0.058 A 
ATOM     40  C   UNL A   1      46.406  33.456  27.452  1.00  0.00     0.135 A 
ATOM     41  C   UNL A   1      46.835  33.063  29.783  1.00  0.00     0.135 A 
ATOM     42  F   UNL A   1      45.998  33.043  26.242  1.00  0.00    -0.206 F 
ATOM     43  C   UNL A   1      46.837  34.772  27.581  1.00  0.00     0.059 A 
ATOM     44  C   UNL A   1      47.242  34.385  29.943  1.00  0.00     0.059 A 
ATOM     45  F   UNL A   1      46.833  32.267  30.865  1.00  0.00    -0.206 F 
ATOM     46  C   UNL A   1      47.248  35.230  28.833  1.00  0.00     0.060 A 
BRANCH  46  47
ATOM     47  S   UNL A   1      47.735  36.961  28.999  1.00  0.00     0.124 S 
ATOM     48  O   UNL A   1      47.564  37.456  27.638  1.00  0.00    -0.237 OA
ATOM     49  O   UNL A   1      46.776  37.455  29.983  1.00  0.00    -0.237 OA
ATOM     50  O   UNL A   1      49.114  36.879  29.472  1.00  0.00    -0.744 OA
ENDBRANCH  46  47
ENDBRANCH  25  39
BRANCH  26  51
ATOM     51  C   UNL A   1      43.162  23.238  26.958  1.00  0.00     0.058 A 
ATOM     52  C   UNL A   1      42.935  22.339  28.014  1.00  0.00     0.135 A 
ATOM     53  C   UNL A   1      43.011  22.763  25.649  1.00  0.00     0.135 A 
ATOM     54  F   UNL A   1      43.081  22.742  29.286  1.00  0.00    -0.206 F 
ATOM     55  C   UNL A   1      42.635  21.002  27.779  1.00  0.00     0.059 A 
ATOM     56  C   UNL A   1      42.686  21.435  25.389  1.00  0.00     0.059 A 
ATOM     57  F   UNL A   1      43.208  23.589  24.610  1.00  0.00    -0.206 F 
ATOM     58  C   UNL A   1      42.529  20.556  26.460  1.00  0.00     0.060 A 
BRANCH  58  59
ATOM     59  S   UNL A   1      42.223  18.800  26.177  1.00  0.00     0.124 S 
ATOM     60  O   UNL A   1      42.489  18.240  27.499  1.00  0.00    -0.237 OA
ATOM     61  O   UNL A   1      40.828  18.797  25.753  1.00  0.00    -0.237 OA
ATOM     62  O   UNL A   1      43.193  18.451  25.144  1.00  0.00    -0.744 OA
ENDBRANCH  58  59
ENDBRANCH  26  51
BRANCH  38  63
ATOM     63  C   UNL A   1      49.425  26.370  26.518  1.00  0.00     0.058 A 
ATOM     64  C   UNL A   1      50.278  25.800  27.479  1.00  0.00     0.135 A 
ATOM     65  C   UNL A   1      49.943  26.605  25.236  1.00  0.00     0.135 A 
ATOM     66  F   UNL A   1      49.830  25.554  28.719  1.00  0.00    -0.206 F 
ATOM     67  C   UNL A   1      51.609  25.523  27.194  1.00  0.00     0.059 A 
ATOM     68  C   UNL A   1      51.267  26.311  24.921  1.00  0.00     0.059 A 
ATOM     69  F   UNL A   1      49.164  27.131  24.279  1.00  0.00    -0.206 F 
ATOM     70  C   UNL A   1      52.100  25.795  25.916  1.00  0.00     0.060 A 
BRANCH  70  71
ATOM     71  S   UNL A   1      53.845  25.478  25.583  1.00  0.00     0.124 S 
ATOM     72  O   UNL A   1      54.371  25.260  26.926  1.00  0.00    -0.237 OA
ATOM     73  O   UNL A   1      53.783  24.297  24.727  1.00  0.00    -0.237 OA
ATOM     74  O   UNL A   1      54.293  26.700  24.922  1.00  0.00    -0.744 OA
ENDBRANCH  70  71
ENDBRANCH  38  63
ENDBRANCH  12  13
ENDBRANCH   5   7
ENDBRANCH   2   3
ENDBRANCH   1   2
BRANCH   1  75
ATOM     75  C   UNL A   1      33.660  28.313  25.844  1.00  0.00     0.023 C 
BRANCH  75  76
ATOM     76  C   UNL A   1      33.378  29.460  24.880  1.00  0.00     0.116 C 
BRANCH  76  77
ATOM     77  N   UNL A   1      33.924  29.227  23.550  1.00  0.00    -0.352 N 
ATOM     78  C   UNL A   1      33.416  28.437  22.547  1.00  0.00     0.253 C 
ATOM     79  H   UNL A   1      34.766  29.694  23.343  1.00  0.00     0.163 HD
ATOM     80  O   UNL A   1      34.075  28.173  21.548  1.00  0.00    -0.269 OA
BRANCH  78  81
ATOM     81  C   UNL A   1      32.072  27.843  22.716  1.00  0.00     0.063 A 
ATOM     82  C   UNL A   1      30.966  28.717  22.685  1.00  0.00     0.019 A 
ATOM     83  C   UNL A   1      31.915  26.460  22.951  1.00  0.00     0.056 A 
ATOM     84  C   UNL A   1      29.706  28.253  23.032  1.00  0.00     0.040 A 
ATOM     85  C   UNL A   1      30.649  26.046  23.377  1.00  0.00     0.066 A 
ATOM     86  C   UNL A   1      29.571  26.931  23.412  1.00  0.00     0.125 A 
ATOM     87  F   UNL A   1      28.376  26.483  23.819  1.00  0.00    -0.207 F 
BRANCH  83  88
ATOM     88  N   UNL A   1      33.024  25.595  22.734  1.00  0.00    -0.325 N 
ATOM     89  C   UNL A   1      33.415  24.390  23.253  1.00  0.00     0.228 C 
ATOM     90  H   UNL A   1      33.652  25.942  22.059  1.00  0.00     0.169 HD
ATOM     91  O   UNL A   1      34.436  23.851  22.820  1.00  0.00    -0.274 OA
BRANCH  89  92
ATOM     92  C   UNL A   1      32.622  23.723  24.341  1.00  0.00     0.095 C 
ATOM     93  C   UNL A   1      32.640  22.189  24.356  1.00  0.00     0.030 C 
ATOM     94  C   UNL A   1      33.195  24.105  25.703  1.00  0.00     0.150 C 
ATOM     95  C   UNL A   1      31.866  21.811  25.623  1.00  0.00     0.138 C 
ATOM     96  S   UNL A   1      32.274  23.078  26.824  1.00  0.00     0.151 S 
ATOM     97  O   UNL A   1      31.064  23.788  27.176  1.00  0.00    -0.229 OA
ATOM     98  O   UNL A   1      33.173  22.533  27.820  1.00  0.00    -0.229 OA
ENDBRANCH  89  92
ENDBRANCH  83  88
ENDBRANCH  78  81
ENDBRANCH  76  77
ENDBRANCH  75  76
ENDBRANCH   1  75
TORSDOF 16
ENDMDL
MODEL 2
REMARK VINA RESULT:     -12.3      6.707     12.017
REMARK SMILES O=C(NCCCCNC(=O)c1ccc(F)cc1NC(=O)[C@H]1CCS(=O)(=O)C1)c1ccc(-c2c3nc(c(-c4c(F)cc(S(=O)(=O)[O-])cc4F)c4ccc([nH]4)c(-c4c(F)cc(S(=O)(=O)[O-])cc4F)c4nc(c(-c5c(F)cc(S(=O)(=O)[O-])cc5F)c5ccc2[nH]5)C=C4)C=C3)cc1
REMARK SMILES IDX 5 1 4 2 3 3 1 4 2 5 28 7 29 8 93 9 30 10 92 11 31 12 32 13
REMARK SMILES IDX 33 14 86 15 34 16 91 17 85 18 87 19 35 20 90 21 84 22 83 23
REMARK SMILES IDX 36 25 70 26 49 27 69 28 50 29 53 30 68 31 88 32 51 33 52 34
REMARK SMILES IDX 67 36 89 37 54 38 37 39 38 40 47 41 39 42 40 43 46 44 48 45
REMARK SMILES IDX 41 46 42 47 43 48 44 49 45 50 71 51 72 52 81 53 73 54 74 55
REMARK SMILES IDX 80 56 82 57 75 58 76 59 77 60 78 61 79 62 55 63 56 64 65 65
REMARK SMILES IDX 57 66 58 67 64 68 66 69 59 70 60 71 61 72 62 73 63 74 6 75
REMARK SMILES IDX 7 76 8 77 9 78 10 80 11 81 12 82 17 83 13 84 16 85 14 86
REMARK SMILES IDX 15 87 18 88 19 89 20 91 21 92 22 93 27 94 23 95 24 96 25 97
REMARK SMILES IDX 26 98
REMARK H PARENT 3 6 87 24 53 35 8 79 18 90
REMARK Flexibility Score: inf
ROOT
ATOM      1  C   UNL A   1      37.350  23.591  25.583  1.00  0.00     0.023 C 
ENDROOT
BRANCH   1   2
ATOM      2  C   UNL A   1      38.349  24.137  26.595  1.00  0.00     0.116 C 
BRANCH   2   3
ATOM      3  N   UNL A   1      39.727  24.021  26.143  1.00  0.00    -0.352 N 
ATOM      4  O   UNL A   1      41.871  24.654  25.854  1.00  0.00    -0.269 OA
ATOM      5  C   UNL A   1      40.813  24.803  26.460  1.00  0.00     0.251 C 
ATOM      6  H   UNL A   1      39.908  23.279  25.522  1.00  0.00     0.163 HD
BRANCH   5   7
ATOM      7  C   UNL A   1      40.691  25.833  27.512  1.00  0.00     0.039 A 
ATOM      8  C   UNL A   1      41.531  26.949  27.516  1.00  0.00     0.014 A 
ATOM      9  C   UNL A   1      39.726  25.673  28.510  1.00  0.00     0.014 A 
ATOM     10  C   UNL A   1      41.506  27.830  28.591  1.00  0.00     0.010 A 
ATOM     11  C   UNL A   1      39.643  26.610  29.544  1.00  0.00     0.010 A 
ATOM     12  C   UNL A   1      40.549  27.680  29.606  1.00  0.00    -0.014 A 
BRANCH  12  13
ATOM     13  C   UNL A   1      40.453  28.694  30.687  1.00  0.00     0.031 A 
ATOM     14  C   UNL A   1      41.337  28.623  31.899  1.00  0.00     0.074 A 
ATOM     15  C   UNL A   1      39.537  29.674  30.570  1.00  0.00     0.049 A 
ATOM     16  N   UNL A   1      41.340  29.391  32.958  1.00  0.00    -0.248 NA
ATOM     17  C   UNL A   1      42.341  27.549  31.932  1.00  0.00     0.031 C 
ATOM     18  C   UNL A   1      38.624  29.839  29.435  1.00  0.00     0.029 A 
ATOM     19  N   UNL A   1      39.215  30.712  31.407  1.00  0.00    -0.354 N 
ATOM     20  C   UNL A   1      42.325  28.882  33.796  1.00  0.00     0.074 A 
ATOM     21  C   UNL A   1      42.886  27.726  33.130  1.00  0.00     0.031 C 
ATOM     22  C   UNL A   1      37.865  30.924  29.636  1.00  0.00     0.029 A 
ATOM     23  C   UNL A   1      38.183  31.489  30.942  1.00  0.00     0.049 A 
ATOM     24  H   UNL A   1      39.679  30.882  32.258  1.00  0.00     0.167 HD
ATOM     25  C   UNL A   1      42.719  29.342  35.008  1.00  0.00     0.037 A 
ATOM     26  C   UNL A   1      37.533  32.522  31.512  1.00  0.00     0.037 A 
ATOM     27  C   UNL A   1      42.153  30.502  35.650  1.00  0.00     0.049 A 
ATOM     28  C   UNL A   1      37.956  32.989  32.872  1.00  0.00     0.074 A 
ATOM     29  C   UNL A   1      42.523  31.082  36.851  1.00  0.00     0.029 A 
ATOM     30  N   UNL A   1      41.091  31.248  35.158  1.00  0.00    -0.354 N 
ATOM     31  N   UNL A   1      38.917  32.525  33.634  1.00  0.00    -0.248 NA
ATOM     32  C   UNL A   1      37.211  34.111  33.457  1.00  0.00     0.031 C 
ATOM     33  C   UNL A   1      41.643  32.134  37.116  1.00  0.00     0.029 A 
ATOM     34  C   UNL A   1      40.766  32.256  36.050  1.00  0.00     0.049 A 
ATOM     35  H   UNL A   1      40.635  31.085  34.300  1.00  0.00     0.167 HD
ATOM     36  C   UNL A   1      38.904  33.305  34.783  1.00  0.00     0.074 A 
ATOM     37  C   UNL A   1      37.843  34.277  34.614  1.00  0.00     0.031 C 
ATOM     38  C   UNL A   1      39.704  33.221  35.873  1.00  0.00     0.037 A 
BRANCH  25  39
ATOM     39  C   UNL A   1      43.788  28.577  35.742  1.00  0.00     0.058 A 
ATOM     40  C   UNL A   1      45.145  28.855  35.507  1.00  0.00     0.135 A 
ATOM     41  C   UNL A   1      43.483  27.539  36.638  1.00  0.00     0.135 A 
ATOM     42  F   UNL A   1      45.498  29.835  34.660  1.00  0.00    -0.206 F 
ATOM     43  C   UNL A   1      46.158  28.135  36.130  1.00  0.00     0.059 A 
ATOM     44  C   UNL A   1      44.480  26.825  37.296  1.00  0.00     0.059 A 
ATOM     45  F   UNL A   1      42.203  27.238  36.912  1.00  0.00    -0.206 F 
ATOM     46  C   UNL A   1      45.816  27.124  37.028  1.00  0.00     0.060 A 
BRANCH  46  47
ATOM     47  S   UNL A   1      47.143  26.248  37.884  1.00  0.00     0.124 S 
ATOM     48  O   UNL A   1      48.098  27.319  38.139  1.00  0.00    -0.237 OA
ATOM     49  O   UNL A   1      46.453  25.716  39.055  1.00  0.00    -0.237 OA
ATOM     50  O   UNL A   1      47.567  25.244  36.910  1.00  0.00    -0.744 OA
ENDBRANCH  46  47
ENDBRANCH  25  39
BRANCH  26  51
ATOM     51  C   UNL A   1      36.419  33.161  30.765  1.00  0.00     0.058 A 
ATOM     52  C   UNL A   1      36.676  34.062  29.718  1.00  0.00     0.135 A 
ATOM     53  C   UNL A   1      35.089  32.985  31.166  1.00  0.00     0.135 A 
ATOM     54  F   UNL A   1      37.936  34.277  29.307  1.00  0.00    -0.206 F 
ATOM     55  C   UNL A   1      35.659  34.809  29.136  1.00  0.00     0.059 A 
ATOM     56  C   UNL A   1      34.050  33.702  30.580  1.00  0.00     0.059 A 
ATOM     57  F   UNL A   1      34.796  32.127  32.156  1.00  0.00    -0.206 F 
ATOM     58  C   UNL A   1      34.349  34.633  29.586  1.00  0.00     0.060 A 
BRANCH  58  59
ATOM     59  S   UNL A   1      33.057  35.674  28.876  1.00  0.00     0.124 S 
ATOM     60  O   UNL A   1      32.340  34.718  28.037  1.00  0.00    -0.237 OA
ATOM     61  O   UNL A   1      32.348  36.133  30.065  1.00  0.00    -0.237 OA
ATOM     62  O   UNL A   1      33.806  36.699  28.157  1.00  0.00    -0.744 OA
ENDBRANCH  58  59
ENDBRANCH  26  51
BRANCH  38  63
ATOM     63  C   UNL A   1      39.493  34.211  36.984  1.00  0.00     0.058 A 
ATOM     64  C   UNL A   1      40.053  35.497  36.901  1.00  0.00     0.135 A 
ATOM     65  C   UNL A   1      38.858  33.848  38.181  1.00  0.00     0.135 A 
ATOM     66  F   UNL A   1      40.671  35.894  35.778  1.00  0.00    -0.206 F 
ATOM     67  C   UNL A   1      40.031  36.370  37.982  1.00  0.00     0.059 A 
ATOM     68  C   UNL A   1      38.800  34.716  39.267  1.00  0.00     0.059 A 
ATOM     69  F   UNL A   1      38.291  32.637  38.303  1.00  0.00    -0.206 F 
ATOM     70  C   UNL A   1      39.415  35.965  39.167  1.00  0.00     0.060 A 
BRANCH  70  71
ATOM     71  S   UNL A   1      39.443  37.093  40.576  1.00  0.00     0.124 S 
ATOM     72  O   UNL A   1      40.868  37.149  40.885  1.00  0.00    -0.237 OA
ATOM     73  O   UNL A   1      38.869  38.308  40.007  1.00  0.00    -0.237 OA
ATOM     74  O   UNL A   1      38.611  36.419  41.568  1.00  0.00    -0.744 OA
ENDBRANCH  70  71
ENDBRANCH  38  63
ENDBRANCH  12  13
ENDBRANCH   5   7
ENDBRANCH   2   3
ENDBRANCH   1   2
BRANCH   1  75
ATOM     75  C   UNL A   1      37.631  22.170  25.103  1.00  0.00     0.023 C 
BRANCH  75  76
ATOM     76  C   UNL A   1      36.540  21.155  25.426  1.00  0.00     0.116 C 
BRANCH  76  77
ATOM     77  N   UNL A   1      35.770  21.510  26.611  1.00  0.00    -0.352 N 
ATOM     78  C   UNL A   1      34.465  21.934  26.683  1.00  0.00     0.253 C 
ATOM     79  H   UNL A   1      36.246  21.438  27.470  1.00  0.00     0.163 HD
ATOM     80  O   UNL A   1      33.999  22.388  27.722  1.00  0.00    -0.269 OA
BRANCH  78  81
ATOM     81  C   UNL A   1      33.635  21.900  25.460  1.00  0.00     0.063 A 
ATOM     82  C   UNL A   1      33.007  20.681  25.133  1.00  0.00     0.019 A 
ATOM     83  C   UNL A   1      33.521  23.036  24.629  1.00  0.00     0.056 A 
ATOM     84  C   UNL A   1      32.380  20.530  23.904  1.00  0.00     0.040 A 
ATOM     85  C   UNL A   1      32.957  22.824  23.367  1.00  0.00     0.066 A 
ATOM     86  C   UNL A   1      32.398  21.593  23.020  1.00  0.00     0.125 A 
ATOM     87  F   UNL A   1      31.861  21.444  21.803  1.00  0.00    -0.207 F 
BRANCH  83  88
ATOM     88  N   UNL A   1      33.967  24.295  25.120  1.00  0.00    -0.325 N 
ATOM     89  C   UNL A   1      33.482  25.574  25.058  1.00  0.00     0.228 C 
ATOM     90  H   UNL A   1      34.816  24.232  25.616  1.00  0.00     0.169 HD
ATOM     91  O   UNL A   1      34.090  26.477  25.636  1.00  0.00    -0.274 OA
BRANCH  89  92
ATOM     92  C   UNL A   1      32.226  25.888  24.294  1.00  0.00     0.095 C 
ATOM     93  C   UNL A   1      30.904  25.702  25.050  1.00  0.00     0.030 C 
ATOM     94  C   UNL A   1      32.216  27.363  23.905  1.00  0.00     0.150 C 
ATOM     95  C   UNL A   1      29.834  26.208  24.077  1.00  0.00     0.138 C 
ATOM     96  S   UNL A   1      30.595  27.579  23.207  1.00  0.00     0.151 S 
ATOM     97  O   UNL A   1      30.676  27.248  21.801  1.00  0.00    -0.229 OA
ATOM     98  O   UNL A   1      30.035  28.828  23.681  1.00  0.00    -0.229 OA
ENDBRANCH  89  92
ENDBRANCH  83  88
ENDBRANCH  78  81
ENDBRANCH  76  77
ENDBRANCH  75  76
ENDBRANCH   1  75
TORSDOF 16
ENDMDL
MODEL 3
REMARK VINA RESULT:     -12.3      1.347      2.025
REMARK SMILES O=C(NCCCCNC(=O)c1ccc(F)cc1NC(=O)[C@H]1CCS(=O)(=O)C1)c1ccc(-c2c3nc(c(-c4c(F)cc(S(=O)(=O)[O-])cc4F)c4ccc([nH]4)c(-c4c(F)cc(S(=O)(=O)[O-])cc4F)c4nc(c(-c5c(F)cc(S(=O)(=O)[O-])cc5F)c5ccc2[nH]5)C=C4)C=C3)cc1
REMARK SMILES IDX 5 1 4 2 3 3 1 4 2 5 28 7 29 8 93 9 30 10 92 11 31 12 32 13
REMARK SMILES IDX 33 14 86 15 34 16 91 17 85 18 87 19 35 20 90 21 84 22 83 23
REMARK SMILES IDX 36 25 70 26 49 27 69 28 50 29 53 30 68 31 88 32 51 33 52 34
REMARK SMILES IDX 67 36 89 37 54 38 37 39 38 40 47 41 39 42 40 43 46 44 48 45
REMARK SMILES IDX 41 46 42 47 43 48 44 49 45 50 71 51 72 52 81 53 73 54 74 55
REMARK SMILES IDX 80 56 82 57 75 58 76 59 77 60 78 61 79 62 55 63 56 64 65 65
REMARK SMILES IDX 57 66 58 67 64 68 66 69 59 70 60 71 61 72 62 73 63 74 6 75
REMARK SMILES IDX 7 76 8 77 9 78 10 80 11 81 12 82 17 83 13 84 16 85 14 86
REMARK SMILES IDX 15 87 18 88 19 89 20 91 21 92 22 93 27 94 23 95 24 96 25 97
REMARK SMILES IDX 26 98
REMARK H PARENT 3 6 87 24 53 35 8 79 18 90
REMARK Flexibility Score: inf
ROOT
ATOM      1  C   UNL A   1      35.091  31.193  27.715  1.00  0.00     0.023 C 
ENDROOT
BRANCH   1   2
ATOM      2  C   UNL A   1      36.097  31.781  28.696  1.00  0.00     0.116 C 
BRANCH   2   3
ATOM      3  N   UNL A   1      35.867  31.347  30.065  1.00  0.00    -0.352 N 
ATOM      4  O   UNL A   1      36.190  30.126  31.932  1.00  0.00    -0.269 OA
ATOM      5  C   UNL A   1      36.626  30.512  30.851  1.00  0.00     0.251 C 
ATOM      6  H   UNL A   1      35.053  31.701  30.490  1.00  0.00     0.163 HD
BRANCH   5   7
ATOM      7  C   UNL A   1      37.951  30.065  30.375  1.00  0.00     0.039 A 
ATOM      8  C   UNL A   1      38.941  29.682  31.284  1.00  0.00     0.014 A 
ATOM      9  C   UNL A   1      38.206  30.036  29.002  1.00  0.00     0.014 A 
ATOM     10  C   UNL A   1      40.227  29.408  30.831  1.00  0.00     0.010 A 
ATOM     11  C   UNL A   1      39.475  29.674  28.544  1.00  0.00     0.010 A 
ATOM     12  C   UNL A   1      40.502  29.383  29.455  1.00  0.00    -0.014 A 
BRANCH  12  13
ATOM     13  C   UNL A   1      41.847  28.973  28.978  1.00  0.00     0.031 A 
ATOM     14  C   UNL A   1      42.979  29.957  28.905  1.00  0.00     0.074 A 
ATOM     15  C   UNL A   1      42.031  27.697  28.589  1.00  0.00     0.049 A 
ATOM     16  N   UNL A   1      44.195  29.778  28.458  1.00  0.00    -0.248 NA
ATOM     17  C   UNL A   1      42.712  31.320  29.390  1.00  0.00     0.031 C 
ATOM     18  C   UNL A   1      41.000  26.655  28.616  1.00  0.00     0.029 A 
ATOM     19  N   UNL A   1      43.137  27.056  28.092  1.00  0.00    -0.354 N 
ATOM     20  C   UNL A   1      44.832  31.007  28.580  1.00  0.00     0.074 A 
ATOM     21  C   UNL A   1      43.861  31.930  29.127  1.00  0.00     0.031 C 
ATOM     22  C   UNL A   1      41.528  25.503  28.181  1.00  0.00     0.029 A 
ATOM     23  C   UNL A   1      42.909  25.739  27.774  1.00  0.00     0.049 A 
ATOM     24  H   UNL A   1      44.009  27.497  27.975  1.00  0.00     0.167 HD
ATOM     25  C   UNL A   1      46.110  31.328  28.263  1.00  0.00     0.037 A 
ATOM     26  C   UNL A   1      43.705  24.825  27.187  1.00  0.00     0.037 A 
ATOM     27  C   UNL A   1      47.065  30.390  27.727  1.00  0.00     0.049 A 
ATOM     28  C   UNL A   1      45.102  25.212  26.805  1.00  0.00     0.074 A 
ATOM     29  C   UNL A   1      48.399  30.603  27.428  1.00  0.00     0.029 A 
ATOM     30  N   UNL A   1      46.787  29.071  27.395  1.00  0.00    -0.354 N 
ATOM     31  N   UNL A   1      45.703  26.365  26.966  1.00  0.00    -0.248 NA
ATOM     32  C   UNL A   1      45.928  24.185  26.158  1.00  0.00     0.031 C 
ATOM     33  C   UNL A   1      48.908  29.436  26.853  1.00  0.00     0.029 A 
ATOM     34  C   UNL A   1      47.913  28.471  26.856  1.00  0.00     0.049 A 
ATOM     35  H   UNL A   1      45.918  28.626  27.524  1.00  0.00     0.167 HD
ATOM     36  C   UNL A   1      46.985  26.202  26.454  1.00  0.00     0.074 A 
ATOM     37  C   UNL A   1      47.073  24.835  25.983  1.00  0.00     0.031 C 
ATOM     38  C   UNL A   1      47.992  27.106  26.388  1.00  0.00     0.037 A 
BRANCH  25  39
ATOM     39  C   UNL A   1      46.548  32.756  28.451  1.00  0.00     0.058 A 
ATOM     40  C   UNL A   1      46.425  33.678  27.398  1.00  0.00     0.135 A 
ATOM     41  C   UNL A   1      47.133  33.207  29.646  1.00  0.00     0.135 A 
ATOM     42  F   UNL A   1      45.875  33.305  26.232  1.00  0.00    -0.206 F 
ATOM     43  C   UNL A   1      46.865  34.992  27.521  1.00  0.00     0.059 A 
ATOM     44  C   UNL A   1      47.553  34.525  29.802  1.00  0.00     0.059 A 
ATOM     45  F   UNL A   1      47.263  32.373  30.691  1.00  0.00    -0.206 F 
ATOM     46  C   UNL A   1      47.423  35.409  28.730  1.00  0.00     0.060 A 
BRANCH  46  47
ATOM     47  S   UNL A   1      47.922  37.136  28.898  1.00  0.00     0.124 S 
ATOM     48  O   UNL A   1      46.659  37.785  29.227  1.00  0.00    -0.237 OA
ATOM     49  O   UNL A   1      48.905  37.067  29.976  1.00  0.00    -0.237 OA
ATOM     50  O   UNL A   1      48.472  37.456  27.583  1.00  0.00    -0.744 OA
ENDBRANCH  46  47
ENDBRANCH  25  39
BRANCH  26  51
ATOM     51  C   UNL A   1      43.164  23.463  26.943  1.00  0.00     0.058 A 
ATOM     52  C   UNL A   1      43.073  22.525  27.986  1.00  0.00     0.135 A 
ATOM     53  C   UNL A   1      42.852  23.033  25.647  1.00  0.00     0.135 A 
ATOM     54  F   UNL A   1      43.376  22.884  29.243  1.00  0.00    -0.206 F 
ATOM     55  C   UNL A   1      42.750  21.195  27.741  1.00  0.00     0.059 A 
ATOM     56  C   UNL A   1      42.500  21.714  25.381  1.00  0.00     0.059 A 
ATOM     57  F   UNL A   1      42.916  23.898  24.622  1.00  0.00    -0.206 F 
ATOM     58  C   UNL A   1      42.480  20.796  26.431  1.00  0.00     0.060 A 
BRANCH  58  59
ATOM     59  S   UNL A   1      42.146  19.049  26.125  1.00  0.00     0.124 S 
ATOM     60  O   UNL A   1      43.044  18.772  25.008  1.00  0.00    -0.237 OA
ATOM     61  O   UNL A   1      42.509  18.441  27.400  1.00  0.00    -0.237 OA
ATOM     62  O   UNL A   1      40.722  19.029  25.803  1.00  0.00    -0.744 OA
ENDBRANCH  58  59
ENDBRANCH  26  51
BRANCH  38  63
ATOM     63  C   UNL A   1      49.302  26.663  25.799  1.00  0.00     0.058 A 
ATOM     64  C   UNL A   1      50.263  26.032  26.607  1.00  0.00     0.135 A 
ATOM     65  C   UNL A   1      49.660  26.983  24.481  1.00  0.00     0.135 A 
ATOM     66  F   UNL A   1      49.970  25.704  27.875  1.00  0.00    -0.206 F 
ATOM     67  C   UNL A   1      51.547  25.775  26.142  1.00  0.00     0.059 A 
ATOM     68  C   UNL A   1      50.932  26.710  23.985  1.00  0.00     0.059 A 
ATOM     69  F   UNL A   1      48.772  27.571  23.664  1.00  0.00    -0.206 F 
ATOM     70  C   UNL A   1      51.877  26.131  24.833  1.00  0.00     0.060 A 
BRANCH  70  71
ATOM     71  S   UNL A   1      53.566  25.836  24.266  1.00  0.00     0.124 S 
ATOM     72  O   UNL A   1      53.811  24.482  24.749  1.00  0.00    -0.237 OA
ATOM     73  O   UNL A   1      53.432  25.980  22.820  1.00  0.00    -0.237 OA
ATOM     74  O   UNL A   1      54.334  26.888  24.925  1.00  0.00    -0.744 OA
ENDBRANCH  70  71
ENDBRANCH  38  63
ENDBRANCH  12  13
ENDBRANCH   5   7
ENDBRANCH   2   3
ENDBRANCH   1   2
BRANCH   1  75
ATOM     75  C   UNL A   1      35.317  29.727  27.362  1.00  0.00     0.023 C 
BRANCH  75  76
ATOM     76  C   UNL A   1      34.129  29.031  26.709  1.00  0.00     0.116 C 
BRANCH  76  77
ATOM     77  N   UNL A   1      33.124  28.604  27.674  1.00  0.00    -0.352 N 
ATOM     78  C   UNL A   1      31.832  28.202  27.436  1.00  0.00     0.253 C 
ATOM     79  H   UNL A   1      33.406  28.605  28.617  1.00  0.00     0.163 HD
ATOM     80  O   UNL A   1      31.030  28.057  28.352  1.00  0.00    -0.269 OA
BRANCH  78  81
ATOM     81  C   UNL A   1      31.390  28.007  26.038  1.00  0.00     0.063 A 
ATOM     82  C   UNL A   1      31.568  29.083  25.144  1.00  0.00     0.019 A 
ATOM     83  C   UNL A   1      30.768  26.806  25.634  1.00  0.00     0.056 A 
ATOM     84  C   UNL A   1      30.999  29.036  23.879  1.00  0.00     0.040 A 
ATOM     85  C   UNL A   1      30.137  26.826  24.387  1.00  0.00     0.066 A 
ATOM     86  C   UNL A   1      30.257  27.923  23.531  1.00  0.00     0.125 A 
ATOM     87  F   UNL A   1      29.641  27.889  22.343  1.00  0.00    -0.207 F 
BRANCH  83  88
ATOM     88  N   UNL A   1      30.830  25.675  26.496  1.00  0.00    -0.325 N 
ATOM     89  C   UNL A   1      31.548  24.510  26.498  1.00  0.00     0.228 C 
ATOM     90  H   UNL A   1      30.219  25.748  27.265  1.00  0.00     0.169 HD
ATOM     91  O   UNL A   1      31.410  23.719  27.433  1.00  0.00    -0.274 OA
BRANCH  89  92
ATOM     92  C   UNL A   1      32.493  24.184  25.375  1.00  0.00     0.095 C 
ATOM     93  C   UNL A   1      33.758  25.048  25.277  1.00  0.00     0.030 C 
ATOM     94  C   UNL A   1      33.036  22.768  25.555  1.00  0.00     0.150 C 
ATOM     95  C   UNL A   1      34.567  24.411  24.142  1.00  0.00     0.138 C 
ATOM     96  S   UNL A   1      34.264  22.649  24.275  1.00  0.00     0.151 S 
ATOM     97  O   UNL A   1      33.600  22.202  23.070  1.00  0.00    -0.229 OA
ATOM     98  O   UNL A   1      35.441  21.991  24.804  1.00  0.00    -0.229 OA
ENDBRANCH  89  92
ENDBRANCH  83  88
ENDBRANCH  78  81
ENDBRANCH  76  77
ENDBRANCH  75  76
ENDBRANCH   1  75
TORSDOF 16
ENDMDL
