MODEL 1
REMARK VINA RESULT:     -12.3      0.000      0.000
REMARK SMILES O=C(NCCCCNC(=O)c1cc(-n2cccc2)ccc1O)c1ccc(-c2c3nc(c(-c4c(F)cc(S(=O)(=O)[O-])cc4F)c4ccc([nH]4)c(-c4c(F)cc(S(=O)(=O)[O-])cc4F)c4nc(c(-c5c(F)cc(S(=O)(=O)[O-])cc5F)c5ccc2[nH]5)C=C4)C=C3)cc1
REMARK SMILES IDX 4 1 3 2 1 3 2 4 23 6 24 7 88 8 25 9 87 10 26 11 27 12 28 13
REMARK SMILES IDX 81 14 29 15 86 16 80 17 82 18 30 19 85 20 79 21 78 22 31 24
REMARK SMILES IDX 65 25 44 26 64 27 45 28 48 29 63 30 83 31 46 32 47 33 62 35
REMARK SMILES IDX 84 36 49 37 32 38 33 39 42 40 34 41 35 42 41 43 43 44 36 45
REMARK SMILES IDX 37 46 38 47 39 48 40 49 66 50 67 51 76 52 68 53 69 54 75 55
REMARK SMILES IDX 77 56 70 57 71 58 72 59 73 60 74 61 50 62 51 63 60 64 52 65
REMARK SMILES IDX 53 66 59 67 61 68 54 69 55 70 56 71 57 72 58 73 5 74 6 75
REMARK SMILES IDX 7 76 8 77 9 78 10 80 11 81 12 82 21 83 13 84 20 85 19 86
REMARK SMILES IDX 22 87 14 89 15 90 18 91 16 92 17 93
REMARK H PARENT 3 5 82 23 48 34 8 79 22 88
REMARK Flexibility Score: inf
ROOT
ATOM      1  C   UNL A   1      34.758  28.455  26.519  1.00  0.00     0.116 C 
ENDROOT
BRANCH   1   2
ATOM      2  N   UNL A   1      34.863  29.796  27.068  1.00  0.00    -0.352 N 
ATOM      3  O   UNL A   1      35.732  31.675  27.908  1.00  0.00    -0.269 OA
ATOM      4  C   UNL A   1      35.894  30.480  27.665  1.00  0.00     0.251 C 
ATOM      5  H   UNL A   1      34.030  30.316  27.000  1.00  0.00     0.163 HD
BRANCH   4   6
ATOM      6  C   UNL A   1      37.140  29.806  28.102  1.00  0.00     0.039 A 
ATOM      7  C   UNL A   1      38.327  29.857  27.371  1.00  0.00     0.014 A 
ATOM      8  C   UNL A   1      37.093  29.064  29.294  1.00  0.00     0.014 A 
ATOM      9  C   UNL A   1      39.397  29.050  27.722  1.00  0.00     0.010 A 
ATOM     10  C   UNL A   1      38.192  28.301  29.692  1.00  0.00     0.010 A 
ATOM     11  C   UNL A   1      39.334  28.277  28.885  1.00  0.00    -0.014 A 
BRANCH  11  12
ATOM     12  C   UNL A   1      40.599  27.652  29.326  1.00  0.00     0.031 A 
ATOM     13  C   UNL A   1      40.880  26.363  28.530  1.00  0.00     0.074 A 
ATOM     14  C   UNL A   1      41.249  28.221  30.386  1.00  0.00     0.049 A 
ATOM     15  N   UNL A   1      41.491  25.277  28.892  1.00  0.00    -0.248 NA
ATOM     16  C   UNL A   1      40.293  26.215  27.166  1.00  0.00     0.031 C 
ATOM     17  C   UNL A   1      40.816  29.460  31.067  1.00  0.00     0.029 A 
ATOM     18  N   UNL A   1      42.378  27.892  31.113  1.00  0.00    -0.354 N 
ATOM     19  C   UNL A   1      41.564  24.437  27.756  1.00  0.00     0.074 A 
ATOM     20  C   UNL A   1      40.681  24.997  26.781  1.00  0.00     0.031 C 
ATOM     21  C   UNL A   1      41.608  29.729  32.127  1.00  0.00     0.029 A 
ATOM     22  C   UNL A   1      42.648  28.723  32.235  1.00  0.00     0.049 A 
ATOM     23  H   UNL A   1      42.955  27.131  30.872  1.00  0.00     0.167 HD
ATOM     24  C   UNL A   1      42.467  23.421  27.630  1.00  0.00     0.037 A 
ATOM     25  C   UNL A   1      43.620  28.597  33.196  1.00  0.00     0.037 A 
ATOM     26  C   UNL A   1      43.290  23.361  28.789  1.00  0.00     0.049 A 
ATOM     27  C   UNL A   1      44.495  27.509  32.727  1.00  0.00     0.074 A 
ATOM     28  C   UNL A   1      43.059  22.940  30.070  1.00  0.00     0.029 A 
ATOM     29  N   UNL A   1      44.451  24.099  28.756  1.00  0.00    -0.354 N 
ATOM     30  N   UNL A   1      45.301  27.590  31.711  1.00  0.00    -0.248 NA
ATOM     31  C   UNL A   1      44.430  26.208  33.406  1.00  0.00     0.031 C 
ATOM     32  C   UNL A   1      43.846  23.808  30.852  1.00  0.00     0.029 A 
ATOM     33  C   UNL A   1      44.654  24.593  30.019  1.00  0.00     0.049 A 
ATOM     34  H   UNL A   1      45.028  24.246  27.972  1.00  0.00     0.167 HD
ATOM     35  C   UNL A   1      45.566  26.271  31.437  1.00  0.00     0.074 A 
ATOM     36  C   UNL A   1      45.291  25.532  32.650  1.00  0.00     0.031 C 
ATOM     37  C   UNL A   1      45.413  25.819  30.165  1.00  0.00     0.037 A 
BRANCH  24  38
ATOM     38  C   UNL A   1      42.906  22.586  26.457  1.00  0.00     0.058 A 
ATOM     39  C   UNL A   1      42.456  21.243  26.403  1.00  0.00     0.135 A 
ATOM     40  C   UNL A   1      43.991  22.909  25.630  1.00  0.00     0.135 A 
ATOM     41  F   UNL A   1      41.378  20.850  27.103  1.00  0.00    -0.206 F 
ATOM     42  C   UNL A   1      43.141  20.250  25.711  1.00  0.00     0.059 A 
ATOM     43  C   UNL A   1      44.666  21.936  24.888  1.00  0.00     0.059 A 
ATOM     44  F   UNL A   1      44.481  24.155  25.586  1.00  0.00    -0.206 F 
ATOM     45  C   UNL A   1      44.275  20.601  24.989  1.00  0.00     0.060 A 
BRANCH  45  46
ATOM     46  S   UNL A   1      45.253  19.282  24.241  1.00  0.00     0.124 S 
ATOM     47  O   UNL A   1      45.012  18.178  25.163  1.00  0.00    -0.237 OA
ATOM     48  O   UNL A   1      44.640  19.149  22.922  1.00  0.00    -0.237 OA
ATOM     49  O   UNL A   1      46.606  19.827  24.241  1.00  0.00    -0.744 OA
ENDBRANCH  45  46
ENDBRANCH  24  38
BRANCH  25  50
ATOM     50  C   UNL A   1      43.957  29.167  34.567  1.00  0.00     0.058 A 
ATOM     51  C   UNL A   1      43.165  29.085  35.720  1.00  0.00     0.135 A 
ATOM     52  C   UNL A   1      45.262  29.698  34.805  1.00  0.00     0.135 A 
ATOM     53  F   UNL A   1      41.876  28.738  35.654  1.00  0.00    -0.206 F 
ATOM     54  C   UNL A   1      43.676  29.338  37.009  1.00  0.00     0.059 A 
ATOM     55  C   UNL A   1      45.809  29.895  36.071  1.00  0.00     0.059 A 
ATOM     56  F   UNL A   1      46.091  30.009  33.798  1.00  0.00    -0.206 F 
ATOM     57  C   UNL A   1      45.016  29.678  37.178  1.00  0.00     0.060 A 
BRANCH  57  58
ATOM     58  S   UNL A   1      45.770  29.704  38.819  1.00  0.00     0.124 S 
ATOM     59  O   UNL A   1      46.863  30.651  38.637  1.00  0.00    -0.237 OA
ATOM     60  O   UNL A   1      44.671  30.154  39.667  1.00  0.00    -0.237 OA
ATOM     61  O   UNL A   1      46.167  28.312  39.022  1.00  0.00    -0.744 OA
ENDBRANCH  57  58
ENDBRANCH  25  50
BRANCH  37  62
ATOM     62  C   UNL A   1      45.669  26.862  29.088  1.00  0.00     0.058 A 
ATOM     63  C   UNL A   1      46.960  27.384  28.900  1.00  0.00     0.135 A 
ATOM     64  C   UNL A   1      44.665  27.429  28.286  1.00  0.00     0.135 A 
ATOM     65  F   UNL A   1      47.987  26.903  29.619  1.00  0.00    -0.206 F 
ATOM     66  C   UNL A   1      47.232  28.399  27.975  1.00  0.00     0.059 A 
ATOM     67  C   UNL A   1      44.905  28.436  27.348  1.00  0.00     0.059 A 
ATOM     68  F   UNL A   1      43.404  27.017  28.396  1.00  0.00    -0.206 F 
ATOM     69  C   UNL A   1      46.197  28.919  27.198  1.00  0.00     0.060 A 
BRANCH  69  70
ATOM     70  S   UNL A   1      46.567  30.206  25.983  1.00  0.00     0.124 S 
ATOM     71  O   UNL A   1      47.836  30.739  26.467  1.00  0.00    -0.237 OA
ATOM     72  O   UNL A   1      46.635  29.443  24.741  1.00  0.00    -0.237 OA
ATOM     73  O   UNL A   1      45.432  31.120  26.090  1.00  0.00    -0.744 OA
ENDBRANCH  69  70
ENDBRANCH  37  62
ENDBRANCH  11  12
ENDBRANCH   4   6
ENDBRANCH   1   2
BRANCH   1  74
ATOM     74  C   UNL A   1      33.539  28.175  25.638  1.00  0.00     0.023 C 
BRANCH  74  75
ATOM     75  C   UNL A   1      32.904  26.801  25.816  1.00  0.00     0.023 C 
BRANCH  75  76
ATOM     76  C   UNL A   1      31.988  26.372  24.682  1.00  0.00     0.116 C 
BRANCH  76  77
ATOM     77  N   UNL A   1      32.594  26.559  23.377  1.00  0.00    -0.352 N 
ATOM     78  C   UNL A   1      33.294  25.638  22.636  1.00  0.00     0.255 C 
ATOM     79  H   UNL A   1      32.493  27.453  22.976  1.00  0.00     0.163 HD
ATOM     80  O   UNL A   1      33.776  25.930  21.556  1.00  0.00    -0.269 OA
BRANCH  78  81
ATOM     81  C   UNL A   1      33.520  24.297  23.204  1.00  0.00     0.083 A 
ATOM     82  C   UNL A   1      34.772  24.050  23.775  1.00  0.00     0.044 A 
ATOM     83  C   UNL A   1      32.539  23.300  23.175  1.00  0.00     0.128 A 
ATOM     84  C   UNL A   1      35.050  22.783  24.293  1.00  0.00     0.046 A 
ATOM     85  C   UNL A   1      32.811  22.043  23.711  1.00  0.00     0.049 A 
ATOM     86  C   UNL A   1      34.072  21.778  24.252  1.00  0.00     0.030 A 
BRANCH  83  87
ATOM     87  O   UNL A   1      31.309  23.552  22.636  1.00  0.00    -0.507 OA
ATOM     88  H   UNL A   1      30.849  24.336  22.866  1.00  0.00     0.293 HD
ENDBRANCH  83  87
BRANCH  84  89
ATOM     89  N   UNL A   1      36.319  22.512  24.861  1.00  0.00    -0.324 N 
ATOM     90  C   UNL A   1      37.036  23.358  25.683  1.00  0.00     0.091 A 
ATOM     91  C   UNL A   1      37.063  21.361  24.692  1.00  0.00     0.091 A 
ATOM     92  C   UNL A   1      38.218  22.745  26.033  1.00  0.00     0.020 A 
ATOM     93  C   UNL A   1      38.249  21.494  25.381  1.00  0.00     0.020 A 
ENDBRANCH  84  89
ENDBRANCH  78  81
ENDBRANCH  76  77
ENDBRANCH  75  76
ENDBRANCH  74  75
ENDBRANCH   1  74
TORSDOF 16
ENDMDL
MODEL 2
REMARK VINA RESULT:     -12.0      3.106      5.956
REMARK SMILES O=C(NCCCCNC(=O)c1cc(-n2cccc2)ccc1O)c1ccc(-c2c3nc(c(-c4c(F)cc(S(=O)(=O)[O-])cc4F)c4ccc([nH]4)c(-c4c(F)cc(S(=O)(=O)[O-])cc4F)c4nc(c(-c5c(F)cc(S(=O)(=O)[O-])cc5F)c5ccc2[nH]5)C=C4)C=C3)cc1
REMARK SMILES IDX 4 1 3 2 1 3 2 4 23 6 24 7 88 8 25 9 87 10 26 11 27 12 28 13
REMARK SMILES IDX 81 14 29 15 86 16 80 17 82 18 30 19 85 20 79 21 78 22 31 24
REMARK SMILES IDX 65 25 44 26 64 27 45 28 48 29 63 30 83 31 46 32 47 33 62 35
REMARK SMILES IDX 84 36 49 37 32 38 33 39 42 40 34 41 35 42 41 43 43 44 36 45
REMARK SMILES IDX 37 46 38 47 39 48 40 49 66 50 67 51 76 52 68 53 69 54 75 55
REMARK SMILES IDX 77 56 70 57 71 58 72 59 73 60 74 61 50 62 51 63 60 64 52 65
REMARK SMILES IDX 53 66 59 67 61 68 54 69 55 70 56 71 57 72 58 73 5 74 6 75
REMARK SMILES IDX 7 76 8 77 9 78 10 80 11 81 12 82 21 83 13 84 20 85 19 86
REMARK SMILES IDX 22 87 14 89 15 90 18 91 16 92 17 93
REMARK H PARENT 3 5 82 23 48 34 8 79 22 88
REMARK Flexibility Score: inf
ROOT
ATOM      1  C   UNL A   1      36.480  32.795  28.341  1.00  0.00     0.116 C 
ENDROOT
BRANCH   1   2
ATOM      2  N   UNL A   1      35.729  31.751  27.665  1.00  0.00    -0.352 N 
ATOM      3  O   UNL A   1      35.004  29.730  27.048  1.00  0.00    -0.269 OA
ATOM      4  C   UNL A   1      35.893  30.389  27.585  1.00  0.00     0.251 C 
ATOM      5  H   UNL A   1      34.950  32.085  27.166  1.00  0.00     0.163 HD
BRANCH   4   6
ATOM      6  C   UNL A   1      37.134  29.716  28.035  1.00  0.00     0.039 A 
ATOM      7  C   UNL A   1      38.332  29.777  27.322  1.00  0.00     0.014 A 
ATOM      8  C   UNL A   1      37.073  28.965  29.220  1.00  0.00     0.014 A 
ATOM      9  C   UNL A   1      39.399  28.971  27.682  1.00  0.00     0.010 A 
ATOM     10  C   UNL A   1      38.168  28.203  29.628  1.00  0.00     0.010 A 
ATOM     11  C   UNL A   1      39.323  28.188  28.838  1.00  0.00    -0.014 A 
BRANCH  11  12
ATOM     12  C   UNL A   1      40.583  27.564  29.293  1.00  0.00     0.031 A 
ATOM     13  C   UNL A   1      40.872  26.274  28.502  1.00  0.00     0.074 A 
ATOM     14  C   UNL A   1      41.222  28.135  30.359  1.00  0.00     0.049 A 
ATOM     15  N   UNL A   1      41.479  25.188  28.871  1.00  0.00    -0.248 NA
ATOM     16  C   UNL A   1      40.299  26.125  27.131  1.00  0.00     0.031 C 
ATOM     17  C   UNL A   1      40.782  29.374  31.034  1.00  0.00     0.029 A 
ATOM     18  N   UNL A   1      42.343  27.806  31.098  1.00  0.00    -0.354 N 
ATOM     19  C   UNL A   1      41.564  24.347  27.737  1.00  0.00     0.074 A 
ATOM     20  C   UNL A   1      40.691  24.906  26.752  1.00  0.00     0.031 C 
ATOM     21  C   UNL A   1      41.563  29.644  32.102  1.00  0.00     0.029 A 
ATOM     22  C   UNL A   1      42.602  28.639  32.221  1.00  0.00     0.049 A 
ATOM     23  H   UNL A   1      42.923  27.046  30.863  1.00  0.00     0.167 HD
ATOM     24  C   UNL A   1      42.468  23.331  27.621  1.00  0.00     0.037 A 
ATOM     25  C   UNL A   1      43.564  28.513  33.192  1.00  0.00     0.037 A 
ATOM     26  C   UNL A   1      43.280  23.273  28.788  1.00  0.00     0.049 A 
ATOM     27  C   UNL A   1      44.444  27.425  32.734  1.00  0.00     0.074 A 
ATOM     28  C   UNL A   1      43.035  22.854  30.068  1.00  0.00     0.029 A 
ATOM     29  N   UNL A   1      44.440  24.011  28.766  1.00  0.00    -0.354 N 
ATOM     30  N   UNL A   1      45.260  27.505  31.725  1.00  0.00    -0.248 NA
ATOM     31  C   UNL A   1      44.373  26.125  33.413  1.00  0.00     0.031 C 
ATOM     32  C   UNL A   1      43.815  23.722  30.856  1.00  0.00     0.029 A 
ATOM     33  C   UNL A   1      44.630  24.507  30.031  1.00  0.00     0.049 A 
ATOM     34  H   UNL A   1      45.026  24.157  27.988  1.00  0.00     0.167 HD
ATOM     35  C   UNL A   1      45.529  26.186  31.456  1.00  0.00     0.074 A 
ATOM     36  C   UNL A   1      45.241  25.448  32.667  1.00  0.00     0.031 C 
ATOM     37  C   UNL A   1      45.388  25.733  30.183  1.00  0.00     0.037 A 
BRANCH  24  38
ATOM     38  C   UNL A   1      42.920  22.495  26.453  1.00  0.00     0.058 A 
ATOM     39  C   UNL A   1      42.518  21.136  26.425  1.00  0.00     0.135 A 
ATOM     40  C   UNL A   1      43.979  22.845  25.605  1.00  0.00     0.135 A 
ATOM     41  F   UNL A   1      41.465  20.715  27.148  1.00  0.00    -0.206 F 
ATOM     42  C   UNL A   1      43.227  20.159  25.737  1.00  0.00     0.059 A 
ATOM     43  C   UNL A   1      44.678  21.885  24.866  1.00  0.00     0.059 A 
ATOM     44  F   UNL A   1      44.423  24.106  25.535  1.00  0.00    -0.206 F 
ATOM     45  C   UNL A   1      44.337  20.539  24.993  1.00  0.00     0.060 A 
BRANCH  45  46
ATOM     46  S   UNL A   1      45.351  19.244  24.249  1.00  0.00     0.124 S 
ATOM     47  O   UNL A   1      44.730  19.102  22.937  1.00  0.00    -0.237 OA
ATOM     48  O   UNL A   1      46.681  19.848  24.256  1.00  0.00    -0.237 OA
ATOM     49  O   UNL A   1      45.178  18.119  25.161  1.00  0.00    -0.744 OA
ENDBRANCH  45  46
ENDBRANCH  24  38
BRANCH  25  50
ATOM     50  C   UNL A   1      43.887  29.085  34.566  1.00  0.00     0.058 A 
ATOM     51  C   UNL A   1      45.012  29.847  34.907  1.00  0.00     0.135 A 
ATOM     52  C   UNL A   1      42.906  29.016  35.603  1.00  0.00     0.135 A 
ATOM     53  F   UNL A   1      46.080  29.905  34.106  1.00  0.00    -0.206 F 
ATOM     54  C   UNL A   1      45.080  30.609  36.090  1.00  0.00     0.059 A 
ATOM     55  C   UNL A   1      42.921  29.806  36.750  1.00  0.00     0.059 A 
ATOM     56  F   UNL A   1      41.850  28.194  35.522  1.00  0.00    -0.206 F 
ATOM     57  C   UNL A   1      44.002  30.633  36.972  1.00  0.00     0.060 A 
BRANCH  57  58
ATOM     58  S   UNL A   1      43.932  31.829  38.324  1.00  0.00     0.124 S 
ATOM     59  O   UNL A   1      44.052  33.097  37.616  1.00  0.00    -0.237 OA
ATOM     60  O   UNL A   1      42.630  31.554  38.924  1.00  0.00    -0.237 OA
ATOM     61  O   UNL A   1      45.077  31.456  39.154  1.00  0.00    -0.744 OA
ENDBRANCH  57  58
ENDBRANCH  25  50
BRANCH  37  62
ATOM     62  C   UNL A   1      45.655  26.774  29.108  1.00  0.00     0.058 A 
ATOM     63  C   UNL A   1      46.950  27.286  28.923  1.00  0.00     0.135 A 
ATOM     64  C   UNL A   1      44.657  27.351  28.304  1.00  0.00     0.135 A 
ATOM     65  F   UNL A   1      47.972  26.795  29.643  1.00  0.00    -0.206 F 
ATOM     66  C   UNL A   1      47.233  28.300  27.999  1.00  0.00     0.059 A 
ATOM     67  C   UNL A   1      44.908  28.357  27.368  1.00  0.00     0.059 A 
ATOM     68  F   UNL A   1      43.393  26.949  28.411  1.00  0.00    -0.206 F 
ATOM     69  C   UNL A   1      46.204  28.828  27.221  1.00  0.00     0.060 A 
BRANCH  69  70
ATOM     70  S   UNL A   1      46.587  30.114  26.008  1.00  0.00     0.124 S 
ATOM     71  O   UNL A   1      45.417  30.982  26.091  1.00  0.00    -0.237 OA
ATOM     72  O   UNL A   1      47.827  30.672  26.536  1.00  0.00    -0.237 OA
ATOM     73  O   UNL A   1      46.721  29.377  24.753  1.00  0.00    -0.744 OA
ENDBRANCH  69  70
ENDBRANCH  37  62
ENDBRANCH  11  12
ENDBRANCH   4   6
ENDBRANCH   1   2
BRANCH   1  74
ATOM     74  C   UNL A   1      35.702  33.650  29.343  1.00  0.00     0.023 C 
BRANCH  74  75
ATOM     75  C   UNL A   1      34.772  32.882  30.277  1.00  0.00     0.023 C 
BRANCH  75  76
ATOM     76  C   UNL A   1      35.352  32.588  31.650  1.00  0.00     0.116 C 
BRANCH  76  77
ATOM     77  N   UNL A   1      35.553  31.169  31.876  1.00  0.00    -0.352 N 
ATOM     78  C   UNL A   1      36.665  30.549  32.393  1.00  0.00     0.255 C 
ATOM     79  H   UNL A   1      34.804  30.579  31.628  1.00  0.00     0.163 HD
ATOM     80  O   UNL A   1      36.717  29.338  32.511  1.00  0.00    -0.269 OA
BRANCH  78  81
ATOM     81  C   UNL A   1      37.838  31.373  32.738  1.00  0.00     0.083 A 
ATOM     82  C   UNL A   1      38.387  32.157  31.719  1.00  0.00     0.044 A 
ATOM     83  C   UNL A   1      38.395  31.376  34.021  1.00  0.00     0.128 A 
ATOM     84  C   UNL A   1      39.522  32.927  31.985  1.00  0.00     0.046 A 
ATOM     85  C   UNL A   1      39.515  32.161  34.289  1.00  0.00     0.049 A 
ATOM     86  C   UNL A   1      40.090  32.920  33.267  1.00  0.00     0.030 A 
BRANCH  83  87
ATOM     87  O   UNL A   1      37.841  30.625  35.020  1.00  0.00    -0.507 OA
ATOM     88  H   UNL A   1      37.278  31.028  35.651  1.00  0.00     0.293 HD
ENDBRANCH  83  87
BRANCH  84  89
ATOM     89  N   UNL A   1      40.100  33.715  30.959  1.00  0.00    -0.324 N 
ATOM     90  C   UNL A   1      39.418  34.335  29.931  1.00  0.00     0.091 A 
ATOM     91  C   UNL A   1      41.441  34.001  30.803  1.00  0.00     0.091 A 
ATOM     92  C   UNL A   1      40.319  35.008  29.138  1.00  0.00     0.020 A 
ATOM     93  C   UNL A   1      41.604  34.770  29.672  1.00  0.00     0.020 A 
ENDBRANCH  84  89
ENDBRANCH  78  81
ENDBRANCH  76  77
ENDBRANCH  75  76
ENDBRANCH  74  75
ENDBRANCH   1  74
TORSDOF 16
ENDMDL
MODEL 3
REMARK VINA RESULT:     -11.9      2.002      3.789
REMARK SMILES O=C(NCCCCNC(=O)c1cc(-n2cccc2)ccc1O)c1ccc(-c2c3nc(c(-c4c(F)cc(S(=O)(=O)[O-])cc4F)c4ccc([nH]4)c(-c4c(F)cc(S(=O)(=O)[O-])cc4F)c4nc(c(-c5c(F)cc(S(=O)(=O)[O-])cc5F)c5ccc2[nH]5)C=C4)C=C3)cc1
REMARK SMILES IDX 4 1 3 2 1 3 2 4 23 6 24 7 88 8 25 9 87 10 26 11 27 12 28 13
REMARK SMILES IDX 81 14 29 15 86 16 80 17 82 18 30 19 85 20 79 21 78 22 31 24
REMARK SMILES IDX 65 25 44 26 64 27 45 28 48 29 63 30 83 31 46 32 47 33 62 35
REMARK SMILES IDX 84 36 49 37 32 38 33 39 42 40 34 41 35 42 41 43 43 44 36 45
REMARK SMILES IDX 37 46 38 47 39 48 40 49 66 50 67 51 76 52 68 53 69 54 75 55
REMARK SMILES IDX 77 56 70 57 71 58 72 59 73 60 74 61 50 62 51 63 60 64 52 65
REMARK SMILES IDX 53 66 59 67 61 68 54 69 55 70 56 71 57 72 58 73 5 74 6 75
REMARK SMILES IDX 7 76 8 77 9 78 10 80 11 81 12 82 21 83 13 84 20 85 19 86
REMARK SMILES IDX 22 87 14 89 15 90 18 91 16 92 17 93
REMARK H PARENT 3 5 82 23 48 34 8 79 22 88
REMARK Flexibility Score: inf
ROOT
ATOM      1  C   UNL A   1      34.796  28.703  26.872  1.00  0.00     0.116 C 
ENDROOT
BRANCH   1   2
ATOM      2  N   UNL A   1      34.967  30.034  27.428  1.00  0.00    -0.352 N 
ATOM      3  O   UNL A   1      35.932  31.873  28.253  1.00  0.00    -0.269 OA
ATOM      4  C   UNL A   1      36.042  30.674  27.995  1.00  0.00     0.251 C 
ATOM      5  H   UNL A   1      34.153  30.585  27.392  1.00  0.00     0.163 HD
BRANCH   4   6
ATOM      6  C   UNL A   1      37.275  29.952  28.386  1.00  0.00     0.039 A 
ATOM      7  C   UNL A   1      38.461  30.025  27.655  1.00  0.00     0.014 A 
ATOM      8  C   UNL A   1      37.218  29.141  29.531  1.00  0.00     0.014 A 
ATOM      9  C   UNL A   1      39.516  29.178  27.952  1.00  0.00     0.010 A 
ATOM     10  C   UNL A   1      38.303  28.335  29.878  1.00  0.00     0.010 A 
ATOM     11  C   UNL A   1      39.443  28.337  29.067  1.00  0.00    -0.014 A 
BRANCH  11  12
ATOM     12  C   UNL A   1      40.696  27.663  29.464  1.00  0.00     0.031 A 
ATOM     13  C   UNL A   1      40.907  26.373  28.649  1.00  0.00     0.074 A 
ATOM     14  C   UNL A   1      41.397  28.198  30.509  1.00  0.00     0.049 A 
ATOM     15  N   UNL A   1      41.488  25.261  28.982  1.00  0.00    -0.248 NA
ATOM     16  C   UNL A   1      40.275  26.260  27.301  1.00  0.00     0.031 C 
ATOM     17  C   UNL A   1      41.030  29.444  31.214  1.00  0.00     0.029 A 
ATOM     18  N   UNL A   1      42.534  27.820  31.199  1.00  0.00    -0.354 N 
ATOM     19  C   UNL A   1      41.497  24.431  27.837  1.00  0.00     0.074 A 
ATOM     20  C   UNL A   1      40.607  25.032  26.894  1.00  0.00     0.031 C 
ATOM     21  C   UNL A   1      41.862  29.674  32.252  1.00  0.00     0.029 A 
ATOM     22  C   UNL A   1      42.868  28.631  32.320  1.00  0.00     0.049 A 
ATOM     23  H   UNL A   1      43.076  27.043  30.934  1.00  0.00     0.167 HD
ATOM     24  C   UNL A   1      42.359  23.385  27.675  1.00  0.00     0.037 A 
ATOM     25  C   UNL A   1      43.862  28.459  33.250  1.00  0.00     0.037 A 
ATOM     26  C   UNL A   1      43.214  23.284  28.808  1.00  0.00     0.049 A 
ATOM     27  C   UNL A   1      44.684  27.345  32.746  1.00  0.00     0.074 A 
ATOM     28  C   UNL A   1      43.005  22.859  30.092  1.00  0.00     0.029 A 
ATOM     29  N   UNL A   1      44.398  23.980  28.747  1.00  0.00    -0.354 N 
ATOM     30  N   UNL A   1      45.461  27.408  31.706  1.00  0.00    -0.248 NA
ATOM     31  C   UNL A   1      44.592  26.041  33.414  1.00  0.00     0.031 C 
ATOM     32  C   UNL A   1      43.846  23.689  30.857  1.00  0.00     0.029 A 
ATOM     33  C   UNL A   1      44.656  24.454  30.008  1.00  0.00     0.049 A 
ATOM     34  H   UNL A   1      44.957  24.114  27.947  1.00  0.00     0.167 HD
ATOM     35  C   UNL A   1      45.671  26.083  31.413  1.00  0.00     0.074 A 
ATOM     36  C   UNL A   1      45.405  25.342  32.627  1.00  0.00     0.031 C 
ATOM     37  C   UNL A   1      45.463  25.650  30.142  1.00  0.00     0.037 A 
BRANCH  24  38
ATOM     38  C   UNL A   1      42.733  22.547  26.481  1.00  0.00     0.058 A 
ATOM     39  C   UNL A   1      42.419  21.165  26.526  1.00  0.00     0.135 A 
ATOM     40  C   UNL A   1      43.668  22.938  25.513  1.00  0.00     0.135 A 
ATOM     41  F   UNL A   1      41.482  20.699  27.370  1.00  0.00    -0.206 F 
ATOM     42  C   UNL A   1      43.111  20.215  25.784  1.00  0.00     0.059 A 
ATOM     43  C   UNL A   1      44.343  22.003  24.722  1.00  0.00     0.059 A 
ATOM     44  F   UNL A   1      44.019  24.222  25.369  1.00  0.00    -0.206 F 
ATOM     45  C   UNL A   1      44.105  20.643  24.914  1.00  0.00     0.060 A 
BRANCH  45  46
ATOM     46  S   UNL A   1      45.114  19.394  24.088  1.00  0.00     0.124 S 
ATOM     47  O   UNL A   1      44.611  19.466  22.721  1.00  0.00    -0.237 OA
ATOM     48  O   UNL A   1      46.468  19.903  24.290  1.00  0.00    -0.237 OA
ATOM     49  O   UNL A   1      44.798  18.172  24.819  1.00  0.00    -0.744 OA
ENDBRANCH  45  46
ENDBRANCH  24  38
BRANCH  25  50
ATOM     50  C   UNL A   1      44.260  29.003  34.616  1.00  0.00     0.058 A 
ATOM     51  C   UNL A   1      43.451  29.056  35.758  1.00  0.00     0.135 A 
ATOM     52  C   UNL A   1      45.624  29.349  34.863  1.00  0.00     0.135 A 
ATOM     53  F   UNL A   1      42.127  28.893  35.680  1.00  0.00    -0.206 F 
ATOM     54  C   UNL A   1      43.977  29.261  37.050  1.00  0.00     0.059 A 
ATOM     55  C   UNL A   1      46.178  29.492  36.133  1.00  0.00     0.059 A 
ATOM     56  F   UNL A   1      46.501  29.521  33.863  1.00  0.00    -0.206 F 
ATOM     57  C   UNL A   1      45.350  29.411  37.232  1.00  0.00     0.060 A 
BRANCH  57  58
ATOM     58  S   UNL A   1      46.080  29.363  38.883  1.00  0.00     0.124 S 
ATOM     59  O   UNL A   1      44.992  29.865  39.713  1.00  0.00    -0.237 OA
ATOM     60  O   UNL A   1      46.405  27.949  39.045  1.00  0.00    -0.237 OA
ATOM     61  O   UNL A   1      47.239  30.245  38.757  1.00  0.00    -0.744 OA
ENDBRANCH  57  58
ENDBRANCH  25  50
BRANCH  37  62
ATOM     62  C   UNL A   1      45.725  26.694  29.068  1.00  0.00     0.058 A 
ATOM     63  C   UNL A   1      47.037  27.118  28.797  1.00  0.00     0.135 A 
ATOM     64  C   UNL A   1      44.715  27.356  28.350  1.00  0.00     0.135 A 
ATOM     65  F   UNL A   1      48.070  26.542  29.431  1.00  0.00    -0.206 F 
ATOM     66  C   UNL A   1      47.323  28.130  27.871  1.00  0.00     0.059 A 
ATOM     67  C   UNL A   1      44.968  28.362  27.414  1.00  0.00     0.059 A 
ATOM     68  F   UNL A   1      43.436  27.040  28.542  1.00  0.00    -0.206 F 
ATOM     69  C   UNL A   1      46.280  28.745  27.180  1.00  0.00     0.060 A 
BRANCH  69  70
ATOM     70  S   UNL A   1      46.665  30.027  25.964  1.00  0.00     0.124 S 
ATOM     71  O   UNL A   1      47.995  30.462  26.375  1.00  0.00    -0.237 OA
ATOM     72  O   UNL A   1      46.603  29.285  24.709  1.00  0.00    -0.237 OA
ATOM     73  O   UNL A   1      45.605  31.015  26.154  1.00  0.00    -0.744 OA
ENDBRANCH  69  70
ENDBRANCH  37  62
ENDBRANCH  11  12
ENDBRANCH   4   6
ENDBRANCH   1   2
BRANCH   1  74
ATOM     74  C   UNL A   1      33.365  28.160  26.838  1.00  0.00     0.023 C 
BRANCH  74  75
ATOM     75  C   UNL A   1      33.052  27.213  25.685  1.00  0.00     0.023 C 
BRANCH  75  76
ATOM     76  C   UNL A   1      32.765  27.898  24.359  1.00  0.00     0.116 C 
BRANCH  76  77
ATOM     77  N   UNL A   1      32.743  26.967  23.246  1.00  0.00    -0.352 N 
ATOM     78  C   UNL A   1      31.667  26.613  22.468  1.00  0.00     0.255 C 
ATOM     79  H   UNL A   1      33.600  26.538  23.022  1.00  0.00     0.163 HD
ATOM     80  O   UNL A   1      31.776  25.796  21.572  1.00  0.00    -0.269 OA
BRANCH  78  81
ATOM     81  C   UNL A   1      30.346  27.186  22.784  1.00  0.00     0.083 A 
ATOM     82  C   UNL A   1      30.109  28.501  22.373  1.00  0.00     0.044 A 
ATOM     83  C   UNL A   1      29.366  26.465  23.474  1.00  0.00     0.128 A 
ATOM     84  C   UNL A   1      28.887  29.104  22.682  1.00  0.00     0.046 A 
ATOM     85  C   UNL A   1      28.140  27.062  23.763  1.00  0.00     0.049 A 
ATOM     86  C   UNL A   1      27.908  28.387  23.385  1.00  0.00     0.030 A 
BRANCH  83  87
ATOM     87  O   UNL A   1      29.595  25.173  23.855  1.00  0.00    -0.507 OA
ATOM     88  H   UNL A   1      30.034  24.584  23.273  1.00  0.00     0.293 HD
ENDBRANCH  83  87
BRANCH  84  89
ATOM     89  N   UNL A   1      28.635  30.441  22.285  1.00  0.00    -0.324 N 
ATOM     90  C   UNL A   1      28.182  30.846  21.045  1.00  0.00     0.091 A 
ATOM     91  C   UNL A   1      28.801  31.570  23.061  1.00  0.00     0.091 A 
ATOM     92  C   UNL A   1      28.059  32.218  21.042  1.00  0.00     0.020 A 
ATOM     93  C   UNL A   1      28.480  32.678  22.307  1.00  0.00     0.020 A 
ENDBRANCH  84  89
ENDBRANCH  78  81
ENDBRANCH  76  77
ENDBRANCH  75  76
ENDBRANCH  74  75
ENDBRANCH   1  74
TORSDOF 16
ENDMDL
