MODEL 1
REMARK VINA RESULT:     -11.0      0.000      0.000
REMARK SMILES O=C(NCCCCNC(=O)c1cc(-c2ccc(Cl)cc2)nc2c3c(C4CC4)cc(C(F)(F)F)nc3nn12)c1ccc(-c2c3nc(c(-c4c(F)cc(S(=O)(=O)[O-])cc4F)c4ccc([nH]4)c(-c4c(F)cc(S(=O)(=O)[O-])cc4F)c4nc(c(-c5c(F)cc(S(=O)(=O)[O-])cc5F)c5ccc2[nH]5)C=C4)C=C3)cc1
REMARK SMILES IDX 4 1 3 2 1 3 2 4 38 6 39 7 103 8 40 9 102 10 41 11 42 12
REMARK SMILES IDX 43 13 96 14 44 15 101 16 95 17 97 18 45 19 100 20 94 21
REMARK SMILES IDX 93 22 46 24 80 25 59 26 79 27 60 28 63 29 78 30 98 31 61 32
REMARK SMILES IDX 62 33 77 35 99 36 64 37 47 38 48 39 57 40 49 41 50 42 56 43
REMARK SMILES IDX 58 44 51 45 52 46 53 47 54 48 55 49 81 50 82 51 91 52 83 53
REMARK SMILES IDX 84 54 90 55 92 56 85 57 86 58 87 59 88 60 89 61 65 62 66 63
REMARK SMILES IDX 75 64 67 65 68 66 74 67 76 68 69 69 70 70 71 71 72 72 73 73
REMARK SMILES IDX 5 74 6 75 7 76 8 77 9 78 10 80 11 81 12 82 37 83 13 84 22 85
REMARK SMILES IDX 36 86 21 87 23 88 35 89 24 90 34 91 28 92 29 93 14 94 15 95
REMARK SMILES IDX 20 96 16 97 19 98 17 99 18 100 25 101 26 102 27 103 30 104
REMARK SMILES IDX 31 105 32 106 33 107
REMARK H PARENT 3 5 97 23 63 34 8 79
REMARK Flexibility Score: inf
ROOT
ATOM      1  C   UNL A   1      43.592  26.656  36.426  1.00  0.00     0.116 C 
ENDROOT
BRANCH   1   2
ATOM      2  N   UNL A   1      44.111  25.356  36.823  1.00  0.00    -0.352 N 
ATOM      3  O   UNL A   1      45.073  23.332  36.457  1.00  0.00    -0.269 OA
ATOM      4  C   UNL A   1      44.772  24.433  36.038  1.00  0.00     0.251 C 
ATOM      5  H   UNL A   1      43.974  25.105  37.764  1.00  0.00     0.163 HD
BRANCH   4   6
ATOM      6  C   UNL A   1      45.087  24.831  34.653  1.00  0.00     0.039 A 
ATOM      7  C   UNL A   1      46.073  25.794  34.431  1.00  0.00     0.014 A 
ATOM      8  C   UNL A   1      44.300  24.339  33.610  1.00  0.00     0.014 A 
ATOM      9  C   UNL A   1      46.189  26.362  33.171  1.00  0.00     0.010 A 
ATOM     10  C   UNL A   1      44.445  24.886  32.338  1.00  0.00     0.010 A 
ATOM     11  C   UNL A   1      45.362  25.922  32.126  1.00  0.00    -0.014 A 
BRANCH  11  12
ATOM     12  C   UNL A   1      45.527  26.601  30.831  1.00  0.00     0.031 A 
ATOM     13  C   UNL A   1      45.324  25.741  29.628  1.00  0.00     0.074 A 
ATOM     14  C   UNL A   1      45.185  27.900  30.720  1.00  0.00     0.049 A 
ATOM     15  N   UNL A   1      44.168  25.468  29.099  1.00  0.00    -0.248 NA
ATOM     16  C   UNL A   1      46.428  24.939  29.099  1.00  0.00     0.031 C 
ATOM     17  C   UNL A   1      43.966  28.486  31.290  1.00  0.00     0.029 A 
ATOM     18  N   UNL A   1      45.679  28.874  29.885  1.00  0.00    -0.354 N 
ATOM     19  C   UNL A   1      44.374  24.444  28.190  1.00  0.00     0.074 A 
ATOM     20  C   UNL A   1      45.788  24.147  28.227  1.00  0.00     0.031 C 
ATOM     21  C   UNL A   1      43.716  29.652  30.662  1.00  0.00     0.029 A 
ATOM     22  C   UNL A   1      44.816  29.957  29.754  1.00  0.00     0.049 A 
ATOM     23  H   UNL A   1      46.549  28.810  29.428  1.00  0.00     0.167 HD
ATOM     24  C   UNL A   1      43.387  23.882  27.446  1.00  0.00     0.037 A 
ATOM     25  C   UNL A   1      44.744  30.752  28.650  1.00  0.00     0.037 A 
ATOM     26  C   UNL A   1      42.088  24.464  27.578  1.00  0.00     0.049 A 
ATOM     27  C   UNL A   1      43.889  29.893  27.752  1.00  0.00     0.074 A 
ATOM     28  C   UNL A   1      40.945  24.240  28.312  1.00  0.00     0.029 A 
ATOM     29  N   UNL A   1      41.817  25.592  26.837  1.00  0.00    -0.354 N 
ATOM     30  N   UNL A   1      42.586  29.789  27.793  1.00  0.00    -0.248 NA
ATOM     31  C   UNL A   1      44.559  28.814  27.020  1.00  0.00     0.031 C 
ATOM     32  C   UNL A   1      40.231  25.479  28.302  1.00  0.00     0.029 A 
ATOM     33  C   UNL A   1      41.015  26.397  27.606  1.00  0.00     0.049 A 
ATOM     34  H   UNL A   1      42.137  25.784  25.927  1.00  0.00     0.167 HD
ATOM     35  C   UNL A   1      42.307  28.489  27.359  1.00  0.00     0.074 A 
ATOM     36  C   UNL A   1      43.556  27.962  26.854  1.00  0.00     0.031 C 
ATOM     37  C   UNL A   1      41.137  27.839  27.624  1.00  0.00     0.037 A 
BRANCH  24  38
ATOM     38  C   UNL A   1      43.624  22.853  26.415  1.00  0.00     0.058 A 
ATOM     39  C   UNL A   1      43.170  21.549  26.653  1.00  0.00     0.135 A 
ATOM     40  C   UNL A   1      44.440  23.084  25.302  1.00  0.00     0.135 A 
ATOM     41  F   UNL A   1      42.384  21.294  27.713  1.00  0.00    -0.206 F 
ATOM     42  C   UNL A   1      43.558  20.489  25.847  1.00  0.00     0.059 A 
ATOM     43  C   UNL A   1      44.838  22.036  24.475  1.00  0.00     0.059 A 
ATOM     44  F   UNL A   1      44.893  24.319  25.038  1.00  0.00    -0.206 F 
ATOM     45  C   UNL A   1      44.414  20.740  24.774  1.00  0.00     0.060 A 
BRANCH  45  46
ATOM     46  S   UNL A   1      44.999  19.327  23.813  1.00  0.00     0.124 S 
ATOM     47  O   UNL A   1      44.382  18.211  24.521  1.00  0.00    -0.237 OA
ATOM     48  O   UNL A   1      44.459  19.619  22.489  1.00  0.00    -0.237 OA
ATOM     49  O   UNL A   1      46.451  19.417  23.929  1.00  0.00    -0.744 OA
ENDBRANCH  45  46
ENDBRANCH  24  38
BRANCH  25  50
ATOM     50  C   UNL A   1      46.048  31.377  28.260  1.00  0.00     0.058 A 
ATOM     51  C   UNL A   1      46.163  31.871  26.939  1.00  0.00     0.135 A 
ATOM     52  C   UNL A   1      47.159  31.577  29.090  1.00  0.00     0.135 A 
ATOM     53  F   UNL A   1      45.202  31.616  26.036  1.00  0.00    -0.206 F 
ATOM     54  C   UNL A   1      47.232  32.659  26.526  1.00  0.00     0.059 A 
ATOM     55  C   UNL A   1      48.234  32.381  28.707  1.00  0.00     0.059 A 
ATOM     56  F   UNL A   1      47.221  31.025  30.309  1.00  0.00    -0.206 F 
ATOM     57  C   UNL A   1      48.240  32.953  27.437  1.00  0.00     0.060 A 
BRANCH  57  58
ATOM     58  S   UNL A   1      49.506  34.145  26.957  1.00  0.00     0.124 S 
ATOM     59  O   UNL A   1      49.023  35.370  27.583  1.00  0.00    -0.237 OA
ATOM     60  O   UNL A   1      50.705  33.557  27.547  1.00  0.00    -0.237 OA
ATOM     61  O   UNL A   1      49.457  34.122  25.498  1.00  0.00    -0.744 OA
ENDBRANCH  57  58
ENDBRANCH  25  50
BRANCH  37  62
ATOM     62  C   UNL A   1      40.040  28.666  28.203  1.00  0.00     0.058 A 
ATOM     63  C   UNL A   1      39.175  29.376  27.361  1.00  0.00     0.135 A 
ATOM     64  C   UNL A   1      39.789  28.702  29.585  1.00  0.00     0.135 A 
ATOM     65  F   UNL A   1      39.366  29.369  26.031  1.00  0.00    -0.206 F 
ATOM     66  C   UNL A   1      38.075  30.062  27.864  1.00  0.00     0.059 A 
ATOM     67  C   UNL A   1      38.681  29.361  30.107  1.00  0.00     0.059 A 
ATOM     68  F   UNL A   1      40.597  28.060  30.445  1.00  0.00    -0.206 F 
ATOM     69  C   UNL A   1      37.825  30.034  29.238  1.00  0.00     0.060 A 
BRANCH  69  70
ATOM     70  S   UNL A   1      36.321  30.813  29.862  1.00  0.00     0.124 S 
ATOM     71  O   UNL A   1      35.946  29.920  30.953  1.00  0.00    -0.237 OA
ATOM     72  O   UNL A   1      36.795  32.135  30.259  1.00  0.00    -0.237 OA
ATOM     73  O   UNL A   1      35.427  30.802  28.708  1.00  0.00    -0.744 OA
ENDBRANCH  69  70
ENDBRANCH  37  62
ENDBRANCH  11  12
ENDBRANCH   4   6
ENDBRANCH   1   2
BRANCH   1  74
ATOM     74  C   UNL A   1      42.089  26.630  36.166  1.00  0.00     0.023 C 
BRANCH  74  75
ATOM     75  C   UNL A   1      41.706  26.443  34.698  1.00  0.00     0.023 C 
BRANCH  75  76
ATOM     76  C   UNL A   1      41.266  27.717  33.980  1.00  0.00     0.116 C 
BRANCH  76  77
ATOM     77  N   UNL A   1      39.862  27.713  33.596  1.00  0.00    -0.351 N 
ATOM     78  C   UNL A   1      39.018  28.776  33.452  1.00  0.00     0.270 C 
ATOM     79  H   UNL A   1      39.470  26.829  33.416  1.00  0.00     0.163 HD
ATOM     80  O   UNL A   1      37.851  28.613  33.110  1.00  0.00    -0.268 OA
BRANCH  78  81
ATOM     81  C   UNL A   1      39.504  30.112  33.836  1.00  0.00     0.134 A 
ATOM     82  C   UNL A   1      40.268  30.729  32.924  1.00  0.00     0.063 A 
ATOM     83  N   UNL A   1      39.171  30.736  35.033  1.00  0.00    -0.207 N 
ATOM     84  C   UNL A   1      40.721  32.098  33.299  1.00  0.00     0.075 A 
ATOM     85  C   UNL A   1      39.568  32.068  35.268  1.00  0.00     0.166 A 
ATOM     86  N   UNL A   1      38.432  30.234  36.052  1.00  0.00    -0.145 NA
ATOM     87  N   UNL A   1      40.403  32.725  34.395  1.00  0.00    -0.228 NA
ATOM     88  C   UNL A   1      38.887  32.445  36.410  1.00  0.00     0.069 A 
ATOM     89  C   UNL A   1      38.206  31.271  36.844  1.00  0.00     0.184 A 
ATOM     90  C   UNL A   1      38.829  33.711  37.010  1.00  0.00    -0.028 A 
ATOM     91  N   UNL A   1      37.401  31.251  37.930  1.00  0.00    -0.222 NA
ATOM     92  C   UNL A   1      37.964  33.656  38.125  1.00  0.00     0.038 A 
ATOM     93  C   UNL A   1      37.297  32.468  38.548  1.00  0.00     0.147 A 
BRANCH  84  94
ATOM     94  C   UNL A   1      41.626  32.733  32.314  1.00  0.00     0.000 A 
ATOM     95  C   UNL A   1      42.729  33.455  32.781  1.00  0.00     0.012 A 
ATOM     96  C   UNL A   1      41.410  32.578  30.938  1.00  0.00     0.012 A 
ATOM     97  C   UNL A   1      43.636  33.999  31.869  1.00  0.00     0.021 A 
ATOM     98  C   UNL A   1      42.314  33.133  30.030  1.00  0.00     0.021 A 
ATOM     99  C   UNL A   1      43.426  33.835  30.498  1.00  0.00     0.041 A 
ATOM    100  Cl  UNL A   1      44.549  34.501  29.378  1.00  0.00    -0.084 Cl
ENDBRANCH  84  94
BRANCH  90 101
ATOM    101  C   UNL A   1      39.568  34.903  36.491  1.00  0.00     0.020 C 
ATOM    102  C   UNL A   1      39.916  36.088  37.361  1.00  0.00     0.009 C 
ATOM    103  C   UNL A   1      40.991  35.126  36.951  1.00  0.00     0.009 C 
ENDBRANCH  90 101
BRANCH  93 104
ATOM    104  C   UNL A   1      36.370  32.545  39.759  1.00  0.00     0.433 C 
ATOM    105  F   UNL A   1      35.066  32.742  39.417  1.00  0.00    -0.165 F 
ATOM    106  F   UNL A   1      36.398  31.424  40.533  1.00  0.00    -0.165 F 
ATOM    107  F   UNL A   1      36.679  33.573  40.608  1.00  0.00    -0.165 F 
ENDBRANCH  93 104
ENDBRANCH  78  81
ENDBRANCH  76  77
ENDBRANCH  75  76
ENDBRANCH  74  75
ENDBRANCH   1  74
TORSDOF 17
ENDMDL
MODEL 2
REMARK VINA RESULT:     -10.9      4.554     12.513
REMARK SMILES O=C(NCCCCNC(=O)c1cc(-c2ccc(Cl)cc2)nc2c3c(C4CC4)cc(C(F)(F)F)nc3nn12)c1ccc(-c2c3nc(c(-c4c(F)cc(S(=O)(=O)[O-])cc4F)c4ccc([nH]4)c(-c4c(F)cc(S(=O)(=O)[O-])cc4F)c4nc(c(-c5c(F)cc(S(=O)(=O)[O-])cc5F)c5ccc2[nH]5)C=C4)C=C3)cc1
REMARK SMILES IDX 4 1 3 2 1 3 2 4 38 6 39 7 103 8 40 9 102 10 41 11 42 12
REMARK SMILES IDX 43 13 96 14 44 15 101 16 95 17 97 18 45 19 100 20 94 21
REMARK SMILES IDX 93 22 46 24 80 25 59 26 79 27 60 28 63 29 78 30 98 31 61 32
REMARK SMILES IDX 62 33 77 35 99 36 64 37 47 38 48 39 57 40 49 41 50 42 56 43
REMARK SMILES IDX 58 44 51 45 52 46 53 47 54 48 55 49 81 50 82 51 91 52 83 53
REMARK SMILES IDX 84 54 90 55 92 56 85 57 86 58 87 59 88 60 89 61 65 62 66 63
REMARK SMILES IDX 75 64 67 65 68 66 74 67 76 68 69 69 70 70 71 71 72 72 73 73
REMARK SMILES IDX 5 74 6 75 7 76 8 77 9 78 10 80 11 81 12 82 37 83 13 84 22 85
REMARK SMILES IDX 36 86 21 87 23 88 35 89 24 90 34 91 28 92 29 93 14 94 15 95
REMARK SMILES IDX 20 96 16 97 19 98 17 99 18 100 25 101 26 102 27 103 30 104
REMARK SMILES IDX 31 105 32 106 33 107
REMARK H PARENT 3 5 97 23 63 34 8 79
REMARK Flexibility Score: inf
ROOT
ATOM      1  C   UNL A   1      43.404  34.211  25.516  1.00  0.00     0.116 C 
ENDROOT
BRANCH   1   2
ATOM      2  N   UNL A   1      44.155  35.449  25.663  1.00  0.00    -0.352 N 
ATOM      3  O   UNL A   1      44.878  37.290  26.776  1.00  0.00    -0.269 OA
ATOM      4  C   UNL A   1      44.306  36.218  26.799  1.00  0.00     0.251 C 
ATOM      5  H   UNL A   1      44.611  35.776  24.854  1.00  0.00     0.163 HD
BRANCH   4   6
ATOM      6  C   UNL A   1      43.726  35.692  28.049  1.00  0.00     0.039 A 
ATOM      7  C   UNL A   1      44.570  35.117  29.001  1.00  0.00     0.014 A 
ATOM      8  C   UNL A   1      42.337  35.656  28.189  1.00  0.00     0.014 A 
ATOM      9  C   UNL A   1      44.015  34.391  30.043  1.00  0.00     0.010 A 
ATOM     10  C   UNL A   1      41.784  34.956  29.258  1.00  0.00     0.010 A 
ATOM     11  C   UNL A   1      42.621  34.292  30.164  1.00  0.00    -0.014 A 
BRANCH  11  12
ATOM     12  C   UNL A   1      42.117  33.474  31.277  1.00  0.00     0.031 A 
ATOM     13  C   UNL A   1      40.645  33.559  31.518  1.00  0.00     0.074 A 
ATOM     14  C   UNL A   1      42.716  32.299  31.556  1.00  0.00     0.049 A 
ATOM     15  N   UNL A   1      39.749  32.866  30.879  1.00  0.00    -0.248 NA
ATOM     16  C   UNL A   1      40.094  34.632  32.347  1.00  0.00     0.031 C 
ATOM     17  C   UNL A   1      43.134  31.324  30.542  1.00  0.00     0.029 A 
ATOM     18  N   UNL A   1      42.826  31.627  32.750  1.00  0.00    -0.354 N 
ATOM     19  C   UNL A   1      38.518  33.418  31.190  1.00  0.00     0.074 A 
ATOM     20  C   UNL A   1      38.782  34.511  32.099  1.00  0.00     0.031 C 
ATOM     21  C   UNL A   1      43.296  30.127  31.141  1.00  0.00     0.029 A 
ATOM     22  C   UNL A   1      43.128  30.280  32.582  1.00  0.00     0.049 A 
ATOM     23  H   UNL A   1      42.704  32.054  33.629  1.00  0.00     0.167 HD
ATOM     24  C   UNL A   1      37.338  32.962  30.698  1.00  0.00     0.037 A 
ATOM     25  C   UNL A   1      42.767  29.297  33.453  1.00  0.00     0.037 A 
ATOM     26  C   UNL A   1      37.405  31.793  29.879  1.00  0.00     0.049 A 
ATOM     27  C   UNL A   1      41.331  29.084  33.039  1.00  0.00     0.074 A 
ATOM     28  C   UNL A   1      37.480  31.498  28.536  1.00  0.00     0.029 A 
ATOM     29  N   UNL A   1      37.454  30.572  30.513  1.00  0.00    -0.354 N 
ATOM     30  N   UNL A   1      40.917  28.371  32.024  1.00  0.00    -0.248 NA
ATOM     31  C   UNL A   1      40.335  30.019  33.568  1.00  0.00     0.031 C 
ATOM     32  C   UNL A   1      38.009  30.171  28.463  1.00  0.00     0.029 A 
ATOM     33  C   UNL A   1      38.275  29.763  29.769  1.00  0.00     0.049 A 
ATOM     34  H   UNL A   1      36.988  30.327  31.343  1.00  0.00     0.167 HD
ATOM     35  C   UNL A   1      39.730  28.981  31.606  1.00  0.00     0.074 A 
ATOM     36  C   UNL A   1      39.404  29.956  32.625  1.00  0.00     0.031 C 
ATOM     37  C   UNL A   1      39.193  28.815  30.363  1.00  0.00     0.037 A 
BRANCH  24  38
ATOM     38  C   UNL A   1      36.022  33.496  31.101  1.00  0.00     0.058 A 
ATOM     39  C   UNL A   1      35.264  34.197  30.153  1.00  0.00     0.135 A 
ATOM     40  C   UNL A   1      35.589  33.491  32.431  1.00  0.00     0.135 A 
ATOM     41  F   UNL A   1      35.654  34.221  28.867  1.00  0.00    -0.206 F 
ATOM     42  C   UNL A   1      34.140  34.921  30.517  1.00  0.00     0.059 A 
ATOM     43  C   UNL A   1      34.458  34.207  32.820  1.00  0.00     0.059 A 
ATOM     44  F   UNL A   1      36.285  32.829  33.368  1.00  0.00    -0.206 F 
ATOM     45  C   UNL A   1      33.759  34.941  31.860  1.00  0.00     0.060 A 
BRANCH  45  46
ATOM     46  S   UNL A   1      32.364  35.987  32.327  1.00  0.00     0.124 S 
ATOM     47  O   UNL A   1      31.349  34.995  32.665  1.00  0.00    -0.237 OA
ATOM     48  O   UNL A   1      32.915  36.741  33.448  1.00  0.00    -0.237 OA
ATOM     49  O   UNL A   1      32.104  36.764  31.120  1.00  0.00    -0.744 OA
ENDBRANCH  45  46
ENDBRANCH  24  38
BRANCH  25  50
ATOM     50  C   UNL A   1      43.235  29.522  34.857  1.00  0.00     0.058 A 
ATOM     51  C   UNL A   1      44.620  29.736  35.055  1.00  0.00     0.135 A 
ATOM     52  C   UNL A   1      42.432  29.598  36.002  1.00  0.00     0.135 A 
ATOM     53  F   UNL A   1      45.483  29.560  34.041  1.00  0.00    -0.206 F 
ATOM     54  C   UNL A   1      45.144  30.168  36.268  1.00  0.00     0.059 A 
ATOM     55  C   UNL A   1      42.929  30.049  37.227  1.00  0.00     0.059 A 
ATOM     56  F   UNL A   1      41.134  29.268  35.962  1.00  0.00    -0.206 F 
ATOM     57  C   UNL A   1      44.280  30.372  37.337  1.00  0.00     0.060 A 
BRANCH  57  58
ATOM     58  S   UNL A   1      44.937  31.132  38.836  1.00  0.00     0.124 S 
ATOM     59  O   UNL A   1      45.619  32.307  38.307  1.00  0.00    -0.237 OA
ATOM     60  O   UNL A   1      43.718  31.391  39.595  1.00  0.00    -0.237 OA
ATOM     61  O   UNL A   1      45.804  30.096  39.388  1.00  0.00    -0.744 OA
ENDBRANCH  57  58
ENDBRANCH  25  50
BRANCH  37  62
ATOM     62  C   UNL A   1      39.799  27.745  29.520  1.00  0.00     0.058 A 
ATOM     63  C   UNL A   1      39.291  26.440  29.567  1.00  0.00     0.135 A 
ATOM     64  C   UNL A   1      40.831  28.017  28.607  1.00  0.00     0.135 A 
ATOM     65  F   UNL A   1      38.298  26.130  30.418  1.00  0.00    -0.206 F 
ATOM     66  C   UNL A   1      39.759  25.450  28.710  1.00  0.00     0.059 A 
ATOM     67  C   UNL A   1      41.297  27.048  27.725  1.00  0.00     0.059 A 
ATOM     68  F   UNL A   1      41.375  29.243  28.532  1.00  0.00    -0.206 F 
ATOM     69  C   UNL A   1      40.750  25.767  27.780  1.00  0.00     0.060 A 
BRANCH  69  70
ATOM     70  S   UNL A   1      41.251  24.511  26.584  1.00  0.00     0.124 S 
ATOM     71  O   UNL A   1      42.320  23.821  27.297  1.00  0.00    -0.237 OA
ATOM     72  O   UNL A   1      40.020  23.750  26.394  1.00  0.00    -0.237 OA
ATOM     73  O   UNL A   1      41.675  25.293  25.425  1.00  0.00    -0.744 OA
ENDBRANCH  69  70
ENDBRANCH  37  62
ENDBRANCH  11  12
ENDBRANCH   4   6
ENDBRANCH   1   2
BRANCH   1  74
ATOM     74  C   UNL A   1      44.304  33.013  25.223  1.00  0.00     0.023 C 
BRANCH  74  75
ATOM     75  C   UNL A   1      45.066  32.486  26.439  1.00  0.00     0.023 C 
BRANCH  75  76
ATOM     76  C   UNL A   1      44.344  31.398  27.229  1.00  0.00     0.116 C 
BRANCH  76  77
ATOM     77  N   UNL A   1      43.496  30.547  26.407  1.00  0.00    -0.351 N 
ATOM     78  C   UNL A   1      43.633  29.216  26.140  1.00  0.00     0.270 C 
ATOM     79  H   UNL A   1      42.722  30.989  25.990  1.00  0.00     0.163 HD
ATOM     80  O   UNL A   1      42.824  28.629  25.429  1.00  0.00    -0.268 OA
BRANCH  78  81
ATOM     81  C   UNL A   1      44.842  28.527  26.622  1.00  0.00     0.134 A 
ATOM     82  C   UNL A   1      44.792  28.101  27.892  1.00  0.00     0.063 A 
ATOM     83  N   UNL A   1      45.953  28.277  25.825  1.00  0.00    -0.207 N 
ATOM     84  C   UNL A   1      45.999  27.366  28.362  1.00  0.00     0.075 A 
ATOM     85  C   UNL A   1      47.015  27.495  26.323  1.00  0.00     0.166 A 
ATOM     86  N   UNL A   1      46.157  28.660  24.542  1.00  0.00    -0.145 NA
ATOM     87  N   UNL A   1      47.043  27.086  27.635  1.00  0.00    -0.228 NA
ATOM     88  C   UNL A   1      47.820  27.250  25.226  1.00  0.00     0.069 A 
ATOM     89  C   UNL A   1      47.236  27.995  24.160  1.00  0.00     0.184 A 
ATOM     90  C   UNL A   1      48.947  26.420  25.142  1.00  0.00    -0.028 A 
ATOM     91  N   UNL A   1      47.732  27.986  22.903  1.00  0.00    -0.222 NA
ATOM     92  C   UNL A   1      49.422  26.418  23.811  1.00  0.00     0.038 A 
ATOM     93  C   UNL A   1      48.828  27.178  22.761  1.00  0.00     0.147 A 
BRANCH  84  94
ATOM     94  C   UNL A   1      45.957  26.971  29.789  1.00  0.00     0.000 A 
ATOM     95  C   UNL A   1      44.745  27.065  30.478  1.00  0.00     0.012 A 
ATOM     96  C   UNL A   1      47.100  26.470  30.426  1.00  0.00     0.012 A 
ATOM     97  C   UNL A   1      44.667  26.628  31.803  1.00  0.00     0.021 A 
ATOM     98  C   UNL A   1      47.020  26.045  31.754  1.00  0.00     0.021 A 
ATOM     99  C   UNL A   1      45.803  26.119  32.434  1.00  0.00     0.041 A 
ATOM    100  Cl  UNL A   1      45.702  25.575  34.063  1.00  0.00    -0.084 Cl
ENDBRANCH  84  94
BRANCH  90 101
ATOM    101  C   UNL A   1      49.498  25.660  26.305  1.00  0.00     0.020 C 
ATOM    102  C   UNL A   1      50.962  25.302  26.425  1.00  0.00     0.009 C 
ATOM    103  C   UNL A   1      50.390  26.388  27.285  1.00  0.00     0.009 C 
ENDBRANCH  90 101
BRANCH  93 104
ATOM    104  C   UNL A   1      49.425  27.073  21.359  1.00  0.00     0.433 C 
ATOM    105  F   UNL A   1      49.488  28.274  20.718  1.00  0.00    -0.165 F 
ATOM    106  F   UNL A   1      50.690  26.567  21.347  1.00  0.00    -0.165 F 
ATOM    107  F   UNL A   1      48.707  26.258  20.528  1.00  0.00    -0.165 F 
ENDBRANCH  93 104
ENDBRANCH  78  81
ENDBRANCH  76  77
ENDBRANCH  75  76
ENDBRANCH  74  75
ENDBRANCH   1  74
TORSDOF 17
ENDMDL
MODEL 3
REMARK VINA RESULT:     -10.5      2.768      4.603
REMARK SMILES O=C(NCCCCNC(=O)c1cc(-c2ccc(Cl)cc2)nc2c3c(C4CC4)cc(C(F)(F)F)nc3nn12)c1ccc(-c2c3nc(c(-c4c(F)cc(S(=O)(=O)[O-])cc4F)c4ccc([nH]4)c(-c4c(F)cc(S(=O)(=O)[O-])cc4F)c4nc(c(-c5c(F)cc(S(=O)(=O)[O-])cc5F)c5ccc2[nH]5)C=C4)C=C3)cc1
REMARK SMILES IDX 4 1 3 2 1 3 2 4 38 6 39 7 103 8 40 9 102 10 41 11 42 12
REMARK SMILES IDX 43 13 96 14 44 15 101 16 95 17 97 18 45 19 100 20 94 21
REMARK SMILES IDX 93 22 46 24 80 25 59 26 79 27 60 28 63 29 78 30 98 31 61 32
REMARK SMILES IDX 62 33 77 35 99 36 64 37 47 38 48 39 57 40 49 41 50 42 56 43
REMARK SMILES IDX 58 44 51 45 52 46 53 47 54 48 55 49 81 50 82 51 91 52 83 53
REMARK SMILES IDX 84 54 90 55 92 56 85 57 86 58 87 59 88 60 89 61 65 62 66 63
REMARK SMILES IDX 75 64 67 65 68 66 74 67 76 68 69 69 70 70 71 71 72 72 73 73
REMARK SMILES IDX 5 74 6 75 7 76 8 77 9 78 10 80 11 81 12 82 37 83 13 84 22 85
REMARK SMILES IDX 36 86 21 87 23 88 35 89 24 90 34 91 28 92 29 93 14 94 15 95
REMARK SMILES IDX 20 96 16 97 19 98 17 99 18 100 25 101 26 102 27 103 30 104
REMARK SMILES IDX 31 105 32 106 33 107
REMARK H PARENT 3 5 97 23 63 34 8 79
REMARK Flexibility Score: inf
ROOT
ATOM      1  C   UNL A   1      42.284  24.524  35.402  1.00  0.00     0.116 C 
ENDROOT
BRANCH   1   2
ATOM      2  N   UNL A   1      43.435  24.405  36.285  1.00  0.00    -0.352 N 
ATOM      3  O   UNL A   1      45.652  24.322  36.765  1.00  0.00    -0.269 OA
ATOM      4  C   UNL A   1      44.770  24.542  35.959  1.00  0.00     0.251 C 
ATOM      5  H   UNL A   1      43.237  24.203  37.227  1.00  0.00     0.163 HD
BRANCH   4   6
ATOM      6  C   UNL A   1      45.086  24.953  34.579  1.00  0.00     0.039 A 
ATOM      7  C   UNL A   1      45.901  26.068  34.372  1.00  0.00     0.014 A 
ATOM      8  C   UNL A   1      44.454  24.303  33.516  1.00  0.00     0.014 A 
ATOM      9  C   UNL A   1      45.985  26.614  33.100  1.00  0.00     0.010 A 
ATOM     10  C   UNL A   1      44.572  24.834  32.234  1.00  0.00     0.010 A 
ATOM     11  C   UNL A   1      45.306  26.010  32.031  1.00  0.00    -0.014 A 
BRANCH  11  12
ATOM     12  C   UNL A   1      45.421  26.673  30.724  1.00  0.00     0.031 A 
ATOM     13  C   UNL A   1      45.205  25.791  29.538  1.00  0.00     0.074 A 
ATOM     14  C   UNL A   1      45.047  27.963  30.604  1.00  0.00     0.049 A 
ATOM     15  N   UNL A   1      44.041  25.486  29.045  1.00  0.00    -0.248 NA
ATOM     16  C   UNL A   1      46.312  25.006  28.991  1.00  0.00     0.031 C 
ATOM     17  C   UNL A   1      43.831  28.530  31.198  1.00  0.00     0.029 A 
ATOM     18  N   UNL A   1      45.497  28.934  29.742  1.00  0.00    -0.354 N 
ATOM     19  C   UNL A   1      44.245  24.453  28.145  1.00  0.00     0.074 A 
ATOM     20  C   UNL A   1      45.666  24.188  28.148  1.00  0.00     0.031 C 
ATOM     21  C   UNL A   1      43.539  29.681  30.561  1.00  0.00     0.029 A 
ATOM     22  C   UNL A   1      44.607  29.997  29.619  1.00  0.00     0.049 A 
ATOM     23  H   UNL A   1      46.356  28.883  29.262  1.00  0.00     0.167 HD
ATOM     24  C   UNL A   1      43.251  23.860  27.435  1.00  0.00     0.037 A 
ATOM     25  C   UNL A   1      44.488  30.774  28.507  1.00  0.00     0.037 A 
ATOM     26  C   UNL A   1      41.944  24.415  27.595  1.00  0.00     0.049 A 
ATOM     27  C   UNL A   1      43.629  29.883  27.645  1.00  0.00     0.074 A 
ATOM     28  C   UNL A   1      40.826  24.177  28.363  1.00  0.00     0.029 A 
ATOM     29  N   UNL A   1      41.628  25.526  26.846  1.00  0.00    -0.354 N 
ATOM     30  N   UNL A   1      42.329  29.752  27.722  1.00  0.00    -0.248 NA
ATOM     31  C   UNL A   1      44.302  28.809  26.910  1.00  0.00     0.031 C 
ATOM     32  C   UNL A   1      40.085  25.400  28.354  1.00  0.00     0.029 A 
ATOM     33  C   UNL A   1      40.830  26.325  27.625  1.00  0.00     0.049 A 
ATOM     34  H   UNL A   1      41.919  25.711  25.925  1.00  0.00     0.167 HD
ATOM     35  C   UNL A   1      42.068  28.440  27.314  1.00  0.00     0.074 A 
ATOM     36  C   UNL A   1      43.315  27.933  26.783  1.00  0.00     0.031 C 
ATOM     37  C   UNL A   1      40.920  27.769  27.620  1.00  0.00     0.037 A 
BRANCH  24  38
ATOM     38  C   UNL A   1      43.483  22.821  26.413  1.00  0.00     0.058 A 
ATOM     39  C   UNL A   1      43.132  21.497  26.710  1.00  0.00     0.135 A 
ATOM     40  C   UNL A   1      44.204  23.074  25.241  1.00  0.00     0.135 A 
ATOM     41  F   UNL A   1      42.439  21.221  27.829  1.00  0.00    -0.206 F 
ATOM     42  C   UNL A   1      43.531  20.444  25.903  1.00  0.00     0.059 A 
ATOM     43  C   UNL A   1      44.612  22.032  24.411  1.00  0.00     0.059 A 
ATOM     44  F   UNL A   1      44.557  24.328  24.920  1.00  0.00    -0.206 F 
ATOM     45  C   UNL A   1      44.294  20.720  24.767  1.00  0.00     0.060 A 
BRANCH  45  46
ATOM     46  S   UNL A   1      44.903  19.323  23.798  1.00  0.00     0.124 S 
ATOM     47  O   UNL A   1      46.333  19.366  24.082  1.00  0.00    -0.237 OA
ATOM     48  O   UNL A   1      44.170  18.206  24.386  1.00  0.00    -0.237 OA
ATOM     49  O   UNL A   1      44.524  19.667  22.431  1.00  0.00    -0.744 OA
ENDBRANCH  45  46
ENDBRANCH  24  38
BRANCH  25  50
ATOM     50  C   UNL A   1      45.767  31.421  28.073  1.00  0.00     0.058 A 
ATOM     51  C   UNL A   1      45.782  32.833  27.976  1.00  0.00     0.135 A 
ATOM     52  C   UNL A   1      46.980  30.774  27.804  1.00  0.00     0.135 A 
ATOM     53  F   UNL A   1      44.640  33.531  28.093  1.00  0.00    -0.206 F 
ATOM     54  C   UNL A   1      46.955  33.558  27.797  1.00  0.00     0.059 A 
ATOM     55  C   UNL A   1      48.175  31.478  27.643  1.00  0.00     0.059 A 
ATOM     56  F   UNL A   1      47.050  29.439  27.721  1.00  0.00    -0.206 F 
ATOM     57  C   UNL A   1      48.157  32.871  27.684  1.00  0.00     0.060 A 
BRANCH  57  58
ATOM     58  S   UNL A   1      49.689  33.823  27.667  1.00  0.00     0.124 S 
ATOM     59  O   UNL A   1      50.122  33.679  26.281  1.00  0.00    -0.237 OA
ATOM     60  O   UNL A   1      49.218  35.149  28.052  1.00  0.00    -0.237 OA
ATOM     61  O   UNL A   1      50.519  33.146  28.659  1.00  0.00    -0.744 OA
ENDBRANCH  57  58
ENDBRANCH  25  50
BRANCH  37  62
ATOM     62  C   UNL A   1      39.821  28.580  28.217  1.00  0.00     0.058 A 
ATOM     63  C   UNL A   1      39.627  28.588  29.604  1.00  0.00     0.135 A 
ATOM     64  C   UNL A   1      39.003  29.411  27.433  1.00  0.00     0.135 A 
ATOM     65  F   UNL A   1      40.387  27.817  30.400  1.00  0.00    -0.206 F 
ATOM     66  C   UNL A   1      38.686  29.422  30.199  1.00  0.00     0.059 A 
ATOM     67  C   UNL A   1      38.073  30.270  28.009  1.00  0.00     0.059 A 
ATOM     68  F   UNL A   1      39.125  29.429  26.095  1.00  0.00    -0.206 F 
ATOM     69  C   UNL A   1      37.926  30.273  29.395  1.00  0.00     0.060 A 
BRANCH  69  70
ATOM     70  S   UNL A   1      36.806  31.446  30.189  1.00  0.00     0.124 S 
ATOM     71  O   UNL A   1      36.779  30.959  31.563  1.00  0.00    -0.237 OA
ATOM     72  O   UNL A   1      37.487  32.720  29.980  1.00  0.00    -0.237 OA
ATOM     73  O   UNL A   1      35.560  31.286  29.443  1.00  0.00    -0.744 OA
ENDBRANCH  69  70
ENDBRANCH  37  62
ENDBRANCH  11  12
ENDBRANCH   4   6
ENDBRANCH   1   2
BRANCH   1  74
ATOM     74  C   UNL A   1      41.516  25.825  35.617  1.00  0.00     0.023 C 
BRANCH  74  75
ATOM     75  C   UNL A   1      41.568  26.791  34.432  1.00  0.00     0.023 C 
BRANCH  75  76
ATOM     76  C   UNL A   1      42.639  27.873  34.530  1.00  0.00     0.116 C 
BRANCH  76  77
ATOM     77  N   UNL A   1      42.767  28.446  35.863  1.00  0.00    -0.351 N 
ATOM     78  C   UNL A   1      42.533  29.729  36.262  1.00  0.00     0.270 C 
ATOM     79  H   UNL A   1      43.061  27.826  36.568  1.00  0.00     0.163 HD
ATOM     80  O   UNL A   1      42.678  30.062  37.434  1.00  0.00    -0.268 OA
BRANCH  78  81
ATOM     81  C   UNL A   1      42.222  30.736  35.234  1.00  0.00     0.134 A 
ATOM     82  C   UNL A   1      40.989  31.259  35.297  1.00  0.00     0.063 A 
ATOM     83  N   UNL A   1      43.136  31.170  34.281  1.00  0.00    -0.207 N 
ATOM     84  C   UNL A   1      40.693  32.309  34.283  1.00  0.00     0.075 A 
ATOM     85  C   UNL A   1      42.803  32.231  33.416  1.00  0.00     0.166 A 
ATOM     86  N   UNL A   1      44.400  30.723  34.081  1.00  0.00    -0.145 NA
ATOM     87  N   UNL A   1      41.535  32.762  33.397  1.00  0.00    -0.228 NA
ATOM     88  C   UNL A   1      43.986  32.557  32.781  1.00  0.00     0.069 A 
ATOM     89  C   UNL A   1      44.932  31.591  33.233  1.00  0.00     0.184 A 
ATOM     90  C   UNL A   1      44.240  33.624  31.907  1.00  0.00    -0.028 A 
ATOM     91  N   UNL A   1      46.227  31.598  32.848  1.00  0.00    -0.222 NA
ATOM     92  C   UNL A   1      45.606  33.611  31.545  1.00  0.00     0.038 A 
ATOM     93  C   UNL A   1      46.534  32.630  32.003  1.00  0.00     0.147 A 
BRANCH  84  94
ATOM     94  C   UNL A   1      39.304  32.820  34.319  1.00  0.00     0.000 A 
ATOM     95  C   UNL A   1      38.566  32.680  35.498  1.00  0.00     0.012 A 
ATOM     96  C   UNL A   1      38.751  33.472  33.209  1.00  0.00     0.012 A 
ATOM     97  C   UNL A   1      37.280  33.220  35.577  1.00  0.00     0.021 A 
ATOM     98  C   UNL A   1      37.462  34.001  33.289  1.00  0.00     0.021 A 
ATOM     99  C   UNL A   1      36.734  33.880  34.473  1.00  0.00     0.041 A 
ATOM    100  Cl  UNL A   1      35.153  34.550  34.577  1.00  0.00    -0.084 Cl
ENDBRANCH  84  94
BRANCH  90 101
ATOM    101  C   UNL A   1      43.196  34.606  31.482  1.00  0.00     0.020 C 
ATOM    102  C   UNL A   1      43.347  35.476  30.255  1.00  0.00     0.009 C 
ATOM    103  C   UNL A   1      42.400  34.315  30.230  1.00  0.00     0.009 C 
ENDBRANCH  90 101
BRANCH  93 104
ATOM    104  C   UNL A   1      47.990  32.739  31.555  1.00  0.00     0.433 C 
ATOM    105  F   UNL A   1      48.866  32.752  32.598  1.00  0.00    -0.165 F 
ATOM    106  F   UNL A   1      48.381  31.721  30.738  1.00  0.00    -0.165 F 
ATOM    107  F   UNL A   1      48.251  33.883  30.851  1.00  0.00    -0.165 F 
ENDBRANCH  93 104
ENDBRANCH  78  81
ENDBRANCH  76  77
ENDBRANCH  75  76
ENDBRANCH  74  75
ENDBRANCH   1  74
TORSDOF 17
ENDMDL
