MODEL 1
REMARK VINA RESULT:     -10.6      0.000      0.000
REMARK SMILES O=C(NCCCCNC(=O)c1ccc(-c2c3nc(c(-c4c(F)cc(S(=O)(=O)[O-])cc4F)c4ccc([nH]4)c(-c4c(F)cc(S(=O)(=O)[O-])cc4F)c4nc(c(-c5c(F)cc(S(=O)(=O)[O-])cc5F)c5ccc2[nH]5)C=C4)C=C3)cc1)c1ccc(/C=C/c2ccnc(-c3cccc([N+](=O)[O-])c3)[n+]2[O-])cc1
REMARK SMILES IDX 5 1 4 2 3 3 1 4 2 5 77 7 78 8 100 9 79 10 99 11 80 12 81 13
REMARK SMILES IDX 82 14 83 15 84 16 97 17 85 18 87 19 98 20 86 21 88 22 89 23
REMARK SMILES IDX 96 24 90 25 92 26 91 27 93 28 94 29 95 30 6 31 7 32 8 33
REMARK SMILES IDX 9 34 10 36 11 37 12 38 76 39 13 40 75 41 14 42 15 43 16 44
REMARK SMILES IDX 69 45 17 46 74 47 68 48 70 49 18 50 73 51 67 52 66 53 19 55
REMARK SMILES IDX 53 56 32 57 52 58 33 59 36 60 51 61 71 62 34 63 35 64 50 66
REMARK SMILES IDX 72 67 37 68 20 69 21 70 30 71 22 72 23 73 29 74 31 75 24 76
REMARK SMILES IDX 25 77 26 78 27 79 28 80 54 81 55 82 64 83 56 84 57 85 63 86
REMARK SMILES IDX 65 87 58 88 59 89 60 90 61 91 62 92 38 93 39 94 48 95 40 96
REMARK SMILES IDX 41 97 47 98 49 99 42 100 43 101 44 102 45 103 46 104
REMARK H PARENT 3 6 8 35 70 54 36 65
REMARK Flexibility Score: inf
ROOT
ATOM      1  C   UNL A   1      33.441  34.743  28.962  1.00  0.00     0.023 C 
ENDROOT
BRANCH   1   2
ATOM      2  C   UNL A   1      34.067  34.620  30.348  1.00  0.00     0.116 C 
BRANCH   2   3
ATOM      3  N   UNL A   1      33.997  35.857  31.111  1.00  0.00    -0.352 N 
ATOM      4  O   UNL A   1      34.335  37.201  32.906  1.00  0.00    -0.269 OA
ATOM      5  C   UNL A   1      34.566  36.145  32.328  1.00  0.00     0.251 C 
ATOM      6  H   UNL A   1      33.473  36.582  30.702  1.00  0.00     0.163 HD
BRANCH   5   7
ATOM      7  C   UNL A   1      35.450  35.147  32.955  1.00  0.00     0.039 A 
ATOM      8  C   UNL A   1      35.108  34.570  34.180  1.00  0.00     0.014 A 
ATOM      9  C   UNL A   1      36.649  34.817  32.325  1.00  0.00     0.014 A 
ATOM     10  C   UNL A   1      36.016  33.726  34.821  1.00  0.00     0.009 A 
ATOM     11  C   UNL A   1      37.552  33.969  32.973  1.00  0.00     0.009 A 
ATOM     12  C   UNL A   1      37.263  33.443  34.243  1.00  0.00    -0.025 A 
BRANCH  12  13
ATOM     13  C   UNL A   1      38.280  32.604  34.901  1.00  0.00     0.012 C 
ATOM     14  C   UNL A   1      39.574  32.932  35.047  1.00  0.00     0.053 C 
BRANCH  14  15
ATOM     15  C   UNL A   1      40.547  32.056  35.718  1.00  0.00     0.134 A 
ATOM     16  C   UNL A   1      41.119  32.494  36.913  1.00  0.00     0.100 A 
ATOM     17  N   UNL A   1      40.912  30.817  35.164  1.00  0.00    -0.228 N 
ATOM     18  C   UNL A   1      42.015  31.663  37.540  1.00  0.00     0.259 A 
ATOM     19  C   UNL A   1      41.847  30.047  35.860  1.00  0.00     0.333 A 
ATOM     20  O   UNL A   1      40.409  30.411  34.058  1.00  0.00    -0.710 OA
ATOM     21  N   UNL A   1      42.378  30.464  37.055  1.00  0.00    -0.049 NA
BRANCH  19  22
ATOM     22  C   UNL A   1      42.331  28.770  35.330  1.00  0.00     0.076 A 
ATOM     23  C   UNL A   1      43.374  28.737  34.385  1.00  0.00     0.017 A 
ATOM     24  C   UNL A   1      41.743  27.553  35.713  1.00  0.00     0.102 A 
ATOM     25  C   UNL A   1      43.833  27.528  33.852  1.00  0.00     0.008 A 
ATOM     26  C   UNL A   1      42.192  26.344  35.164  1.00  0.00     0.270 A 
ATOM     27  C   UNL A   1      43.242  26.327  34.238  1.00  0.00     0.085 A 
BRANCH  26  28
ATOM     28  N   UNL A   1      41.535  25.086  35.539  1.00  0.00     0.062 N 
ATOM     29  O   UNL A   1      40.529  25.157  36.261  1.00  0.00    -0.258 OA
ATOM     30  O   UNL A   1      42.040  24.028  35.139  1.00  0.00    -0.258 OA
ENDBRANCH  26  28
ENDBRANCH  19  22
ENDBRANCH  14  15
ENDBRANCH  12  13
ENDBRANCH   5   7
ENDBRANCH   2   3
ENDBRANCH   1   2
BRANCH   1  31
ATOM     31  C   UNL A   1      33.632  33.534  28.047  1.00  0.00     0.023 C 
BRANCH  31  32
ATOM     32  C   UNL A   1      34.231  32.296  28.704  1.00  0.00     0.116 C 
BRANCH  32  33
ATOM     33  N   UNL A   1      33.786  31.048  28.099  1.00  0.00    -0.352 N 
ATOM     34  C   UNL A   1      34.502  29.902  27.841  1.00  0.00     0.251 C 
ATOM     35  H   UNL A   1      32.838  31.021  27.836  1.00  0.00     0.163 HD
ATOM     36  O   UNL A   1      33.980  28.977  27.228  1.00  0.00    -0.269 OA
BRANCH  34  37
ATOM     37  C   UNL A   1      35.915  29.807  28.270  1.00  0.00     0.039 A 
ATOM     38  C   UNL A   1      36.197  29.434  29.586  1.00  0.00     0.014 A 
ATOM     39  C   UNL A   1      36.955  30.047  27.367  1.00  0.00     0.014 A 
ATOM     40  C   UNL A   1      37.521  29.212  29.974  1.00  0.00     0.010 A 
ATOM     41  C   UNL A   1      38.267  29.761  27.736  1.00  0.00     0.010 A 
ATOM     42  C   UNL A   1      38.562  29.328  29.038  1.00  0.00    -0.014 A 
BRANCH  42  43
ATOM     43  C   UNL A   1      39.961  28.968  29.387  1.00  0.00     0.031 A 
ATOM     44  C   UNL A   1      40.853  29.970  30.065  1.00  0.00     0.074 A 
ATOM     45  C   UNL A   1      40.453  27.770  29.014  1.00  0.00     0.049 A 
ATOM     46  N   UNL A   1      42.127  29.883  30.347  1.00  0.00    -0.248 NA
ATOM     47  C   UNL A   1      40.238  31.250  30.451  1.00  0.00     0.031 C 
ATOM     48  C   UNL A   1      39.703  26.729  28.304  1.00  0.00     0.029 A 
ATOM     49  N   UNL A   1      41.707  27.231  29.160  1.00  0.00    -0.354 N 
ATOM     50  C   UNL A   1      42.473  31.098  30.924  1.00  0.00     0.074 A 
ATOM     51  C   UNL A   1      41.282  31.922  30.915  1.00  0.00     0.031 C 
ATOM     52  C   UNL A   1      40.507  25.674  28.092  1.00  0.00     0.029 A 
ATOM     53  C   UNL A   1      41.837  25.975  28.614  1.00  0.00     0.049 A 
ATOM     54  H   UNL A   1      42.444  27.699  29.614  1.00  0.00     0.167 HD
ATOM     55  C   UNL A   1      43.667  31.487  31.430  1.00  0.00     0.037 A 
ATOM     56  C   UNL A   1      42.907  25.163  28.530  1.00  0.00     0.037 A 
ATOM     57  C   UNL A   1      44.840  30.654  31.467  1.00  0.00     0.049 A 
ATOM     58  C   UNL A   1      44.219  25.610  29.112  1.00  0.00     0.074 A 
ATOM     59  C   UNL A   1      46.078  30.936  32.019  1.00  0.00     0.029 A 
ATOM     60  N   UNL A   1      44.921  29.377  30.933  1.00  0.00    -0.354 N 
ATOM     61  N   UNL A   1      44.512  26.744  29.703  1.00  0.00    -0.248 NA
ATOM     62  C   UNL A   1      45.346  24.671  29.017  1.00  0.00     0.031 C 
ATOM     63  C   UNL A   1      46.917  29.839  31.793  1.00  0.00     0.029 A 
ATOM     64  C   UNL A   1      46.192  28.862  31.130  1.00  0.00     0.049 A 
ATOM     65  H   UNL A   1      44.184  28.906  30.482  1.00  0.00     0.167 HD
ATOM     66  C   UNL A   1      45.849  26.646  30.071  1.00  0.00     0.074 A 
ATOM     67  C   UNL A   1      46.306  25.338  29.643  1.00  0.00     0.031 C 
ATOM     68  C   UNL A   1      46.628  27.556  30.705  1.00  0.00     0.037 A 
BRANCH  55  69
ATOM     69  C   UNL A   1      43.761  32.877  31.994  1.00  0.00     0.058 A 
ATOM     70  C   UNL A   1      43.680  33.115  33.375  1.00  0.00     0.135 A 
ATOM     71  C   UNL A   1      43.959  33.980  31.148  1.00  0.00     0.135 A 
ATOM     72  F   UNL A   1      43.475  32.097  34.226  1.00  0.00    -0.206 F 
ATOM     73  C   UNL A   1      43.762  34.402  33.896  1.00  0.00     0.059 A 
ATOM     74  C   UNL A   1      44.067  35.274  31.650  1.00  0.00     0.059 A 
ATOM     75  F   UNL A   1      44.043  33.808  29.820  1.00  0.00    -0.206 F 
ATOM     76  C   UNL A   1      43.950  35.476  33.024  1.00  0.00     0.060 A 
BRANCH  76  77
ATOM     77  S   UNL A   1      44.050  37.142  33.714  1.00  0.00     0.124 S 
ATOM     78  O   UNL A   1      45.385  37.131  34.303  1.00  0.00    -0.237 OA
ATOM     79  O   UNL A   1      43.887  37.983  32.533  1.00  0.00    -0.237 OA
ATOM     80  O   UNL A   1      42.944  37.181  34.665  1.00  0.00    -0.744 OA
ENDBRANCH  76  77
ENDBRANCH  55  69
BRANCH  56  81
ATOM     81  C   UNL A   1      42.777  23.830  27.885  1.00  0.00     0.058 A 
ATOM     82  C   UNL A   1      42.932  23.686  26.498  1.00  0.00     0.135 A 
ATOM     83  C   UNL A   1      42.516  22.677  28.639  1.00  0.00     0.135 A 
ATOM     84  F   UNL A   1      43.177  24.762  25.735  1.00  0.00    -0.206 F 
ATOM     85  C   UNL A   1      42.821  22.446  25.879  1.00  0.00     0.059 A 
ATOM     86  C   UNL A   1      42.421  21.422  28.046  1.00  0.00     0.059 A 
ATOM     87  F   UNL A   1      42.376  22.762  29.971  1.00  0.00    -0.206 F 
ATOM     88  C   UNL A   1      42.566  21.319  26.662  1.00  0.00     0.060 A 
BRANCH  88  89
ATOM     89  S   UNL A   1      42.478  19.704  25.856  1.00  0.00     0.124 S 
ATOM     90  O   UNL A   1      42.875  18.813  26.941  1.00  0.00    -0.237 OA
ATOM     91  O   UNL A   1      41.076  19.636  25.454  1.00  0.00    -0.237 OA
ATOM     92  O   UNL A   1      43.432  19.827  24.758  1.00  0.00    -0.744 OA
ENDBRANCH  88  89
ENDBRANCH  56  81
BRANCH  68  93
ATOM     93  C   UNL A   1      48.048  27.165  31.000  1.00  0.00     0.058 A 
ATOM     94  C   UNL A   1      48.396  26.505  32.188  1.00  0.00     0.135 A 
ATOM     95  C   UNL A   1      49.062  27.402  30.058  1.00  0.00     0.135 A 
ATOM     96  F   UNL A   1      47.464  26.262  33.123  1.00  0.00    -0.206 F 
ATOM     97  C   UNL A   1      49.704  26.104  32.438  1.00  0.00     0.059 A 
ATOM     98  C   UNL A   1      50.372  26.992  30.278  1.00  0.00     0.059 A 
ATOM     99  F   UNL A   1      48.778  28.024  28.903  1.00  0.00    -0.206 F 
ATOM    100  C   UNL A   1      50.685  26.350  31.476  1.00  0.00     0.060 A 
BRANCH 100 101
ATOM    101  S   UNL A   1      52.371  25.786  31.791  1.00  0.00     0.124 S 
ATOM    102  O   UNL A   1      53.015  26.056  30.509  1.00  0.00    -0.237 OA
ATOM    103  O   UNL A   1      52.787  26.638  32.901  1.00  0.00    -0.237 OA
ATOM    104  O   UNL A   1      52.200  24.375  32.124  1.00  0.00    -0.744 OA
ENDBRANCH 100 101
ENDBRANCH  68  93
ENDBRANCH  42  43
ENDBRANCH  34  37
ENDBRANCH  32  33
ENDBRANCH  31  32
ENDBRANCH   1  31
TORSDOF 18
ENDMDL
MODEL 2
REMARK VINA RESULT:     -10.4      1.740      2.856
REMARK SMILES O=C(NCCCCNC(=O)c1ccc(-c2c3nc(c(-c4c(F)cc(S(=O)(=O)[O-])cc4F)c4ccc([nH]4)c(-c4c(F)cc(S(=O)(=O)[O-])cc4F)c4nc(c(-c5c(F)cc(S(=O)(=O)[O-])cc5F)c5ccc2[nH]5)C=C4)C=C3)cc1)c1ccc(/C=C/c2ccnc(-c3cccc([N+](=O)[O-])c3)[n+]2[O-])cc1
REMARK SMILES IDX 5 1 4 2 3 3 1 4 2 5 77 7 78 8 100 9 79 10 99 11 80 12 81 13
REMARK SMILES IDX 82 14 83 15 84 16 97 17 85 18 87 19 98 20 86 21 88 22 89 23
REMARK SMILES IDX 96 24 90 25 92 26 91 27 93 28 94 29 95 30 6 31 7 32 8 33
REMARK SMILES IDX 9 34 10 36 11 37 12 38 76 39 13 40 75 41 14 42 15 43 16 44
REMARK SMILES IDX 69 45 17 46 74 47 68 48 70 49 18 50 73 51 67 52 66 53 19 55
REMARK SMILES IDX 53 56 32 57 52 58 33 59 36 60 51 61 71 62 34 63 35 64 50 66
REMARK SMILES IDX 72 67 37 68 20 69 21 70 30 71 22 72 23 73 29 74 31 75 24 76
REMARK SMILES IDX 25 77 26 78 27 79 28 80 54 81 55 82 64 83 56 84 57 85 63 86
REMARK SMILES IDX 65 87 58 88 59 89 60 90 61 91 62 92 38 93 39 94 48 95 40 96
REMARK SMILES IDX 41 97 47 98 49 99 42 100 43 101 44 102 45 103 46 104
REMARK H PARENT 3 6 8 35 70 54 36 65
REMARK Flexibility Score: inf
ROOT
ATOM      1  C   UNL A   1      35.685  34.470  30.109  1.00  0.00     0.023 C 
ENDROOT
BRANCH   1   2
ATOM      2  C   UNL A   1      36.032  33.246  30.953  1.00  0.00     0.116 C 
BRANCH   2   3
ATOM      3  N   UNL A   1      35.568  33.360  32.327  1.00  0.00    -0.352 N 
ATOM      4  O   UNL A   1      35.568  32.918  34.552  1.00  0.00    -0.269 OA
ATOM      5  C   UNL A   1      36.127  32.828  33.464  1.00  0.00     0.251 C 
ATOM      6  H   UNL A   1      34.747  33.886  32.460  1.00  0.00     0.163 HD
BRANCH   5   7
ATOM      7  C   UNL A   1      37.413  32.117  33.361  1.00  0.00     0.039 A 
ATOM      8  C   UNL A   1      37.442  30.733  33.176  1.00  0.00     0.014 A 
ATOM      9  C   UNL A   1      38.598  32.841  33.488  1.00  0.00     0.014 A 
ATOM     10  C   UNL A   1      38.664  30.059  33.210  1.00  0.00     0.009 A 
ATOM     11  C   UNL A   1      39.817  32.159  33.518  1.00  0.00     0.009 A 
ATOM     12  C   UNL A   1      39.863  30.758  33.416  1.00  0.00    -0.025 A 
BRANCH  12  13
ATOM     13  C   UNL A   1      41.173  30.092  33.515  1.00  0.00     0.012 C 
ATOM     14  C   UNL A   1      41.370  28.836  33.949  1.00  0.00     0.053 C 
BRANCH  14  15
ATOM     15  C   UNL A   1      42.704  28.219  34.024  1.00  0.00     0.134 A 
ATOM     16  C   UNL A   1      43.815  29.003  33.712  1.00  0.00     0.100 A 
ATOM     17  N   UNL A   1      42.860  26.869  34.379  1.00  0.00    -0.228 N 
ATOM     18  C   UNL A   1      45.057  28.424  33.800  1.00  0.00     0.259 A 
ATOM     19  C   UNL A   1      44.160  26.357  34.421  1.00  0.00     0.333 A 
ATOM     20  O   UNL A   1      41.847  26.132  34.649  1.00  0.00    -0.710 OA
ATOM     21  N   UNL A   1      45.252  27.142  34.152  1.00  0.00    -0.049 NA
BRANCH  19  22
ATOM     22  C   UNL A   1      44.416  24.946  34.723  1.00  0.00     0.076 A 
ATOM     23  C   UNL A   1      44.140  23.949  33.768  1.00  0.00     0.017 A 
ATOM     24  C   UNL A   1      44.898  24.548  35.981  1.00  0.00     0.102 A 
ATOM     25  C   UNL A   1      44.358  22.596  34.049  1.00  0.00     0.008 A 
ATOM     26  C   UNL A   1      45.098  23.189  36.266  1.00  0.00     0.270 A 
ATOM     27  C   UNL A   1      44.836  22.211  35.299  1.00  0.00     0.085 A 
BRANCH  26  28
ATOM     28  N   UNL A   1      45.557  22.786  37.600  1.00  0.00     0.062 N 
ATOM     29  O   UNL A   1      45.652  21.572  37.833  1.00  0.00    -0.258 OA
ATOM     30  O   UNL A   1      45.795  23.680  38.424  1.00  0.00    -0.258 OA
ENDBRANCH  26  28
ENDBRANCH  19  22
ENDBRANCH  14  15
ENDBRANCH  12  13
ENDBRANCH   5   7
ENDBRANCH   2   3
ENDBRANCH   1   2
BRANCH   1  31
ATOM     31  C   UNL A   1      34.918  34.181  28.819  1.00  0.00     0.023 C 
BRANCH  31  32
ATOM     32  C   UNL A   1      35.393  32.968  28.026  1.00  0.00     0.116 C 
BRANCH  32  33
ATOM     33  N   UNL A   1      34.388  31.921  27.913  1.00  0.00    -0.352 N 
ATOM     34  C   UNL A   1      34.547  30.556  27.942  1.00  0.00     0.251 C 
ATOM     35  H   UNL A   1      33.462  32.236  27.798  1.00  0.00     0.163 HD
ATOM     36  O   UNL A   1      33.587  29.821  27.729  1.00  0.00    -0.269 OA
BRANCH  34  37
ATOM     37  C   UNL A   1      35.885  29.977  28.190  1.00  0.00     0.039 A 
ATOM     38  C   UNL A   1      36.779  29.863  27.123  1.00  0.00     0.014 A 
ATOM     39  C   UNL A   1      36.270  29.585  29.475  1.00  0.00     0.014 A 
ATOM     40  C   UNL A   1      38.090  29.440  27.359  1.00  0.00     0.010 A 
ATOM     41  C   UNL A   1      37.594  29.229  29.720  1.00  0.00     0.010 A 
ATOM     42  C   UNL A   1      38.520  29.166  28.668  1.00  0.00    -0.014 A 
BRANCH  42  43
ATOM     43  C   UNL A   1      39.940  28.846  28.965  1.00  0.00     0.031 A 
ATOM     44  C   UNL A   1      40.852  29.900  29.529  1.00  0.00     0.074 A 
ATOM     45  C   UNL A   1      40.430  27.631  28.646  1.00  0.00     0.049 A 
ATOM     46  N   UNL A   1      42.140  29.846  29.748  1.00  0.00    -0.248 NA
ATOM     47  C   UNL A   1      40.239  31.196  29.862  1.00  0.00     0.031 C 
ATOM     48  C   UNL A   1      39.659  26.538  28.047  1.00  0.00     0.029 A 
ATOM     49  N   UNL A   1      41.697  27.118  28.761  1.00  0.00    -0.354 N 
ATOM     50  C   UNL A   1      42.497  31.101  30.225  1.00  0.00     0.074 A 
ATOM     51  C   UNL A   1      41.295  31.909  30.226  1.00  0.00     0.031 C 
ATOM     52  C   UNL A   1      40.467  25.480  27.861  1.00  0.00     0.029 A 
ATOM     53  C   UNL A   1      41.817  25.830  28.292  1.00  0.00     0.049 A 
ATOM     54  H   UNL A   1      42.450  27.623  29.144  1.00  0.00     0.167 HD
ATOM     55  C   UNL A   1      43.710  31.536  30.642  1.00  0.00     0.037 A 
ATOM     56  C   UNL A   1      42.893  25.026  28.205  1.00  0.00     0.037 A 
ATOM     57  C   UNL A   1      44.895  30.720  30.671  1.00  0.00     0.049 A 
ATOM     58  C   UNL A   1      44.227  25.525  28.686  1.00  0.00     0.074 A 
ATOM     59  C   UNL A   1      46.156  31.051  31.138  1.00  0.00     0.029 A 
ATOM     60  N   UNL A   1      44.967  29.411  30.218  1.00  0.00    -0.354 N 
ATOM     61  N   UNL A   1      44.534  26.698  29.186  1.00  0.00    -0.248 NA
ATOM     62  C   UNL A   1      45.361  24.594  28.594  1.00  0.00     0.031 C 
ATOM     63  C   UNL A   1      46.998  29.952  30.939  1.00  0.00     0.029 A 
ATOM     64  C   UNL A   1      46.254  28.925  30.381  1.00  0.00     0.049 A 
ATOM     65  H   UNL A   1      44.215  28.903  29.838  1.00  0.00     0.167 HD
ATOM     66  C   UNL A   1      45.889  26.640  29.488  1.00  0.00     0.074 A 
ATOM     67  C   UNL A   1      46.342  25.312  29.123  1.00  0.00     0.031 C 
ATOM     68  C   UNL A   1      46.687  27.598  30.019  1.00  0.00     0.037 A 
BRANCH  55  69
ATOM     69  C   UNL A   1      43.812  32.960  31.108  1.00  0.00     0.058 A 
ATOM     70  C   UNL A   1      43.657  33.303  32.460  1.00  0.00     0.135 A 
ATOM     71  C   UNL A   1      44.093  33.992  30.198  1.00  0.00     0.135 A 
ATOM     72  F   UNL A   1      43.373  32.356  33.369  1.00  0.00    -0.206 F 
ATOM     73  C   UNL A   1      43.747  34.622  32.891  1.00  0.00     0.059 A 
ATOM     74  C   UNL A   1      44.211  35.317  30.610  1.00  0.00     0.059 A 
ATOM     75  F   UNL A   1      44.250  33.720  28.893  1.00  0.00    -0.206 F 
ATOM     76  C   UNL A   1      44.020  35.623  31.957  1.00  0.00     0.060 A 
BRANCH  76  77
ATOM     77  S   UNL A   1      44.129  37.333  32.529  1.00  0.00     0.124 S 
ATOM     78  O   UNL A   1      45.499  37.383  33.028  1.00  0.00    -0.237 OA
ATOM     79  O   UNL A   1      43.873  38.091  31.308  1.00  0.00    -0.237 OA
ATOM     80  O   UNL A   1      43.086  37.417  33.545  1.00  0.00    -0.744 OA
ENDBRANCH  76  77
ENDBRANCH  55  69
BRANCH  56  81
ATOM     81  C   UNL A   1      42.750  23.652  27.655  1.00  0.00     0.058 A 
ATOM     82  C   UNL A   1      42.510  22.561  28.504  1.00  0.00     0.135 A 
ATOM     83  C   UNL A   1      42.830  23.405  26.277  1.00  0.00     0.135 A 
ATOM     84  F   UNL A   1      42.432  22.748  29.830  1.00  0.00    -0.206 F 
ATOM     85  C   UNL A   1      42.366  21.271  28.007  1.00  0.00     0.059 A 
ATOM     86  C   UNL A   1      42.668  22.126  25.753  1.00  0.00     0.059 A 
ATOM     87  F   UNL A   1      43.042  24.419  25.424  1.00  0.00    -0.206 F 
ATOM     88  C   UNL A   1      42.445  21.064  26.629  1.00  0.00     0.060 A 
BRANCH  88  89
ATOM     89  S   UNL A   1      42.202  19.392  25.987  1.00  0.00     0.124 S 
ATOM     90  O   UNL A   1      43.000  19.428  24.768  1.00  0.00    -0.237 OA
ATOM     91  O   UNL A   1      42.726  18.566  27.071  1.00  0.00    -0.237 OA
ATOM     92  O   UNL A   1      40.757  19.316  25.796  1.00  0.00    -0.744 OA
ENDBRANCH  88  89
ENDBRANCH  56  81
BRANCH  68  93
ATOM     93  C   UNL A   1      48.126  27.244  30.264  1.00  0.00     0.058 A 
ATOM     94  C   UNL A   1      49.136  27.616  29.364  1.00  0.00     0.135 A 
ATOM     95  C   UNL A   1      48.504  26.574  31.438  1.00  0.00     0.135 A 
ATOM     96  F   UNL A   1      48.825  28.251  28.224  1.00  0.00    -0.206 F 
ATOM     97  C   UNL A   1      50.473  27.326  29.616  1.00  0.00     0.059 A 
ATOM     98  C   UNL A   1      49.836  26.292  31.720  1.00  0.00     0.059 A 
ATOM     99  F   UNL A   1      47.574  26.203  32.333  1.00  0.00    -0.206 F 
ATOM    100  C   UNL A   1      50.813  26.665  30.797  1.00  0.00     0.060 A 
BRANCH 100 101
ATOM    101  S   UNL A   1      52.556  26.333  31.136  1.00  0.00     0.124 S 
ATOM    102  O   UNL A   1      52.965  27.564  31.805  1.00  0.00    -0.237 OA
ATOM    103  O   UNL A   1      52.491  25.143  31.982  1.00  0.00    -0.237 OA
ATOM    104  O   UNL A   1      53.124  26.118  29.809  1.00  0.00    -0.744 OA
ENDBRANCH 100 101
ENDBRANCH  68  93
ENDBRANCH  42  43
ENDBRANCH  34  37
ENDBRANCH  32  33
ENDBRANCH  31  32
ENDBRANCH   1  31
TORSDOF 18
ENDMDL
MODEL 3
REMARK VINA RESULT:     -10.3      3.419     11.134
REMARK SMILES O=C(NCCCCNC(=O)c1ccc(-c2c3nc(c(-c4c(F)cc(S(=O)(=O)[O-])cc4F)c4ccc([nH]4)c(-c4c(F)cc(S(=O)(=O)[O-])cc4F)c4nc(c(-c5c(F)cc(S(=O)(=O)[O-])cc5F)c5ccc2[nH]5)C=C4)C=C3)cc1)c1ccc(/C=C/c2ccnc(-c3cccc([N+](=O)[O-])c3)[n+]2[O-])cc1
REMARK SMILES IDX 5 1 4 2 3 3 1 4 2 5 77 7 78 8 100 9 79 10 99 11 80 12 81 13
REMARK SMILES IDX 82 14 83 15 84 16 97 17 85 18 87 19 98 20 86 21 88 22 89 23
REMARK SMILES IDX 96 24 90 25 92 26 91 27 93 28 94 29 95 30 6 31 7 32 8 33
REMARK SMILES IDX 9 34 10 36 11 37 12 38 76 39 13 40 75 41 14 42 15 43 16 44
REMARK SMILES IDX 69 45 17 46 74 47 68 48 70 49 18 50 73 51 67 52 66 53 19 55
REMARK SMILES IDX 53 56 32 57 52 58 33 59 36 60 51 61 71 62 34 63 35 64 50 66
REMARK SMILES IDX 72 67 37 68 20 69 21 70 30 71 22 72 23 73 29 74 31 75 24 76
REMARK SMILES IDX 25 77 26 78 27 79 28 80 54 81 55 82 64 83 56 84 57 85 63 86
REMARK SMILES IDX 65 87 58 88 59 89 60 90 61 91 62 92 38 93 39 94 48 95 40 96
REMARK SMILES IDX 41 97 47 98 49 99 42 100 43 101 44 102 45 103 46 104
REMARK H PARENT 3 6 8 35 70 54 36 65
REMARK Flexibility Score: inf
ROOT
ATOM      1  C   UNL A   1      42.575  23.016  28.637  1.00  0.00     0.023 C 
ENDROOT
BRANCH   1   2
ATOM      2  C   UNL A   1      44.079  23.167  28.841  1.00  0.00     0.116 C 
BRANCH   2   3
ATOM      3  N   UNL A   1      44.857  22.599  27.750  1.00  0.00    -0.352 N 
ATOM      4  O   UNL A   1      46.228  22.646  25.945  1.00  0.00    -0.269 OA
ATOM      5  C   UNL A   1      45.717  23.237  26.890  1.00  0.00     0.251 C 
ATOM      6  H   UNL A   1      44.753  21.630  27.611  1.00  0.00     0.163 HD
BRANCH   5   7
ATOM      7  C   UNL A   1      46.005  24.666  27.101  1.00  0.00     0.039 A 
ATOM      8  C   UNL A   1      47.036  25.060  27.956  1.00  0.00     0.014 A 
ATOM      9  C   UNL A   1      45.209  25.617  26.464  1.00  0.00     0.014 A 
ATOM     10  C   UNL A   1      47.212  26.414  28.245  1.00  0.00     0.009 A 
ATOM     11  C   UNL A   1      45.394  26.971  26.757  1.00  0.00     0.009 A 
ATOM     12  C   UNL A   1      46.373  27.384  27.677  1.00  0.00    -0.025 A 
BRANCH  12  13
ATOM     13  C   UNL A   1      46.478  28.819  27.990  1.00  0.00     0.012 C 
ATOM     14  C   UNL A   1      45.982  29.813  27.234  1.00  0.00     0.053 C 
BRANCH  14  15
ATOM     15  C   UNL A   1      46.113  31.232  27.598  1.00  0.00     0.134 A 
ATOM     16  C   UNL A   1      47.390  31.738  27.842  1.00  0.00     0.100 A 
ATOM     17  N   UNL A   1      44.983  32.059  27.719  1.00  0.00    -0.228 N 
ATOM     18  C   UNL A   1      47.505  33.068  28.166  1.00  0.00     0.259 A 
ATOM     19  C   UNL A   1      45.193  33.394  28.074  1.00  0.00     0.333 A 
ATOM     20  O   UNL A   1      43.803  31.602  27.517  1.00  0.00    -0.710 OA
ATOM     21  N   UNL A   1      46.453  33.896  28.275  1.00  0.00    -0.049 NA
BRANCH  19  22
ATOM     22  C   UNL A   1      44.071  34.313  28.281  1.00  0.00     0.076 A 
ATOM     23  C   UNL A   1      42.952  33.917  29.037  1.00  0.00     0.017 A 
ATOM     24  C   UNL A   1      44.062  35.592  27.698  1.00  0.00     0.102 A 
ATOM     25  C   UNL A   1      41.863  34.775  29.226  1.00  0.00     0.008 A 
ATOM     26  C   UNL A   1      42.961  36.443  27.874  1.00  0.00     0.270 A 
ATOM     27  C   UNL A   1      41.863  36.040  28.643  1.00  0.00     0.085 A 
BRANCH  26  28
ATOM     28  N   UNL A   1      42.947  37.756  27.219  1.00  0.00     0.062 N 
ATOM     29  O   UNL A   1      44.000  38.150  26.696  1.00  0.00    -0.258 OA
ATOM     30  O   UNL A   1      41.894  38.408  27.253  1.00  0.00    -0.258 OA
ENDBRANCH  26  28
ENDBRANCH  19  22
ENDBRANCH  14  15
ENDBRANCH  12  13
ENDBRANCH   5   7
ENDBRANCH   2   3
ENDBRANCH   1   2
BRANCH   1  31
ATOM     31  C   UNL A   1      42.153  21.924  27.655  1.00  0.00     0.023 C 
BRANCH  31  32
ATOM     32  C   UNL A   1      41.842  22.394  26.238  1.00  0.00     0.116 C 
BRANCH  32  33
ATOM     33  N   UNL A   1      40.441  22.240  25.872  1.00  0.00    -0.352 N 
ATOM     34  C   UNL A   1      39.376  23.069  26.138  1.00  0.00     0.251 C 
ATOM     35  H   UNL A   1      40.225  21.426  25.362  1.00  0.00     0.163 HD
ATOM     36  O   UNL A   1      38.238  22.723  25.835  1.00  0.00    -0.269 OA
BRANCH  34  37
ATOM     37  C   UNL A   1      39.603  24.357  26.829  1.00  0.00     0.039 A 
ATOM     38  C   UNL A   1      39.097  24.529  28.120  1.00  0.00     0.014 A 
ATOM     39  C   UNL A   1      40.342  25.376  26.221  1.00  0.00     0.014 A 
ATOM     40  C   UNL A   1      39.409  25.686  28.837  1.00  0.00     0.010 A 
ATOM     41  C   UNL A   1      40.708  26.497  26.961  1.00  0.00     0.010 A 
ATOM     42  C   UNL A   1      40.258  26.658  28.280  1.00  0.00    -0.014 A 
BRANCH  42  43
ATOM     43  C   UNL A   1      40.715  27.831  29.069  1.00  0.00     0.031 A 
ATOM     44  C   UNL A   1      42.054  27.809  29.751  1.00  0.00     0.074 A 
ATOM     45  C   UNL A   1      39.886  28.881  29.241  1.00  0.00     0.049 A 
ATOM     46  N   UNL A   1      42.577  28.685  30.570  1.00  0.00    -0.248 NA
ATOM     47  C   UNL A   1      42.904  26.634  29.504  1.00  0.00     0.031 C 
ATOM     48  C   UNL A   1      38.541  29.001  28.672  1.00  0.00     0.029 A 
ATOM     49  N   UNL A   1      40.045  30.038  29.962  1.00  0.00    -0.354 N 
ATOM     50  C   UNL A   1      43.806  28.160  30.951  1.00  0.00     0.074 A 
ATOM     51  C   UNL A   1      43.933  26.871  30.305  1.00  0.00     0.031 C 
ATOM     52  C   UNL A   1      38.004  30.172  29.054  1.00  0.00     0.029 A 
ATOM     53  C   UNL A   1      38.949  30.868  29.922  1.00  0.00     0.049 A 
ATOM     54  H   UNL A   1      40.866  30.254  30.459  1.00  0.00     0.167 HD
ATOM     55  C   UNL A   1      44.750  28.710  31.752  1.00  0.00     0.037 A 
ATOM     56  C   UNL A   1      38.723  32.050  30.526  1.00  0.00     0.037 A 
ATOM     57  C   UNL A   1      44.635  30.006  32.366  1.00  0.00     0.049 A 
ATOM     58  C   UNL A   1      39.792  32.648  31.399  1.00  0.00     0.074 A 
ATOM     59  C   UNL A   1      45.566  30.677  33.141  1.00  0.00     0.029 A 
ATOM     60  N   UNL A   1      43.523  30.830  32.275  1.00  0.00    -0.354 N 
ATOM     61  N   UNL A   1      40.971  32.162  31.704  1.00  0.00    -0.248 NA
ATOM     62  C   UNL A   1      39.501  33.953  32.010  1.00  0.00     0.031 C 
ATOM     63  C   UNL A   1      45.006  31.894  33.542  1.00  0.00     0.029 A 
ATOM     64  C   UNL A   1      43.738  31.997  32.990  1.00  0.00     0.049 A 
ATOM     65  H   UNL A   1      42.702  30.617  31.775  1.00  0.00     0.167 HD
ATOM     66  C   UNL A   1      41.572  33.110  32.523  1.00  0.00     0.074 A 
ATOM     67  C   UNL A   1      40.630  34.203  32.659  1.00  0.00     0.031 C 
ATOM     68  C   UNL A   1      42.794  33.078  33.110  1.00  0.00     0.037 A 
BRANCH  55  69
ATOM     69  C   UNL A   1      45.997  27.910  32.003  1.00  0.00     0.058 A 
ATOM     70  C   UNL A   1      45.978  26.753  32.799  1.00  0.00     0.135 A 
ATOM     71  C   UNL A   1      47.218  28.286  31.422  1.00  0.00     0.135 A 
ATOM     72  F   UNL A   1      44.839  26.358  33.390  1.00  0.00    -0.206 F 
ATOM     73  C   UNL A   1      47.132  26.015  33.035  1.00  0.00     0.059 A 
ATOM     74  C   UNL A   1      48.381  27.549  31.626  1.00  0.00     0.059 A 
ATOM     75  F   UNL A   1      47.292  29.384  30.653  1.00  0.00    -0.206 F 
ATOM     76  C   UNL A   1      48.331  26.425  32.448  1.00  0.00     0.060 A 
BRANCH  76  77
ATOM     77  S   UNL A   1      49.824  25.459  32.768  1.00  0.00     0.124 S 
ATOM     78  O   UNL A   1      49.549  24.936  34.102  1.00  0.00    -0.237 OA
ATOM     79  O   UNL A   1      49.803  24.478  31.687  1.00  0.00    -0.237 OA
ATOM     80  O   UNL A   1      50.891  26.451  32.689  1.00  0.00    -0.744 OA
ENDBRANCH  76  77
ENDBRANCH  55  69
BRANCH  56  81
ATOM     81  C   UNL A   1      37.434  32.760  30.309  1.00  0.00     0.058 A 
ATOM     82  C   UNL A   1      37.296  33.697  29.275  1.00  0.00     0.135 A 
ATOM     83  C   UNL A   1      36.316  32.502  31.115  1.00  0.00     0.135 A 
ATOM     84  F   UNL A   1      38.342  33.980  28.483  1.00  0.00    -0.206 F 
ATOM     85  C   UNL A   1      36.097  34.363  29.054  1.00  0.00     0.059 A 
ATOM     86  C   UNL A   1      35.099  33.141  30.900  1.00  0.00     0.059 A 
ATOM     87  F   UNL A   1      36.394  31.602  32.108  1.00  0.00    -0.206 F 
ATOM     88  C   UNL A   1      35.002  34.078  29.871  1.00  0.00     0.060 A 
BRANCH  88  89
ATOM     89  S   UNL A   1      33.432  34.909  29.541  1.00  0.00     0.124 S 
ATOM     90  O   UNL A   1      33.881  36.134  28.889  1.00  0.00    -0.237 OA
ATOM     91  O   UNL A   1      32.745  33.944  28.688  1.00  0.00    -0.237 OA
ATOM     92  O   UNL A   1      32.858  35.075  30.873  1.00  0.00    -0.744 OA
ENDBRANCH  88  89
ENDBRANCH  56  81
BRANCH  68  93
ATOM     93  C   UNL A   1      43.197  34.268  33.932  1.00  0.00     0.058 A 
ATOM     94  C   UNL A   1      43.739  35.420  33.341  1.00  0.00     0.135 A 
ATOM     95  C   UNL A   1      42.986  34.279  35.320  1.00  0.00     0.135 A 
ATOM     96  F   UNL A   1      43.967  35.456  32.019  1.00  0.00    -0.206 F 
ATOM     97  C   UNL A   1      44.070  36.537  34.099  1.00  0.00     0.059 A 
ATOM     98  C   UNL A   1      43.290  35.392  36.095  1.00  0.00     0.059 A 
ATOM     99  F   UNL A   1      42.463  33.204  35.932  1.00  0.00    -0.206 F 
ATOM    100  C   UNL A   1      43.840  36.515  35.476  1.00  0.00     0.060 A 
BRANCH 100 101
ATOM    101  S   UNL A   1      44.229  37.987  36.446  1.00  0.00     0.124 S 
ATOM    102  O   UNL A   1      43.288  37.866  37.555  1.00  0.00    -0.237 OA
ATOM    103  O   UNL A   1      45.636  37.779  36.783  1.00  0.00    -0.237 OA
ATOM    104  O   UNL A   1      43.970  39.083  35.518  1.00  0.00    -0.744 OA
ENDBRANCH 100 101
ENDBRANCH  68  93
ENDBRANCH  42  43
ENDBRANCH  34  37
ENDBRANCH  32  33
ENDBRANCH  31  32
ENDBRANCH   1  31
TORSDOF 18
ENDMDL
