MODEL 1
REMARK VINA RESULT:     -11.7      0.000      0.000
REMARK SMILES Cc1ccc(N2C(=O)[NH+]=C(NCCCCNC(=O)c3ccc(-c4c5nc(c(-c6c(F)cc(S(=O)(=O)[O-])cc6F)c6ccc([nH]6)c(-c6c(F)cc(S(=O)(=O)[O-])cc6F)c6nc(c(-c7c(F)cc(S(=O)(=O)[O-])cc7F)c7ccc4[nH]7)C=C6)C=C5)cc3)/C(=C\c3ccccc3OCc3cccc(C(=O)[O-])c3)C2=O)cc1
REMARK SMILES IDX 13 1 12 2 11 3 6 4 7 5 104 6 8 7 9 8 85 9 105 10 10 11 86 13
REMARK SMILES IDX 5 15 1 16 2 17 3 18 107 19 4 20 106 21 87 22 88 23 92 24
REMARK SMILES IDX 89 25 91 26 90 27 93 28 94 29 95 30 96 31 103 32 97 33 99 34
REMARK SMILES IDX 98 35 100 36 101 37 102 38 14 39 15 40 16 41 17 42 18 44
REMARK SMILES IDX 19 45 20 46 84 47 21 48 83 49 22 50 23 51 24 52 77 53 25 54
REMARK SMILES IDX 82 55 76 56 78 57 26 58 81 59 75 60 74 61 27 63 61 64 40 65
REMARK SMILES IDX 60 66 41 67 44 68 59 69 79 70 42 71 43 72 58 74 80 75 45 76
REMARK SMILES IDX 28 77 29 78 38 79 30 80 31 81 37 82 39 83 32 84 33 85 34 86
REMARK SMILES IDX 35 87 36 88 62 89 63 90 72 91 64 92 65 93 71 94 73 95 66 96
REMARK SMILES IDX 67 97 68 98 69 99 70 100 46 101 47 102 56 103 48 104 49 105
REMARK SMILES IDX 55 106 57 107 50 108 51 109 52 110 53 111 54 112
REMARK H PARENT 9 12 11 14 16 43 78 62 44 73
REMARK Flexibility Score: inf
ROOT
ATOM      1  C   UNL A   1      44.286  25.384  25.202  1.00  0.00     0.039 C 
ENDROOT
BRANCH   1   2
ATOM      2  C   UNL A   1      42.758  25.007  25.054  1.00  0.00     0.194 C 
BRANCH   2   3
ATOM      3  N   UNL A   1      41.958  24.856  26.300  1.00  0.00    -0.305 N 
ATOM      4  N   UNL A   1      40.256  28.223  28.227  1.00  0.00    -0.155 N 
ATOM      5  C   UNL A   1      41.194  28.286  27.186  1.00  0.00     0.448 C 
ATOM      6  C   UNL A   1      39.824  27.008  28.739  1.00  0.00     0.328 C 
ATOM      7  O   UNL A   1      41.614  29.367  26.765  1.00  0.00    -0.212 OA
ATOM      8  N   UNL A   1      41.745  27.140  26.676  1.00  0.00    -0.209 N 
ATOM      9  C   UNL A   1      40.156  25.817  27.892  1.00  0.00     0.129 C 
ATOM     10  O   UNL A   1      39.108  26.879  29.736  1.00  0.00    -0.249 OA
ATOM     11  C   UNL A   1      41.304  25.938  26.922  1.00  0.00     0.236 C 
ATOM     12  H   UNL A   1      42.527  27.231  26.084  1.00  0.00     0.270 HD
ATOM     13  C   UNL A   1      39.205  24.864  27.977  1.00  0.00     0.034 C 
ATOM     14  H   UNL A   1      41.881  23.963  26.706  1.00  0.00     0.256 HD
BRANCH   4  15
ATOM     15  C   UNL A   1      39.748  29.455  28.801  1.00  0.00     0.111 A 
ATOM     16  C   UNL A   1      38.169  33.072  30.628  1.00  0.00     0.044 C 
ATOM     17  C   UNL A   1      38.719  31.836  29.981  1.00  0.00    -0.051 A 
ATOM     18  C   UNL A   1      39.926  31.288  30.420  1.00  0.00     0.007 A 
ATOM     19  C   UNL A   1      38.047  31.212  28.927  1.00  0.00     0.007 A 
ATOM     20  C   UNL A   1      40.423  30.108  29.848  1.00  0.00     0.044 A 
ATOM     21  C   UNL A   1      38.561  30.047  28.340  1.00  0.00     0.044 A 
ENDBRANCH   4  15
BRANCH  13  22
ATOM     22  C   UNL A   1      38.915  23.772  27.052  1.00  0.00     0.018 A 
ATOM     23  C   UNL A   1      37.782  23.889  26.230  1.00  0.00     0.012 A 
ATOM     24  C   UNL A   1      39.779  22.684  26.882  1.00  0.00     0.127 A 
ATOM     25  C   UNL A   1      37.432  22.862  25.354  1.00  0.00     0.001 A 
ATOM     26  C   UNL A   1      39.431  21.677  25.993  1.00  0.00     0.047 A 
ATOM     27  C   UNL A   1      38.243  21.738  25.263  1.00  0.00     0.004 A 
BRANCH  24  28
ATOM     28  O   UNL A   1      40.895  22.475  27.649  1.00  0.00    -0.488 OA
BRANCH  28  29
ATOM     29  C   UNL A   1      41.186  21.098  27.885  1.00  0.00     0.265 C 
BRANCH  29  30
ATOM     30  C   UNL A   1      42.139  20.580  26.831  1.00  0.00    -0.010 A 
ATOM     31  C   UNL A   1      42.200  19.210  26.530  1.00  0.00     0.007 A 
ATOM     32  C   UNL A   1      43.070  21.440  26.241  1.00  0.00     0.017 A 
ATOM     33  C   UNL A   1      43.175  18.711  25.660  1.00  0.00     0.001 A 
ATOM     34  C   UNL A   1      44.091  20.933  25.427  1.00  0.00    -0.002 A 
ATOM     35  C   UNL A   1      44.131  19.568  25.121  1.00  0.00     0.010 A 
BRANCH  34  36
ATOM     36  C   UNL A   1      45.208  21.794  25.013  1.00  0.00     0.071 C 
ATOM     37  O   UNL A   1      46.197  22.079  25.700  1.00  0.00    -0.545 OA
ATOM     38  O   UNL A   1      45.001  22.331  23.814  1.00  0.00    -0.545 OA
ENDBRANCH  34  36
ENDBRANCH  29  30
ENDBRANCH  28  29
ENDBRANCH  24  28
ENDBRANCH  13  22
ENDBRANCH   2   3
ENDBRANCH   1   2
BRANCH   1  39
ATOM     39  C   UNL A   1      45.022  26.830  25.000  1.00  0.00     0.024 C 
BRANCH  39  40
ATOM     40  C   UNL A   1      45.416  27.702  26.293  1.00  0.00     0.116 C 
BRANCH  40  41
ATOM     41  N   UNL A   1      46.768  27.569  27.191  1.00  0.00    -0.352 N 
ATOM     42  C   UNL A   1      47.494  26.954  28.310  1.00  0.00     0.251 C 
ATOM     43  H   UNL A   1      47.403  28.208  26.795  1.00  0.00     0.163 HD
ATOM     44  O   UNL A   1      48.731  27.030  28.151  1.00  0.00    -0.269 OA
BRANCH  42  45
ATOM     45  C   UNL A   1      47.124  26.072  29.598  1.00  0.00     0.039 A 
ATOM     46  C   UNL A   1      46.172  25.012  29.533  1.00  0.00     0.014 A 
ATOM     47  C   UNL A   1      47.610  26.248  30.884  1.00  0.00     0.014 A 
ATOM     48  C   UNL A   1      45.313  24.731  30.653  1.00  0.00     0.010 A 
ATOM     49  C   UNL A   1      46.779  25.959  32.000  1.00  0.00     0.010 A 
ATOM     50  C   UNL A   1      45.505  25.405  31.859  1.00  0.00    -0.014 A 
BRANCH  50  51
ATOM     51  C   UNL A   1      44.457  25.630  32.921  1.00  0.00     0.031 A 
ATOM     52  C   UNL A   1      43.884  26.960  33.126  1.00  0.00     0.074 A 
ATOM     53  C   UNL A   1      43.830  24.676  33.669  1.00  0.00     0.049 A 
ATOM     54  N   UNL A   1      43.653  27.506  34.271  1.00  0.00    -0.248 NA
ATOM     55  C   UNL A   1      43.435  27.751  31.997  1.00  0.00     0.031 C 
ATOM     56  C   UNL A   1      42.804  24.751  34.729  1.00  0.00     0.029 A 
ATOM     57  N   UNL A   1      44.096  23.327  33.698  1.00  0.00    -0.354 N 
ATOM     58  C   UNL A   1      42.737  28.513  34.048  1.00  0.00     0.074 A 
ATOM     59  C   UNL A   1      42.748  28.712  32.616  1.00  0.00     0.031 C 
ATOM     60  C   UNL A   1      42.927  23.681  35.545  1.00  0.00     0.029 A 
ATOM     61  C   UNL A   1      43.992  22.863  35.010  1.00  0.00     0.049 A 
ATOM     62  H   UNL A   1      44.326  22.774  32.916  1.00  0.00     0.167 HD
ATOM     63  C   UNL A   1      41.913  28.940  35.054  1.00  0.00     0.037 A 
ATOM     64  C   UNL A   1      45.121  22.400  35.623  1.00  0.00     0.037 A 
ATOM     65  C   UNL A   1      42.093  28.110  36.259  1.00  0.00     0.049 A 
ATOM     66  C   UNL A   1      45.538  23.422  36.661  1.00  0.00     0.074 A 
ATOM     67  C   UNL A   1      41.320  27.114  36.840  1.00  0.00     0.029 A 
ATOM     68  N   UNL A   1      43.361  27.981  36.833  1.00  0.00    -0.354 N 
ATOM     69  N   UNL A   1      45.067  24.644  36.649  1.00  0.00    -0.248 NA
ATOM     70  C   UNL A   1      46.334  23.161  37.857  1.00  0.00     0.031 C 
ATOM     71  C   UNL A   1      42.174  26.298  37.636  1.00  0.00     0.029 A 
ATOM     72  C   UNL A   1      43.463  26.804  37.559  1.00  0.00     0.049 A 
ATOM     73  H   UNL A   1      44.087  28.640  36.734  1.00  0.00     0.167 HD
ATOM     74  C   UNL A   1      45.303  25.250  37.843  1.00  0.00     0.074 A 
ATOM     75  C   UNL A   1      46.161  24.308  38.547  1.00  0.00     0.031 C 
ATOM     76  C   UNL A   1      44.713  26.426  38.216  1.00  0.00     0.037 A 
BRANCH  63  77
ATOM     77  C   UNL A   1      40.748  29.894  34.813  1.00  0.00     0.058 A 
ATOM     78  C   UNL A   1      40.672  31.163  35.425  1.00  0.00     0.135 A 
ATOM     79  C   UNL A   1      39.662  29.604  33.955  1.00  0.00     0.135 A 
ATOM     80  F   UNL A   1      41.667  31.633  36.187  1.00  0.00    -0.206 F 
ATOM     81  C   UNL A   1      39.580  32.027  35.267  1.00  0.00     0.059 A 
ATOM     82  C   UNL A   1      38.527  30.416  33.836  1.00  0.00     0.059 A 
ATOM     83  F   UNL A   1      39.690  28.547  33.131  1.00  0.00    -0.206 F 
ATOM     84  C   UNL A   1      38.499  31.637  34.488  1.00  0.00     0.060 A 
BRANCH  84  85
ATOM     85  S   UNL A   1      37.114  32.772  34.271  1.00  0.00     0.124 S 
ATOM     86  O   UNL A   1      36.581  32.878  35.625  1.00  0.00    -0.237 OA
ATOM     87  O   UNL A   1      37.779  33.965  33.756  1.00  0.00    -0.237 OA
ATOM     88  O   UNL A   1      36.250  32.081  33.317  1.00  0.00    -0.744 OA
ENDBRANCH  84  85
ENDBRANCH  63  77
BRANCH  64  89
ATOM     89  C   UNL A   1      45.923  21.518  34.665  1.00  0.00     0.058 A 
ATOM     90  C   UNL A   1      47.209  22.049  34.399  1.00  0.00     0.135 A 
ATOM     91  C   UNL A   1      45.952  20.156  34.901  1.00  0.00     0.135 A 
ATOM     92  F   UNL A   1      47.317  23.244  33.806  1.00  0.00    -0.206 F 
ATOM     93  C   UNL A   1      48.354  21.534  35.026  1.00  0.00     0.059 A 
ATOM     94  C   UNL A   1      47.148  19.563  35.345  1.00  0.00     0.059 A 
ATOM     95  F   UNL A   1      44.826  19.424  34.867  1.00  0.00    -0.206 F 
ATOM     96  C   UNL A   1      48.253  20.333  35.701  1.00  0.00     0.060 A 
BRANCH  96  97
ATOM     97  S   UNL A   1      49.531  20.021  37.098  1.00  0.00     0.124 S 
ATOM     98  O   UNL A   1      49.952  21.359  37.445  1.00  0.00    -0.237 OA
ATOM     99  O   UNL A   1      48.735  19.398  38.135  1.00  0.00    -0.237 OA
ATOM    100  O   UNL A   1      50.655  19.259  36.591  1.00  0.00    -0.744 OA
ENDBRANCH  96  97
ENDBRANCH  64  89
BRANCH  76 101
ATOM    101  C   UNL A   1      45.193  27.269  39.361  1.00  0.00     0.058 A 
ATOM    102  C   UNL A   1      45.878  28.480  39.174  1.00  0.00     0.135 A 
ATOM    103  C   UNL A   1      44.823  26.962  40.691  1.00  0.00     0.135 A 
ATOM    104  F   UNL A   1      46.167  28.940  37.947  1.00  0.00    -0.206 F 
ATOM    105  C   UNL A   1      46.262  29.283  40.241  1.00  0.00     0.059 A 
ATOM    106  C   UNL A   1      45.134  27.786  41.763  1.00  0.00     0.059 A 
ATOM    107  F   UNL A   1      44.131  25.854  40.997  1.00  0.00    -0.206 F 
ATOM    108  C   UNL A   1      45.889  28.924  41.533  1.00  0.00     0.060 A 
BRANCH 108 109
ATOM    109  S   UNL A   1      46.377  29.972  42.907  1.00  0.00     0.124 S 
ATOM    110  O   UNL A   1      45.981  29.150  44.046  1.00  0.00    -0.237 OA
ATOM    111  O   UNL A   1      47.816  30.116  42.701  1.00  0.00    -0.237 OA
ATOM    112  O   UNL A   1      45.596  31.187  42.701  1.00  0.00    -0.744 OA
ENDBRANCH 108 109
ENDBRANCH  76 101
ENDBRANCH  50  51
ENDBRANCH  42  45
ENDBRANCH  40  41
ENDBRANCH  39  40
ENDBRANCH   1  39
TORSDOF 19
ENDMDL
MODEL 2
REMARK VINA RESULT:     -11.2      1.604      3.303
REMARK SMILES Cc1ccc(N2C(=O)[NH+]=C(NCCCCNC(=O)c3ccc(-c4c5nc(c(-c6c(F)cc(S(=O)(=O)[O-])cc6F)c6ccc([nH]6)c(-c6c(F)cc(S(=O)(=O)[O-])cc6F)c6nc(c(-c7c(F)cc(S(=O)(=O)[O-])cc7F)c7ccc4[nH]7)C=C6)C=C5)cc3)/C(=C\c3ccccc3OCc3cccc(C(=O)[O-])c3)C2=O)cc1
REMARK SMILES IDX 13 1 12 2 11 3 6 4 7 5 104 6 8 7 9 8 85 9 105 10 10 11 86 13
REMARK SMILES IDX 5 15 1 16 2 17 3 18 107 19 4 20 106 21 87 22 88 23 92 24
REMARK SMILES IDX 89 25 91 26 90 27 93 28 94 29 95 30 96 31 103 32 97 33 99 34
REMARK SMILES IDX 98 35 100 36 101 37 102 38 14 39 15 40 16 41 17 42 18 44
REMARK SMILES IDX 19 45 20 46 84 47 21 48 83 49 22 50 23 51 24 52 77 53 25 54
REMARK SMILES IDX 82 55 76 56 78 57 26 58 81 59 75 60 74 61 27 63 61 64 40 65
REMARK SMILES IDX 60 66 41 67 44 68 59 69 79 70 42 71 43 72 58 74 80 75 45 76
REMARK SMILES IDX 28 77 29 78 38 79 30 80 31 81 37 82 39 83 32 84 33 85 34 86
REMARK SMILES IDX 35 87 36 88 62 89 63 90 72 91 64 92 65 93 71 94 73 95 66 96
REMARK SMILES IDX 67 97 68 98 69 99 70 100 46 101 47 102 56 103 48 104 49 105
REMARK SMILES IDX 55 106 57 107 50 108 51 109 52 110 53 111 54 112
REMARK H PARENT 9 12 11 14 16 43 78 62 44 73
REMARK Flexibility Score: inf
ROOT
ATOM      1  C   UNL A   1      44.802  25.503  25.185  1.00  0.00     0.039 C 
ENDROOT
BRANCH   1   2
ATOM      2  C   UNL A   1      43.228  25.361  25.129  1.00  0.00     0.194 C 
BRANCH   2   3
ATOM      3  N   UNL A   1      42.505  25.166  26.415  1.00  0.00    -0.305 N 
ATOM      4  N   UNL A   1      39.771  28.068  27.850  1.00  0.00    -0.155 N 
ATOM      5  C   UNL A   1      40.651  28.260  26.774  1.00  0.00     0.448 C 
ATOM      6  C   UNL A   1      39.753  26.880  28.566  1.00  0.00     0.328 C 
ATOM      7  O   UNL A   1      40.700  29.333  26.168  1.00  0.00    -0.212 OA
ATOM      8  N   UNL A   1      41.553  27.287  26.431  1.00  0.00    -0.209 N 
ATOM      9  C   UNL A   1      40.467  25.739  27.906  1.00  0.00     0.129 C 
ATOM     10  O   UNL A   1      39.105  26.691  29.599  1.00  0.00    -0.249 OA
ATOM     11  C   UNL A   1      41.525  26.064  26.883  1.00  0.00     0.236 C 
ATOM     12  H   UNL A   1      42.270  27.527  25.800  1.00  0.00     0.270 HD
ATOM     13  C   UNL A   1      39.879  24.556  28.182  1.00  0.00     0.034 C 
ATOM     14  H   UNL A   1      42.719  24.376  26.962  1.00  0.00     0.256 HD
BRANCH   4  15
ATOM     15  C   UNL A   1      38.881  29.145  28.240  1.00  0.00     0.111 A 
ATOM     16  C   UNL A   1      36.254  32.446  29.294  1.00  0.00     0.044 C 
ATOM     17  C   UNL A   1      37.156  31.299  28.949  1.00  0.00    -0.051 A 
ATOM     18  C   UNL A   1      36.742  30.326  28.038  1.00  0.00     0.007 A 
ATOM     19  C   UNL A   1      38.419  31.173  29.532  1.00  0.00     0.007 A 
ATOM     20  C   UNL A   1      37.599  29.275  27.679  1.00  0.00     0.044 A 
ATOM     21  C   UNL A   1      39.262  30.105  29.191  1.00  0.00     0.044 A 
ENDBRANCH   4  15
BRANCH  13  22
ATOM     22  C   UNL A   1      39.973  23.293  27.456  1.00  0.00     0.018 A 
ATOM     23  C   UNL A   1      40.998  22.402  27.816  1.00  0.00     0.012 A 
ATOM     24  C   UNL A   1      39.023  22.900  26.508  1.00  0.00     0.127 A 
ATOM     25  C   UNL A   1      41.163  21.197  27.135  1.00  0.00     0.001 A 
ATOM     26  C   UNL A   1      39.185  21.689  25.849  1.00  0.00     0.047 A 
ATOM     27  C   UNL A   1      40.272  20.858  26.124  1.00  0.00     0.004 A 
BRANCH  24  28
ATOM     28  O   UNL A   1      38.001  23.706  26.079  1.00  0.00    -0.488 OA
BRANCH  28  29
ATOM     29  C   UNL A   1      37.328  23.221  24.918  1.00  0.00     0.265 C 
BRANCH  29  30
ATOM     30  C   UNL A   1      35.904  22.846  25.261  1.00  0.00    -0.010 A 
ATOM     31  C   UNL A   1      35.140  23.643  26.127  1.00  0.00     0.007 A 
ATOM     32  C   UNL A   1      35.375  21.626  24.829  1.00  0.00     0.017 A 
ATOM     33  C   UNL A   1      33.876  23.228  26.555  1.00  0.00     0.001 A 
ATOM     34  C   UNL A   1      34.141  21.174  25.314  1.00  0.00    -0.002 A 
ATOM     35  C   UNL A   1      33.382  21.986  26.164  1.00  0.00     0.010 A 
BRANCH  34  36
ATOM     36  C   UNL A   1      33.702  19.794  25.060  1.00  0.00     0.071 C 
ATOM     37  O   UNL A   1      34.379  18.905  24.527  1.00  0.00    -0.545 OA
ATOM     38  O   UNL A   1      32.428  19.611  25.390  1.00  0.00    -0.545 OA
ENDBRANCH  34  36
ENDBRANCH  29  30
ENDBRANCH  28  29
ENDBRANCH  24  28
ENDBRANCH  13  22
ENDBRANCH   2   3
ENDBRANCH   1   2
BRANCH   1  39
ATOM     39  C   UNL A   1      45.731  26.835  24.991  1.00  0.00     0.024 C 
BRANCH  39  40
ATOM     40  C   UNL A   1      46.017  27.787  26.256  1.00  0.00     0.116 C 
BRANCH  40  41
ATOM     41  N   UNL A   1      47.281  27.705  27.280  1.00  0.00    -0.352 N 
ATOM     42  C   UNL A   1      47.924  27.109  28.459  1.00  0.00     0.251 C 
ATOM     43  H   UNL A   1      47.920  28.377  26.951  1.00  0.00     0.163 HD
ATOM     44  O   UNL A   1      49.166  27.245  28.420  1.00  0.00    -0.269 OA
BRANCH  42  45
ATOM     45  C   UNL A   1      47.473  26.195  29.697  1.00  0.00     0.039 A 
ATOM     46  C   UNL A   1      46.519  25.147  29.548  1.00  0.00     0.014 A 
ATOM     47  C   UNL A   1      47.886  26.331  31.013  1.00  0.00     0.014 A 
ATOM     48  C   UNL A   1      45.594  24.843  30.608  1.00  0.00     0.010 A 
ATOM     49  C   UNL A   1      46.990  26.019  32.072  1.00  0.00     0.010 A 
ATOM     50  C   UNL A   1      45.722  25.481  31.842  1.00  0.00    -0.014 A 
BRANCH  50  51
ATOM     51  C   UNL A   1      44.616  25.687  32.848  1.00  0.00     0.031 A 
ATOM     52  C   UNL A   1      44.005  27.005  33.019  1.00  0.00     0.074 A 
ATOM     53  C   UNL A   1      43.971  24.721  33.566  1.00  0.00     0.049 A 
ATOM     54  N   UNL A   1      43.704  27.548  34.149  1.00  0.00    -0.248 NA
ATOM     55  C   UNL A   1      43.598  27.784  31.866  1.00  0.00     0.031 C 
ATOM     56  C   UNL A   1      42.891  24.777  34.572  1.00  0.00     0.029 A 
ATOM     57  N   UNL A   1      44.264  23.378  33.612  1.00  0.00    -0.354 N 
ATOM     58  C   UNL A   1      42.780  28.535  33.876  1.00  0.00     0.074 A 
ATOM     59  C   UNL A   1      42.861  28.732  32.446  1.00  0.00     0.031 C 
ATOM     60  C   UNL A   1      42.994  23.711  35.396  1.00  0.00     0.029 A 
ATOM     61  C   UNL A   1      44.102  22.915  34.919  1.00  0.00     0.049 A 
ATOM     62  H   UNL A   1      44.545  22.829  32.845  1.00  0.00     0.167 HD
ATOM     63  C   UNL A   1      41.898  28.947  34.837  1.00  0.00     0.037 A 
ATOM     64  C   UNL A   1      45.208  22.477  35.591  1.00  0.00     0.037 A 
ATOM     65  C   UNL A   1      42.033  28.123  36.052  1.00  0.00     0.049 A 
ATOM     66  C   UNL A   1      45.549  23.509  36.645  1.00  0.00     0.074 A 
ATOM     67  C   UNL A   1      41.252  27.113  36.596  1.00  0.00     0.029 A 
ATOM     68  N   UNL A   1      43.272  28.022  36.691  1.00  0.00    -0.354 N 
ATOM     69  N   UNL A   1      45.054  24.721  36.606  1.00  0.00    -0.248 NA
ATOM     70  C   UNL A   1      46.287  23.268  37.882  1.00  0.00     0.031 C 
ATOM     71  C   UNL A   1      42.081  26.316  37.437  1.00  0.00     0.029 A 
ATOM     72  C   UNL A   1      43.361  26.850  37.425  1.00  0.00     0.049 A 
ATOM     73  H   UNL A   1      43.988  28.697  36.628  1.00  0.00     0.167 HD
ATOM     74  C   UNL A   1      45.215  25.335  37.808  1.00  0.00     0.074 A 
ATOM     75  C   UNL A   1      46.056  24.413  38.558  1.00  0.00     0.031 C 
ATOM     76  C   UNL A   1      44.583  26.499  38.147  1.00  0.00     0.037 A 
BRANCH  63  77
ATOM     77  C   UNL A   1      40.726  29.876  34.533  1.00  0.00     0.058 A 
ATOM     78  C   UNL A   1      40.703  31.222  34.953  1.00  0.00     0.135 A 
ATOM     79  C   UNL A   1      39.583  29.482  33.800  1.00  0.00     0.135 A 
ATOM     80  F   UNL A   1      41.750  31.782  35.571  1.00  0.00    -0.206 F 
ATOM     81  C   UNL A   1      39.609  32.073  34.740  1.00  0.00     0.059 A 
ATOM     82  C   UNL A   1      38.449  30.288  33.636  1.00  0.00     0.059 A 
ATOM     83  F   UNL A   1      39.547  28.314  33.143  1.00  0.00    -0.206 F 
ATOM     84  C   UNL A   1      38.475  31.592  34.100  1.00  0.00     0.060 A 
BRANCH  84  85
ATOM     85  S   UNL A   1      37.088  32.708  33.807  1.00  0.00     0.124 S 
ATOM     86  O   UNL A   1      36.509  32.844  35.139  1.00  0.00    -0.237 OA
ATOM     87  O   UNL A   1      37.759  33.893  33.283  1.00  0.00    -0.237 OA
ATOM     88  O   UNL A   1      36.263  31.984  32.843  1.00  0.00    -0.744 OA
ENDBRANCH  84  85
ENDBRANCH  63  77
BRANCH  64  89
ATOM     89  C   UNL A   1      46.076  21.609  34.678  1.00  0.00     0.058 A 
ATOM     90  C   UNL A   1      47.378  22.143  34.515  1.00  0.00     0.135 A 
ATOM     91  C   UNL A   1      46.087  20.244  34.892  1.00  0.00     0.135 A 
ATOM     92  F   UNL A   1      47.529  23.348  33.952  1.00  0.00    -0.206 F 
ATOM     93  C   UNL A   1      48.474  21.615  35.214  1.00  0.00     0.059 A 
ATOM     94  C   UNL A   1      47.247  19.641  35.411  1.00  0.00     0.059 A 
ATOM     95  F   UNL A   1      44.966  19.515  34.765  1.00  0.00    -0.206 F 
ATOM     96  C   UNL A   1      48.324  20.402  35.859  1.00  0.00     0.060 A 
BRANCH  96  97
ATOM     97  S   UNL A   1      49.498  20.065  37.339  1.00  0.00     0.124 S 
ATOM     98  O   UNL A   1      50.036  21.376  37.621  1.00  0.00    -0.237 OA
ATOM     99  O   UNL A   1      48.596  19.596  38.370  1.00  0.00    -0.237 OA
ATOM    100  O   UNL A   1      50.560  19.163  36.943  1.00  0.00    -0.744 OA
ENDBRANCH  96  97
ENDBRANCH  64  89
BRANCH  76 101
ATOM    101  C   UNL A   1      44.986  27.355  39.312  1.00  0.00     0.058 A 
ATOM    102  C   UNL A   1      44.780  26.964  40.644  1.00  0.00     0.135 A 
ATOM    103  C   UNL A   1      45.753  28.527  39.118  1.00  0.00     0.135 A 
ATOM    104  F   UNL A   1      44.181  25.803  40.950  1.00  0.00    -0.206 F 
ATOM    105  C   UNL A   1      45.216  27.735  41.715  1.00  0.00     0.059 A 
ATOM    106  C   UNL A   1      46.258  29.273  40.172  1.00  0.00     0.059 A 
ATOM    107  F   UNL A   1      46.054  28.983  37.893  1.00  0.00    -0.206 F 
ATOM    108  C   UNL A   1      45.950  28.892  41.468  1.00  0.00     0.060 A 
BRANCH 108 109
ATOM    109  S   UNL A   1      46.519  29.878  42.856  1.00  0.00     0.124 S 
ATOM    110  O   UNL A   1      46.124  29.038  43.983  1.00  0.00    -0.237 OA
ATOM    111  O   UNL A   1      47.955  29.973  42.611  1.00  0.00    -0.237 OA
ATOM    112  O   UNL A   1      45.780  31.128  42.710  1.00  0.00    -0.744 OA
ENDBRANCH 108 109
ENDBRANCH  76 101
ENDBRANCH  50  51
ENDBRANCH  42  45
ENDBRANCH  40  41
ENDBRANCH  39  40
ENDBRANCH   1  39
TORSDOF 19
ENDMDL
MODEL 3
REMARK VINA RESULT:     -11.2      4.385     10.734
REMARK SMILES Cc1ccc(N2C(=O)[NH+]=C(NCCCCNC(=O)c3ccc(-c4c5nc(c(-c6c(F)cc(S(=O)(=O)[O-])cc6F)c6ccc([nH]6)c(-c6c(F)cc(S(=O)(=O)[O-])cc6F)c6nc(c(-c7c(F)cc(S(=O)(=O)[O-])cc7F)c7ccc4[nH]7)C=C6)C=C5)cc3)/C(=C\c3ccccc3OCc3cccc(C(=O)[O-])c3)C2=O)cc1
REMARK SMILES IDX 13 1 12 2 11 3 6 4 7 5 104 6 8 7 9 8 85 9 105 10 10 11 86 13
REMARK SMILES IDX 5 15 1 16 2 17 3 18 107 19 4 20 106 21 87 22 88 23 92 24
REMARK SMILES IDX 89 25 91 26 90 27 93 28 94 29 95 30 96 31 103 32 97 33 99 34
REMARK SMILES IDX 98 35 100 36 101 37 102 38 14 39 15 40 16 41 17 42 18 44
REMARK SMILES IDX 19 45 20 46 84 47 21 48 83 49 22 50 23 51 24 52 77 53 25 54
REMARK SMILES IDX 82 55 76 56 78 57 26 58 81 59 75 60 74 61 27 63 61 64 40 65
REMARK SMILES IDX 60 66 41 67 44 68 59 69 79 70 42 71 43 72 58 74 80 75 45 76
REMARK SMILES IDX 28 77 29 78 38 79 30 80 31 81 37 82 39 83 32 84 33 85 34 86
REMARK SMILES IDX 35 87 36 88 62 89 63 90 72 91 64 92 65 93 71 94 73 95 66 96
REMARK SMILES IDX 67 97 68 98 69 99 70 100 46 101 47 102 56 103 48 104 49 105
REMARK SMILES IDX 55 106 57 107 50 108 51 109 52 110 53 111 54 112
REMARK H PARENT 9 12 11 14 16 43 78 62 44 73
REMARK Flexibility Score: inf
ROOT
ATOM      1  C   UNL A   1      44.252  23.799  32.075  1.00  0.00     0.039 C 
ENDROOT
BRANCH   1   2
ATOM      2  C   UNL A   1      44.120  23.702  30.503  1.00  0.00     0.194 C 
BRANCH   2   3
ATOM      3  N   UNL A   1      43.925  24.967  29.744  1.00  0.00    -0.305 N 
ATOM      4  N   UNL A   1      46.651  26.150  26.724  1.00  0.00    -0.155 N 
ATOM      5  C   UNL A   1      46.866  25.101  27.630  1.00  0.00     0.448 C 
ATOM      6  C   UNL A   1      45.500  26.924  26.773  1.00  0.00     0.328 C 
ATOM      7  O   UNL A   1      47.910  24.445  27.617  1.00  0.00    -0.212 OA
ATOM      8  N   UNL A   1      45.957  24.841  28.622  1.00  0.00    -0.209 N 
ATOM      9  C   UNL A   1      44.393  26.349  27.605  1.00  0.00     0.129 C 
ATOM     10  O   UNL A   1      45.305  27.940  26.100  1.00  0.00    -0.249 OA
ATOM     11  C   UNL A   1      44.759  25.353  28.675  1.00  0.00     0.236 C 
ATOM     12  H   UNL A   1      46.227  24.227  29.343  1.00  0.00     0.270 HD
ATOM     13  C   UNL A   1      43.180  26.661  27.105  1.00  0.00     0.034 C 
ATOM     14  H   UNL A   1      43.182  25.560  29.999  1.00  0.00     0.256 HD
BRANCH   4  15
ATOM     15  C   UNL A   1      47.667  26.453  25.733  1.00  0.00     0.111 A 
ATOM     16  C   UNL A   1      50.778  27.237  22.798  1.00  0.00     0.044 C 
ATOM     17  C   UNL A   1      49.697  26.986  23.807  1.00  0.00    -0.051 A 
ATOM     18  C   UNL A   1      48.621  26.153  23.495  1.00  0.00     0.007 A 
ATOM     19  C   UNL A   1      49.736  27.580  25.071  1.00  0.00     0.007 A 
ATOM     20  C   UNL A   1      47.630  25.880  24.450  1.00  0.00     0.044 A 
ATOM     21  C   UNL A   1      48.730  27.326  26.013  1.00  0.00     0.044 A 
ENDBRANCH   4  15
BRANCH  13  22
ATOM     22  C   UNL A   1      41.897  26.003  27.333  1.00  0.00     0.018 A 
ATOM     23  C   UNL A   1      40.991  26.615  28.216  1.00  0.00     0.012 A 
ATOM     24  C   UNL A   1      41.502  24.863  26.625  1.00  0.00     0.127 A 
ATOM     25  C   UNL A   1      39.765  26.016  28.503  1.00  0.00     0.001 A 
ATOM     26  C   UNL A   1      40.271  24.285  26.904  1.00  0.00     0.047 A 
ATOM     27  C   UNL A   1      39.422  24.828  27.870  1.00  0.00     0.004 A 
BRANCH  24  28
ATOM     28  O   UNL A   1      42.321  24.186  25.759  1.00  0.00    -0.488 OA
BRANCH  28  29
ATOM     29  C   UNL A   1      42.371  22.779  25.988  1.00  0.00     0.265 C 
BRANCH  29  30
ATOM     30  C   UNL A   1      43.737  22.241  25.623  1.00  0.00    -0.010 A 
ATOM     31  C   UNL A   1      44.803  23.113  25.352  1.00  0.00     0.007 A 
ATOM     32  C   UNL A   1      43.919  20.871  25.414  1.00  0.00     0.017 A 
ATOM     33  C   UNL A   1      46.024  22.624  24.880  1.00  0.00     0.001 A 
ATOM     34  C   UNL A   1      45.117  20.387  24.872  1.00  0.00    -0.002 A 
ATOM     35  C   UNL A   1      46.178  21.264  24.623  1.00  0.00     0.010 A 
BRANCH  34  36
ATOM     36  C   UNL A   1      45.219  18.991  24.422  1.00  0.00     0.071 C 
ATOM     37  O   UNL A   1      45.718  18.608  23.356  1.00  0.00    -0.545 OA
ATOM     38  O   UNL A   1      44.618  18.156  25.263  1.00  0.00    -0.545 OA
ENDBRANCH  34  36
ENDBRANCH  29  30
ENDBRANCH  28  29
ENDBRANCH  24  28
ENDBRANCH  13  22
ENDBRANCH   2   3
ENDBRANCH   1   2
BRANCH   1  39
ATOM     39  C   UNL A   1      43.436  22.988  33.236  1.00  0.00     0.024 C 
BRANCH  39  40
ATOM     40  C   UNL A   1      43.965  23.040  34.754  1.00  0.00     0.116 C 
BRANCH  40  41
ATOM     41  N   UNL A   1      43.483  24.061  35.928  1.00  0.00    -0.352 N 
ATOM     42  C   UNL A   1      42.869  25.333  36.332  1.00  0.00     0.251 C 
ATOM     43  H   UNL A   1      43.715  23.609  36.771  1.00  0.00     0.163 HD
ATOM     44  O   UNL A   1      42.404  25.270  37.490  1.00  0.00    -0.269 OA
BRANCH  42  45
ATOM     45  C   UNL A   1      42.495  26.724  35.626  1.00  0.00     0.039 A 
ATOM     46  C   UNL A   1      41.417  26.831  34.700  1.00  0.00     0.014 A 
ATOM     47  C   UNL A   1      43.167  27.927  35.772  1.00  0.00     0.014 A 
ATOM     48  C   UNL A   1      41.501  27.727  33.577  1.00  0.00     0.010 A 
ATOM     49  C   UNL A   1      43.246  28.831  34.678  1.00  0.00     0.010 A 
ATOM     50  C   UNL A   1      42.583  28.601  33.470  1.00  0.00    -0.014 A 
BRANCH  50  51
ATOM     51  C   UNL A   1      43.102  29.210  32.192  1.00  0.00     0.031 A 
ATOM     52  C   UNL A   1      44.497  29.641  32.087  1.00  0.00     0.074 A 
ATOM     53  C   UNL A   1      42.446  29.293  30.997  1.00  0.00     0.049 A 
ATOM     54  N   UNL A   1      44.903  30.733  31.536  1.00  0.00    -0.248 NA
ATOM     55  C   UNL A   1      45.569  28.777  32.541  1.00  0.00     0.031 C 
ATOM     56  C   UNL A   1      42.824  29.857  29.685  1.00  0.00     0.029 A 
ATOM     57  N   UNL A   1      41.141  28.946  30.734  1.00  0.00    -0.354 N 
ATOM     58  C   UNL A   1      46.241  30.555  31.252  1.00  0.00     0.074 A 
ATOM     59  C   UNL A   1      46.631  29.393  32.019  1.00  0.00     0.031 C 
ATOM     60  C   UNL A   1      41.707  30.233  29.023  1.00  0.00     0.029 A 
ATOM     61  C   UNL A   1      40.583  29.878  29.858  1.00  0.00     0.049 A 
ATOM     62  H   UNL A   1      40.673  28.163  31.106  1.00  0.00     0.167 HD
ATOM     63  C   UNL A   1      46.841  31.269  30.250  1.00  0.00     0.037 A 
ATOM     64  C   UNL A   1      39.559  30.660  30.314  1.00  0.00     0.037 A 
ATOM     65  C   UNL A   1      45.847  32.084  29.529  1.00  0.00     0.049 A 
ATOM     66  C   UNL A   1      40.097  32.064  30.501  1.00  0.00     0.074 A 
ATOM     67  C   UNL A   1      45.247  31.955  28.284  1.00  0.00     0.029 A 
ATOM     68  N   UNL A   1      45.057  33.001  30.230  1.00  0.00    -0.354 N 
ATOM     69  N   UNL A   1      41.383  32.306  30.547  1.00  0.00    -0.248 NA
ATOM     70  C   UNL A   1      39.315  33.297  30.476  1.00  0.00     0.031 C 
ATOM     71  C   UNL A   1      44.016  32.671  28.308  1.00  0.00     0.029 A 
ATOM     72  C   UNL A   1      43.871  33.254  29.558  1.00  0.00     0.049 A 
ATOM     73  H   UNL A   1      45.311  33.412  31.089  1.00  0.00     0.167 HD
ATOM     74  C   UNL A   1      41.618  33.634  30.369  1.00  0.00     0.074 A 
ATOM     75  C   UNL A   1      40.289  34.228  30.398  1.00  0.00     0.031 C 
ATOM     76  C   UNL A   1      42.860  34.149  30.118  1.00  0.00     0.037 A 
BRANCH  63  77
ATOM     77  C   UNL A   1      48.251  30.964  29.754  1.00  0.00     0.058 A 
ATOM     78  C   UNL A   1      48.517  29.937  28.825  1.00  0.00     0.135 A 
ATOM     79  C   UNL A   1      49.398  31.684  30.162  1.00  0.00     0.135 A 
ATOM     80  F   UNL A   1      47.531  29.227  28.263  1.00  0.00    -0.206 F 
ATOM     81  C   UNL A   1      49.811  29.599  28.405  1.00  0.00     0.059 A 
ATOM     82  C   UNL A   1      50.706  31.321  29.815  1.00  0.00     0.059 A 
ATOM     83  F   UNL A   1      49.293  32.823  30.860  1.00  0.00    -0.206 F 
ATOM     84  C   UNL A   1      50.904  30.281  28.923  1.00  0.00     0.060 A 
BRANCH  84  85
ATOM     85  S   UNL A   1      52.561  29.854  28.351  1.00  0.00     0.124 S 
ATOM     86  O   UNL A   1      52.346  29.594  26.932  1.00  0.00    -0.237 OA
ATOM     87  O   UNL A   1      53.311  31.065  28.667  1.00  0.00    -0.237 OA
ATOM     88  O   UNL A   1      52.908  28.682  29.151  1.00  0.00    -0.744 OA
ENDBRANCH  84  85
ENDBRANCH  63  77
BRANCH  64  89
ATOM     89  C   UNL A   1      38.566  29.821  31.119  1.00  0.00     0.058 A 
ATOM     90  C   UNL A   1      38.517  30.211  32.480  1.00  0.00     0.135 A 
ATOM     91  C   UNL A   1      37.309  29.607  30.585  1.00  0.00     0.135 A 
ATOM     92  F   UNL A   1      39.618  30.107  33.234  1.00  0.00    -0.206 F 
ATOM     93  C   UNL A   1      37.470  31.005  32.973  1.00  0.00     0.059 A 
ATOM     94  C   UNL A   1      36.197  30.232  31.177  1.00  0.00     0.059 A 
ATOM     95  F   UNL A   1      37.153  28.947  29.426  1.00  0.00    -0.206 F 
ATOM     96  C   UNL A   1      36.348  31.182  32.186  1.00  0.00     0.060 A 
BRANCH  96  97
ATOM     97  S   UNL A   1      35.313  32.764  32.509  1.00  0.00     0.124 S 
ATOM     98  O   UNL A   1      35.171  32.760  33.947  1.00  0.00    -0.237 OA
ATOM     99  O   UNL A   1      36.179  33.823  32.035  1.00  0.00    -0.237 OA
ATOM    100  O   UNL A   1      34.013  32.653  31.878  1.00  0.00    -0.744 OA
ENDBRANCH  96  97
ENDBRANCH  64  89
BRANCH  76 101
ATOM    101  C   UNL A   1      43.195  35.606  30.243  1.00  0.00     0.058 A 
ATOM    102  C   UNL A   1      43.759  36.155  31.405  1.00  0.00     0.135 A 
ATOM    103  C   UNL A   1      43.115  36.466  29.123  1.00  0.00     0.135 A 
ATOM    104  F   UNL A   1      44.005  35.403  32.488  1.00  0.00    -0.206 F 
ATOM    105  C   UNL A   1      44.124  37.494  31.486  1.00  0.00     0.059 A 
ATOM    106  C   UNL A   1      43.540  37.785  29.161  1.00  0.00     0.059 A 
ATOM    107  F   UNL A   1      42.634  36.049  27.942  1.00  0.00    -0.206 F 
ATOM    108  C   UNL A   1      44.006  38.302  30.359  1.00  0.00     0.060 A 
BRANCH 108 109
ATOM    109  S   UNL A   1      44.490  40.028  30.466  1.00  0.00     0.124 S 
ATOM    110  O   UNL A   1      45.917  39.905  30.751  1.00  0.00    -0.237 OA
ATOM    111  O   UNL A   1      44.152  40.536  29.140  1.00  0.00    -0.237 OA
ATOM    112  O   UNL A   1      43.670  40.543  31.557  1.00  0.00    -0.744 OA
ENDBRANCH 108 109
ENDBRANCH  76 101
ENDBRANCH  50  51
ENDBRANCH  42  45
ENDBRANCH  40  41
ENDBRANCH  39  40
ENDBRANCH   1  39
TORSDOF 19
ENDMDL
