MODEL 1
REMARK VINA RESULT:     -11.4      0.000      0.000
REMARK SMILES CCC(CC)(C(=O)NCCCCNC(=O)c1ccc(-c2c3nc(c(-c4c(F)cc(S(=O)(=O)[O-])cc4F)c4ccc([nH]4)c(-c4c(F)cc(S(=O)(=O)[O-])cc4F)c4nc(c(-c5c(F)cc(S(=O)(=O)[O-])cc5F)c5ccc2[nH]5)C=C4)C=C3)cc1)n1nnnc1C[C@@H](C)C(C)(C)C
REMARK SMILES IDX 10 1 9 2 8 3 6 4 7 5 3 7 2 8 1 9 4 10 5 11 82 12 83 13 86 14
REMARK SMILES IDX 84 15 85 16 87 17 88 18 89 19 90 20 91 21 92 22 93 23 11 24
REMARK SMILES IDX 12 25 13 26 14 27 15 29 16 30 17 31 81 32 18 33 80 34 19 35
REMARK SMILES IDX 20 36 21 37 74 38 22 39 79 40 73 41 75 42 23 43 78 44 72 45
REMARK SMILES IDX 71 46 24 48 58 49 37 50 57 51 38 52 41 53 56 54 76 55 39 56
REMARK SMILES IDX 40 57 55 59 77 60 42 61 25 62 26 63 35 64 27 65 28 66 34 67
REMARK SMILES IDX 36 68 29 69 30 70 31 71 32 72 33 73 59 74 60 75 69 76 61 77
REMARK SMILES IDX 62 78 68 79 70 80 63 81 64 82 65 83 66 84 67 85 43 86 44 87
REMARK SMILES IDX 53 88 45 89 46 90 52 91 54 92 47 93 48 94 49 95 50 96 51 97
REMARK H PARENT 8 6 13 28 75 47 41 58
REMARK Flexibility Score: inf
ROOT
ATOM      1  C   UNL A   1      37.636  23.294  25.774  1.00  0.00     0.023 C 
ENDROOT
BRANCH   1   2
ATOM      2  C   UNL A   1      36.352  22.494  25.595  1.00  0.00     0.116 C 
BRANCH   2   3
ATOM      3  N   UNL A   1      35.547  22.377  26.794  1.00  0.00    -0.354 N 
ATOM      4  C   UNL A   1      34.231  22.678  27.063  1.00  0.00     0.248 C 
ATOM      5  O   UNL A   1      33.884  22.377  28.207  1.00  0.00    -0.272 OA
ATOM      6  H   UNL A   1      36.036  22.013  27.567  1.00  0.00     0.163 HD
BRANCH   4   7
ATOM      7  C   UNL A   1      33.302  23.379  26.001  1.00  0.00     0.144 C 
BRANCH   7   8
ATOM      8  C   UNL A   1      33.901  24.825  25.828  1.00  0.00     0.037 C 
ATOM      9  C   UNL A   1      34.504  25.234  24.490  1.00  0.00     0.007 C 
ENDBRANCH   7   8
BRANCH   7  10
ATOM     10  C   UNL A   1      33.052  22.425  24.783  1.00  0.00     0.037 C 
ATOM     11  C   UNL A   1      33.238  22.852  23.338  1.00  0.00     0.007 C 
ENDBRANCH   7  10
BRANCH   7  12
ATOM     12  N   UNL A   1      31.882  23.578  26.511  1.00  0.00    -0.214 N 
ATOM     13  N   UNL A   1      31.357  22.790  27.470  1.00  0.00    -0.044 NA
ATOM     14  C   UNL A   1      30.831  24.304  25.938  1.00  0.00     0.152 A 
ATOM     15  N   UNL A   1      30.082  23.118  27.573  1.00  0.00    -0.024 NA
ATOM     16  N   UNL A   1      29.746  24.056  26.644  1.00  0.00    -0.114 NA
BRANCH  14  17
ATOM     17  C   UNL A   1      30.921  25.279  24.805  1.00  0.00     0.083 C 
BRANCH  17  18
ATOM     18  C   UNL A   1      30.583  26.762  25.116  1.00  0.00    -0.001 C 
ATOM     19  C   UNL A   1      31.267  27.217  26.417  1.00  0.00     0.008 C 
BRANCH  18  20
ATOM     20  C   UNL A   1      30.923  27.718  23.891  1.00  0.00    -0.035 C 
ATOM     21  C   UNL A   1      31.672  26.952  22.775  1.00  0.00     0.011 C 
ATOM     22  C   UNL A   1      29.634  28.273  23.245  1.00  0.00     0.011 C 
ATOM     23  C   UNL A   1      31.802  28.913  24.315  1.00  0.00     0.011 C 
ENDBRANCH  18  20
ENDBRANCH  17  18
ENDBRANCH  14  17
ENDBRANCH   7  12
ENDBRANCH   4   7
ENDBRANCH   2   3
ENDBRANCH   1   2
BRANCH   1  24
ATOM     24  C   UNL A   1      38.783  22.546  26.443  1.00  0.00     0.023 C 
BRANCH  24  25
ATOM     25  C   UNL A   1      39.909  23.415  26.993  1.00  0.00     0.116 C 
BRANCH  25  26
ATOM     26  N   UNL A   1      40.593  24.201  25.978  1.00  0.00    -0.352 N 
ATOM     27  C   UNL A   1      41.112  25.474  26.063  1.00  0.00     0.251 C 
ATOM     28  H   UNL A   1      40.699  23.761  25.104  1.00  0.00     0.163 HD
ATOM     29  O   UNL A   1      41.587  26.002  25.068  1.00  0.00    -0.269 OA
BRANCH  27  30
ATOM     30  C   UNL A   1      41.048  26.208  27.346  1.00  0.00     0.039 A 
ATOM     31  C   UNL A   1      42.054  27.132  27.636  1.00  0.00     0.014 A 
ATOM     32  C   UNL A   1      39.986  26.022  28.236  1.00  0.00     0.014 A 
ATOM     33  C   UNL A   1      41.949  27.928  28.779  1.00  0.00     0.010 A 
ATOM     34  C   UNL A   1      39.842  26.871  29.329  1.00  0.00     0.010 A 
ATOM     35  C   UNL A   1      40.819  27.838  29.610  1.00  0.00    -0.014 A 
BRANCH  35  36
ATOM     36  C   UNL A   1      40.641  28.771  30.753  1.00  0.00     0.031 A 
ATOM     37  C   UNL A   1      41.489  28.637  31.989  1.00  0.00     0.074 A 
ATOM     38  C   UNL A   1      39.680  29.716  30.688  1.00  0.00     0.049 A 
ATOM     39  N   UNL A   1      41.467  29.353  33.083  1.00  0.00    -0.248 NA
ATOM     40  C   UNL A   1      42.472  27.542  32.009  1.00  0.00     0.031 C 
ATOM     41  C   UNL A   1      38.743  29.897  29.576  1.00  0.00     0.029 A 
ATOM     42  N   UNL A   1      39.327  30.699  31.579  1.00  0.00    -0.354 N 
ATOM     43  C   UNL A   1      42.429  28.800  33.919  1.00  0.00     0.074 A 
ATOM     44  C   UNL A   1      42.973  27.648  33.233  1.00  0.00     0.031 C 
ATOM     45  C   UNL A   1      37.944  30.944  29.838  1.00  0.00     0.029 A 
ATOM     46  C   UNL A   1      38.290  31.491  31.145  1.00  0.00     0.049 A 
ATOM     47  H   UNL A   1      39.776  30.826  32.446  1.00  0.00     0.167 HD
ATOM     48  C   UNL A   1      42.846  29.230  35.134  1.00  0.00     0.037 A 
ATOM     49  C   UNL A   1      37.686  32.541  31.734  1.00  0.00     0.037 A 
ATOM     50  C   UNL A   1      42.315  30.388  35.807  1.00  0.00     0.049 A 
ATOM     51  C   UNL A   1      38.182  33.011  33.075  1.00  0.00     0.074 A 
ATOM     52  C   UNL A   1      42.700  30.931  37.020  1.00  0.00     0.029 A 
ATOM     53  N   UNL A   1      41.288  31.184  35.322  1.00  0.00    -0.354 N 
ATOM     54  N   UNL A   1      39.142  32.514  33.818  1.00  0.00    -0.248 NA
ATOM     55  C   UNL A   1      37.524  34.193  33.650  1.00  0.00     0.031 C 
ATOM     56  C   UNL A   1      41.883  32.036  37.285  1.00  0.00     0.029 A 
ATOM     57  C   UNL A   1      41.018  32.207  36.217  1.00  0.00     0.049 A 
ATOM     58  H   UNL A   1      40.818  31.043  34.468  1.00  0.00     0.167 HD
ATOM     59  C   UNL A   1      39.214  33.333  34.940  1.00  0.00     0.074 A 
ATOM     60  C   UNL A   1      38.222  34.372  34.762  1.00  0.00     0.031 C 
ATOM     61  C   UNL A   1      40.023  33.232  36.024  1.00  0.00     0.037 A 
BRANCH  48  62
ATOM     62  C   UNL A   1      43.952  28.464  35.805  1.00  0.00     0.058 A 
ATOM     63  C   UNL A   1      45.301  28.788  35.585  1.00  0.00     0.135 A 
ATOM     64  C   UNL A   1      43.667  27.436  36.718  1.00  0.00     0.135 A 
ATOM     65  F   UNL A   1      45.632  29.749  34.708  1.00  0.00    -0.206 F 
ATOM     66  C   UNL A   1      46.328  28.110  36.234  1.00  0.00     0.059 A 
ATOM     67  C   UNL A   1      44.678  26.762  37.398  1.00  0.00     0.059 A 
ATOM     68  F   UNL A   1      42.395  27.083  36.963  1.00  0.00    -0.206 F 
ATOM     69  C   UNL A   1      46.006  27.100  37.142  1.00  0.00     0.060 A 
BRANCH  69  70
ATOM     70  S   UNL A   1      47.351  26.254  37.998  1.00  0.00     0.124 S 
ATOM     71  O   UNL A   1      47.236  24.903  37.456  1.00  0.00    -0.237 OA
ATOM     72  O   UNL A   1      48.521  27.012  37.566  1.00  0.00    -0.237 OA
ATOM     73  O   UNL A   1      47.000  26.396  39.407  1.00  0.00    -0.744 OA
ENDBRANCH  69  70
ENDBRANCH  48  62
BRANCH  49  74
ATOM     74  C   UNL A   1      36.556  33.233  31.057  1.00  0.00     0.058 A 
ATOM     75  C   UNL A   1      35.239  33.096  31.520  1.00  0.00     0.135 A 
ATOM     76  C   UNL A   1      36.769  34.034  29.924  1.00  0.00     0.135 A 
ATOM     77  F   UNL A   1      34.983  32.337  32.598  1.00  0.00    -0.206 F 
ATOM     78  C   UNL A   1      34.169  33.700  30.868  1.00  0.00     0.059 A 
ATOM     79  C   UNL A   1      35.719  34.672  29.272  1.00  0.00     0.059 A 
ATOM     80  F   UNL A   1      38.013  34.216  29.454  1.00  0.00    -0.206 F 
ATOM     81  C   UNL A   1      34.420  34.485  29.741  1.00  0.00     0.060 A 
BRANCH  81  82
ATOM     82  S   UNL A   1      33.030  35.288  28.914  1.00  0.00     0.124 S 
ATOM     83  O   UNL A   1      32.145  35.572  30.038  1.00  0.00    -0.237 OA
ATOM     84  O   UNL A   1      33.667  36.446  28.295  1.00  0.00    -0.237 OA
ATOM     85  O   UNL A   1      32.561  34.268  27.981  1.00  0.00    -0.744 OA
ENDBRANCH  81  82
ENDBRANCH  49  74
BRANCH  61  86
ATOM     86  C   UNL A   1      39.877  34.285  37.086  1.00  0.00     0.058 A 
ATOM     87  C   UNL A   1      39.028  34.105  38.189  1.00  0.00     0.135 A 
ATOM     88  C   UNL A   1      40.601  35.486  37.005  1.00  0.00     0.135 A 
ATOM     89  F   UNL A   1      38.310  32.977  38.312  1.00  0.00    -0.206 F 
ATOM     90  C   UNL A   1      38.868  35.096  39.153  1.00  0.00     0.059 A 
ATOM     91  C   UNL A   1      40.480  36.478  37.972  1.00  0.00     0.059 A 
ATOM     92  F   UNL A   1      41.439  35.703  35.978  1.00  0.00    -0.206 F 
ATOM     93  C   UNL A   1      39.595  36.281  39.032  1.00  0.00     0.060 A 
BRANCH  93  94
ATOM     94  S   UNL A   1      39.376  37.563  40.285  1.00  0.00     0.124 S 
ATOM     95  O   UNL A   1      38.340  38.391  39.678  1.00  0.00    -0.237 OA
ATOM     96  O   UNL A   1      38.967  36.791  41.455  1.00  0.00    -0.237 OA
ATOM     97  O   UNL A   1      40.698  38.175  40.377  1.00  0.00    -0.744 OA
ENDBRANCH  93  94
ENDBRANCH  61  86
ENDBRANCH  35  36
ENDBRANCH  27  30
ENDBRANCH  25  26
ENDBRANCH  24  25
ENDBRANCH   1  24
TORSDOF 20
ENDMDL
MODEL 2
REMARK VINA RESULT:     -11.3      1.105      2.201
REMARK SMILES CCC(CC)(C(=O)NCCCCNC(=O)c1ccc(-c2c3nc(c(-c4c(F)cc(S(=O)(=O)[O-])cc4F)c4ccc([nH]4)c(-c4c(F)cc(S(=O)(=O)[O-])cc4F)c4nc(c(-c5c(F)cc(S(=O)(=O)[O-])cc5F)c5ccc2[nH]5)C=C4)C=C3)cc1)n1nnnc1C[C@@H](C)C(C)(C)C
REMARK SMILES IDX 10 1 9 2 8 3 6 4 7 5 3 7 2 8 1 9 4 10 5 11 82 12 83 13 86 14
REMARK SMILES IDX 84 15 85 16 87 17 88 18 89 19 90 20 91 21 92 22 93 23 11 24
REMARK SMILES IDX 12 25 13 26 14 27 15 29 16 30 17 31 81 32 18 33 80 34 19 35
REMARK SMILES IDX 20 36 21 37 74 38 22 39 79 40 73 41 75 42 23 43 78 44 72 45
REMARK SMILES IDX 71 46 24 48 58 49 37 50 57 51 38 52 41 53 56 54 76 55 39 56
REMARK SMILES IDX 40 57 55 59 77 60 42 61 25 62 26 63 35 64 27 65 28 66 34 67
REMARK SMILES IDX 36 68 29 69 30 70 31 71 32 72 33 73 59 74 60 75 69 76 61 77
REMARK SMILES IDX 62 78 68 79 70 80 63 81 64 82 65 83 66 84 67 85 43 86 44 87
REMARK SMILES IDX 53 88 45 89 46 90 52 91 54 92 47 93 48 94 49 95 50 96 51 97
REMARK H PARENT 8 6 13 28 75 47 41 58
REMARK Flexibility Score: inf
ROOT
ATOM      1  C   UNL A   1      37.630  23.539  25.219  1.00  0.00     0.023 C 
ENDROOT
BRANCH   1   2
ATOM      2  C   UNL A   1      36.530  22.489  25.313  1.00  0.00     0.116 C 
BRANCH   2   3
ATOM      3  N   UNL A   1      35.764  22.531  26.542  1.00  0.00    -0.354 N 
ATOM      4  C   UNL A   1      34.414  22.466  26.798  1.00  0.00     0.248 C 
ATOM      5  O   UNL A   1      34.143  22.474  28.000  1.00  0.00    -0.272 OA
ATOM      6  H   UNL A   1      36.317  22.626  27.351  1.00  0.00     0.163 HD
BRANCH   4   7
ATOM      7  C   UNL A   1      33.346  22.431  25.640  1.00  0.00     0.144 C 
BRANCH   7   8
ATOM      8  C   UNL A   1      33.564  21.043  24.928  1.00  0.00     0.037 C 
ATOM      9  C   UNL A   1      33.422  19.756  25.731  1.00  0.00     0.007 C 
ENDBRANCH   7   8
BRANCH   7  10
ATOM     10  C   UNL A   1      31.946  22.885  26.177  1.00  0.00     0.037 C 
ATOM     11  C   UNL A   1      30.636  22.522  25.503  1.00  0.00     0.007 C 
ENDBRANCH   7  10
BRANCH   7  12
ATOM     12  N   UNL A   1      33.606  23.486  24.575  1.00  0.00    -0.214 N 
ATOM     13  N   UNL A   1      34.179  23.176  23.395  1.00  0.00    -0.044 NA
ATOM     14  C   UNL A   1      33.619  24.880  24.697  1.00  0.00     0.152 A 
ATOM     15  N   UNL A   1      34.402  24.317  22.771  1.00  0.00    -0.024 NA
ATOM     16  N   UNL A   1      34.054  25.375  23.555  1.00  0.00    -0.114 NA
BRANCH  14  17
ATOM     17  C   UNL A   1      33.128  25.690  25.857  1.00  0.00     0.083 C 
BRANCH  17  18
ATOM     18  C   UNL A   1      32.086  26.801  25.557  1.00  0.00    -0.001 C 
ATOM     19  C   UNL A   1      30.662  26.318  25.881  1.00  0.00     0.008 C 
BRANCH  18  20
ATOM     20  C   UNL A   1      32.442  28.164  26.296  1.00  0.00    -0.035 C 
ATOM     21  C   UNL A   1      31.910  29.384  25.507  1.00  0.00     0.011 C 
ATOM     22  C   UNL A   1      31.781  28.228  27.691  1.00  0.00     0.011 C 
ATOM     23  C   UNL A   1      33.963  28.345  26.476  1.00  0.00     0.011 C 
ENDBRANCH  18  20
ENDBRANCH  17  18
ENDBRANCH  14  17
ENDBRANCH   7  12
ENDBRANCH   4   7
ENDBRANCH   2   3
ENDBRANCH   1   2
BRANCH   1  24
ATOM     24  C   UNL A   1      38.208  23.998  26.553  1.00  0.00     0.023 C 
BRANCH  24  25
ATOM     25  C   UNL A   1      39.687  23.696  26.772  1.00  0.00     0.116 C 
BRANCH  25  26
ATOM     26  N   UNL A   1      40.567  24.351  25.817  1.00  0.00    -0.352 N 
ATOM     27  C   UNL A   1      41.281  25.522  25.948  1.00  0.00     0.251 C 
ATOM     28  H   UNL A   1      40.667  23.892  24.952  1.00  0.00     0.163 HD
ATOM     29  O   UNL A   1      41.912  25.957  24.996  1.00  0.00    -0.269 OA
BRANCH  27  30
ATOM     30  C   UNL A   1      41.239  26.267  27.226  1.00  0.00     0.039 A 
ATOM     31  C   UNL A   1      42.082  27.370  27.383  1.00  0.00     0.014 A 
ATOM     32  C   UNL A   1      40.350  25.912  28.244  1.00  0.00     0.014 A 
ATOM     33  C   UNL A   1      41.972  28.163  28.526  1.00  0.00     0.010 A 
ATOM     34  C   UNL A   1      40.186  26.750  29.343  1.00  0.00     0.010 A 
ATOM     35  C   UNL A   1      40.991  27.888  29.493  1.00  0.00    -0.014 A 
BRANCH  35  36
ATOM     36  C   UNL A   1      40.784  28.804  30.646  1.00  0.00     0.031 A 
ATOM     37  C   UNL A   1      41.614  28.663  31.893  1.00  0.00     0.074 A 
ATOM     38  C   UNL A   1      39.813  29.738  30.579  1.00  0.00     0.049 A 
ATOM     39  N   UNL A   1      41.565  29.364  32.997  1.00  0.00    -0.248 NA
ATOM     40  C   UNL A   1      42.609  27.579  31.915  1.00  0.00     0.031 C 
ATOM     41  C   UNL A   1      38.891  29.923  29.455  1.00  0.00     0.029 A 
ATOM     42  N   UNL A   1      39.434  30.705  31.476  1.00  0.00    -0.354 N 
ATOM     43  C   UNL A   1      42.521  28.811  33.840  1.00  0.00     0.074 A 
ATOM     44  C   UNL A   1      43.089  27.675  33.147  1.00  0.00     0.031 C 
ATOM     45  C   UNL A   1      38.076  30.958  29.718  1.00  0.00     0.029 A 
ATOM     46  C   UNL A   1      38.395  31.491  31.037  1.00  0.00     0.049 A 
ATOM     47  H   UNL A   1      39.867  30.826  32.353  1.00  0.00     0.167 HD
ATOM     48  C   UNL A   1      42.913  29.230  35.067  1.00  0.00     0.037 A 
ATOM     49  C   UNL A   1      37.768  32.526  31.631  1.00  0.00     0.037 A 
ATOM     50  C   UNL A   1      42.358  30.372  35.747  1.00  0.00     0.049 A 
ATOM     51  C   UNL A   1      38.238  32.983  32.985  1.00  0.00     0.074 A 
ATOM     52  C   UNL A   1      42.717  30.903  36.973  1.00  0.00     0.029 A 
ATOM     53  N   UNL A   1      41.329  31.162  35.257  1.00  0.00    -0.354 N 
ATOM     54  N   UNL A   1      39.192  32.488  33.737  1.00  0.00    -0.248 NA
ATOM     55  C   UNL A   1      37.557  34.149  33.565  1.00  0.00     0.031 C 
ATOM     56  C   UNL A   1      41.883  31.995  37.240  1.00  0.00     0.029 A 
ATOM     57  C   UNL A   1      41.034  32.170  36.161  1.00  0.00     0.049 A 
ATOM     58  H   UNL A   1      40.875  31.027  34.394  1.00  0.00     0.167 HD
ATOM     59  C   UNL A   1      39.236  33.292  34.870  1.00  0.00     0.074 A 
ATOM     60  C   UNL A   1      38.235  34.322  34.691  1.00  0.00     0.031 C 
ATOM     61  C   UNL A   1      40.030  33.186  35.966  1.00  0.00     0.037 A 
BRANCH  48  62
ATOM     62  C   UNL A   1      44.018  28.467  35.746  1.00  0.00     0.058 A 
ATOM     63  C   UNL A   1      43.741  27.380  36.591  1.00  0.00     0.135 A 
ATOM     64  C   UNL A   1      45.365  28.785  35.510  1.00  0.00     0.135 A 
ATOM     65  F   UNL A   1      42.471  27.044  36.867  1.00  0.00    -0.206 F 
ATOM     66  C   UNL A   1      44.759  26.645  37.190  1.00  0.00     0.059 A 
ATOM     67  C   UNL A   1      46.400  28.047  36.078  1.00  0.00     0.059 A 
ATOM     68  F   UNL A   1      45.686  29.817  34.713  1.00  0.00    -0.206 F 
ATOM     69  C   UNL A   1      46.086  26.984  36.924  1.00  0.00     0.060 A 
BRANCH  69  70
ATOM     70  S   UNL A   1      47.393  25.999  37.684  1.00  0.00     0.124 S 
ATOM     71  O   UNL A   1      47.411  26.538  39.042  1.00  0.00    -0.237 OA
ATOM     72  O   UNL A   1      46.877  24.640  37.551  1.00  0.00    -0.237 OA
ATOM     73  O   UNL A   1      48.567  26.305  36.873  1.00  0.00    -0.744 OA
ENDBRANCH  69  70
ENDBRANCH  48  62
BRANCH  49  74
ATOM     74  C   UNL A   1      36.641  33.213  30.944  1.00  0.00     0.058 A 
ATOM     75  C   UNL A   1      36.872  34.112  29.892  1.00  0.00     0.135 A 
ATOM     76  C   UNL A   1      35.311  32.995  31.336  1.00  0.00     0.135 A 
ATOM     77  F   UNL A   1      38.127  34.357  29.483  1.00  0.00    -0.206 F 
ATOM     78  C   UNL A   1      35.830  34.795  29.273  1.00  0.00     0.059 A 
ATOM     79  C   UNL A   1      34.250  33.645  30.714  1.00  0.00     0.059 A 
ATOM     80  F   UNL A   1      35.034  32.128  32.322  1.00  0.00    -0.206 F 
ATOM     81  C   UNL A   1      34.521  34.556  29.695  1.00  0.00     0.060 A 
BRANCH  81  82
ATOM     82  S   UNL A   1      33.170  35.426  28.871  1.00  0.00     0.124 S 
ATOM     83  O   UNL A   1      33.899  36.367  28.028  1.00  0.00    -0.237 OA
ATOM     84  O   UNL A   1      32.484  34.343  28.174  1.00  0.00    -0.237 OA
ATOM     85  O   UNL A   1      32.426  36.016  29.980  1.00  0.00    -0.744 OA
ENDBRANCH  81  82
ENDBRANCH  49  74
BRANCH  61  86
ATOM     86  C   UNL A   1      39.854  34.223  37.039  1.00  0.00     0.058 A 
ATOM     87  C   UNL A   1      39.151  33.946  38.222  1.00  0.00     0.135 A 
ATOM     88  C   UNL A   1      40.403  35.506  36.888  1.00  0.00     0.135 A 
ATOM     89  F   UNL A   1      38.603  32.735  38.414  1.00  0.00    -0.206 F 
ATOM     90  C   UNL A   1      38.960  34.918  39.199  1.00  0.00     0.059 A 
ATOM     91  C   UNL A   1      40.251  36.485  37.865  1.00  0.00     0.059 A 
ATOM     92  F   UNL A   1      41.098  35.820  35.783  1.00  0.00    -0.206 F 
ATOM     93  C   UNL A   1      39.510  36.186  39.008  1.00  0.00     0.060 A 
BRANCH  93  94
ATOM     94  S   UNL A   1      39.252  37.443  40.279  1.00  0.00     0.124 S 
ATOM     95  O   UNL A   1      40.624  37.820  40.599  1.00  0.00    -0.237 OA
ATOM     96  O   UNL A   1      38.466  38.448  39.572  1.00  0.00    -0.237 OA
ATOM     97  O   UNL A   1      38.537  36.721  41.327  1.00  0.00    -0.744 OA
ENDBRANCH  93  94
ENDBRANCH  61  86
ENDBRANCH  35  36
ENDBRANCH  27  30
ENDBRANCH  25  26
ENDBRANCH  24  25
ENDBRANCH   1  24
TORSDOF 20
ENDMDL
MODEL 3
REMARK VINA RESULT:     -11.3      6.788     12.114
REMARK SMILES CCC(CC)(C(=O)NCCCCNC(=O)c1ccc(-c2c3nc(c(-c4c(F)cc(S(=O)(=O)[O-])cc4F)c4ccc([nH]4)c(-c4c(F)cc(S(=O)(=O)[O-])cc4F)c4nc(c(-c5c(F)cc(S(=O)(=O)[O-])cc5F)c5ccc2[nH]5)C=C4)C=C3)cc1)n1nnnc1C[C@@H](C)C(C)(C)C
REMARK SMILES IDX 10 1 9 2 8 3 6 4 7 5 3 7 2 8 1 9 4 10 5 11 82 12 83 13 86 14
REMARK SMILES IDX 84 15 85 16 87 17 88 18 89 19 90 20 91 21 92 22 93 23 11 24
REMARK SMILES IDX 12 25 13 26 14 27 15 29 16 30 17 31 81 32 18 33 80 34 19 35
REMARK SMILES IDX 20 36 21 37 74 38 22 39 79 40 73 41 75 42 23 43 78 44 72 45
REMARK SMILES IDX 71 46 24 48 58 49 37 50 57 51 38 52 41 53 56 54 76 55 39 56
REMARK SMILES IDX 40 57 55 59 77 60 42 61 25 62 26 63 35 64 27 65 28 66 34 67
REMARK SMILES IDX 36 68 29 69 30 70 31 71 32 72 33 73 59 74 60 75 69 76 61 77
REMARK SMILES IDX 62 78 68 79 70 80 63 81 64 82 65 83 66 84 67 85 43 86 44 87
REMARK SMILES IDX 53 88 45 89 46 90 52 91 54 92 47 93 48 94 49 95 50 96 51 97
REMARK H PARENT 8 6 13 28 75 47 41 58
REMARK Flexibility Score: inf
ROOT
ATOM      1  C   UNL A   1      33.059  29.923  27.170  1.00  0.00     0.023 C 
ENDROOT
BRANCH   1   2
ATOM      2  C   UNL A   1      32.292  29.673  25.878  1.00  0.00     0.116 C 
BRANCH   2   3
ATOM      3  N   UNL A   1      33.123  29.589  24.694  1.00  0.00    -0.354 N 
ATOM      4  C   UNL A   1      33.227  28.647  23.697  1.00  0.00     0.248 C 
ATOM      5  O   UNL A   1      34.021  28.962  22.808  1.00  0.00    -0.272 OA
ATOM      6  H   UNL A   1      33.733  30.355  24.582  1.00  0.00     0.163 HD
BRANCH   4   7
ATOM      7  C   UNL A   1      32.428  27.290  23.745  1.00  0.00     0.144 C 
BRANCH   7   8
ATOM      8  C   UNL A   1      32.928  26.570  25.053  1.00  0.00     0.037 C 
ATOM      9  C   UNL A   1      34.381  26.124  25.158  1.00  0.00     0.007 C 
ENDBRANCH   7   8
BRANCH   7  10
ATOM     10  C   UNL A   1      30.909  27.543  23.457  1.00  0.00     0.037 C 
ATOM     11  C   UNL A   1      30.379  28.824  22.840  1.00  0.00     0.007 C 
ENDBRANCH   7  10
BRANCH   7  12
ATOM     12  N   UNL A   1      32.791  26.359  22.597  1.00  0.00    -0.214 N 
ATOM     13  N   UNL A   1      33.267  26.830  21.427  1.00  0.00    -0.044 NA
ATOM     14  C   UNL A   1      32.441  25.019  22.401  1.00  0.00     0.152 A 
ATOM     15  N   UNL A   1      33.334  25.800  20.604  1.00  0.00    -0.024 NA
ATOM     16  N   UNL A   1      32.839  24.676  21.192  1.00  0.00    -0.114 NA
BRANCH  14  17
ATOM     17  C   UNL A   1      31.830  24.090  23.405  1.00  0.00     0.083 C 
BRANCH  17  18
ATOM     18  C   UNL A   1      32.595  22.774  23.712  1.00  0.00    -0.001 C 
ATOM     19  C   UNL A   1      34.104  22.951  23.475  1.00  0.00     0.008 C 
BRANCH  18  20
ATOM     20  C   UNL A   1      32.274  22.228  25.172  1.00  0.00    -0.035 C 
ATOM     21  C   UNL A   1      32.161  20.685  25.179  1.00  0.00     0.011 C 
ATOM     22  C   UNL A   1      33.409  22.583  26.159  1.00  0.00     0.011 C 
ATOM     23  C   UNL A   1      30.955  22.802  25.728  1.00  0.00     0.011 C 
ENDBRANCH  18  20
ENDBRANCH  17  18
ENDBRANCH  14  17
ENDBRANCH   7  12
ENDBRANCH   4   7
ENDBRANCH   2   3
ENDBRANCH   1   2
BRANCH   1  24
ATOM     24  C   UNL A   1      34.388  29.185  27.293  1.00  0.00     0.023 C 
BRANCH  24  25
ATOM     25  C   UNL A   1      35.524  29.971  27.939  1.00  0.00     0.116 C 
BRANCH  25  26
ATOM     26  N   UNL A   1      35.435  30.046  29.389  1.00  0.00    -0.352 N 
ATOM     27  C   UNL A   1      36.438  29.976  30.330  1.00  0.00     0.251 C 
ATOM     28  H   UNL A   1      34.527  30.162  29.750  1.00  0.00     0.163 HD
ATOM     29  O   UNL A   1      36.156  29.980  31.519  1.00  0.00    -0.269 OA
BRANCH  27  30
ATOM     30  C   UNL A   1      37.847  29.850  29.892  1.00  0.00     0.039 A 
ATOM     31  C   UNL A   1      38.814  29.522  30.845  1.00  0.00     0.014 A 
ATOM     32  C   UNL A   1      38.206  30.010  28.551  1.00  0.00     0.014 A 
ATOM     33  C   UNL A   1      40.126  29.273  30.436  1.00  0.00     0.010 A 
ATOM     34  C   UNL A   1      39.494  29.682  28.136  1.00  0.00     0.010 A 
ATOM     35  C   UNL A   1      40.466  29.304  29.073  1.00  0.00    -0.014 A 
BRANCH  35  36
ATOM     36  C   UNL A   1      41.827  28.914  28.622  1.00  0.00     0.031 A 
ATOM     37  C   UNL A   1      42.925  29.939  28.527  1.00  0.00     0.074 A 
ATOM     38  C   UNL A   1      42.060  27.635  28.258  1.00  0.00     0.049 A 
ATOM     39  N   UNL A   1      44.166  29.782  28.145  1.00  0.00    -0.248 NA
ATOM     40  C   UNL A   1      42.578  31.325  28.880  1.00  0.00     0.031 C 
ATOM     41  C   UNL A   1      41.058  26.566  28.234  1.00  0.00     0.029 A 
ATOM     42  N   UNL A   1      43.210  27.018  27.834  1.00  0.00    -0.354 N 
ATOM     43  C   UNL A   1      44.748  31.042  28.215  1.00  0.00     0.074 A 
ATOM     44  C   UNL A   1      43.707  31.965  28.611  1.00  0.00     0.031 C 
ATOM     45  C   UNL A   1      41.643  25.421  27.846  1.00  0.00     0.029 A 
ATOM     46  C   UNL A   1      43.052  25.678  27.566  1.00  0.00     0.049 A 
ATOM     47  H   UNL A   1      44.068  27.489  27.732  1.00  0.00     0.167 HD
ATOM     48  C   UNL A   1      46.038  31.394  27.999  1.00  0.00     0.037 A 
ATOM     49  C   UNL A   1      43.941  24.760  27.142  1.00  0.00     0.037 A 
ATOM     50  C   UNL A   1      47.076  30.469  27.622  1.00  0.00     0.049 A 
ATOM     51  C   UNL A   1      45.372  25.173  26.931  1.00  0.00     0.074 A 
ATOM     52  C   UNL A   1      48.422  30.719  27.422  1.00  0.00     0.029 A 
ATOM     53  N   UNL A   1      46.884  29.114  27.391  1.00  0.00    -0.354 N 
ATOM     54  N   UNL A   1      45.916  26.359  27.069  1.00  0.00    -0.248 NA
ATOM     55  C   UNL A   1      46.313  24.122  26.520  1.00  0.00     0.031 C 
ATOM     56  C   UNL A   1      49.038  29.523  27.038  1.00  0.00     0.029 A 
ATOM     57  C   UNL A   1      48.084  28.518  27.041  1.00  0.00     0.049 A 
ATOM     58  H   UNL A   1      46.021  28.645  27.465  1.00  0.00     0.167 HD
ATOM     59  C   UNL A   1      47.266  26.192  26.779  1.00  0.00     0.074 A 
ATOM     60  C   UNL A   1      47.459  24.787  26.487  1.00  0.00     0.031 C 
ATOM     61  C   UNL A   1      48.257  27.117  26.750  1.00  0.00     0.037 A 
BRANCH  48  62
ATOM     62  C   UNL A   1      46.411  32.838  28.196  1.00  0.00     0.058 A 
ATOM     63  C   UNL A   1      46.278  33.773  27.156  1.00  0.00     0.135 A 
ATOM     64  C   UNL A   1      46.851  33.306  29.444  1.00  0.00     0.135 A 
ATOM     65  F   UNL A   1      45.879  33.377  25.937  1.00  0.00    -0.206 F 
ATOM     66  C   UNL A   1      46.582  35.117  27.342  1.00  0.00     0.059 A 
ATOM     67  C   UNL A   1      47.137  34.651  29.660  1.00  0.00     0.059 A 
ATOM     68  F   UNL A   1      47.000  32.454  30.471  1.00  0.00    -0.206 F 
ATOM     69  C   UNL A   1      47.008  35.548  28.600  1.00  0.00     0.060 A 
BRANCH  69  70
ATOM     70  S   UNL A   1      47.367  37.301  28.831  1.00  0.00     0.124 S 
ATOM     71  O   UNL A   1      48.497  37.246  29.755  1.00  0.00    -0.237 OA
ATOM     72  O   UNL A   1      47.681  37.737  27.474  1.00  0.00    -0.237 OA
ATOM     73  O   UNL A   1      46.128  37.833  29.387  1.00  0.00    -0.744 OA
ENDBRANCH  69  70
ENDBRANCH  48  62
BRANCH  49  74
ATOM     74  C   UNL A   1      43.512  23.354  26.905  1.00  0.00     0.058 A 
ATOM     75  C   UNL A   1      43.384  22.844  25.605  1.00  0.00     0.135 A 
ATOM     76  C   UNL A   1      43.209  22.498  27.975  1.00  0.00     0.135 A 
ATOM     77  F   UNL A   1      43.659  23.625  24.548  1.00  0.00    -0.206 F 
ATOM     78  C   UNL A   1      42.941  21.547  25.370  1.00  0.00     0.059 A 
ATOM     79  C   UNL A   1      42.791  21.188  27.767  1.00  0.00     0.059 A 
ATOM     80  F   UNL A   1      43.337  22.929  29.239  1.00  0.00    -0.206 F 
ATOM     81  C   UNL A   1      42.643  20.726  26.459  1.00  0.00     0.060 A 
BRANCH  81  82
ATOM     82  S   UNL A   1      42.093  19.035  26.149  1.00  0.00     0.124 S 
ATOM     83  O   UNL A   1      42.264  18.426  27.463  1.00  0.00    -0.237 OA
ATOM     84  O   UNL A   1      40.714  19.234  25.712  1.00  0.00    -0.237 OA
ATOM     85  O   UNL A   1      43.009  18.570  25.112  1.00  0.00    -0.744 OA
ENDBRANCH  81  82
ENDBRANCH  49  74
BRANCH  61  86
ATOM     86  C   UNL A   1      49.637  26.630  26.410  1.00  0.00     0.058 A 
ATOM     87  C   UNL A   1      50.178  26.790  25.124  1.00  0.00     0.135 A 
ATOM     88  C   UNL A   1      50.433  26.003  27.382  1.00  0.00     0.135 A 
ATOM     89  F   UNL A   1      49.457  27.379  24.157  1.00  0.00    -0.206 F 
ATOM     90  C   UNL A   1      51.443  26.307  24.802  1.00  0.00     0.059 A 
ATOM     91  C   UNL A   1      51.711  25.539  27.091  1.00  0.00     0.059 A 
ATOM     92  F   UNL A   1      49.970  25.838  28.632  1.00  0.00    -0.206 F 
ATOM     93  C   UNL A   1      52.199  25.678  25.792  1.00  0.00     0.060 A 
BRANCH  93  94
ATOM     94  S   UNL A   1      53.837  25.050  25.363  1.00  0.00     0.124 S 
ATOM     95  O   UNL A   1      54.066  25.691  24.073  1.00  0.00    -0.237 OA
ATOM     96  O   UNL A   1      54.658  25.533  26.468  1.00  0.00    -0.237 OA
ATOM     97  O   UNL A   1      53.643  23.603  25.320  1.00  0.00    -0.744 OA
ENDBRANCH  93  94
ENDBRANCH  61  86
ENDBRANCH  35  36
ENDBRANCH  27  30
ENDBRANCH  25  26
ENDBRANCH  24  25
ENDBRANCH   1  24
TORSDOF 20
ENDMDL
