MODEL 1
REMARK VINA RESULT:     -12.7      0.000      0.000
REMARK SMILES C[C@H]1C[N@H+]2CCCC[C@@H]2CN1c1ccc(C(=O)NCCCCNC(=O)c2ccc(-c3c4nc(c(-c5c(F)cc(S(=O)(=O)[O-])cc5F)c5ccc([nH]5)c(-c5c(F)cc(S(=O)(=O)[O-])cc5F)c5nc(c(-c6c(F)cc(S(=O)(=O)[O-])cc6F)c6ccc3[nH]6)C=C5)C=C4)cc2)cc1Cl
REMARK SMILES IDX 21 1 20 2 19 3 18 4 16 5 17 6 15 8 12 9 13 10 93 11 14 12
REMARK SMILES IDX 92 13 94 14 11 15 1 16 2 17 3 18 4 19 10 20 5 21 9 22 6 24
REMARK SMILES IDX 8 25 7 26 22 27 23 28 24 29 25 31 26 32 27 33 91 34 28 35
REMARK SMILES IDX 90 36 29 37 30 38 31 39 84 40 32 41 89 42 83 43 85 44 33 45
REMARK SMILES IDX 88 46 82 47 81 48 34 50 68 51 47 52 67 53 48 54 51 55 66 56
REMARK SMILES IDX 86 57 49 58 50 59 65 61 87 62 52 63 35 64 36 65 45 66 37 67
REMARK SMILES IDX 38 68 44 69 46 70 39 71 40 72 41 73 42 74 43 75 69 76 70 77
REMARK SMILES IDX 79 78 71 79 72 80 78 81 80 82 73 83 74 84 75 85 76 86 77 87
REMARK SMILES IDX 53 88 54 89 63 90 55 91 56 92 62 93 64 94 57 95 58 96 59 97
REMARK SMILES IDX 60 98 61 99
REMARK H PARENT 18 7 4 23 23 30 85 49 51 60
REMARK Flexibility Score: inf
ROOT
ATOM      1  C   UNL A   1      40.582  22.336  27.590  1.00  0.00     0.023 C 
ENDROOT
BRANCH   1   2
ATOM      2  C   UNL A   1      40.136  21.441  26.429  1.00  0.00     0.023 C 
BRANCH   2   3
ATOM      3  C   UNL A   1      38.836  21.892  25.758  1.00  0.00     0.116 C 
BRANCH   3   4
ATOM      4  N   UNL A   1      38.030  20.746  25.387  1.00  0.00    -0.352 N 
ATOM      5  C   UNL A   1      36.699  20.602  25.092  1.00  0.00     0.251 C 
ATOM      6  O   UNL A   1      36.309  19.476  24.777  1.00  0.00    -0.269 OA
ATOM      7  H   UNL A   1      38.539  19.905  25.336  1.00  0.00     0.163 HD
BRANCH   5   8
ATOM      8  C   UNL A   1      35.712  21.720  25.108  1.00  0.00     0.041 A 
ATOM      9  C   UNL A   1      33.950  23.950  25.320  1.00  0.00     0.056 A 
ATOM     10  C   UNL A   1      34.559  23.400  26.454  1.00  0.00     0.028 A 
ATOM     11  C   UNL A   1      34.216  23.335  24.083  1.00  0.00     0.065 A 
ATOM     12  C   UNL A   1      35.423  22.302  26.352  1.00  0.00     0.016 A 
ATOM     13  C   UNL A   1      35.114  22.269  23.976  1.00  0.00     0.036 A 
ATOM     14  Cl  UNL A   1      33.528  23.918  22.600  1.00  0.00    -0.082 Cl
BRANCH   9  15
ATOM     15  N   UNL A   1      33.208  25.112  25.413  1.00  0.00    -0.356 N 
ATOM     16  C   UNL A   1      31.192  23.876  26.216  1.00  0.00     0.037 C 
ATOM     17  C   UNL A   1      31.735  25.111  25.475  1.00  0.00     0.134 C 
ATOM     18  C   UNL A   1      31.196  26.366  26.248  1.00  0.00     0.287 C 
ATOM     19  N   UNL A   1      31.938  27.649  26.162  1.00  0.00    -0.329 N 
ATOM     20  C   UNL A   1      33.854  26.397  25.141  1.00  0.00     0.182 C 
ATOM     21  C   UNL A   1      31.536  28.508  27.293  1.00  0.00     0.262 C 
ATOM     22  C   UNL A   1      33.403  27.410  26.217  1.00  0.00     0.203 C 
ATOM     23  H   UNL A   1      31.715  28.104  25.277  1.00  0.00     0.348 HD
ATOM     24  C   UNL A   1      32.245  29.860  27.259  1.00  0.00     0.062 C 
ATOM     25  C   UNL A   1      34.152  28.741  26.065  1.00  0.00     0.067 C 
ATOM     26  C   UNL A   1      33.760  29.705  27.181  1.00  0.00     0.012 C 
ENDBRANCH   9  15
ENDBRANCH   5   8
ENDBRANCH   3   4
ENDBRANCH   2   3
ENDBRANCH   1   2
BRANCH   1  27
ATOM     27  C   UNL A   1      41.826  23.175  27.313  1.00  0.00     0.116 C 
BRANCH  27  28
ATOM     28  N   UNL A   1      41.688  24.038  26.153  1.00  0.00    -0.352 N 
ATOM     29  C   UNL A   1      41.371  25.375  26.104  1.00  0.00     0.251 C 
ATOM     30  H   UNL A   1      41.842  23.606  25.281  1.00  0.00     0.163 HD
ATOM     31  O   UNL A   1      41.179  25.916  25.025  1.00  0.00    -0.269 OA
BRANCH  29  32
ATOM     32  C   UNL A   1      41.224  26.136  27.363  1.00  0.00     0.039 A 
ATOM     33  C   UNL A   1      42.209  27.067  27.695  1.00  0.00     0.014 A 
ATOM     34  C   UNL A   1      40.121  25.947  28.201  1.00  0.00     0.014 A 
ATOM     35  C   UNL A   1      42.055  27.853  28.838  1.00  0.00     0.010 A 
ATOM     36  C   UNL A   1      39.931  26.784  29.297  1.00  0.00     0.010 A 
ATOM     37  C   UNL A   1      40.896  27.745  29.628  1.00  0.00    -0.014 A 
BRANCH  37  38
ATOM     38  C   UNL A   1      40.687  28.658  30.780  1.00  0.00     0.031 A 
ATOM     39  C   UNL A   1      41.522  28.532  32.025  1.00  0.00     0.074 A 
ATOM     40  C   UNL A   1      39.720  29.594  30.703  1.00  0.00     0.049 A 
ATOM     41  N   UNL A   1      41.507  29.272  33.104  1.00  0.00    -0.248 NA
ATOM     42  C   UNL A   1      42.480  27.416  32.078  1.00  0.00     0.031 C 
ATOM     43  C   UNL A   1      38.798  29.766  29.577  1.00  0.00     0.029 A 
ATOM     44  N   UNL A   1      39.353  30.581  31.583  1.00  0.00    -0.354 N 
ATOM     45  C   UNL A   1      42.450  28.717  33.960  1.00  0.00     0.074 A 
ATOM     46  C   UNL A   1      42.973  27.539  33.302  1.00  0.00     0.031 C 
ATOM     47  C   UNL A   1      38.004  30.821  29.813  1.00  0.00     0.029 A 
ATOM     48  C   UNL A   1      38.334  31.381  31.119  1.00  0.00     0.049 A 
ATOM     49  H   UNL A   1      39.778  30.705  32.461  1.00  0.00     0.167 HD
ATOM     50  C   UNL A   1      42.862  29.163  35.171  1.00  0.00     0.037 A 
ATOM     51  C   UNL A   1      37.740  32.451  31.679  1.00  0.00     0.037 A 
ATOM     52  C   UNL A   1      42.342  30.344  35.812  1.00  0.00     0.049 A 
ATOM     53  C   UNL A   1      38.226  32.936  33.018  1.00  0.00     0.074 A 
ATOM     54  C   UNL A   1      42.731  30.914  37.013  1.00  0.00     0.029 A 
ATOM     55  N   UNL A   1      41.317  31.134  35.312  1.00  0.00    -0.354 N 
ATOM     56  N   UNL A   1      39.177  32.446  33.778  1.00  0.00    -0.248 NA
ATOM     57  C   UNL A   1      37.567  34.126  33.570  1.00  0.00     0.031 C 
ATOM     58  C   UNL A   1      41.908  32.018  37.261  1.00  0.00     0.029 A 
ATOM     59  C   UNL A   1      41.044  32.171  36.190  1.00  0.00     0.049 A 
ATOM     60  H   UNL A   1      40.852  30.979  34.458  1.00  0.00     0.167 HD
ATOM     61  C   UNL A   1      39.244  33.280  34.888  1.00  0.00     0.074 A 
ATOM     62  C   UNL A   1      38.258  34.321  34.685  1.00  0.00     0.031 C 
ATOM     63  C   UNL A   1      40.047  33.193  35.979  1.00  0.00     0.037 A 
BRANCH  50  64
ATOM     64  C   UNL A   1      43.934  28.377  35.879  1.00  0.00     0.058 A 
ATOM     65  C   UNL A   1      43.622  27.293  36.718  1.00  0.00     0.135 A 
ATOM     66  C   UNL A   1      45.292  28.681  35.685  1.00  0.00     0.135 A 
ATOM     67  F   UNL A   1      42.342  26.967  36.954  1.00  0.00    -0.206 F 
ATOM     68  C   UNL A   1      44.614  26.557  37.357  1.00  0.00     0.059 A 
ATOM     69  C   UNL A   1      46.303  27.938  36.291  1.00  0.00     0.059 A 
ATOM     70  F   UNL A   1      45.649  29.706  34.896  1.00  0.00    -0.206 F 
ATOM     71  C   UNL A   1      45.953  26.886  37.135  1.00  0.00     0.060 A 
BRANCH  71  72
ATOM     72  S   UNL A   1      47.227  25.909  37.962  1.00  0.00     0.124 S 
ATOM     73  O   UNL A   1      47.591  26.784  39.072  1.00  0.00    -0.237 OA
ATOM     74  O   UNL A   1      46.503  24.695  38.323  1.00  0.00    -0.237 OA
ATOM     75  O   UNL A   1      48.249  25.743  36.933  1.00  0.00    -0.744 OA
ENDBRANCH  71  72
ENDBRANCH  50  64
BRANCH  51  76
ATOM     76  C   UNL A   1      36.642  33.156  30.962  1.00  0.00     0.058 A 
ATOM     77  C   UNL A   1      35.303  32.988  31.341  1.00  0.00     0.135 A 
ATOM     78  C   UNL A   1      36.913  34.017  29.888  1.00  0.00     0.135 A 
ATOM     79  F   UNL A   1      34.991  32.171  32.360  1.00  0.00    -0.206 F 
ATOM     80  C   UNL A   1      34.267  33.628  30.668  1.00  0.00     0.059 A 
ATOM     81  C   UNL A   1      35.898  34.693  29.217  1.00  0.00     0.059 A 
ATOM     82  F   UNL A   1      38.179  34.230  29.497  1.00  0.00    -0.206 F 
ATOM     83  C   UNL A   1      34.576  34.481  29.608  1.00  0.00     0.060 A 
BRANCH  83  84
ATOM     84  S   UNL A   1      33.229  35.340  28.766  1.00  0.00     0.124 S 
ATOM     85  O   UNL A   1      33.961  36.268  27.911  1.00  0.00    -0.237 OA
ATOM     86  O   UNL A   1      32.546  34.245  28.085  1.00  0.00    -0.237 OA
ATOM     87  O   UNL A   1      32.482  35.948  29.864  1.00  0.00    -0.744 OA
ENDBRANCH  83  84
ENDBRANCH  51  76
BRANCH  63  88
ATOM     88  C   UNL A   1      39.895  34.265  37.024  1.00  0.00     0.058 A 
ATOM     89  C   UNL A   1      39.079  34.088  38.153  1.00  0.00     0.135 A 
ATOM     90  C   UNL A   1      40.573  35.489  36.894  1.00  0.00     0.135 A 
ATOM     91  F   UNL A   1      38.406  32.939  38.326  1.00  0.00    -0.206 F 
ATOM     92  C   UNL A   1      38.898  35.103  39.086  1.00  0.00     0.059 A 
ATOM     93  C   UNL A   1      40.434  36.504  37.834  1.00  0.00     0.059 A 
ATOM     94  F   UNL A   1      41.380  35.707  35.843  1.00  0.00    -0.206 F 
ATOM     95  C   UNL A   1      39.575  36.311  38.914  1.00  0.00     0.060 A 
BRANCH  95  96
ATOM     96  S   UNL A   1      39.317  37.627  40.122  1.00  0.00     0.124 S 
ATOM     97  O   UNL A   1      39.030  36.862  41.331  1.00  0.00    -0.237 OA
ATOM     98  O   UNL A   1      40.597  38.326  40.102  1.00  0.00    -0.237 OA
ATOM     99  O   UNL A   1      38.191  38.376  39.571  1.00  0.00    -0.744 OA
ENDBRANCH  95  96
ENDBRANCH  63  88
ENDBRANCH  37  38
ENDBRANCH  29  32
ENDBRANCH  27  28
ENDBRANCH   1  27
TORSDOF 15
ENDMDL
MODEL 2
REMARK VINA RESULT:     -12.5      5.202     10.449
REMARK SMILES C[C@H]1C[N@H+]2CCCC[C@@H]2CN1c1ccc(C(=O)NCCCCNC(=O)c2ccc(-c3c4nc(c(-c5c(F)cc(S(=O)(=O)[O-])cc5F)c5ccc([nH]5)c(-c5c(F)cc(S(=O)(=O)[O-])cc5F)c5nc(c(-c6c(F)cc(S(=O)(=O)[O-])cc6F)c6ccc3[nH]6)C=C5)C=C4)cc2)cc1Cl
REMARK SMILES IDX 21 1 20 2 19 3 18 4 16 5 17 6 15 8 12 9 13 10 93 11 14 12
REMARK SMILES IDX 92 13 94 14 11 15 1 16 2 17 3 18 4 19 10 20 5 21 9 22 6 24
REMARK SMILES IDX 8 25 7 26 22 27 23 28 24 29 25 31 26 32 27 33 91 34 28 35
REMARK SMILES IDX 90 36 29 37 30 38 31 39 84 40 32 41 89 42 83 43 85 44 33 45
REMARK SMILES IDX 88 46 82 47 81 48 34 50 68 51 47 52 67 53 48 54 51 55 66 56
REMARK SMILES IDX 86 57 49 58 50 59 65 61 87 62 52 63 35 64 36 65 45 66 37 67
REMARK SMILES IDX 38 68 44 69 46 70 39 71 40 72 41 73 42 74 43 75 69 76 70 77
REMARK SMILES IDX 79 78 71 79 72 80 78 81 80 82 73 83 74 84 75 85 76 86 77 87
REMARK SMILES IDX 53 88 54 89 63 90 55 91 56 92 62 93 64 94 57 95 58 96 59 97
REMARK SMILES IDX 60 98 61 99
REMARK H PARENT 18 7 4 23 23 30 85 49 51 60
REMARK Flexibility Score: inf
ROOT
ATOM      1  C   UNL A   1      33.386  28.367  25.671  1.00  0.00     0.023 C 
ENDROOT
BRANCH   1   2
ATOM      2  C   UNL A   1      32.851  29.684  25.098  1.00  0.00     0.023 C 
BRANCH   2   3
ATOM      3  C   UNL A   1      31.331  29.836  25.202  1.00  0.00     0.116 C 
BRANCH   3   4
ATOM      4  N   UNL A   1      30.724  29.802  23.886  1.00  0.00    -0.352 N 
ATOM      5  C   UNL A   1      30.621  28.820  22.934  1.00  0.00     0.251 C 
ATOM      6  O   UNL A   1      30.004  29.096  21.903  1.00  0.00    -0.269 OA
ATOM      7  H   UNL A   1      30.302  30.652  23.623  1.00  0.00     0.163 HD
BRANCH   5   8
ATOM      8  C   UNL A   1      31.185  27.448  23.083  1.00  0.00     0.041 A 
ATOM      9  C   UNL A   1      32.477  24.918  23.321  1.00  0.00     0.056 A 
ATOM     10  C   UNL A   1      32.928  25.878  22.408  1.00  0.00     0.028 A 
ATOM     11  C   UNL A   1      31.342  25.242  24.087  1.00  0.00     0.065 A 
ATOM     12  C   UNL A   1      32.293  27.120  22.287  1.00  0.00     0.016 A 
ATOM     13  C   UNL A   1      30.736  26.499  23.999  1.00  0.00     0.036 A 
ATOM     14  Cl  UNL A   1      30.680  24.145  25.257  1.00  0.00    -0.082 Cl
BRANCH   9  15
ATOM     15  N   UNL A   1      33.188  23.752  23.528  1.00  0.00    -0.356 N 
ATOM     16  C   UNL A   1      34.497  24.766  25.396  1.00  0.00     0.037 C 
ATOM     17  C   UNL A   1      34.462  23.719  24.269  1.00  0.00     0.134 C 
ATOM     18  C   UNL A   1      34.689  22.323  24.951  1.00  0.00     0.287 C 
ATOM     19  N   UNL A   1      34.179  21.097  24.287  1.00  0.00    -0.329 N 
ATOM     20  C   UNL A   1      32.849  22.560  22.748  1.00  0.00     0.182 C 
ATOM     21  C   UNL A   1      34.086  20.017  25.289  1.00  0.00     0.262 C 
ATOM     22  C   UNL A   1      32.838  21.341  23.696  1.00  0.00     0.203 C 
ATOM     23  H   UNL A   1      34.821  20.831  23.540  1.00  0.00     0.348 HD
ATOM     24  C   UNL A   1      33.589  18.711  24.673  1.00  0.00     0.062 C 
ATOM     25  C   UNL A   1      32.357  20.081  22.963  1.00  0.00     0.067 C 
ATOM     26  C   UNL A   1      32.272  18.901  23.928  1.00  0.00     0.012 C 
ENDBRANCH   9  15
ENDBRANCH   5   8
ENDBRANCH   3   4
ENDBRANCH   2   3
ENDBRANCH   1   2
BRANCH   1  27
ATOM     27  C   UNL A   1      34.099  28.495  27.015  1.00  0.00     0.116 C 
BRANCH  27  28
ATOM     28  N   UNL A   1      33.921  29.796  27.635  1.00  0.00    -0.352 N 
ATOM     29  C   UNL A   1      34.815  30.525  28.383  1.00  0.00     0.251 C 
ATOM     30  H   UNL A   1      33.039  30.214  27.502  1.00  0.00     0.163 HD
ATOM     31  O   UNL A   1      34.453  31.555  28.932  1.00  0.00    -0.269 OA
BRANCH  29  32
ATOM     32  C   UNL A   1      36.199  30.031  28.550  1.00  0.00     0.039 A 
ATOM     33  C   UNL A   1      37.066  30.102  27.458  1.00  0.00     0.014 A 
ATOM     34  C   UNL A   1      36.644  29.519  29.771  1.00  0.00     0.014 A 
ATOM     35  C   UNL A   1      38.397  29.715  27.611  1.00  0.00     0.010 A 
ATOM     36  C   UNL A   1      37.990  29.205  29.943  1.00  0.00     0.010 A 
ATOM     37  C   UNL A   1      38.880  29.299  28.865  1.00  0.00    -0.014 A 
BRANCH  37  38
ATOM     38  C   UNL A   1      40.321  28.993  29.048  1.00  0.00     0.031 A 
ATOM     39  C   UNL A   1      40.876  27.644  28.677  1.00  0.00     0.074 A 
ATOM     40  C   UNL A   1      41.128  29.937  29.574  1.00  0.00     0.049 A 
ATOM     41  N   UNL A   1      42.114  27.222  28.727  1.00  0.00    -0.248 NA
ATOM     42  C   UNL A   1      39.915  26.630  28.216  1.00  0.00     0.031 C 
ATOM     43  C   UNL A   1      40.691  31.256  30.040  1.00  0.00     0.029 A 
ATOM     44  N   UNL A   1      42.480  29.938  29.801  1.00  0.00    -0.354 N 
ATOM     45  C   UNL A   1      42.081  25.899  28.302  1.00  0.00     0.074 A 
ATOM     46  C   UNL A   1      40.694  25.568  28.060  1.00  0.00     0.031 C 
ATOM     47  C   UNL A   1      41.760  31.954  30.453  1.00  0.00     0.029 A 
ATOM     48  C   UNL A   1      42.952  31.124  30.315  1.00  0.00     0.049 A 
ATOM     49  H   UNL A   1      43.059  29.164  29.613  1.00  0.00     0.167 HD
ATOM     50  C   UNL A   1      43.117  25.047  28.104  1.00  0.00     0.037 A 
ATOM     51  C   UNL A   1      44.205  31.503  30.631  1.00  0.00     0.037 A 
ATOM     52  C   UNL A   1      44.496  25.390  28.337  1.00  0.00     0.049 A 
ATOM     53  C   UNL A   1      45.338  30.544  30.388  1.00  0.00     0.074 A 
ATOM     54  C   UNL A   1      45.625  24.620  28.114  1.00  0.00     0.029 A 
ATOM     55  N   UNL A   1      44.938  26.602  28.850  1.00  0.00    -0.354 N 
ATOM     56  N   UNL A   1      45.298  29.324  29.907  1.00  0.00    -0.248 NA
ATOM     57  C   UNL A   1      46.687  31.018  30.719  1.00  0.00     0.031 C 
ATOM     58  C   UNL A   1      46.743  25.346  28.540  1.00  0.00     0.029 A 
ATOM     59  C   UNL A   1      46.318  26.591  28.975  1.00  0.00     0.049 A 
ATOM     60  H   UNL A   1      44.355  27.358  29.091  1.00  0.00     0.167 HD
ATOM     61  C   UNL A   1      46.619  28.891  29.858  1.00  0.00     0.074 A 
ATOM     62  C   UNL A   1      47.433  29.992  30.331  1.00  0.00     0.031 C 
ATOM     63  C   UNL A   1      47.114  27.692  29.462  1.00  0.00     0.037 A 
BRANCH  50  64
ATOM     64  C   UNL A   1      42.798  23.663  27.603  1.00  0.00     0.058 A 
ATOM     65  C   UNL A   1      42.753  23.368  26.230  1.00  0.00     0.135 A 
ATOM     66  C   UNL A   1      42.577  22.608  28.504  1.00  0.00     0.135 A 
ATOM     67  F   UNL A   1      42.940  24.339  25.322  1.00  0.00    -0.206 F 
ATOM     68  C   UNL A   1      42.476  22.085  25.769  1.00  0.00     0.059 A 
ATOM     69  C   UNL A   1      42.328  21.310  28.065  1.00  0.00     0.059 A 
ATOM     70  F   UNL A   1      42.606  22.832  29.827  1.00  0.00    -0.206 F 
ATOM     71  C   UNL A   1      42.267  21.061  26.695  1.00  0.00     0.060 A 
BRANCH  71  72
ATOM     72  S   UNL A   1      41.924  19.399  26.078  1.00  0.00     0.124 S 
ATOM     73  O   UNL A   1      42.812  19.328  24.922  1.00  0.00    -0.237 OA
ATOM     74  O   UNL A   1      42.296  18.562  27.214  1.00  0.00    -0.237 OA
ATOM     75  O   UNL A   1      40.497  19.438  25.772  1.00  0.00    -0.744 OA
ENDBRANCH  71  72
ENDBRANCH  50  64
BRANCH  51  76
ATOM     76  C   UNL A   1      44.456  32.863  31.181  1.00  0.00     0.058 A 
ATOM     77  C   UNL A   1      44.685  33.957  30.334  1.00  0.00     0.135 A 
ATOM     78  C   UNL A   1      44.467  33.096  32.564  1.00  0.00     0.135 A 
ATOM     79  F   UNL A   1      44.689  33.784  29.002  1.00  0.00    -0.206 F 
ATOM     80  C   UNL A   1      44.937  35.230  30.836  1.00  0.00     0.059 A 
ATOM     81  C   UNL A   1      44.688  34.365  33.092  1.00  0.00     0.059 A 
ATOM     82  F   UNL A   1      44.234  32.088  33.420  1.00  0.00    -0.206 F 
ATOM     83  C   UNL A   1      44.935  35.423  32.218  1.00  0.00     0.060 A 
BRANCH  83  84
ATOM     84  S   UNL A   1      45.223  37.086  32.860  1.00  0.00     0.124 S 
ATOM     85  O   UNL A   1      44.897  36.917  34.272  1.00  0.00    -0.237 OA
ATOM     86  O   UNL A   1      46.633  37.294  32.550  1.00  0.00    -0.237 OA
ATOM     87  O   UNL A   1      44.293  37.908  32.091  1.00  0.00    -0.744 OA
ENDBRANCH  83  84
ENDBRANCH  51  76
BRANCH  63  88
ATOM     88  C   UNL A   1      48.609  27.523  29.509  1.00  0.00     0.058 A 
ATOM     89  C   UNL A   1      49.262  27.044  30.657  1.00  0.00     0.135 A 
ATOM     90  C   UNL A   1      49.400  27.846  28.394  1.00  0.00     0.135 A 
ATOM     91  F   UNL A   1      48.556  26.722  31.752  1.00  0.00    -0.206 F 
ATOM     92  C   UNL A   1      50.648  26.943  30.715  1.00  0.00     0.059 A 
ATOM     93  C   UNL A   1      50.784  27.719  28.419  1.00  0.00     0.059 A 
ATOM     94  F   UNL A   1      48.827  28.292  27.265  1.00  0.00    -0.206 F 
ATOM     95  C   UNL A   1      51.402  27.290  29.593  1.00  0.00     0.060 A 
BRANCH  95  96
ATOM     96  S   UNL A   1      53.200  27.172  29.687  1.00  0.00     0.124 S 
ATOM     97  O   UNL A   1      53.560  28.522  30.107  1.00  0.00    -0.237 OA
ATOM     98  O   UNL A   1      53.394  26.125  30.684  1.00  0.00    -0.237 OA
ATOM     99  O   UNL A   1      53.588  26.813  28.326  1.00  0.00    -0.744 OA
ENDBRANCH  95  96
ENDBRANCH  63  88
ENDBRANCH  37  38
ENDBRANCH  29  32
ENDBRANCH  27  28
ENDBRANCH   1  27
TORSDOF 15
ENDMDL
MODEL 3
REMARK VINA RESULT:     -12.5      6.650     12.268
REMARK SMILES C[C@H]1C[N@H+]2CCCC[C@@H]2CN1c1ccc(C(=O)NCCCCNC(=O)c2ccc(-c3c4nc(c(-c5c(F)cc(S(=O)(=O)[O-])cc5F)c5ccc([nH]5)c(-c5c(F)cc(S(=O)(=O)[O-])cc5F)c5nc(c(-c6c(F)cc(S(=O)(=O)[O-])cc6F)c6ccc3[nH]6)C=C5)C=C4)cc2)cc1Cl
REMARK SMILES IDX 21 1 20 2 19 3 18 4 16 5 17 6 15 8 12 9 13 10 93 11 14 12
REMARK SMILES IDX 92 13 94 14 11 15 1 16 2 17 3 18 4 19 10 20 5 21 9 22 6 24
REMARK SMILES IDX 8 25 7 26 22 27 23 28 24 29 25 31 26 32 27 33 91 34 28 35
REMARK SMILES IDX 90 36 29 37 30 38 31 39 84 40 32 41 89 42 83 43 85 44 33 45
REMARK SMILES IDX 88 46 82 47 81 48 34 50 68 51 47 52 67 53 48 54 51 55 66 56
REMARK SMILES IDX 86 57 49 58 50 59 65 61 87 62 52 63 35 64 36 65 45 66 37 67
REMARK SMILES IDX 38 68 44 69 46 70 39 71 40 72 41 73 42 74 43 75 69 76 70 77
REMARK SMILES IDX 79 78 71 79 72 80 78 81 80 82 73 83 74 84 75 85 76 86 77 87
REMARK SMILES IDX 53 88 54 89 63 90 55 91 56 92 62 93 64 94 57 95 58 96 59 97
REMARK SMILES IDX 60 98 61 99
REMARK H PARENT 18 7 4 23 23 30 85 49 51 60
REMARK Flexibility Score: inf
ROOT
ATOM      1  C   UNL A   1      34.170  29.160  27.179  1.00  0.00     0.023 C 
ENDROOT
BRANCH   1   2
ATOM      2  C   UNL A   1      33.436  30.316  26.490  1.00  0.00     0.023 C 
BRANCH   2   3
ATOM      3  C   UNL A   1      31.910  30.198  26.533  1.00  0.00     0.116 C 
BRANCH   3   4
ATOM      4  N   UNL A   1      31.369  30.099  25.193  1.00  0.00    -0.352 N 
ATOM      5  C   UNL A   1      31.372  29.093  24.260  1.00  0.00     0.251 C 
ATOM      6  O   UNL A   1      30.788  29.308  23.196  1.00  0.00    -0.269 OA
ATOM      7  H   UNL A   1      30.907  30.915  24.891  1.00  0.00     0.163 HD
BRANCH   5   8
ATOM      8  C   UNL A   1      32.013  27.763  24.466  1.00  0.00     0.041 A 
ATOM      9  C   UNL A   1      33.450  25.329  24.836  1.00  0.00     0.056 A 
ATOM     10  C   UNL A   1      33.924  26.325  23.975  1.00  0.00     0.028 A 
ATOM     11  C   UNL A   1      32.222  25.566  25.480  1.00  0.00     0.065 A 
ATOM     12  C   UNL A   1      33.219  27.520  23.789  1.00  0.00     0.016 A 
ATOM     13  C   UNL A   1      31.541  26.778  25.330  1.00  0.00     0.036 A 
ATOM     14  Cl  UNL A   1      31.521  24.416  26.575  1.00  0.00    -0.082 Cl
BRANCH   9  15
ATOM     15  N   UNL A   1      34.217  24.214  25.114  1.00  0.00    -0.356 N 
ATOM     16  C   UNL A   1      33.225  22.936  23.213  1.00  0.00     0.037 C 
ATOM     17  C   UNL A   1      33.884  22.872  24.602  1.00  0.00     0.134 C 
ATOM     18  C   UNL A   1      35.170  21.987  24.444  1.00  0.00     0.287 C 
ATOM     19  N   UNL A   1      36.298  22.165  25.393  1.00  0.00    -0.329 N 
ATOM     20  C   UNL A   1      35.214  24.281  26.184  1.00  0.00     0.182 C 
ATOM     21  C   UNL A   1      37.521  21.599  24.791  1.00  0.00     0.262 C 
ATOM     22  C   UNL A   1      36.511  23.605  25.688  1.00  0.00     0.203 C 
ATOM     23  H   UNL A   1      36.079  21.683  26.266  1.00  0.00     0.348 HD
ATOM     24  C   UNL A   1      38.725  21.725  25.723  1.00  0.00     0.062 C 
ATOM     25  C   UNL A   1      37.639  23.763  26.717  1.00  0.00     0.067 C 
ATOM     26  C   UNL A   1      38.938  23.164  26.182  1.00  0.00     0.012 C 
ENDBRANCH   9  15
ENDBRANCH   5   8
ENDBRANCH   3   4
ENDBRANCH   2   3
ENDBRANCH   1   2
BRANCH   1  27
ATOM     27  C   UNL A   1      35.512  29.533  27.804  1.00  0.00     0.116 C 
BRANCH  27  28
ATOM     28  N   UNL A   1      35.432  29.759  29.237  1.00  0.00    -0.352 N 
ATOM     29  C   UNL A   1      36.441  29.750  30.170  1.00  0.00     0.251 C 
ATOM     30  H   UNL A   1      34.531  29.946  29.588  1.00  0.00     0.163 HD
ATOM     31  O   UNL A   1      36.173  29.843  31.359  1.00  0.00    -0.269 OA
BRANCH  29  32
ATOM     32  C   UNL A   1      37.842  29.583  29.726  1.00  0.00     0.039 A 
ATOM     33  C   UNL A   1      38.786  29.147  30.658  1.00  0.00     0.014 A 
ATOM     34  C   UNL A   1      38.221  29.838  28.405  1.00  0.00     0.014 A 
ATOM     35  C   UNL A   1      40.097  28.908  30.246  1.00  0.00     0.010 A 
ATOM     36  C   UNL A   1      39.509  29.526  27.981  1.00  0.00     0.010 A 
ATOM     37  C   UNL A   1      40.461  29.059  28.896  1.00  0.00    -0.014 A 
BRANCH  37  38
ATOM     38  C   UNL A   1      41.829  28.698  28.445  1.00  0.00     0.031 A 
ATOM     39  C   UNL A   1      42.920  29.733  28.389  1.00  0.00     0.074 A 
ATOM     40  C   UNL A   1      42.077  27.430  28.062  1.00  0.00     0.049 A 
ATOM     41  N   UNL A   1      44.180  29.584  28.065  1.00  0.00    -0.248 NA
ATOM     42  C   UNL A   1      42.545  31.118  28.714  1.00  0.00     0.031 C 
ATOM     43  C   UNL A   1      41.081  26.356  28.003  1.00  0.00     0.029 A 
ATOM     44  N   UNL A   1      43.239  26.824  27.657  1.00  0.00    -0.354 N 
ATOM     45  C   UNL A   1      44.746  30.850  28.150  1.00  0.00     0.074 A 
ATOM     46  C   UNL A   1      43.680  31.766  28.492  1.00  0.00     0.031 C 
ATOM     47  C   UNL A   1      41.684  25.216  27.631  1.00  0.00     0.029 A 
ATOM     48  C   UNL A   1      43.098  25.482  27.392  1.00  0.00     0.049 A 
ATOM     49  H   UNL A   1      44.093  27.305  27.566  1.00  0.00     0.167 HD
ATOM     50  C   UNL A   1      46.042  31.211  27.985  1.00  0.00     0.037 A 
ATOM     51  C   UNL A   1      44.007  24.566  27.009  1.00  0.00     0.037 A 
ATOM     52  C   UNL A   1      47.098  30.288  27.655  1.00  0.00     0.049 A 
ATOM     53  C   UNL A   1      45.442  24.989  26.847  1.00  0.00     0.074 A 
ATOM     54  C   UNL A   1      48.453  30.541  27.521  1.00  0.00     0.029 A 
ATOM     55  N   UNL A   1      46.921  28.935  27.401  1.00  0.00    -0.354 N 
ATOM     56  N   UNL A   1      45.976  26.176  27.012  1.00  0.00    -0.248 NA
ATOM     57  C   UNL A   1      46.399  23.945  26.460  1.00  0.00     0.031 C 
ATOM     58  C   UNL A   1      49.085  29.353  27.137  1.00  0.00     0.029 A 
ATOM     59  C   UNL A   1      48.135  28.346  27.087  1.00  0.00     0.049 A 
ATOM     60  H   UNL A   1      46.057  28.463  27.438  1.00  0.00     0.167 HD
ATOM     61  C   UNL A   1      47.336  26.018  26.768  1.00  0.00     0.074 A 
ATOM     62  C   UNL A   1      47.544  24.615  26.474  1.00  0.00     0.031 C 
ATOM     63  C   UNL A   1      48.323  26.948  26.782  1.00  0.00     0.037 A 
BRANCH  50  64
ATOM     64  C   UNL A   1      46.393  32.664  28.167  1.00  0.00     0.058 A 
ATOM     65  C   UNL A   1      46.838  33.167  29.401  1.00  0.00     0.135 A 
ATOM     66  C   UNL A   1      46.324  33.558  27.085  1.00  0.00     0.135 A 
ATOM     67  F   UNL A   1      46.907  32.363  30.474  1.00  0.00    -0.206 F 
ATOM     68  C   UNL A   1      47.178  34.506  29.563  1.00  0.00     0.059 A 
ATOM     69  C   UNL A   1      46.689  34.896  27.217  1.00  0.00     0.059 A 
ATOM     70  F   UNL A   1      45.904  33.134  25.883  1.00  0.00    -0.206 F 
ATOM     71  C   UNL A   1      47.102  35.363  28.463  1.00  0.00     0.060 A 
BRANCH  71  72
ATOM     72  S   UNL A   1      47.562  37.095  28.689  1.00  0.00     0.124 S 
ATOM     73  O   UNL A   1      46.256  37.745  28.692  1.00  0.00    -0.237 OA
ATOM     74  O   UNL A   1      48.259  37.067  29.971  1.00  0.00    -0.237 OA
ATOM     75  O   UNL A   1      48.401  37.377  27.529  1.00  0.00    -0.744 OA
ENDBRANCH  71  72
ENDBRANCH  50  64
BRANCH  51  76
ATOM     76  C   UNL A   1      43.595  23.154  26.784  1.00  0.00     0.058 A 
ATOM     77  C   UNL A   1      43.240  22.322  27.855  1.00  0.00     0.135 A 
ATOM     78  C   UNL A   1      43.541  22.610  25.491  1.00  0.00     0.135 A 
ATOM     79  F   UNL A   1      43.279  22.793  29.112  1.00  0.00    -0.206 F 
ATOM     80  C   UNL A   1      42.869  20.995  27.659  1.00  0.00     0.059 A 
ATOM     81  C   UNL A   1      43.145  21.296  25.265  1.00  0.00     0.059 A 
ATOM     82  F   UNL A   1      43.852  23.369  24.428  1.00  0.00    -0.206 F 
ATOM     83  C   UNL A   1      42.823  20.493  26.358  1.00  0.00     0.060 A 
BRANCH  83  84
ATOM     84  S   UNL A   1      42.301  18.782  26.108  1.00  0.00     0.124 S 
ATOM     85  O   UNL A   1      42.466  18.225  27.446  1.00  0.00    -0.237 OA
ATOM     86  O   UNL A   1      40.925  18.946  25.649  1.00  0.00    -0.237 OA
ATOM     87  O   UNL A   1      43.235  18.290  25.100  1.00  0.00    -0.744 OA
ENDBRANCH  83  84
ENDBRANCH  51  76
BRANCH  63  88
ATOM     88  C   UNL A   1      49.718  26.466  26.487  1.00  0.00     0.058 A 
ATOM     89  C   UNL A   1      50.224  26.425  25.177  1.00  0.00     0.135 A 
ATOM     90  C   UNL A   1      50.560  26.037  27.526  1.00  0.00     0.135 A 
ATOM     91  F   UNL A   1      49.462  26.821  24.146  1.00  0.00    -0.206 F 
ATOM     92  C   UNL A   1      51.493  25.926  24.904  1.00  0.00     0.059 A 
ATOM     93  C   UNL A   1      51.845  25.567  27.279  1.00  0.00     0.059 A 
ATOM     94  F   UNL A   1      50.135  26.071  28.800  1.00  0.00    -0.206 F 
ATOM     95  C   UNL A   1      52.294  25.492  25.961  1.00  0.00     0.060 A 
BRANCH  95  96
ATOM     96  S   UNL A   1      53.931  24.829  25.592  1.00  0.00     0.124 S 
ATOM     97  O   UNL A   1      54.591  24.938  26.889  1.00  0.00    -0.237 OA
ATOM     98  O   UNL A   1      53.628  23.473  25.146  1.00  0.00    -0.237 OA
ATOM     99  O   UNL A   1      54.434  25.726  24.555  1.00  0.00    -0.744 OA
ENDBRANCH  95  96
ENDBRANCH  63  88
ENDBRANCH  37  38
ENDBRANCH  29  32
ENDBRANCH  27  28
ENDBRANCH   1  27
TORSDOF 15
ENDMDL
