MODEL 1
REMARK VINA RESULT:     -12.4      0.000      0.000
REMARK SMILES C[C@@H]1CN(S(=O)(=O)c2cccc(C(=O)N3CCC[C@@H]3C(=O)NCCCCNC(=O)c3ccc(-c4c5nc(c(-c6c(F)cc(S(=O)(=O)[O-])cc6F)c6ccc([nH]6)c(-c6c(F)cc(S(=O)(=O)[O-])cc6F)c6nc(c(-c7c(F)cc(S(=O)(=O)[O-])cc7F)c7ccc4[nH]7)C=C6)C=C5)cc3)c2)C[C@H](C)O1
REMARK SMILES IDX 24 1 23 2 22 3 20 4 21 5 19 7 15 8 16 9 17 10 18 11 13 12
REMARK SMILES IDX 14 13 12 14 8 15 9 16 96 17 10 18 11 19 5 20 6 21 7 22 4 23
REMARK SMILES IDX 1 24 2 25 3 26 100 27 98 28 97 29 99 30 25 31 26 32 27 33
REMARK SMILES IDX 28 34 29 36 30 37 31 38 95 39 32 40 94 41 33 42 34 43 35 44
REMARK SMILES IDX 88 45 36 46 93 47 87 48 89 49 37 50 92 51 86 52 85 53 38 55
REMARK SMILES IDX 72 56 51 57 71 58 52 59 55 60 70 61 90 62 53 63 54 64 69 66
REMARK SMILES IDX 91 67 56 68 39 69 40 70 49 71 41 72 42 73 48 74 50 75 43 76
REMARK SMILES IDX 44 77 45 78 46 79 47 80 73 81 74 82 83 83 75 84 76 85 82 86
REMARK SMILES IDX 84 87 77 88 78 89 79 90 80 91 81 92 57 93 58 94 67 95 59 96
REMARK SMILES IDX 60 97 66 98 68 99 61 100 62 101 63 102 64 103 65 104
REMARK H PARENT 22 6 27 35 89 54 55 65
REMARK Flexibility Score: inf
ROOT
ATOM      1  C   UNL A   1      38.302  23.631  26.128  1.00  0.00     0.023 C 
ENDROOT
BRANCH   1   2
ATOM      2  C   UNL A   1      37.139  22.743  25.734  1.00  0.00     0.116 C 
BRANCH   2   3
ATOM      3  N   UNL A   1      35.925  23.084  26.427  1.00  0.00    -0.354 N 
ATOM      4  C   UNL A   1      34.650  22.657  26.198  1.00  0.00     0.242 C 
ATOM      5  O   UNL A   1      33.748  23.244  26.809  1.00  0.00    -0.273 OA
ATOM      6  H   UNL A   1      36.029  23.719  27.173  1.00  0.00     0.163 HD
BRANCH   4   7
ATOM      7  C   UNL A   1      34.291  21.643  25.085  1.00  0.00     0.174 C 
ATOM      8  N   UNL A   1      33.432  22.055  23.975  1.00  0.00    -0.327 N 
ATOM      9  C   UNL A   1      32.797  20.868  23.436  1.00  0.00     0.121 C 
ATOM     10  C   UNL A   1      32.378  20.146  24.699  1.00  0.00     0.024 C 
ATOM     11  C   UNL A   1      33.525  20.439  25.679  1.00  0.00     0.037 C 
BRANCH   8  12
ATOM     12  C   UNL A   1      33.737  23.169  23.220  1.00  0.00     0.254 C 
ATOM     13  O   UNL A   1      34.822  23.310  22.667  1.00  0.00    -0.269 OA
BRANCH  12  14
ATOM     14  C   UNL A   1      32.792  24.336  23.344  1.00  0.00     0.041 A 
ATOM     15  C   UNL A   1      32.196  26.675  22.983  1.00  0.00     0.083 A 
ATOM     16  C   UNL A   1      30.865  26.393  23.299  1.00  0.00     0.022 A 
ATOM     17  C   UNL A   1      33.147  25.651  23.005  1.00  0.00     0.035 A 
ATOM     18  C   UNL A   1      30.498  25.088  23.644  1.00  0.00     0.002 A 
ATOM     19  C   UNL A   1      31.456  24.069  23.674  1.00  0.00     0.014 A 
BRANCH  15  20
ATOM     20  S   UNL A   1      32.762  28.365  22.891  1.00  0.00     0.243 S 
ATOM     21  O   UNL A   1      31.626  29.141  22.421  1.00  0.00    -0.207 OA
ATOM     22  O   UNL A   1      33.989  28.358  22.129  1.00  0.00    -0.207 OA
BRANCH  20  23
ATOM     23  N   UNL A   1      33.108  28.911  24.510  1.00  0.00    -0.193 NA
ATOM     24  C   UNL A   1      34.875  29.301  27.349  1.00  0.00     0.040 C 
ATOM     25  C   UNL A   1      33.830  28.291  26.888  1.00  0.00     0.130 C 
ATOM     26  C   UNL A   1      33.820  27.924  25.384  1.00  0.00     0.134 C 
ATOM     27  O   UNL A   1      32.532  28.635  27.380  1.00  0.00    -0.373 OA
ATOM     28  C   UNL A   1      31.862  29.653  26.633  1.00  0.00     0.130 C 
ATOM     29  C   UNL A   1      31.795  29.337  25.136  1.00  0.00     0.134 C 
ATOM     30  C   UNL A   1      32.353  31.057  26.957  1.00  0.00     0.040 C 
ENDBRANCH  20  23
ENDBRANCH  15  20
ENDBRANCH  12  14
ENDBRANCH   8  12
ENDBRANCH   4   7
ENDBRANCH   2   3
ENDBRANCH   1   2
BRANCH   1  31
ATOM     31  C   UNL A   1      39.504  22.946  26.759  1.00  0.00     0.023 C 
BRANCH  31  32
ATOM     32  C   UNL A   1      40.743  23.804  27.006  1.00  0.00     0.116 C 
BRANCH  32  33
ATOM     33  N   UNL A   1      41.085  24.757  25.956  1.00  0.00    -0.352 N 
ATOM     34  C   UNL A   1      41.288  26.119  26.043  1.00  0.00     0.251 C 
ATOM     35  H   UNL A   1      41.184  24.373  25.055  1.00  0.00     0.163 HD
ATOM     36  O   UNL A   1      41.710  26.762  25.089  1.00  0.00    -0.269 OA
BRANCH  34  37
ATOM     37  C   UNL A   1      40.943  26.834  27.275  1.00  0.00     0.039 A 
ATOM     38  C   UNL A   1      39.906  26.339  28.078  1.00  0.00     0.014 A 
ATOM     39  C   UNL A   1      41.660  27.967  27.646  1.00  0.00     0.014 A 
ATOM     40  C   UNL A   1      39.659  26.918  29.318  1.00  0.00     0.010 A 
ATOM     41  C   UNL A   1      41.465  28.496  28.908  1.00  0.00     0.010 A 
ATOM     42  C   UNL A   1      40.468  27.972  29.750  1.00  0.00    -0.014 A 
BRANCH  42  43
ATOM     43  C   UNL A   1      40.275  28.641  31.048  1.00  0.00     0.031 A 
ATOM     44  C   UNL A   1      39.251  29.730  31.108  1.00  0.00     0.074 A 
ATOM     45  C   UNL A   1      41.118  28.389  32.064  1.00  0.00     0.049 A 
ATOM     46  N   UNL A   1      39.138  30.712  31.956  1.00  0.00    -0.248 NA
ATOM     47  C   UNL A   1      38.261  29.749  30.016  1.00  0.00     0.031 C 
ATOM     48  C   UNL A   1      42.144  27.342  32.081  1.00  0.00     0.029 A 
ATOM     49  N   UNL A   1      41.280  29.035  33.260  1.00  0.00    -0.354 N 
ATOM     50  C   UNL A   1      38.103  31.501  31.469  1.00  0.00     0.074 A 
ATOM     51  C   UNL A   1      37.638  30.895  30.240  1.00  0.00     0.031 C 
ATOM     52  C   UNL A   1      42.844  27.434  33.224  1.00  0.00     0.029 A 
ATOM     53  C   UNL A   1      42.355  28.577  33.986  1.00  0.00     0.049 A 
ATOM     54  H   UNL A   1      40.686  29.756  33.570  1.00  0.00     0.167 HD
ATOM     55  C   UNL A   1      37.598  32.633  32.008  1.00  0.00     0.037 A 
ATOM     56  C   UNL A   1      42.902  29.065  35.115  1.00  0.00     0.037 A 
ATOM     57  C   UNL A   1      38.066  33.179  33.252  1.00  0.00     0.049 A 
ATOM     58  C   UNL A   1      42.298  30.304  35.719  1.00  0.00     0.074 A 
ATOM     59  C   UNL A   1      37.613  34.292  33.934  1.00  0.00     0.029 A 
ATOM     60  N   UNL A   1      39.094  32.631  34.010  1.00  0.00    -0.354 N 
ATOM     61  N   UNL A   1      41.318  31.049  35.258  1.00  0.00    -0.248 NA
ATOM     62  C   UNL A   1      42.867  30.773  36.988  1.00  0.00     0.031 C 
ATOM     63  C   UNL A   1      38.383  34.428  35.096  1.00  0.00     0.029 A 
ATOM     64  C   UNL A   1      39.290  33.379  35.155  1.00  0.00     0.049 A 
ATOM     65  H   UNL A   1      39.609  31.828  33.766  1.00  0.00     0.167 HD
ATOM     66  C   UNL A   1      41.136  32.060  36.193  1.00  0.00     0.074 A 
ATOM     67  C   UNL A   1      42.105  31.827  37.248  1.00  0.00     0.031 C 
ATOM     68  C   UNL A   1      40.255  33.091  36.186  1.00  0.00     0.037 A 
BRANCH  55  69
ATOM     69  C   UNL A   1      36.510  33.338  31.250  1.00  0.00     0.058 A 
ATOM     70  C   UNL A   1      35.173  33.312  31.679  1.00  0.00     0.135 A 
ATOM     71  C   UNL A   1      36.803  34.040  30.070  1.00  0.00     0.135 A 
ATOM     72  F   UNL A   1      34.832  32.632  32.786  1.00  0.00    -0.206 F 
ATOM     73  C   UNL A   1      34.161  33.926  30.949  1.00  0.00     0.059 A 
ATOM     74  C   UNL A   1      35.811  34.688  29.338  1.00  0.00     0.059 A 
ATOM     75  F   UNL A   1      38.062  34.090  29.607  1.00  0.00    -0.206 F 
ATOM     76  C   UNL A   1      34.489  34.610  29.778  1.00  0.00     0.060 A 
BRANCH  76  77
ATOM     77  S   UNL A   1      33.166  35.402  28.841  1.00  0.00     0.124 S 
ATOM     78  O   UNL A   1      33.911  36.380  28.054  1.00  0.00    -0.237 OA
ATOM     79  O   UNL A   1      32.601  34.285  28.092  1.00  0.00    -0.237 OA
ATOM     80  O   UNL A   1      32.301  35.957  29.877  1.00  0.00    -0.744 OA
ENDBRANCH  76  77
ENDBRANCH  55  69
BRANCH  56  81
ATOM     81  C   UNL A   1      44.070  28.387  35.737  1.00  0.00     0.058 A 
ATOM     82  C   UNL A   1      45.378  28.765  35.399  1.00  0.00     0.135 A 
ATOM     83  C   UNL A   1      43.912  27.374  36.697  1.00  0.00     0.135 A 
ATOM     84  F   UNL A   1      45.583  29.726  34.486  1.00  0.00    -0.206 F 
ATOM     85  C   UNL A   1      46.488  28.158  35.980  1.00  0.00     0.059 A 
ATOM     86  C   UNL A   1      45.006  26.766  37.307  1.00  0.00     0.059 A 
ATOM     87  F   UNL A   1      42.683  26.988  37.071  1.00  0.00    -0.206 F 
ATOM     88  C   UNL A   1      46.292  27.160  36.936  1.00  0.00     0.060 A 
BRANCH  88  89
ATOM     89  S   UNL A   1      47.738  26.419  37.725  1.00  0.00     0.124 S 
ATOM     90  O   UNL A   1      48.821  27.220  37.164  1.00  0.00    -0.237 OA
ATOM     91  O   UNL A   1      47.457  26.629  39.142  1.00  0.00    -0.237 OA
ATOM     92  O   UNL A   1      47.686  25.028  37.284  1.00  0.00    -0.744 OA
ENDBRANCH  88  89
ENDBRANCH  56  81
BRANCH  68  93
ATOM     93  C   UNL A   1      40.268  34.006  37.374  1.00  0.00     0.058 A 
ATOM     94  C   UNL A   1      41.042  35.174  37.392  1.00  0.00     0.135 A 
ATOM     95  C   UNL A   1      39.433  33.745  38.472  1.00  0.00     0.135 A 
ATOM     96  F   UNL A   1      41.860  35.460  36.367  1.00  0.00    -0.206 F 
ATOM     97  C   UNL A   1      40.996  36.053  38.468  1.00  0.00     0.059 A 
ATOM     98  C   UNL A   1      39.354  34.621  39.548  1.00  0.00     0.059 A 
ATOM     99  F   UNL A   1      38.667  32.643  38.492  1.00  0.00    -0.206 F 
ATOM    100  C   UNL A   1      40.145  35.769  39.539  1.00  0.00     0.060 A 
BRANCH 100 101
ATOM    101  S   UNL A   1      40.054  36.944  40.905  1.00  0.00     0.124 S 
ATOM    102  O   UNL A   1      39.996  36.050  42.057  1.00  0.00    -0.237 OA
ATOM    103  O   UNL A   1      41.292  37.701  40.752  1.00  0.00    -0.237 OA
ATOM    104  O   UNL A   1      38.831  37.691  40.627  1.00  0.00    -0.744 OA
ENDBRANCH 100 101
ENDBRANCH  68  93
ENDBRANCH  42  43
ENDBRANCH  34  37
ENDBRANCH  32  33
ENDBRANCH  31  32
ENDBRANCH   1  31
TORSDOF 18
ENDMDL
MODEL 2
REMARK VINA RESULT:     -12.3      5.374     12.162
REMARK SMILES C[C@@H]1CN(S(=O)(=O)c2cccc(C(=O)N3CCC[C@@H]3C(=O)NCCCCNC(=O)c3ccc(-c4c5nc(c(-c6c(F)cc(S(=O)(=O)[O-])cc6F)c6ccc([nH]6)c(-c6c(F)cc(S(=O)(=O)[O-])cc6F)c6nc(c(-c7c(F)cc(S(=O)(=O)[O-])cc7F)c7ccc4[nH]7)C=C6)C=C5)cc3)c2)C[C@H](C)O1
REMARK SMILES IDX 24 1 23 2 22 3 20 4 21 5 19 7 15 8 16 9 17 10 18 11 13 12
REMARK SMILES IDX 14 13 12 14 8 15 9 16 96 17 10 18 11 19 5 20 6 21 7 22 4 23
REMARK SMILES IDX 1 24 2 25 3 26 100 27 98 28 97 29 99 30 25 31 26 32 27 33
REMARK SMILES IDX 28 34 29 36 30 37 31 38 95 39 32 40 94 41 33 42 34 43 35 44
REMARK SMILES IDX 88 45 36 46 93 47 87 48 89 49 37 50 92 51 86 52 85 53 38 55
REMARK SMILES IDX 72 56 51 57 71 58 52 59 55 60 70 61 90 62 53 63 54 64 69 66
REMARK SMILES IDX 91 67 56 68 39 69 40 70 49 71 41 72 42 73 48 74 50 75 43 76
REMARK SMILES IDX 44 77 45 78 46 79 47 80 73 81 74 82 83 83 75 84 76 85 82 86
REMARK SMILES IDX 84 87 77 88 78 89 79 90 80 91 81 92 57 93 58 94 67 95 59 96
REMARK SMILES IDX 60 97 66 98 68 99 61 100 62 101 63 102 64 103 65 104
REMARK H PARENT 22 6 27 35 89 54 55 65
REMARK Flexibility Score: inf
ROOT
ATOM      1  C   UNL A   1      36.867  32.788  29.891  1.00  0.00     0.023 C 
ENDROOT
BRANCH   1   2
ATOM      2  C   UNL A   1      37.685  34.021  30.217  1.00  0.00     0.116 C 
BRANCH   2   3
ATOM      3  N   UNL A   1      37.336  34.595  31.489  1.00  0.00    -0.354 N 
ATOM      4  C   UNL A   1      38.000  34.529  32.679  1.00  0.00     0.242 C 
ATOM      5  O   UNL A   1      37.397  34.946  33.676  1.00  0.00    -0.273 OA
ATOM      6  H   UNL A   1      36.496  35.109  31.503  1.00  0.00     0.163 HD
BRANCH   4   7
ATOM      7  C   UNL A   1      39.347  33.787  32.848  1.00  0.00     0.174 C 
ATOM      8  N   UNL A   1      39.493  32.774  33.893  1.00  0.00    -0.327 N 
ATOM      9  C   UNL A   1      40.901  32.669  34.222  1.00  0.00     0.121 C 
ATOM     10  C   UNL A   1      41.306  34.125  34.297  1.00  0.00     0.024 C 
ATOM     11  C   UNL A   1      40.476  34.788  33.187  1.00  0.00     0.037 C 
BRANCH   8  12
ATOM     12  C   UNL A   1      38.604  31.721  33.986  1.00  0.00     0.254 C 
ATOM     13  O   UNL A   1      37.586  31.781  34.666  1.00  0.00    -0.269 OA
BRANCH  12  14
ATOM     14  C   UNL A   1      39.084  30.396  33.452  1.00  0.00     0.041 A 
ATOM     15  C   UNL A   1      40.808  28.698  33.134  1.00  0.00     0.083 A 
ATOM     16  C   UNL A   1      39.838  27.778  32.730  1.00  0.00     0.022 A 
ATOM     17  C   UNL A   1      40.428  29.994  33.493  1.00  0.00     0.035 A 
ATOM     18  C   UNL A   1      38.495  28.167  32.680  1.00  0.00     0.002 A 
ATOM     19  C   UNL A   1      38.122  29.468  33.031  1.00  0.00     0.014 A 
BRANCH  15  20
ATOM     20  S   UNL A   1      42.540  28.356  32.870  1.00  0.00     0.243 S 
ATOM     21  O   UNL A   1      43.208  29.647  32.887  1.00  0.00    -0.207 OA
ATOM     22  O   UNL A   1      42.631  27.519  31.697  1.00  0.00    -0.207 OA
BRANCH  20  23
ATOM     23  N   UNL A   1      43.133  27.466  34.246  1.00  0.00    -0.193 NA
ATOM     24  C   UNL A   1      44.289  26.978  37.371  1.00  0.00     0.040 C 
ATOM     25  C   UNL A   1      44.961  27.202  36.020  1.00  0.00     0.130 C 
ATOM     26  C   UNL A   1      44.233  28.130  35.016  1.00  0.00     0.134 C 
ATOM     27  O   UNL A   1      45.362  25.961  35.434  1.00  0.00    -0.373 OA
ATOM     28  C   UNL A   1      44.312  25.245  34.779  1.00  0.00     0.130 C 
ATOM     29  C   UNL A   1      43.567  26.101  33.751  1.00  0.00     0.134 C 
ATOM     30  C   UNL A   1      43.407  24.492  35.745  1.00  0.00     0.040 C 
ENDBRANCH  20  23
ENDBRANCH  15  20
ENDBRANCH  12  14
ENDBRANCH   8  12
ENDBRANCH   4   7
ENDBRANCH   2   3
ENDBRANCH   1   2
BRANCH   1  31
ATOM     31  C   UNL A   1      35.736  32.961  28.889  1.00  0.00     0.023 C 
BRANCH  31  32
ATOM     32  C   UNL A   1      34.425  32.239  29.188  1.00  0.00     0.116 C 
BRANCH  32  33
ATOM     33  N   UNL A   1      34.011  31.230  28.219  1.00  0.00    -0.352 N 
ATOM     34  C   UNL A   1      34.662  30.081  27.821  1.00  0.00     0.251 C 
ATOM     35  H   UNL A   1      33.142  31.393  27.786  1.00  0.00     0.163 HD
ATOM     36  O   UNL A   1      34.116  29.258  27.095  1.00  0.00    -0.269 OA
BRANCH  34  37
ATOM     37  C   UNL A   1      36.055  29.853  28.216  1.00  0.00     0.039 A 
ATOM     38  C   UNL A   1      36.321  29.331  29.490  1.00  0.00     0.014 A 
ATOM     39  C   UNL A   1      37.085  30.125  27.322  1.00  0.00     0.014 A 
ATOM     40  C   UNL A   1      37.621  28.975  29.830  1.00  0.00     0.010 A 
ATOM     41  C   UNL A   1      38.365  29.703  27.630  1.00  0.00     0.010 A 
ATOM     42  C   UNL A   1      38.638  29.123  28.882  1.00  0.00    -0.014 A 
BRANCH  42  43
ATOM     43  C   UNL A   1      40.040  28.770  29.161  1.00  0.00     0.031 A 
ATOM     44  C   UNL A   1      40.952  29.879  29.582  1.00  0.00     0.074 A 
ATOM     45  C   UNL A   1      40.493  27.539  28.865  1.00  0.00     0.049 A 
ATOM     46  N   UNL A   1      42.251  29.950  29.519  1.00  0.00    -0.248 NA
ATOM     47  C   UNL A   1      40.297  31.102  30.078  1.00  0.00     0.031 C 
ATOM     48  C   UNL A   1      39.665  26.404  28.448  1.00  0.00     0.029 A 
ATOM     49  N   UNL A   1      41.772  27.054  28.820  1.00  0.00    -0.354 N 
ATOM     50  C   UNL A   1      42.567  31.245  29.909  1.00  0.00     0.074 A 
ATOM     51  C   UNL A   1      41.324  31.930  30.185  1.00  0.00     0.031 C 
ATOM     52  C   UNL A   1      40.462  25.360  28.166  1.00  0.00     0.029 A 
ATOM     53  C   UNL A   1      41.852  25.772  28.327  1.00  0.00     0.049 A 
ATOM     54  H   UNL A   1      42.557  27.571  29.112  1.00  0.00     0.167 HD
ATOM     55  C   UNL A   1      43.794  31.802  30.020  1.00  0.00     0.037 A 
ATOM     56  C   UNL A   1      42.935  25.041  28.002  1.00  0.00     0.037 A 
ATOM     57  C   UNL A   1      45.007  31.071  29.773  1.00  0.00     0.049 A 
ATOM     58  C   UNL A   1      44.292  25.668  28.170  1.00  0.00     0.074 A 
ATOM     59  C   UNL A   1      46.315  31.498  29.891  1.00  0.00     0.029 A 
ATOM     60  N   UNL A   1      45.050  29.742  29.367  1.00  0.00    -0.354 N 
ATOM     61  N   UNL A   1      44.591  26.893  28.541  1.00  0.00    -0.248 NA
ATOM     62  C   UNL A   1      45.458  24.825  27.877  1.00  0.00     0.031 C 
ATOM     63  C   UNL A   1      47.151  30.432  29.537  1.00  0.00     0.029 A 
ATOM     64  C   UNL A   1      46.362  29.330  29.234  1.00  0.00     0.049 A 
ATOM     65  H   UNL A   1      44.262  29.177  29.199  1.00  0.00     0.167 HD
ATOM     66  C   UNL A   1      45.978  26.961  28.551  1.00  0.00     0.074 A 
ATOM     67  C   UNL A   1      46.459  25.650  28.154  1.00  0.00     0.031 C 
ATOM     68  C   UNL A   1      46.788  28.006  28.856  1.00  0.00     0.037 A 
BRANCH  55  69
ATOM     69  C   UNL A   1      43.867  33.251  30.409  1.00  0.00     0.058 A 
ATOM     70  C   UNL A   1      43.787  34.278  29.454  1.00  0.00     0.135 A 
ATOM     71  C   UNL A   1      44.030  33.621  31.753  1.00  0.00     0.135 A 
ATOM     72  F   UNL A   1      43.658  33.980  28.151  1.00  0.00    -0.206 F 
ATOM     73  C   UNL A   1      43.901  35.617  29.813  1.00  0.00     0.059 A 
ATOM     74  C   UNL A   1      44.117  34.955  32.139  1.00  0.00     0.059 A 
ATOM     75  F   UNL A   1      44.122  32.681  32.708  1.00  0.00    -0.206 F 
ATOM     76  C   UNL A   1      44.069  35.946  31.159  1.00  0.00     0.060 A 
BRANCH  76  77
ATOM     77  S   UNL A   1      44.216  37.687  31.610  1.00  0.00     0.124 S 
ATOM     78  O   UNL A   1      43.763  38.343  30.387  1.00  0.00    -0.237 OA
ATOM     79  O   UNL A   1      43.318  37.791  32.755  1.00  0.00    -0.237 OA
ATOM     80  O   UNL A   1      45.635  37.840  31.916  1.00  0.00    -0.744 OA
ENDBRANCH  76  77
ENDBRANCH  55  69
BRANCH  56  81
ATOM     81  C   UNL A   1      42.777  23.653  27.492  1.00  0.00     0.058 A 
ATOM     82  C   UNL A   1      42.654  22.575  28.380  1.00  0.00     0.135 A 
ATOM     83  C   UNL A   1      42.714  23.375  26.117  1.00  0.00     0.135 A 
ATOM     84  F   UNL A   1      42.710  22.788  29.704  1.00  0.00    -0.206 F 
ATOM     85  C   UNL A   1      42.488  21.269  27.928  1.00  0.00     0.059 A 
ATOM     86  C   UNL A   1      42.527  22.080  25.639  1.00  0.00     0.059 A 
ATOM     87  F   UNL A   1      42.805  24.372  25.224  1.00  0.00    -0.206 F 
ATOM     88  C   UNL A   1      42.423  21.032  26.554  1.00  0.00     0.060 A 
BRANCH  88  89
ATOM     89  S   UNL A   1      42.150  19.341  25.979  1.00  0.00     0.124 S 
ATOM     90  O   UNL A   1      42.996  19.295  24.791  1.00  0.00    -0.237 OA
ATOM     91  O   UNL A   1      42.606  18.551  27.118  1.00  0.00    -0.237 OA
ATOM     92  O   UNL A   1      40.711  19.298  25.733  1.00  0.00    -0.744 OA
ENDBRANCH  88  89
ENDBRANCH  56  81
BRANCH  68  93
ATOM     93  C   UNL A   1      48.266  27.755  28.819  1.00  0.00     0.058 A 
ATOM     94  C   UNL A   1      48.940  27.178  29.904  1.00  0.00     0.135 A 
ATOM     95  C   UNL A   1      48.996  28.028  27.652  1.00  0.00     0.135 A 
ATOM     96  F   UNL A   1      48.282  26.907  31.042  1.00  0.00    -0.206 F 
ATOM     97  C   UNL A   1      50.297  26.884  29.837  1.00  0.00     0.059 A 
ATOM     98  C   UNL A   1      50.349  27.722  27.554  1.00  0.00     0.059 A 
ATOM     99  F   UNL A   1      48.389  28.572  26.586  1.00  0.00    -0.206 F 
ATOM    100  C   UNL A   1      50.991  27.157  28.655  1.00  0.00     0.060 A 
BRANCH 100 101
ATOM    101  S   UNL A   1      52.739  26.724  28.560  1.00  0.00     0.124 S 
ATOM    102  O   UNL A   1      52.727  25.680  27.540  1.00  0.00    -0.237 OA
ATOM    103  O   UNL A   1      53.355  27.988  28.168  1.00  0.00    -0.237 OA
ATOM    104  O   UNL A   1      53.051  26.276  29.914  1.00  0.00    -0.744 OA
ENDBRANCH 100 101
ENDBRANCH  68  93
ENDBRANCH  42  43
ENDBRANCH  34  37
ENDBRANCH  32  33
ENDBRANCH  31  32
ENDBRANCH   1  31
TORSDOF 18
ENDMDL
MODEL 3
REMARK VINA RESULT:     -12.3      1.322      8.136
REMARK SMILES C[C@@H]1CN(S(=O)(=O)c2cccc(C(=O)N3CCC[C@@H]3C(=O)NCCCCNC(=O)c3ccc(-c4c5nc(c(-c6c(F)cc(S(=O)(=O)[O-])cc6F)c6ccc([nH]6)c(-c6c(F)cc(S(=O)(=O)[O-])cc6F)c6nc(c(-c7c(F)cc(S(=O)(=O)[O-])cc7F)c7ccc4[nH]7)C=C6)C=C5)cc3)c2)C[C@H](C)O1
REMARK SMILES IDX 24 1 23 2 22 3 20 4 21 5 19 7 15 8 16 9 17 10 18 11 13 12
REMARK SMILES IDX 14 13 12 14 8 15 9 16 96 17 10 18 11 19 5 20 6 21 7 22 4 23
REMARK SMILES IDX 1 24 2 25 3 26 100 27 98 28 97 29 99 30 25 31 26 32 27 33
REMARK SMILES IDX 28 34 29 36 30 37 31 38 95 39 32 40 94 41 33 42 34 43 35 44
REMARK SMILES IDX 88 45 36 46 93 47 87 48 89 49 37 50 92 51 86 52 85 53 38 55
REMARK SMILES IDX 72 56 51 57 71 58 52 59 55 60 70 61 90 62 53 63 54 64 69 66
REMARK SMILES IDX 91 67 56 68 39 69 40 70 49 71 41 72 42 73 48 74 50 75 43 76
REMARK SMILES IDX 44 77 45 78 46 79 47 80 73 81 74 82 83 83 75 84 76 85 82 86
REMARK SMILES IDX 84 87 77 88 78 89 79 90 80 91 81 92 57 93 58 94 67 95 59 96
REMARK SMILES IDX 60 97 66 98 68 99 61 100 62 101 63 102 64 103 65 104
REMARK H PARENT 22 6 27 35 89 54 55 65
REMARK Flexibility Score: inf
ROOT
ATOM      1  C   UNL A   1      36.098  23.905  25.635  1.00  0.00     0.023 C 
ENDROOT
BRANCH   1   2
ATOM      2  C   UNL A   1      35.314  23.284  24.498  1.00  0.00     0.116 C 
BRANCH   2   3
ATOM      3  N   UNL A   1      35.511  21.862  24.403  1.00  0.00    -0.354 N 
ATOM      4  C   UNL A   1      34.716  20.847  24.852  1.00  0.00     0.242 C 
ATOM      5  O   UNL A   1      35.197  19.708  24.821  1.00  0.00    -0.273 OA
ATOM      6  H   UNL A   1      36.339  21.579  23.952  1.00  0.00     0.163 HD
BRANCH   4   7
ATOM      7  C   UNL A   1      33.364  21.093  25.565  1.00  0.00     0.174 C 
ATOM      8  N   UNL A   1      32.446  22.110  25.054  1.00  0.00    -0.327 N 
ATOM      9  C   UNL A   1      31.599  22.540  26.149  1.00  0.00     0.121 C 
ATOM     10  C   UNL A   1      32.605  22.695  27.270  1.00  0.00     0.024 C 
ATOM     11  C   UNL A   1      33.599  21.549  27.023  1.00  0.00     0.037 C 
BRANCH   8  12
ATOM     12  C   UNL A   1      32.043  22.100  23.734  1.00  0.00     0.254 C 
ATOM     13  O   UNL A   1      31.913  21.061  23.096  1.00  0.00    -0.269 OA
BRANCH  12  14
ATOM     14  C   UNL A   1      32.052  23.430  23.026  1.00  0.00     0.041 A 
ATOM     15  C   UNL A   1      31.480  25.798  22.881  1.00  0.00     0.083 A 
ATOM     16  C   UNL A   1      32.383  25.959  21.828  1.00  0.00     0.022 A 
ATOM     17  C   UNL A   1      31.322  24.542  23.473  1.00  0.00     0.035 A 
ATOM     18  C   UNL A   1      33.113  24.858  21.368  1.00  0.00     0.002 A 
ATOM     19  C   UNL A   1      32.943  23.601  21.957  1.00  0.00     0.014 A 
BRANCH  15  20
ATOM     20  S   UNL A   1      30.288  27.074  23.251  1.00  0.00     0.243 S 
ATOM     21  O   UNL A   1      29.104  26.384  23.735  1.00  0.00    -0.207 OA
ATOM     22  O   UNL A   1      30.198  27.918  22.083  1.00  0.00    -0.207 OA
BRANCH  20  23
ATOM     23  N   UNL A   1      30.899  28.018  24.583  1.00  0.00    -0.193 NA
ATOM     24  C   UNL A   1      31.865  30.776  26.255  1.00  0.00     0.040 C 
ATOM     25  C   UNL A   1      32.600  29.749  25.400  1.00  0.00     0.130 C 
ATOM     26  C   UNL A   1      31.822  29.137  24.209  1.00  0.00     0.134 C 
ATOM     27  O   UNL A   1      33.229  28.758  26.216  1.00  0.00    -0.373 OA
ATOM     28  C   UNL A   1      32.354  27.728  26.682  1.00  0.00     0.130 C 
ATOM     29  C   UNL A   1      31.572  27.061  25.546  1.00  0.00     0.134 C 
ATOM     30  C   UNL A   1      31.500  28.156  27.867  1.00  0.00     0.040 C 
ENDBRANCH  20  23
ENDBRANCH  15  20
ENDBRANCH  12  14
ENDBRANCH   8  12
ENDBRANCH   4   7
ENDBRANCH   2   3
ENDBRANCH   1   2
BRANCH   1  31
ATOM     31  C   UNL A   1      37.493  23.354  25.887  1.00  0.00     0.023 C 
BRANCH  31  32
ATOM     32  C   UNL A   1      38.576  24.356  26.280  1.00  0.00     0.116 C 
BRANCH  32  33
ATOM     33  N   UNL A   1      39.945  23.850  26.297  1.00  0.00    -0.352 N 
ATOM     34  C   UNL A   1      41.013  24.245  27.074  1.00  0.00     0.251 C 
ATOM     35  H   UNL A   1      40.133  23.123  25.660  1.00  0.00     0.163 HD
ATOM     36  O   UNL A   1      42.070  23.623  27.068  1.00  0.00    -0.269 OA
BRANCH  34  37
ATOM     37  C   UNL A   1      40.920  25.463  27.885  1.00  0.00     0.039 A 
ATOM     38  C   UNL A   1      39.817  25.629  28.733  1.00  0.00     0.014 A 
ATOM     39  C   UNL A   1      41.932  26.416  27.828  1.00  0.00     0.014 A 
ATOM     40  C   UNL A   1      39.781  26.705  29.613  1.00  0.00     0.010 A 
ATOM     41  C   UNL A   1      41.933  27.443  28.752  1.00  0.00     0.010 A 
ATOM     42  C   UNL A   1      40.861  27.590  29.650  1.00  0.00    -0.014 A 
BRANCH  42  43
ATOM     43  C   UNL A   1      40.903  28.754  30.552  1.00  0.00     0.031 A 
ATOM     44  C   UNL A   1      41.846  28.684  31.712  1.00  0.00     0.074 A 
ATOM     45  C   UNL A   1      39.997  29.737  30.420  1.00  0.00     0.049 A 
ATOM     46  N   UNL A   1      41.824  29.343  32.835  1.00  0.00    -0.248 NA
ATOM     47  C   UNL A   1      42.919  27.679  31.615  1.00  0.00     0.031 C 
ATOM     48  C   UNL A   1      39.043  29.875  29.315  1.00  0.00     0.029 A 
ATOM     49  N   UNL A   1      39.694  30.781  31.253  1.00  0.00    -0.354 N 
ATOM     50  C   UNL A   1      42.842  28.793  33.604  1.00  0.00     0.074 A 
ATOM     51  C   UNL A   1      43.445  27.732  32.828  1.00  0.00     0.031 C 
ATOM     52  C   UNL A   1      38.246  30.930  29.553  1.00  0.00     0.029 A 
ATOM     53  C   UNL A   1      38.595  31.501  30.848  1.00  0.00     0.049 A 
ATOM     54  H   UNL A   1      40.213  30.994  32.063  1.00  0.00     0.167 HD
ATOM     55  C   UNL A   1      43.226  29.149  34.850  1.00  0.00     0.037 A 
ATOM     56  C   UNL A   1      37.926  32.481  31.484  1.00  0.00     0.037 A 
ATOM     57  C   UNL A   1      42.622  30.236  35.570  1.00  0.00     0.049 A 
ATOM     58  C   UNL A   1      38.396  32.888  32.855  1.00  0.00     0.074 A 
ATOM     59  C   UNL A   1      42.944  30.732  36.819  1.00  0.00     0.029 A 
ATOM     60  N   UNL A   1      41.572  31.008  35.086  1.00  0.00    -0.354 N 
ATOM     61  N   UNL A   1      39.360  32.368  33.581  1.00  0.00    -0.248 NA
ATOM     62  C   UNL A   1      37.695  34.007  33.496  1.00  0.00     0.031 C 
ATOM     63  C   UNL A   1      42.074  31.793  37.099  1.00  0.00     0.029 A 
ATOM     64  C   UNL A   1      41.235  31.980  36.009  1.00  0.00     0.049 A 
ATOM     65  H   UNL A   1      41.133  30.881  34.214  1.00  0.00     0.167 HD
ATOM     66  C   UNL A   1      39.399  33.111  34.754  1.00  0.00     0.074 A 
ATOM     67  C   UNL A   1      38.363  34.121  34.636  1.00  0.00     0.031 C 
ATOM     68  C   UNL A   1      40.209  32.977  35.833  1.00  0.00     0.037 A 
BRANCH  55  69
ATOM     69  C   UNL A   1      44.325  28.352  35.492  1.00  0.00     0.058 A 
ATOM     70  C   UNL A   1      45.678  28.686  35.321  1.00  0.00     0.135 A 
ATOM     71  C   UNL A   1      44.025  27.230  36.281  1.00  0.00     0.135 A 
ATOM     72  F   UNL A   1      46.023  29.733  34.555  1.00  0.00    -0.206 F 
ATOM     73  C   UNL A   1      46.695  27.918  35.879  1.00  0.00     0.059 A 
ATOM     74  C   UNL A   1      45.025  26.463  36.874  1.00  0.00     0.059 A 
ATOM     75  F   UNL A   1      42.749  26.857  36.471  1.00  0.00    -0.206 F 
ATOM     76  C   UNL A   1      46.358  26.807  36.652  1.00  0.00     0.060 A 
BRANCH  76  77
ATOM     77  S   UNL A   1      47.688  25.819  37.370  1.00  0.00     0.124 S 
ATOM     78  O   UNL A   1      47.866  26.468  38.665  1.00  0.00    -0.237 OA
ATOM     79  O   UNL A   1      47.101  24.483  37.406  1.00  0.00    -0.237 OA
ATOM     80  O   UNL A   1      48.787  25.991  36.424  1.00  0.00    -0.744 OA
ENDBRANCH  76  77
ENDBRANCH  55  69
BRANCH  56  81
ATOM     81  C   UNL A   1      36.757  33.134  30.838  1.00  0.00     0.058 A 
ATOM     82  C   UNL A   1      35.456  32.887  31.300  1.00  0.00     0.135 A 
ATOM     83  C   UNL A   1      36.910  34.035  29.772  1.00  0.00     0.135 A 
ATOM     84  F   UNL A   1      35.256  32.033  32.314  1.00  0.00    -0.206 F 
ATOM     85  C   UNL A   1      34.346  33.499  30.723  1.00  0.00     0.059 A 
ATOM     86  C   UNL A   1      35.818  34.676  29.191  1.00  0.00     0.059 A 
ATOM     87  F   UNL A   1      38.135  34.321  29.304  1.00  0.00    -0.206 F 
ATOM     88  C   UNL A   1      34.538  34.395  29.670  1.00  0.00     0.060 A 
BRANCH  88  89
ATOM     89  S   UNL A   1      33.097  35.227  28.966  1.00  0.00     0.124 S 
ATOM     90  O   UNL A   1      33.702  36.424  28.392  1.00  0.00    -0.237 OA
ATOM     91  O   UNL A   1      32.608  34.238  28.010  1.00  0.00    -0.237 OA
ATOM     92  O   UNL A   1      32.237  35.445  30.125  1.00  0.00    -0.744 OA
ENDBRANCH  88  89
ENDBRANCH  56  81
BRANCH  68  93
ATOM     93  C   UNL A   1      40.038  33.973  36.941  1.00  0.00     0.058 A 
ATOM     94  C   UNL A   1      40.759  35.175  36.965  1.00  0.00     0.135 A 
ATOM     95  C   UNL A   1      39.083  33.751  37.946  1.00  0.00     0.135 A 
ATOM     96  F   UNL A   1      41.687  35.426  36.028  1.00  0.00    -0.206 F 
ATOM     97  C   UNL A   1      40.545  36.125  37.957  1.00  0.00     0.059 A 
ATOM     98  C   UNL A   1      38.836  34.696  38.934  1.00  0.00     0.059 A 
ATOM     99  F   UNL A   1      38.363  32.618  37.955  1.00  0.00    -0.206 F 
ATOM    100  C   UNL A   1      39.578  35.877  38.935  1.00  0.00     0.060 A 
BRANCH 100 101
ATOM    101  S   UNL A   1      39.271  37.139  40.187  1.00  0.00     0.124 S 
ATOM    102  O   UNL A   1      40.628  37.559  40.518  1.00  0.00    -0.237 OA
ATOM    103  O   UNL A   1      38.464  38.113  39.458  1.00  0.00    -0.237 OA
ATOM    104  O   UNL A   1      38.565  36.410  41.236  1.00  0.00    -0.744 OA
ENDBRANCH 100 101
ENDBRANCH  68  93
ENDBRANCH  42  43
ENDBRANCH  34  37
ENDBRANCH  32  33
ENDBRANCH  31  32
ENDBRANCH   1  31
TORSDOF 18
ENDMDL
