MODEL 1
REMARK VINA RESULT:     -11.8      0.000      0.000
REMARK SMILES CC(C)CSc1cc2c(cc1Cl)C=C(C(=O)NCCCCNC(=O)c1ccc(-c3c4nc(c(-c5c(F)cc(S(=O)(=O)[O-])cc5F)c5ccc([nH]5)c(-c5c(F)cc(S(=O)(=O)[O-])cc5F)c5nc(c(-c6c(F)cc(S(=O)(=O)[O-])cc6F)c6ccc3[nH]6)C=C5)C=C4)cc1)[C@@H](C(F)(F)F)O2
REMARK SMILES IDX 19 1 18 2 17 3 15 4 16 5 14 7 6 8 7 9 11 10 8 11 10 12 12 13
REMARK SMILES IDX 9 14 96 15 13 16 91 17 5 18 4 19 2 20 1 21 3 22 92 23 93 24
REMARK SMILES IDX 94 25 95 26 20 27 21 28 22 29 23 30 24 32 25 33 26 34 90 35
REMARK SMILES IDX 27 36 89 37 28 38 29 39 30 40 83 41 31 42 88 43 82 44 84 45
REMARK SMILES IDX 32 46 87 47 81 48 80 49 33 51 67 52 46 53 66 54 47 55 50 56
REMARK SMILES IDX 65 57 85 58 48 59 49 60 64 62 86 63 51 64 34 65 35 66 44 67
REMARK SMILES IDX 36 68 37 69 43 70 45 71 38 72 39 73 40 74 41 75 42 76 68 77
REMARK SMILES IDX 69 78 78 79 70 80 71 81 77 82 79 83 72 84 73 85 74 86 75 87
REMARK SMILES IDX 76 88 52 89 53 90 62 91 54 92 55 93 61 94 63 95 56 96 57 97
REMARK SMILES IDX 58 98 59 99 60 100
REMARK H PARENT 17 6 22 31 84 50 50 61
REMARK Flexibility Score: inf
ROOT
ATOM      1  C   UNL A   1      31.790  29.479  26.920  1.00  0.00     0.023 C 
ENDROOT
BRANCH   1   2
ATOM      2  C   UNL A   1      32.026  30.366  25.703  1.00  0.00     0.116 C 
BRANCH   2   3
ATOM      3  N   UNL A   1      30.983  30.248  24.700  1.00  0.00    -0.352 N 
ATOM      4  C   UNL A   1      30.456  29.242  23.961  1.00  0.00     0.251 C 
ATOM      5  O   UNL A   1      29.512  29.540  23.224  1.00  0.00    -0.270 OA
ATOM      6  H   UNL A   1      30.551  31.113  24.510  1.00  0.00     0.163 HD
BRANCH   4   7
ATOM      7  C   UNL A   1      30.959  27.836  23.968  1.00  0.00     0.067 C 
ATOM      8  C   UNL A   1      31.588  22.938  25.194  1.00  0.00     0.030 A 
ATOM      9  C   UNL A   1      32.127  23.813  24.226  1.00  0.00     0.063 A 
ATOM     10  C   UNL A   1      30.663  23.486  26.099  1.00  0.00     0.055 A 
ATOM     11  C   UNL A   1      31.769  25.163  24.159  1.00  0.00     0.129 A 
ATOM     12  C   UNL A   1      30.349  24.858  26.061  1.00  0.00     0.033 A 
ATOM     13  Cl  UNL A   1      29.752  22.581  27.252  1.00  0.00    -0.083 Cl
ATOM     14  C   UNL A   1      30.888  25.695  25.084  1.00  0.00     0.019 A 
ATOM     15  O   UNL A   1      32.316  25.879  23.140  1.00  0.00    -0.475 OA
ATOM     16  C   UNL A   1      30.498  27.092  24.990  1.00  0.00     0.025 C 
ATOM     17  C   UNL A   1      31.925  27.272  22.960  1.00  0.00     0.314 C 
BRANCH   8  18
ATOM     18  S   UNL A   1      32.153  21.249  24.957  1.00  0.00    -0.124 SA
BRANCH  18  19
ATOM     19  C   UNL A   1      33.855  21.095  25.595  1.00  0.00     0.078 C 
BRANCH  19  20
ATOM     20  C   UNL A   1      35.015  21.325  24.610  1.00  0.00    -0.007 C 
ATOM     21  C   UNL A   1      35.428  22.780  24.405  1.00  0.00     0.008 C 
ATOM     22  C   UNL A   1      36.228  20.519  25.096  1.00  0.00     0.008 C 
ENDBRANCH  19  20
ENDBRANCH  18  19
ENDBRANCH   8  18
BRANCH  17  23
ATOM     23  C   UNL A   1      33.232  28.076  22.828  1.00  0.00     0.429 C 
ATOM     24  F   UNL A   1      33.852  28.155  24.034  1.00  0.00    -0.167 F 
ATOM     25  F   UNL A   1      34.124  27.520  21.980  1.00  0.00    -0.167 F 
ATOM     26  F   UNL A   1      33.012  29.341  22.405  1.00  0.00    -0.167 F 
ENDBRANCH  17  23
ENDBRANCH   4   7
ENDBRANCH   2   3
ENDBRANCH   1   2
BRANCH   1  27
ATOM     27  C   UNL A   1      32.997  28.646  27.357  1.00  0.00     0.023 C 
BRANCH  27  28
ATOM     28  C   UNL A   1      34.335  29.381  27.398  1.00  0.00     0.116 C 
BRANCH  28  29
ATOM     29  N   UNL A   1      34.403  30.473  28.361  1.00  0.00    -0.352 N 
ATOM     30  C   UNL A   1      35.485  30.850  29.140  1.00  0.00     0.251 C 
ATOM     31  H   UNL A   1      33.583  31.007  28.471  1.00  0.00     0.163 HD
ATOM     32  O   UNL A   1      35.400  31.755  29.939  1.00  0.00    -0.269 OA
BRANCH  30  33
ATOM     33  C   UNL A   1      36.732  30.058  29.009  1.00  0.00     0.039 A 
ATOM     34  C   UNL A   1      37.260  29.400  30.118  1.00  0.00     0.014 A 
ATOM     35  C   UNL A   1      37.439  30.113  27.805  1.00  0.00     0.014 A 
ATOM     36  C   UNL A   1      38.584  28.979  30.087  1.00  0.00     0.010 A 
ATOM     37  C   UNL A   1      38.744  29.613  27.755  1.00  0.00     0.010 A 
ATOM     38  C   UNL A   1      39.352  29.116  28.919  1.00  0.00    -0.014 A 
BRANCH  38  39
ATOM     39  C   UNL A   1      40.806  28.810  28.972  1.00  0.00     0.031 A 
ATOM     40  C   UNL A   1      41.319  27.461  28.532  1.00  0.00     0.074 A 
ATOM     41  C   UNL A   1      41.673  29.782  29.314  1.00  0.00     0.049 A 
ATOM     42  N   UNL A   1      42.555  27.040  28.442  1.00  0.00    -0.248 NA
ATOM     43  C   UNL A   1      40.320  26.453  28.141  1.00  0.00     0.031 C 
ATOM     44  C   UNL A   1      41.298  31.133  29.737  1.00  0.00     0.029 A 
ATOM     45  N   UNL A   1      43.044  29.801  29.318  1.00  0.00    -0.354 N 
ATOM     46  C   UNL A   1      42.482  25.722  28.004  1.00  0.00     0.074 A 
ATOM     47  C   UNL A   1      41.079  25.399  27.872  1.00  0.00     0.031 C 
ATOM     48  C   UNL A   1      42.409  31.868  29.891  1.00  0.00     0.029 A 
ATOM     49  C   UNL A   1      43.575  31.030  29.634  1.00  0.00     0.049 A 
ATOM     50  H   UNL A   1      43.595  29.012  29.115  1.00  0.00     0.167 HD
ATOM     51  C   UNL A   1      43.491  24.865  27.720  1.00  0.00     0.037 A 
ATOM     52  C   UNL A   1      44.857  31.436  29.711  1.00  0.00     0.037 A 
ATOM     53  C   UNL A   1      44.887  25.200  27.811  1.00  0.00     0.049 A 
ATOM     54  C   UNL A   1      45.957  30.452  29.434  1.00  0.00     0.074 A 
ATOM     55  C   UNL A   1      45.983  24.408  27.510  1.00  0.00     0.029 A 
ATOM     56  N   UNL A   1      45.381  26.426  28.225  1.00  0.00    -0.354 N 
ATOM     57  N   UNL A   1      45.865  29.210  29.026  1.00  0.00    -0.248 NA
ATOM     58  C   UNL A   1      47.334  30.917  29.652  1.00  0.00     0.031 C 
ATOM     59  C   UNL A   1      47.141  25.146  27.776  1.00  0.00     0.029 A 
ATOM     60  C   UNL A   1      46.766  26.407  28.213  1.00  0.00     0.049 A 
ATOM     61  H   UNL A   1      44.830  27.197  28.490  1.00  0.00     0.167 HD
ATOM     62  C   UNL A   1      47.170  28.740  28.948  1.00  0.00     0.074 A 
ATOM     63  C   UNL A   1      48.036  29.840  29.323  1.00  0.00     0.031 C 
ATOM     64  C   UNL A   1      47.610  27.505  28.606  1.00  0.00     0.037 A 
BRANCH  51  65
ATOM     65  C   UNL A   1      43.129  23.474  27.279  1.00  0.00     0.058 A 
ATOM     66  C   UNL A   1      43.124  23.112  25.923  1.00  0.00     0.135 A 
ATOM     67  C   UNL A   1      42.845  22.477  28.226  1.00  0.00     0.135 A 
ATOM     68  F   UNL A   1      43.373  24.032  24.978  1.00  0.00    -0.206 F 
ATOM     69  C   UNL A   1      42.836  21.813  25.520  1.00  0.00     0.059 A 
ATOM     70  C   UNL A   1      42.572  21.166  27.847  1.00  0.00     0.059 A 
ATOM     71  F   UNL A   1      42.836  22.772  29.536  1.00  0.00    -0.206 F 
ATOM     72  C   UNL A   1      42.561  20.846  26.489  1.00  0.00     0.060 A 
BRANCH  72  73
ATOM     73  S   UNL A   1      42.199  19.162  25.948  1.00  0.00     0.124 S 
ATOM     74  O   UNL A   1      42.659  18.384  27.094  1.00  0.00    -0.237 OA
ATOM     75  O   UNL A   1      40.754  19.203  25.749  1.00  0.00    -0.237 OA
ATOM     76  O   UNL A   1      42.993  19.017  24.731  1.00  0.00    -0.744 OA
ENDBRANCH  72  73
ENDBRANCH  51  65
BRANCH  52  77
ATOM     77  C   UNL A   1      45.161  32.842  30.074  1.00  0.00     0.058 A 
ATOM     78  C   UNL A   1      45.335  33.218  31.413  1.00  0.00     0.135 A 
ATOM     79  C   UNL A   1      45.319  33.829  29.088  1.00  0.00     0.135 A 
ATOM     80  F   UNL A   1      45.187  32.309  32.390  1.00  0.00    -0.206 F 
ATOM     81  C   UNL A   1      45.657  34.524  31.766  1.00  0.00     0.059 A 
ATOM     82  C   UNL A   1      45.661  35.137  29.413  1.00  0.00     0.059 A 
ATOM     83  F   UNL A   1      45.173  33.513  27.793  1.00  0.00    -0.206 F 
ATOM     84  C   UNL A   1      45.823  35.475  30.757  1.00  0.00     0.060 A 
BRANCH  84  85
ATOM     85  S   UNL A   1      46.307  37.153  31.216  1.00  0.00     0.124 S 
ATOM     86  O   UNL A   1      46.879  36.942  32.540  1.00  0.00    -0.237 OA
ATOM     87  O   UNL A   1      47.252  37.502  30.159  1.00  0.00    -0.237 OA
ATOM     88  O   UNL A   1      45.045  37.886  31.181  1.00  0.00    -0.744 OA
ENDBRANCH  84  85
ENDBRANCH  52  77
BRANCH  64  89
ATOM     89  C   UNL A   1      49.090  27.260  28.649  1.00  0.00     0.058 A 
ATOM     90  C   UNL A   1      49.908  27.602  27.562  1.00  0.00     0.135 A 
ATOM     91  C   UNL A   1      49.704  26.767  29.811  1.00  0.00     0.135 A 
ATOM     92  F   UNL A   1      49.364  28.069  26.427  1.00  0.00    -0.206 F 
ATOM     93  C   UNL A   1      51.289  27.466  27.626  1.00  0.00     0.059 A 
ATOM     94  C   UNL A   1      51.086  26.640  29.903  1.00  0.00     0.059 A 
ATOM     95  F   UNL A   1      48.961  26.433  30.878  1.00  0.00    -0.206 F 
ATOM     96  C   UNL A   1      51.871  26.992  28.805  1.00  0.00     0.060 A 
BRANCH  96  97
ATOM     97  S   UNL A   1      53.671  26.889  28.897  1.00  0.00     0.124 S 
ATOM     98  O   UNL A   1      54.057  28.277  28.666  1.00  0.00    -0.237 OA
ATOM     99  O   UNL A   1      53.886  26.386  30.250  1.00  0.00    -0.237 OA
ATOM    100  O   UNL A   1      54.012  25.956  27.827  1.00  0.00    -0.744 OA
ENDBRANCH  96  97
ENDBRANCH  64  89
ENDBRANCH  38  39
ENDBRANCH  30  33
ENDBRANCH  28  29
ENDBRANCH  27  28
ENDBRANCH   1  27
TORSDOF 18
ENDMDL
MODEL 2
REMARK VINA RESULT:     -11.7      2.171      8.454
REMARK SMILES CC(C)CSc1cc2c(cc1Cl)C=C(C(=O)NCCCCNC(=O)c1ccc(-c3c4nc(c(-c5c(F)cc(S(=O)(=O)[O-])cc5F)c5ccc([nH]5)c(-c5c(F)cc(S(=O)(=O)[O-])cc5F)c5nc(c(-c6c(F)cc(S(=O)(=O)[O-])cc6F)c6ccc3[nH]6)C=C5)C=C4)cc1)[C@@H](C(F)(F)F)O2
REMARK SMILES IDX 19 1 18 2 17 3 15 4 16 5 14 7 6 8 7 9 11 10 8 11 10 12 12 13
REMARK SMILES IDX 9 14 96 15 13 16 91 17 5 18 4 19 2 20 1 21 3 22 92 23 93 24
REMARK SMILES IDX 94 25 95 26 20 27 21 28 22 29 23 30 24 32 25 33 26 34 90 35
REMARK SMILES IDX 27 36 89 37 28 38 29 39 30 40 83 41 31 42 88 43 82 44 84 45
REMARK SMILES IDX 32 46 87 47 81 48 80 49 33 51 67 52 46 53 66 54 47 55 50 56
REMARK SMILES IDX 65 57 85 58 48 59 49 60 64 62 86 63 51 64 34 65 35 66 44 67
REMARK SMILES IDX 36 68 37 69 43 70 45 71 38 72 39 73 40 74 41 75 42 76 68 77
REMARK SMILES IDX 69 78 78 79 70 80 71 81 77 82 79 83 72 84 73 85 74 86 75 87
REMARK SMILES IDX 76 88 52 89 53 90 62 91 54 92 55 93 61 94 63 95 56 96 57 97
REMARK SMILES IDX 58 98 59 99 60 100
REMARK H PARENT 17 6 22 31 84 50 50 61
REMARK Flexibility Score: inf
ROOT
ATOM      1  C   UNL A   1      34.258  29.824  26.887  1.00  0.00     0.023 C 
ENDROOT
BRANCH   1   2
ATOM      2  C   UNL A   1      32.978  29.799  26.058  1.00  0.00     0.116 C 
BRANCH   2   3
ATOM      3  N   UNL A   1      33.223  29.691  24.631  1.00  0.00    -0.352 N 
ATOM      4  C   UNL A   1      33.122  28.711  23.701  1.00  0.00     0.251 C 
ATOM      5  O   UNL A   1      33.384  29.031  22.539  1.00  0.00    -0.270 OA
ATOM      6  H   UNL A   1      33.540  30.539  24.244  1.00  0.00     0.163 HD
BRANCH   4   7
ATOM      7  C   UNL A   1      32.748  27.297  24.000  1.00  0.00     0.067 C 
ATOM      8  C   UNL A   1      33.063  22.276  24.759  1.00  0.00     0.030 A 
ATOM      9  C   UNL A   1      32.037  23.244  24.826  1.00  0.00     0.063 A 
ATOM     10  C   UNL A   1      34.334  22.725  24.365  1.00  0.00     0.055 A 
ATOM     11  C   UNL A   1      32.260  24.589  24.516  1.00  0.00     0.129 A 
ATOM     12  C   UNL A   1      34.539  24.070  24.001  1.00  0.00     0.033 A 
ATOM     13  Cl  UNL A   1      35.769  21.766  24.374  1.00  0.00    -0.083 Cl
ATOM     14  C   UNL A   1      33.508  25.006  24.090  1.00  0.00     0.019 A 
ATOM     15  O   UNL A   1      31.201  25.426  24.681  1.00  0.00    -0.475 OA
ATOM     16  C   UNL A   1      33.740  26.411  23.798  1.00  0.00     0.025 C 
ATOM     17  C   UNL A   1      31.382  26.855  24.455  1.00  0.00     0.314 C 
BRANCH   8  18
ATOM     18  S   UNL A   1      32.498  20.664  25.320  1.00  0.00    -0.124 SA
BRANCH  18  19
ATOM     19  C   UNL A   1      32.840  19.427  24.024  1.00  0.00     0.078 C 
BRANCH  19  20
ATOM     20  C   UNL A   1      33.473  18.093  24.454  1.00  0.00    -0.007 C 
ATOM     21  C   UNL A   1      32.647  17.251  25.423  1.00  0.00     0.008 C 
ATOM     22  C   UNL A   1      33.765  17.269  23.191  1.00  0.00     0.008 C 
ENDBRANCH  19  20
ENDBRANCH  18  19
ENDBRANCH   8  18
BRANCH  17  23
ATOM     23  C   UNL A   1      30.239  27.295  23.521  1.00  0.00     0.429 C 
ATOM     24  F   UNL A   1      29.211  26.410  23.597  1.00  0.00    -0.167 F 
ATOM     25  F   UNL A   1      29.722  28.503  23.832  1.00  0.00    -0.167 F 
ATOM     26  F   UNL A   1      30.630  27.347  22.227  1.00  0.00    -0.167 F 
ENDBRANCH  17  23
ENDBRANCH   4   7
ENDBRANCH   2   3
ENDBRANCH   1   2
BRANCH   1  27
ATOM     27  C   UNL A   1      34.421  31.050  27.789  1.00  0.00     0.023 C 
BRANCH  27  28
ATOM     28  C   UNL A   1      35.693  31.092  28.633  1.00  0.00     0.116 C 
BRANCH  28  29
ATOM     29  N   UNL A   1      35.605  30.392  29.907  1.00  0.00    -0.352 N 
ATOM     30  C   UNL A   1      36.643  29.863  30.657  1.00  0.00     0.251 C 
ATOM     31  H   UNL A   1      34.700  30.279  30.280  1.00  0.00     0.163 HD
ATOM     32  O   UNL A   1      36.433  29.261  31.686  1.00  0.00    -0.269 OA
BRANCH  30  33
ATOM     33  C   UNL A   1      38.017  30.003  30.118  1.00  0.00     0.039 A 
ATOM     34  C   UNL A   1      38.226  30.030  28.740  1.00  0.00     0.014 A 
ATOM     35  C   UNL A   1      39.096  29.951  31.004  1.00  0.00     0.014 A 
ATOM     36  C   UNL A   1      39.502  29.793  28.245  1.00  0.00     0.010 A 
ATOM     37  C   UNL A   1      40.389  29.796  30.499  1.00  0.00     0.010 A 
ATOM     38  C   UNL A   1      40.591  29.636  29.119  1.00  0.00    -0.014 A 
BRANCH  38  39
ATOM     39  C   UNL A   1      41.906  29.220  28.562  1.00  0.00     0.031 A 
ATOM     40  C   UNL A   1      43.074  30.174  28.569  1.00  0.00     0.074 A 
ATOM     41  C   UNL A   1      42.077  27.948  28.152  1.00  0.00     0.049 A 
ATOM     42  N   UNL A   1      44.311  29.964  28.194  1.00  0.00    -0.248 NA
ATOM     43  C   UNL A   1      42.828  31.540  29.060  1.00  0.00     0.031 C 
ATOM     44  C   UNL A   1      41.027  26.927  28.119  1.00  0.00     0.029 A 
ATOM     45  N   UNL A   1      43.199  27.285  27.727  1.00  0.00    -0.354 N 
ATOM     46  C   UNL A   1      44.981  31.168  28.386  1.00  0.00     0.074 A 
ATOM     47  C   UNL A   1      44.009  32.116  28.885  1.00  0.00     0.031 C 
ATOM     48  C   UNL A   1      41.570  25.753  27.765  1.00  0.00     0.029 A 
ATOM     49  C   UNL A   1      42.990  25.947  27.491  1.00  0.00     0.049 A 
ATOM     50  H   UNL A   1      44.071  27.725  27.602  1.00  0.00     0.167 HD
ATOM     51  C   UNL A   1      46.289  31.453  28.182  1.00  0.00     0.037 A 
ATOM     52  C   UNL A   1      43.845  24.983  27.097  1.00  0.00     0.037 A 
ATOM     53  C   UNL A   1      47.264  30.499  27.727  1.00  0.00     0.049 A 
ATOM     54  C   UNL A   1      45.281  25.337  26.835  1.00  0.00     0.074 A 
ATOM     55  C   UNL A   1      48.621  30.685  27.524  1.00  0.00     0.029 A 
ATOM     56  N   UNL A   1      46.989  29.178  27.410  1.00  0.00    -0.354 N 
ATOM     57  N   UNL A   1      45.891  26.483  27.018  1.00  0.00    -0.248 NA
ATOM     58  C   UNL A   1      46.137  24.275  26.291  1.00  0.00     0.031 C 
ATOM     59  C   UNL A   1      49.161  29.485  27.052  1.00  0.00     0.029 A 
ATOM     60  C   UNL A   1      48.146  28.543  26.988  1.00  0.00     0.049 A 
ATOM     61  H   UNL A   1      46.104  28.753  27.474  1.00  0.00     0.167 HD
ATOM     62  C   UNL A   1      47.202  26.283  26.602  1.00  0.00     0.074 A 
ATOM     63  C   UNL A   1      47.304  24.900  26.184  1.00  0.00     0.031 C 
ATOM     64  C   UNL A   1      48.225  27.170  26.561  1.00  0.00     0.037 A 
BRANCH  51  65
ATOM     65  C   UNL A   1      46.753  32.857  28.453  1.00  0.00     0.058 A 
ATOM     66  C   UNL A   1      47.246  33.237  29.711  1.00  0.00     0.135 A 
ATOM     67  C   UNL A   1      46.762  33.816  27.427  1.00  0.00     0.135 A 
ATOM     68  F   UNL A   1      47.244  32.362  30.729  1.00  0.00    -0.206 F 
ATOM     69  C   UNL A   1      47.720  34.523  29.946  1.00  0.00     0.059 A 
ATOM     70  C   UNL A   1      47.248  35.103  27.635  1.00  0.00     0.059 A 
ATOM     71  F   UNL A   1      46.298  33.503  26.206  1.00  0.00    -0.206 F 
ATOM     72  C   UNL A   1      47.717  35.450  28.902  1.00  0.00     0.060 A 
BRANCH  72  73
ATOM     73  S   UNL A   1      48.346  37.112  29.223  1.00  0.00     0.124 S 
ATOM     74  O   UNL A   1      48.497  37.089  30.674  1.00  0.00    -0.237 OA
ATOM     75  O   UNL A   1      49.588  37.129  28.457  1.00  0.00    -0.237 OA
ATOM     76  O   UNL A   1      47.288  37.980  28.715  1.00  0.00    -0.744 OA
ENDBRANCH  72  73
ENDBRANCH  51  65
BRANCH  52  77
ATOM     77  C   UNL A   1      43.354  23.595  26.919  1.00  0.00     0.058 A 
ATOM     78  C   UNL A   1      43.046  23.097  25.645  1.00  0.00     0.135 A 
ATOM     79  C   UNL A   1      43.218  22.727  28.014  1.00  0.00     0.135 A 
ATOM     80  F   UNL A   1      43.155  23.893  24.570  1.00  0.00    -0.206 F 
ATOM     81  C   UNL A   1      42.622  21.786  25.460  1.00  0.00     0.059 A 
ATOM     82  C   UNL A   1      42.815  21.406  27.852  1.00  0.00     0.059 A 
ATOM     83  F   UNL A   1      43.513  23.155  29.250  1.00  0.00    -0.206 F 
ATOM     84  C   UNL A   1      42.514  20.947  26.571  1.00  0.00     0.060 A 
BRANCH  84  85
ATOM     85  S   UNL A   1      42.026  19.227  26.316  1.00  0.00     0.124 S 
ATOM     86  O   UNL A   1      42.268  18.655  27.634  1.00  0.00    -0.237 OA
ATOM     87  O   UNL A   1      40.626  19.358  25.923  1.00  0.00    -0.237 OA
ATOM     88  O   UNL A   1      42.924  18.778  25.256  1.00  0.00    -0.744 OA
ENDBRANCH  84  85
ENDBRANCH  52  77
BRANCH  64  89
ATOM     89  C   UNL A   1      49.538  26.689  26.018  1.00  0.00     0.058 A 
ATOM     90  C   UNL A   1      49.903  26.941  24.687  1.00  0.00     0.135 A 
ATOM     91  C   UNL A   1      50.472  26.053  26.852  1.00  0.00     0.135 A 
ATOM     92  F   UNL A   1      49.038  27.538  23.851  1.00  0.00    -0.206 F 
ATOM     93  C   UNL A   1      51.153  26.582  24.200  1.00  0.00     0.059 A 
ATOM     94  C   UNL A   1      51.736  25.701  26.389  1.00  0.00     0.059 A 
ATOM     95  F   UNL A   1      50.169  25.797  28.134  1.00  0.00    -0.206 F 
ATOM     96  C   UNL A   1      52.067  25.969  25.061  1.00  0.00     0.060 A 
BRANCH  96  97
ATOM     97  S   UNL A   1      53.712  25.574  24.431  1.00  0.00     0.124 S 
ATOM     98  O   UNL A   1      54.556  26.446  25.244  1.00  0.00    -0.237 OA
ATOM     99  O   UNL A   1      53.819  24.146  24.712  1.00  0.00    -0.237 OA
ATOM    100  O   UNL A   1      53.627  25.923  23.016  1.00  0.00    -0.744 OA
ENDBRANCH  96  97
ENDBRANCH  64  89
ENDBRANCH  38  39
ENDBRANCH  30  33
ENDBRANCH  28  29
ENDBRANCH  27  28
ENDBRANCH   1  27
TORSDOF 18
ENDMDL
MODEL 3
REMARK VINA RESULT:     -11.6      2.151      3.026
REMARK SMILES CC(C)CSc1cc2c(cc1Cl)C=C(C(=O)NCCCCNC(=O)c1ccc(-c3c4nc(c(-c5c(F)cc(S(=O)(=O)[O-])cc5F)c5ccc([nH]5)c(-c5c(F)cc(S(=O)(=O)[O-])cc5F)c5nc(c(-c6c(F)cc(S(=O)(=O)[O-])cc6F)c6ccc3[nH]6)C=C5)C=C4)cc1)[C@@H](C(F)(F)F)O2
REMARK SMILES IDX 19 1 18 2 17 3 15 4 16 5 14 7 6 8 7 9 11 10 8 11 10 12 12 13
REMARK SMILES IDX 9 14 96 15 13 16 91 17 5 18 4 19 2 20 1 21 3 22 92 23 93 24
REMARK SMILES IDX 94 25 95 26 20 27 21 28 22 29 23 30 24 32 25 33 26 34 90 35
REMARK SMILES IDX 27 36 89 37 28 38 29 39 30 40 83 41 31 42 88 43 82 44 84 45
REMARK SMILES IDX 32 46 87 47 81 48 80 49 33 51 67 52 46 53 66 54 47 55 50 56
REMARK SMILES IDX 65 57 85 58 48 59 49 60 64 62 86 63 51 64 34 65 35 66 44 67
REMARK SMILES IDX 36 68 37 69 43 70 45 71 38 72 39 73 40 74 41 75 42 76 68 77
REMARK SMILES IDX 69 78 78 79 70 80 71 81 77 82 79 83 72 84 73 85 74 86 75 87
REMARK SMILES IDX 76 88 52 89 53 90 62 91 54 92 55 93 61 94 63 95 56 96 57 97
REMARK SMILES IDX 58 98 59 99 60 100
REMARK H PARENT 17 6 22 31 84 50 50 61
REMARK Flexibility Score: inf
ROOT
ATOM      1  C   UNL A   1      34.449  30.011  27.181  1.00  0.00     0.023 C 
ENDROOT
BRANCH   1   2
ATOM      2  C   UNL A   1      33.112  29.733  26.503  1.00  0.00     0.116 C 
BRANCH   2   3
ATOM      3  N   UNL A   1      33.206  29.679  25.056  1.00  0.00    -0.352 N 
ATOM      4  C   UNL A   1      33.092  28.714  24.111  1.00  0.00     0.251 C 
ATOM      5  O   UNL A   1      33.194  29.082  22.938  1.00  0.00    -0.270 OA
ATOM      6  H   UNL A   1      33.400  30.561  24.663  1.00  0.00     0.163 HD
BRANCH   4   7
ATOM      7  C   UNL A   1      32.884  27.265  24.404  1.00  0.00     0.067 C 
ATOM      8  C   UNL A   1      33.781  22.319  25.191  1.00  0.00     0.030 A 
ATOM      9  C   UNL A   1      32.644  23.156  25.224  1.00  0.00     0.063 A 
ATOM     10  C   UNL A   1      35.000  22.919  24.835  1.00  0.00     0.055 A 
ATOM     11  C   UNL A   1      32.711  24.518  24.915  1.00  0.00     0.129 A 
ATOM     12  C   UNL A   1      35.051  24.279  24.472  1.00  0.00     0.033 A 
ATOM     13  Cl  UNL A   1      36.540  22.142  24.892  1.00  0.00    -0.083 Cl
ATOM     14  C   UNL A   1      33.913  25.084  24.526  1.00  0.00     0.019 A 
ATOM     15  O   UNL A   1      31.554  25.220  25.045  1.00  0.00    -0.475 OA
ATOM     16  C   UNL A   1      33.982  26.506  24.236  1.00  0.00     0.025 C 
ATOM     17  C   UNL A   1      31.568  26.661  24.818  1.00  0.00     0.314 C 
BRANCH   8  18
ATOM     18  S   UNL A   1      33.399  20.651  25.741  1.00  0.00    -0.124 SA
BRANCH  18  19
ATOM     19  C   UNL A   1      34.145  19.455  24.584  1.00  0.00     0.078 C 
BRANCH  19  20
ATOM     20  C   UNL A   1      33.616  18.011  24.604  1.00  0.00    -0.007 C 
ATOM     21  C   UNL A   1      32.558  17.709  25.660  1.00  0.00     0.008 C 
ATOM     22  C   UNL A   1      33.050  17.686  23.214  1.00  0.00     0.008 C 
ENDBRANCH  19  20
ENDBRANCH  18  19
ENDBRANCH   8  18
BRANCH  17  23
ATOM     23  C   UNL A   1      30.409  26.958  23.848  1.00  0.00     0.429 C 
ATOM     24  F   UNL A   1      29.355  26.146  24.120  1.00  0.00    -0.167 F 
ATOM     25  F   UNL A   1      29.944  28.223  23.933  1.00  0.00    -0.167 F 
ATOM     26  F   UNL A   1      30.758  26.746  22.558  1.00  0.00    -0.167 F 
ENDBRANCH  17  23
ENDBRANCH   4   7
ENDBRANCH   2   3
ENDBRANCH   1   2
BRANCH   1  27
ATOM     27  C   UNL A   1      34.661  31.460  27.625  1.00  0.00     0.023 C 
BRANCH  27  28
ATOM     28  C   UNL A   1      35.688  31.675  28.734  1.00  0.00     0.116 C 
BRANCH  28  29
ATOM     29  N   UNL A   1      35.544  30.788  29.882  1.00  0.00    -0.352 N 
ATOM     30  C   UNL A   1      36.535  30.060  30.520  1.00  0.00     0.251 C 
ATOM     31  H   UNL A   1      34.633  30.694  30.246  1.00  0.00     0.163 HD
ATOM     32  O   UNL A   1      36.276  29.321  31.444  1.00  0.00    -0.269 OA
BRANCH  30  33
ATOM     33  C   UNL A   1      37.914  30.169  29.988  1.00  0.00     0.039 A 
ATOM     34  C   UNL A   1      38.192  29.764  28.684  1.00  0.00     0.014 A 
ATOM     35  C   UNL A   1      38.944  30.534  30.859  1.00  0.00     0.014 A 
ATOM     36  C   UNL A   1      39.510  29.523  28.317  1.00  0.00     0.010 A 
ATOM     37  C   UNL A   1      40.272  30.368  30.455  1.00  0.00     0.010 A 
ATOM     38  C   UNL A   1      40.561  29.786  29.211  1.00  0.00    -0.014 A 
BRANCH  38  39
ATOM     39  C   UNL A   1      41.939  29.361  28.847  1.00  0.00     0.031 A 
ATOM     40  C   UNL A   1      42.207  27.947  28.392  1.00  0.00     0.074 A 
ATOM     41  C   UNL A   1      42.928  30.275  28.822  1.00  0.00     0.049 A 
ATOM     42  N   UNL A   1      43.327  27.418  27.968  1.00  0.00    -0.248 NA
ATOM     43  C   UNL A   1      41.076  27.005  28.412  1.00  0.00     0.031 C 
ATOM     44  C   UNL A   1      42.785  31.678  29.219  1.00  0.00     0.029 A 
ATOM     45  N   UNL A   1      44.231  30.178  28.408  1.00  0.00    -0.354 N 
ATOM     46  C   UNL A   1      43.040  26.085  27.689  1.00  0.00     0.074 A 
ATOM     47  C   UNL A   1      41.648  25.876  28.019  1.00  0.00     0.031 C 
ATOM     48  C   UNL A   1      43.933  32.324  28.963  1.00  0.00     0.029 A 
ATOM     49  C   UNL A   1      44.908  31.374  28.438  1.00  0.00     0.049 A 
ATOM     50  H   UNL A   1      44.643  29.332  28.117  1.00  0.00     0.167 HD
ATOM     51  C   UNL A   1      43.857  25.129  27.189  1.00  0.00     0.037 A 
ATOM     52  C   UNL A   1      46.173  31.673  28.086  1.00  0.00     0.037 A 
ATOM     53  C   UNL A   1      45.230  25.347  26.821  1.00  0.00     0.049 A 
ATOM     54  C   UNL A   1      47.071  30.584  27.576  1.00  0.00     0.074 A 
ATOM     55  C   UNL A   1      46.128  24.447  26.273  1.00  0.00     0.029 A 
ATOM     56  N   UNL A   1      45.903  26.552  26.957  1.00  0.00    -0.354 N 
ATOM     57  N   UNL A   1      46.781  29.329  27.326  1.00  0.00    -0.248 NA
ATOM     58  C   UNL A   1      48.473  30.942  27.323  1.00  0.00     0.031 C 
ATOM     59  C   UNL A   1      47.355  25.100  26.108  1.00  0.00     0.029 A 
ATOM     60  C   UNL A   1      47.212  26.413  26.527  1.00  0.00     0.049 A 
ATOM     61  H   UNL A   1      45.509  27.383  27.308  1.00  0.00     0.167 HD
ATOM     62  C   UNL A   1      47.967  28.746  26.896  1.00  0.00     0.074 A 
ATOM     63  C   UNL A   1      48.971  29.789  26.893  1.00  0.00     0.031 C 
ATOM     64  C   UNL A   1      48.202  27.458  26.546  1.00  0.00     0.037 A 
BRANCH  51  65
ATOM     65  C   UNL A   1      43.292  23.748  27.003  1.00  0.00     0.058 A 
ATOM     66  C   UNL A   1      42.962  23.256  25.731  1.00  0.00     0.135 A 
ATOM     67  C   UNL A   1      43.136  22.886  28.101  1.00  0.00     0.135 A 
ATOM     68  F   UNL A   1      43.077  24.045  24.651  1.00  0.00    -0.206 F 
ATOM     69  C   UNL A   1      42.484  21.961  25.555  1.00  0.00     0.059 A 
ATOM     70  C   UNL A   1      42.678  21.582  27.946  1.00  0.00     0.059 A 
ATOM     71  F   UNL A   1      43.436  23.310  29.340  1.00  0.00    -0.206 F 
ATOM     72  C   UNL A   1      42.346  21.131  26.669  1.00  0.00     0.060 A 
BRANCH  72  73
ATOM     73  S   UNL A   1      41.733  19.451  26.420  1.00  0.00     0.124 S 
ATOM     74  O   UNL A   1      42.413  19.075  25.185  1.00  0.00    -0.237 OA
ATOM     75  O   UNL A   1      42.192  18.771  27.627  1.00  0.00    -0.237 OA
ATOM     76  O   UNL A   1      40.288  19.627  26.314  1.00  0.00    -0.744 OA
ENDBRANCH  72  73
ENDBRANCH  51  65
BRANCH  52  77
ATOM     77  C   UNL A   1      46.660  33.069  28.215  1.00  0.00     0.058 A 
ATOM     78  C   UNL A   1      46.531  33.978  27.156  1.00  0.00     0.135 A 
ATOM     79  C   UNL A   1      47.231  33.531  29.411  1.00  0.00     0.135 A 
ATOM     80  F   UNL A   1      45.997  33.578  25.991  1.00  0.00    -0.206 F 
ATOM     81  C   UNL A   1      46.948  35.298  27.276  1.00  0.00     0.059 A 
ATOM     82  C   UNL A   1      47.638  34.851  29.564  1.00  0.00     0.059 A 
ATOM     83  F   UNL A   1      47.365  32.700  30.456  1.00  0.00    -0.206 F 
ATOM     84  C   UNL A   1      47.497  35.727  28.487  1.00  0.00     0.060 A 
BRANCH  84  85
ATOM     85  S   UNL A   1      47.976  37.459  28.659  1.00  0.00     0.124 S 
ATOM     86  O   UNL A   1      47.190  38.087  27.604  1.00  0.00    -0.237 OA
ATOM     87  O   UNL A   1      47.565  37.759  30.027  1.00  0.00    -0.237 OA
ATOM     88  O   UNL A   1      49.419  37.430  28.442  1.00  0.00    -0.744 OA
ENDBRANCH  84  85
ENDBRANCH  52  77
BRANCH  64  89
ATOM     89  C   UNL A   1      49.604  27.091  26.159  1.00  0.00     0.058 A 
ATOM     90  C   UNL A   1      50.483  26.523  27.093  1.00  0.00     0.135 A 
ATOM     91  C   UNL A   1      50.042  27.223  24.832  1.00  0.00     0.135 A 
ATOM     92  F   UNL A   1      50.111  26.386  28.375  1.00  0.00    -0.206 F 
ATOM     93  C   UNL A   1      51.752  26.094  26.723  1.00  0.00     0.059 A 
ATOM     94  C   UNL A   1      51.302  26.784  24.436  1.00  0.00     0.059 A 
ATOM     95  F   UNL A   1      49.233  27.756  23.903  1.00  0.00    -0.206 F 
ATOM     96  C   UNL A   1      52.150  26.220  25.390  1.00  0.00     0.060 A 
BRANCH  96  97
ATOM     97  S   UNL A   1      53.774  25.593  24.912  1.00  0.00     0.124 S 
ATOM     98  O   UNL A   1      54.651  26.317  25.826  1.00  0.00    -0.237 OA
ATOM     99  O   UNL A   1      53.641  24.160  25.162  1.00  0.00    -0.237 OA
ATOM    100  O   UNL A   1      53.883  25.969  23.506  1.00  0.00    -0.744 OA
ENDBRANCH  96  97
ENDBRANCH  64  89
ENDBRANCH  38  39
ENDBRANCH  30  33
ENDBRANCH  28  29
ENDBRANCH  27  28
ENDBRANCH   1  27
TORSDOF 18
ENDMDL
