MODEL 1
REMARK VINA RESULT:     -12.7      0.000      0.000
REMARK SMILES O=C(NCCCCNC(=O)c1cn(C2CC2)c2cc(N3CC[NH2+]CC3)ccc2c1=O)c1ccc(-c2c3nc(c(-c4c(F)cc(S(=O)(=O)[O-])cc4F)c4ccc([nH]4)c(-c4c(F)cc(S(=O)(=O)[O-])cc4F)c4nc(c(-c5c(F)cc(S(=O)(=O)[O-])cc5F)c5ccc2[nH]5)C=C4)C=C3)cc1
REMARK SMILES IDX 4 1 3 2 1 3 2 4 31 6 32 7 96 8 33 9 95 10 34 11 35 12 36 13
REMARK SMILES IDX 89 14 37 15 94 16 88 17 90 18 38 19 93 20 87 21 86 22 39 24
REMARK SMILES IDX 73 25 52 26 72 27 53 28 56 29 71 30 91 31 54 32 55 33 70 35
REMARK SMILES IDX 92 36 57 37 40 38 41 39 50 40 42 41 43 42 49 43 51 44 44 45
REMARK SMILES IDX 45 46 46 47 47 48 48 49 74 50 75 51 84 52 76 53 77 54 83 55
REMARK SMILES IDX 85 56 78 57 79 58 80 59 81 60 82 61 58 62 59 63 68 64 60 65
REMARK SMILES IDX 61 66 67 67 69 68 62 69 63 70 64 71 65 72 66 73 5 74 6 75
REMARK SMILES IDX 7 76 8 77 9 78 10 80 11 81 12 82 29 83 13 84 28 85 30 86
REMARK SMILES IDX 17 87 27 88 18 89 26 90 19 91 14 92 15 93 16 94 20 95 21 96
REMARK SMILES IDX 25 97 22 98 24 99 23 100
REMARK H PARENT 3 5 90 23 56 34 8 79 23 101 23 102
REMARK Flexibility Score: inf
ROOT
ATOM      1  C   UNL A   1      38.172  24.334  26.464  1.00  0.00     0.116 C 
ENDROOT
BRANCH   1   2
ATOM      2  N   UNL A   1      39.564  24.192  26.071  1.00  0.00    -0.352 N 
ATOM      3  O   UNL A   1      41.757  24.683  25.993  1.00  0.00    -0.269 OA
ATOM      4  C   UNL A   1      40.666  24.884  26.516  1.00  0.00     0.251 C 
ATOM      5  H   UNL A   1      39.743  23.505  25.390  1.00  0.00     0.163 HD
BRANCH   4   6
ATOM      6  C   UNL A   1      40.532  25.893  27.595  1.00  0.00     0.039 A 
ATOM      7  C   UNL A   1      39.595  25.672  28.606  1.00  0.00     0.014 A 
ATOM      8  C   UNL A   1      41.317  27.050  27.614  1.00  0.00     0.014 A 
ATOM      9  C   UNL A   1      39.480  26.583  29.661  1.00  0.00     0.010 A 
ATOM     10  C   UNL A   1      41.260  27.913  28.706  1.00  0.00     0.010 A 
ATOM     11  C   UNL A   1      40.330  27.699  29.734  1.00  0.00    -0.014 A 
BRANCH  11  12
ATOM     12  C   UNL A   1      40.222  28.674  30.850  1.00  0.00     0.031 A 
ATOM     13  C   UNL A   1      41.143  28.556  32.038  1.00  0.00     0.074 A 
ATOM     14  C   UNL A   1      39.288  29.644  30.815  1.00  0.00     0.049 A 
ATOM     15  N   UNL A   1      41.179  29.278  33.128  1.00  0.00    -0.248 NA
ATOM     16  C   UNL A   1      42.133  27.466  32.011  1.00  0.00     0.031 C 
ATOM     17  C   UNL A   1      38.306  29.837  29.744  1.00  0.00     0.029 A 
ATOM     18  N   UNL A   1      39.008  30.655  31.703  1.00  0.00    -0.354 N 
ATOM     19  C   UNL A   1      42.180  28.722  33.917  1.00  0.00     0.074 A 
ATOM     20  C   UNL A   1      42.689  27.570  33.210  1.00  0.00     0.031 C 
ATOM     21  C   UNL A   1      37.562  30.922  30.019  1.00  0.00     0.029 A 
ATOM     22  C   UNL A   1      37.990  31.484  31.297  1.00  0.00     0.049 A 
ATOM     23  H   UNL A   1      39.493  30.773  32.551  1.00  0.00     0.167 HD
ATOM     24  C   UNL A   1      42.656  29.153  35.108  1.00  0.00     0.037 A 
ATOM     25  C   UNL A   1      37.465  32.580  31.882  1.00  0.00     0.037 A 
ATOM     26  C   UNL A   1      42.191  30.334  35.782  1.00  0.00     0.049 A 
ATOM     27  C   UNL A   1      38.029  33.053  33.196  1.00  0.00     0.074 A 
ATOM     28  C   UNL A   1      42.651  30.884  36.964  1.00  0.00     0.029 A 
ATOM     29  N   UNL A   1      41.174  31.157  35.324  1.00  0.00    -0.354 N 
ATOM     30  N   UNL A   1      39.007  32.539  33.904  1.00  0.00    -0.248 NA
ATOM     31  C   UNL A   1      37.423  34.254  33.792  1.00  0.00     0.031 C 
ATOM     32  C   UNL A   1      41.898  32.029  37.235  1.00  0.00     0.029 A 
ATOM     33  C   UNL A   1      40.988  32.208  36.204  1.00  0.00     0.049 A 
ATOM     34  H   UNL A   1      40.659  31.014  34.497  1.00  0.00     0.167 HD
ATOM     35  C   UNL A   1      39.149  33.366  35.012  1.00  0.00     0.074 A 
ATOM     36  C   UNL A   1      38.162  34.418  34.882  1.00  0.00     0.031 C 
ATOM     37  C   UNL A   1      40.020  33.262  36.044  1.00  0.00     0.037 A 
BRANCH  24  38
ATOM     38  C   UNL A   1      43.767  28.369  35.746  1.00  0.00     0.058 A 
ATOM     39  C   UNL A   1      43.497  27.318  36.636  1.00  0.00     0.135 A 
ATOM     40  C   UNL A   1      45.108  28.621  35.413  1.00  0.00     0.135 A 
ATOM     41  F   UNL A   1      42.233  27.048  37.000  1.00  0.00    -0.206 F 
ATOM     42  C   UNL A   1      44.517  26.551  37.185  1.00  0.00     0.059 A 
ATOM     43  C   UNL A   1      46.144  27.851  35.932  1.00  0.00     0.059 A 
ATOM     44  F   UNL A   1      45.419  29.617  34.568  1.00  0.00    -0.206 F 
ATOM     45  C   UNL A   1      45.839  26.822  36.823  1.00  0.00     0.060 A 
BRANCH  45  46
ATOM     46  S   UNL A   1      47.147  25.794  37.521  1.00  0.00     0.124 S 
ATOM     47  O   UNL A   1      46.947  25.999  38.952  1.00  0.00    -0.237 OA
ATOM     48  O   UNL A   1      46.803  24.467  37.017  1.00  0.00    -0.237 OA
ATOM     49  O   UNL A   1      48.367  26.373  36.969  1.00  0.00    -0.744 OA
ENDBRANCH  45  46
ENDBRANCH  24  38
BRANCH  25  50
ATOM     50  C   UNL A   1      36.373  33.332  31.212  1.00  0.00     0.058 A 
ATOM     51  C   UNL A   1      36.628  34.084  30.055  1.00  0.00     0.135 A 
ATOM     52  C   UNL A   1      35.059  33.310  31.701  1.00  0.00     0.135 A 
ATOM     53  F   UNL A   1      37.871  34.141  29.553  1.00  0.00    -0.206 F 
ATOM     54  C   UNL A   1      35.622  34.799  29.414  1.00  0.00     0.059 A 
ATOM     55  C   UNL A   1      34.030  34.001  31.066  1.00  0.00     0.059 A 
ATOM     56  F   UNL A   1      34.760  32.594  32.796  1.00  0.00    -0.206 F 
ATOM     57  C   UNL A   1      34.325  34.751  29.927  1.00  0.00     0.060 A 
BRANCH  57  58
ATOM     58  S   UNL A   1      33.018  35.650  29.062  1.00  0.00     0.124 S 
ATOM     59  O   UNL A   1      32.211  36.137  30.175  1.00  0.00    -0.237 OA
ATOM     60  O   UNL A   1      33.775  36.663  28.330  1.00  0.00    -0.237 OA
ATOM     61  O   UNL A   1      32.397  34.623  28.233  1.00  0.00    -0.744 OA
ENDBRANCH  57  58
ENDBRANCH  25  50
BRANCH  37  62
ATOM     62  C   UNL A   1      39.982  34.315  37.112  1.00  0.00     0.058 A 
ATOM     63  C   UNL A   1      40.668  35.529  36.960  1.00  0.00     0.135 A 
ATOM     64  C   UNL A   1      39.141  34.164  38.226  1.00  0.00     0.135 A 
ATOM     65  F   UNL A   1      41.488  35.714  35.914  1.00  0.00    -0.206 F 
ATOM     66  C   UNL A   1      40.509  36.566  37.871  1.00  0.00     0.059 A 
ATOM     67  C   UNL A   1      38.953  35.196  39.139  1.00  0.00     0.059 A 
ATOM     68  F   UNL A   1      38.458  33.023  38.407  1.00  0.00    -0.206 F 
ATOM     69  C   UNL A   1      39.638  36.396  38.951  1.00  0.00     0.060 A 
BRANCH  69  70
ATOM     70  S   UNL A   1      39.363  37.789  40.065  1.00  0.00     0.124 S 
ATOM     71  O   UNL A   1      39.175  37.112  41.343  1.00  0.00    -0.237 OA
ATOM     72  O   UNL A   1      40.601  38.549  39.926  1.00  0.00    -0.237 OA
ATOM     73  O   UNL A   1      38.174  38.435  39.516  1.00  0.00    -0.744 OA
ENDBRANCH  69  70
ENDBRANCH  37  62
ENDBRANCH  11  12
ENDBRANCH   4   6
ENDBRANCH   1   2
BRANCH   1  74
ATOM     74  C   UNL A   1      37.249  23.305  25.824  1.00  0.00     0.023 C 
BRANCH  74  75
ATOM     75  C   UNL A   1      36.583  23.731  24.517  1.00  0.00     0.023 C 
BRANCH  75  76
ATOM     76  C   UNL A   1      35.098  23.409  24.406  1.00  0.00     0.116 C 
BRANCH  76  77
ATOM     77  N   UNL A   1      34.452  23.208  25.697  1.00  0.00    -0.352 N 
ATOM     78  C   UNL A   1      33.478  23.958  26.306  1.00  0.00     0.256 C 
ATOM     79  H   UNL A   1      34.759  22.423  26.205  1.00  0.00     0.163 HD
ATOM     80  O   UNL A   1      33.016  23.618  27.392  1.00  0.00    -0.269 OA
BRANCH  78  81
ATOM     81  C   UNL A   1      32.983  25.146  25.593  1.00  0.00     0.104 A 
ATOM     82  C   UNL A   1      33.641  26.303  25.746  1.00  0.00     0.104 A 
ATOM     83  C   UNL A   1      31.742  25.141  24.798  1.00  0.00     0.202 A 
ATOM     84  N   UNL A   1      33.213  27.544  25.319  1.00  0.00    -0.343 N 
ATOM     85  C   UNL A   1      31.294  26.443  24.247  1.00  0.00     0.047 A 
ATOM     86  O   UNL A   1      31.076  24.126  24.625  1.00  0.00    -0.288 OA
ATOM     87  C   UNL A   1      32.031  27.614  24.513  1.00  0.00     0.054 A 
ATOM     88  C   UNL A   1      30.103  26.487  23.516  1.00  0.00     0.016 A 
ATOM     89  C   UNL A   1      31.536  28.821  23.991  1.00  0.00     0.053 A 
ATOM     90  C   UNL A   1      29.612  27.710  23.065  1.00  0.00     0.027 A 
ATOM     91  C   UNL A   1      30.312  28.896  23.303  1.00  0.00     0.039 A 
BRANCH  84  92
ATOM     92  C   UNL A   1      33.822  28.771  25.898  1.00  0.00     0.087 C 
ATOM     93  C   UNL A   1      33.414  29.438  27.191  1.00  0.00     0.027 C 
ATOM     94  C   UNL A   1      34.718  28.701  27.106  1.00  0.00     0.027 C 
ENDBRANCH  84  92
BRANCH  91  95
ATOM     95  N   UNL A   1      29.818  30.119  22.903  1.00  0.00    -0.360 N 
ATOM     96  C   UNL A   1      29.559  30.376  21.484  1.00  0.00     0.178 C 
ATOM     97  C   UNL A   1      29.233  31.058  23.866  1.00  0.00     0.178 C 
ATOM     98  C   UNL A   1      28.051  30.646  21.262  1.00  0.00     0.282 C 
ATOM     99  C   UNL A   1      27.745  31.316  23.550  1.00  0.00     0.282 C 
ATOM    100  N   UNL A   1      27.499  31.702  22.142  1.00  0.00    -0.343 N 
ATOM    101  H   UNL A   1      26.495  31.795  21.980  1.00  0.00     0.346 HD
ATOM    102  H   UNL A   1      27.947  32.595  21.940  1.00  0.00     0.346 HD
ENDBRANCH  91  95
ENDBRANCH  78  81
ENDBRANCH  76  77
ENDBRANCH  75  76
ENDBRANCH  74  75
ENDBRANCH   1  74
TORSDOF 16
ENDMDL
MODEL 2
REMARK VINA RESULT:     -12.3      5.061     10.829
REMARK SMILES O=C(NCCCCNC(=O)c1cn(C2CC2)c2cc(N3CC[NH2+]CC3)ccc2c1=O)c1ccc(-c2c3nc(c(-c4c(F)cc(S(=O)(=O)[O-])cc4F)c4ccc([nH]4)c(-c4c(F)cc(S(=O)(=O)[O-])cc4F)c4nc(c(-c5c(F)cc(S(=O)(=O)[O-])cc5F)c5ccc2[nH]5)C=C4)C=C3)cc1
REMARK SMILES IDX 4 1 3 2 1 3 2 4 31 6 32 7 96 8 33 9 95 10 34 11 35 12 36 13
REMARK SMILES IDX 89 14 37 15 94 16 88 17 90 18 38 19 93 20 87 21 86 22 39 24
REMARK SMILES IDX 73 25 52 26 72 27 53 28 56 29 71 30 91 31 54 32 55 33 70 35
REMARK SMILES IDX 92 36 57 37 40 38 41 39 50 40 42 41 43 42 49 43 51 44 44 45
REMARK SMILES IDX 45 46 46 47 47 48 48 49 74 50 75 51 84 52 76 53 77 54 83 55
REMARK SMILES IDX 85 56 78 57 79 58 80 59 81 60 82 61 58 62 59 63 68 64 60 65
REMARK SMILES IDX 61 66 67 67 69 68 62 69 63 70 64 71 65 72 66 73 5 74 6 75
REMARK SMILES IDX 7 76 8 77 9 78 10 80 11 81 12 82 29 83 13 84 28 85 30 86
REMARK SMILES IDX 17 87 27 88 18 89 26 90 19 91 14 92 15 93 16 94 20 95 21 96
REMARK SMILES IDX 25 97 22 98 24 99 23 100
REMARK H PARENT 3 5 90 23 56 34 8 79 23 101 23 102
REMARK Flexibility Score: inf
ROOT
ATOM      1  C   UNL A   1      33.833  28.464  27.211  1.00  0.00     0.116 C 
ENDROOT
BRANCH   1   2
ATOM      2  N   UNL A   1      33.650  29.808  27.734  1.00  0.00    -0.352 N 
ATOM      3  O   UNL A   1      34.186  31.700  28.826  1.00  0.00    -0.269 OA
ATOM      4  C   UNL A   1      34.557  30.622  28.372  1.00  0.00     0.251 C 
ATOM      5  H   UNL A   1      32.750  30.189  27.615  1.00  0.00     0.163 HD
BRANCH   4   6
ATOM      6  C   UNL A   1      35.964  30.186  28.543  1.00  0.00     0.039 A 
ATOM      7  C   UNL A   1      36.844  30.324  27.467  1.00  0.00     0.014 A 
ATOM      8  C   UNL A   1      36.418  29.643  29.748  1.00  0.00     0.014 A 
ATOM      9  C   UNL A   1      38.187  29.966  27.615  1.00  0.00     0.010 A 
ATOM     10  C   UNL A   1      37.772  29.363  29.921  1.00  0.00     0.010 A 
ATOM     11  C   UNL A   1      38.669  29.506  28.852  1.00  0.00    -0.014 A 
BRANCH  11  12
ATOM     12  C   UNL A   1      40.095  29.125  29.026  1.00  0.00     0.031 A 
ATOM     13  C   UNL A   1      41.073  30.121  29.594  1.00  0.00     0.074 A 
ATOM     14  C   UNL A   1      40.520  27.901  28.652  1.00  0.00     0.049 A 
ATOM     15  N   UNL A   1      42.361  29.997  29.783  1.00  0.00    -0.248 NA
ATOM     16  C   UNL A   1      40.539  31.441  29.973  1.00  0.00     0.031 C 
ATOM     17  C   UNL A   1      39.683  26.862  28.046  1.00  0.00     0.029 A 
ATOM     18  N   UNL A   1      41.762  27.320  28.726  1.00  0.00    -0.354 N 
ATOM     19  C   UNL A   1      42.790  31.221  30.285  1.00  0.00     0.074 A 
ATOM     20  C   UNL A   1      41.638  32.094  30.320  1.00  0.00     0.031 C 
ATOM     21  C   UNL A   1      40.426  25.761  27.842  1.00  0.00     0.029 A 
ATOM     22  C   UNL A   1      41.797  26.023  28.273  1.00  0.00     0.049 A 
ATOM     23  H   UNL A   1      42.555  27.790  29.073  1.00  0.00     0.167 HD
ATOM     24  C   UNL A   1      44.023  31.575  30.713  1.00  0.00     0.037 A 
ATOM     25  C   UNL A   1      42.814  25.140  28.218  1.00  0.00     0.037 A 
ATOM     26  C   UNL A   1      45.153  30.687  30.736  1.00  0.00     0.049 A 
ATOM     27  C   UNL A   1      44.173  25.550  28.723  1.00  0.00     0.074 A 
ATOM     28  C   UNL A   1      46.431  30.937  31.205  1.00  0.00     0.029 A 
ATOM     29  N   UNL A   1      45.138  29.375  30.288  1.00  0.00    -0.354 N 
ATOM     30  N   UNL A   1      44.546  26.698  29.236  1.00  0.00    -0.248 NA
ATOM     31  C   UNL A   1      45.248  24.550  28.643  1.00  0.00     0.031 C 
ATOM     32  C   UNL A   1      47.196  29.782  31.021  1.00  0.00     0.029 A 
ATOM     33  C   UNL A   1      46.385  28.805  30.465  1.00  0.00     0.049 A 
ATOM     34  H   UNL A   1      44.356  28.919  29.901  1.00  0.00     0.167 HD
ATOM     35  C   UNL A   1      45.889  26.549  29.564  1.00  0.00     0.074 A 
ATOM     36  C   UNL A   1      46.265  25.200  29.196  1.00  0.00     0.031 C 
ATOM     37  C   UNL A   1      46.733  27.450  30.119  1.00  0.00     0.037 A 
BRANCH  24  38
ATOM     38  C   UNL A   1      44.214  32.971  31.232  1.00  0.00     0.058 A 
ATOM     39  C   UNL A   1      44.086  33.262  32.599  1.00  0.00     0.135 A 
ATOM     40  C   UNL A   1      44.597  34.012  30.371  1.00  0.00     0.135 A 
ATOM     41  F   UNL A   1      43.705  32.307  33.461  1.00  0.00    -0.206 F 
ATOM     42  C   UNL A   1      44.318  34.540  33.093  1.00  0.00     0.059 A 
ATOM     43  C   UNL A   1      44.857  35.294  30.847  1.00  0.00     0.059 A 
ATOM     44  F   UNL A   1      44.730  33.786  29.054  1.00  0.00    -0.206 F 
ATOM     45  C   UNL A   1      44.708  35.549  32.210  1.00  0.00     0.060 A 
BRANCH  45  46
ATOM     46  S   UNL A   1      45.037  37.193  32.877  1.00  0.00     0.124 S 
ATOM     47  O   UNL A   1      46.496  37.226  32.864  1.00  0.00    -0.237 OA
ATOM     48  O   UNL A   1      44.376  38.061  31.906  1.00  0.00    -0.237 OA
ATOM     49  O   UNL A   1      44.422  37.155  34.199  1.00  0.00    -0.744 OA
ENDBRANCH  45  46
ENDBRANCH  24  38
BRANCH  25  50
ATOM     50  C   UNL A   1      42.581  23.764  27.707  1.00  0.00     0.058 A 
ATOM     51  C   UNL A   1      42.504  23.517  26.328  1.00  0.00     0.135 A 
ATOM     52  C   UNL A   1      42.441  22.672  28.575  1.00  0.00     0.135 A 
ATOM     53  F   UNL A   1      42.626  24.531  25.458  1.00  0.00    -0.206 F 
ATOM     54  C   UNL A   1      42.282  22.239  25.828  1.00  0.00     0.059 A 
ATOM     55  C   UNL A   1      42.238  21.380  28.099  1.00  0.00     0.059 A 
ATOM     56  F   UNL A   1      42.522  22.854  29.903  1.00  0.00    -0.206 F 
ATOM     57  C   UNL A   1      42.151  21.175  26.722  1.00  0.00     0.060 A 
BRANCH  57  58
ATOM     58  S   UNL A   1      41.904  19.513  26.059  1.00  0.00     0.124 S 
ATOM     59  O   UNL A   1      40.473  19.517  25.782  1.00  0.00    -0.237 OA
ATOM     60  O   UNL A   1      42.781  19.514  24.892  1.00  0.00    -0.237 OA
ATOM     61  O   UNL A   1      42.333  18.649  27.154  1.00  0.00    -0.744 OA
ENDBRANCH  57  58
ENDBRANCH  25  50
BRANCH  37  62
ATOM     62  C   UNL A   1      48.144  27.022  30.397  1.00  0.00     0.058 A 
ATOM     63  C   UNL A   1      49.194  27.376  29.539  1.00  0.00     0.135 A 
ATOM     64  C   UNL A   1      48.462  26.375  31.603  1.00  0.00     0.135 A 
ATOM     65  F   UNL A   1      48.936  27.990  28.374  1.00  0.00    -0.206 F 
ATOM     66  C   UNL A   1      50.518  27.119  29.874  1.00  0.00     0.059 A 
ATOM     67  C   UNL A   1      49.782  26.124  31.966  1.00  0.00     0.059 A 
ATOM     68  F   UNL A   1      47.490  26.025  32.459  1.00  0.00    -0.206 F 
ATOM     69  C   UNL A   1      50.804  26.504  31.096  1.00  0.00     0.060 A 
BRANCH  69  70
ATOM     70  S   UNL A   1      52.532  26.271  31.562  1.00  0.00     0.124 S 
ATOM     71  O   UNL A   1      52.448  25.106  32.435  1.00  0.00    -0.237 OA
ATOM     72  O   UNL A   1      53.176  26.050  30.271  1.00  0.00    -0.237 OA
ATOM     73  O   UNL A   1      52.879  27.527  32.222  1.00  0.00    -0.744 OA
ENDBRANCH  69  70
ENDBRANCH  37  62
ENDBRANCH  11  12
ENDBRANCH   4   6
ENDBRANCH   1   2
BRANCH   1  74
ATOM     74  C   UNL A   1      33.293  28.279  25.799  1.00  0.00     0.023 C 
BRANCH  74  75
ATOM     75  C   UNL A   1      31.880  27.709  25.698  1.00  0.00     0.023 C 
BRANCH  75  76
ATOM     76  C   UNL A   1      31.610  26.848  24.469  1.00  0.00     0.116 C 
BRANCH  76  77
ATOM     77  N   UNL A   1      32.585  27.040  23.403  1.00  0.00    -0.352 N 
ATOM     78  C   UNL A   1      33.492  26.151  22.886  1.00  0.00     0.256 C 
ATOM     79  H   UNL A   1      32.595  27.937  22.997  1.00  0.00     0.163 HD
ATOM     80  O   UNL A   1      34.221  26.474  21.952  1.00  0.00    -0.269 OA
BRANCH  78  81
ATOM     81  C   UNL A   1      33.524  24.796  23.457  1.00  0.00     0.104 A 
ATOM     82  C   UNL A   1      34.433  24.522  24.402  1.00  0.00     0.104 A 
ATOM     83  C   UNL A   1      32.665  23.702  22.967  1.00  0.00     0.202 A 
ATOM     84  N   UNL A   1      34.735  23.270  24.901  1.00  0.00    -0.343 N 
ATOM     85  C   UNL A   1      32.900  22.356  23.545  1.00  0.00     0.047 A 
ATOM     86  O   UNL A   1      31.820  23.869  22.095  1.00  0.00    -0.288 OA
ATOM     87  C   UNL A   1      33.922  22.163  24.495  1.00  0.00     0.054 A 
ATOM     88  C   UNL A   1      32.130  21.285  23.082  1.00  0.00     0.016 A 
ATOM     89  C   UNL A   1      34.116  20.858  24.979  1.00  0.00     0.053 A 
ATOM     90  C   UNL A   1      32.391  19.996  23.539  1.00  0.00     0.027 A 
ATOM     91  C   UNL A   1      33.392  19.759  24.484  1.00  0.00     0.039 A 
BRANCH  84  92
ATOM     92  C   UNL A   1      36.016  23.058  25.627  1.00  0.00     0.087 C 
ATOM     93  C   UNL A   1      37.386  22.960  24.998  1.00  0.00     0.027 C 
ATOM     94  C   UNL A   1      37.011  24.174  25.795  1.00  0.00     0.027 C 
ENDBRANCH  84  92
BRANCH  91  95
ATOM     95  N   UNL A   1      33.694  18.484  24.914  1.00  0.00    -0.360 N 
ATOM     96  C   UNL A   1      32.823  17.813  25.883  1.00  0.00     0.178 C 
ATOM     97  C   UNL A   1      34.663  17.647  24.200  1.00  0.00     0.178 C 
ATOM     98  C   UNL A   1      32.209  16.541  25.250  1.00  0.00     0.282 C 
ATOM     99  C   UNL A   1      33.989  16.376  23.643  1.00  0.00     0.282 C 
ATOM    100  N   UNL A   1      33.212  15.627  24.656  1.00  0.00    -0.343 N 
ATOM    101  H   UNL A   1      32.739  14.837  24.215  1.00  0.00     0.346 HD
ATOM    102  H   UNL A   1      33.834  15.272  25.382  1.00  0.00     0.346 HD
ENDBRANCH  91  95
ENDBRANCH  78  81
ENDBRANCH  76  77
ENDBRANCH  75  76
ENDBRANCH  74  75
ENDBRANCH   1  74
TORSDOF 16
ENDMDL
MODEL 3
REMARK VINA RESULT:     -12.1      2.477      3.177
REMARK SMILES O=C(NCCCCNC(=O)c1cn(C2CC2)c2cc(N3CC[NH2+]CC3)ccc2c1=O)c1ccc(-c2c3nc(c(-c4c(F)cc(S(=O)(=O)[O-])cc4F)c4ccc([nH]4)c(-c4c(F)cc(S(=O)(=O)[O-])cc4F)c4nc(c(-c5c(F)cc(S(=O)(=O)[O-])cc5F)c5ccc2[nH]5)C=C4)C=C3)cc1
REMARK SMILES IDX 4 1 3 2 1 3 2 4 31 6 32 7 96 8 33 9 95 10 34 11 35 12 36 13
REMARK SMILES IDX 89 14 37 15 94 16 88 17 90 18 38 19 93 20 87 21 86 22 39 24
REMARK SMILES IDX 73 25 52 26 72 27 53 28 56 29 71 30 91 31 54 32 55 33 70 35
REMARK SMILES IDX 92 36 57 37 40 38 41 39 50 40 42 41 43 42 49 43 51 44 44 45
REMARK SMILES IDX 45 46 46 47 47 48 48 49 74 50 75 51 84 52 76 53 77 54 83 55
REMARK SMILES IDX 85 56 78 57 79 58 80 59 81 60 82 61 58 62 59 63 68 64 60 65
REMARK SMILES IDX 61 66 67 67 69 68 62 69 63 70 64 71 65 72 66 73 5 74 6 75
REMARK SMILES IDX 7 76 8 77 9 78 10 80 11 81 12 82 29 83 13 84 28 85 30 86
REMARK SMILES IDX 17 87 27 88 18 89 26 90 19 91 14 92 15 93 16 94 20 95 21 96
REMARK SMILES IDX 25 97 22 98 24 99 23 100
REMARK H PARENT 3 5 90 23 56 34 8 79 23 101 23 102
REMARK Flexibility Score: inf
ROOT
ATOM      1  C   UNL A   1      36.694  23.852  25.720  1.00  0.00     0.116 C 
ENDROOT
BRANCH   1   2
ATOM      2  N   UNL A   1      37.869  23.004  25.611  1.00  0.00    -0.352 N 
ATOM      3  O   UNL A   1      40.032  22.419  25.814  1.00  0.00    -0.269 OA
ATOM      4  C   UNL A   1      39.141  23.217  26.089  1.00  0.00     0.251 C 
ATOM      5  H   UNL A   1      37.737  22.158  25.125  1.00  0.00     0.163 HD
BRANCH   4   6
ATOM      6  C   UNL A   1      39.445  24.422  26.899  1.00  0.00     0.039 A 
ATOM      7  C   UNL A   1      39.000  24.469  28.222  1.00  0.00     0.014 A 
ATOM      8  C   UNL A   1      40.157  25.500  26.366  1.00  0.00     0.014 A 
ATOM      9  C   UNL A   1      39.312  25.570  29.024  1.00  0.00     0.010 A 
ATOM     10  C   UNL A   1      40.537  26.559  27.187  1.00  0.00     0.010 A 
ATOM     11  C   UNL A   1      40.106  26.615  28.521  1.00  0.00    -0.014 A 
BRANCH  11  12
ATOM     12  C   UNL A   1      40.450  27.791  29.362  1.00  0.00     0.031 A 
ATOM     13  C   UNL A   1      41.757  27.820  30.111  1.00  0.00     0.074 A 
ATOM     14  C   UNL A   1      39.584  28.819  29.476  1.00  0.00     0.049 A 
ATOM     15  N   UNL A   1      42.219  28.731  30.928  1.00  0.00    -0.248 NA
ATOM     16  C   UNL A   1      42.649  26.659  29.946  1.00  0.00     0.031 C 
ATOM     17  C   UNL A   1      38.267  28.891  28.838  1.00  0.00     0.029 A 
ATOM     18  N   UNL A   1      39.680  30.001  30.167  1.00  0.00    -0.354 N 
ATOM     19  C   UNL A   1      43.442  28.248  31.381  1.00  0.00     0.074 A 
ATOM     20  C   UNL A   1      43.626  26.939  30.795  1.00  0.00     0.031 C 
ATOM     21  C   UNL A   1      37.698  30.072  29.136  1.00  0.00     0.029 A 
ATOM     22  C   UNL A   1      38.593  30.827  30.008  1.00  0.00     0.049 A 
ATOM     23  H   UNL A   1      40.458  30.236  30.725  1.00  0.00     0.167 HD
ATOM     24  C   UNL A   1      44.347  28.853  32.184  1.00  0.00     0.037 A 
ATOM     25  C   UNL A   1      38.347  32.058  30.502  1.00  0.00     0.037 A 
ATOM     26  C   UNL A   1      44.190  30.179  32.716  1.00  0.00     0.049 A 
ATOM     27  C   UNL A   1      39.381  32.721  31.374  1.00  0.00     0.074 A 
ATOM     28  C   UNL A   1      45.079  30.901  33.493  1.00  0.00     0.029 A 
ATOM     29  N   UNL A   1      43.084  30.989  32.512  1.00  0.00    -0.354 N 
ATOM     30  N   UNL A   1      40.550  32.265  31.753  1.00  0.00    -0.248 NA
ATOM     31  C   UNL A   1      39.065  34.063  31.885  1.00  0.00     0.031 C 
ATOM     32  C   UNL A   1      44.501  32.141  33.778  1.00  0.00     0.029 A 
ATOM     33  C   UNL A   1      43.265  32.201  33.153  1.00  0.00     0.049 A 
ATOM     34  H   UNL A   1      42.288  30.737  31.990  1.00  0.00     0.167 HD
ATOM     35  C   UNL A   1      41.119  33.272  32.524  1.00  0.00     0.074 A 
ATOM     36  C   UNL A   1      40.170  34.366  32.555  1.00  0.00     0.031 C 
ATOM     37  C   UNL A   1      42.321  33.289  33.149  1.00  0.00     0.037 A 
BRANCH  24  38
ATOM     38  C   UNL A   1      45.609  28.108  32.507  1.00  0.00     0.058 A 
ATOM     39  C   UNL A   1      45.685  27.254  33.619  1.00  0.00     0.135 A 
ATOM     40  C   UNL A   1      46.729  28.190  31.664  1.00  0.00     0.135 A 
ATOM     41  F   UNL A   1      44.649  27.154  34.466  1.00  0.00    -0.206 F 
ATOM     42  C   UNL A   1      46.832  26.517  33.891  1.00  0.00     0.059 A 
ATOM     43  C   UNL A   1      47.879  27.443  31.903  1.00  0.00     0.059 A 
ATOM     44  F   UNL A   1      46.708  28.994  30.589  1.00  0.00    -0.206 F 
ATOM     45  C   UNL A   1      47.923  26.614  33.025  1.00  0.00     0.060 A 
BRANCH  45  46
ATOM     46  S   UNL A   1      49.389  25.624  33.377  1.00  0.00     0.124 S 
ATOM     47  O   UNL A   1      48.820  24.528  34.154  1.00  0.00    -0.237 OA
ATOM     48  O   UNL A   1      49.858  25.275  32.039  1.00  0.00    -0.237 OA
ATOM     49  O   UNL A   1      50.248  26.539  34.120  1.00  0.00    -0.744 OA
ENDBRANCH  45  46
ENDBRANCH  24  38
BRANCH  25  50
ATOM     50  C   UNL A   1      37.089  32.765  30.149  1.00  0.00     0.058 A 
ATOM     51  C   UNL A   1      35.911  32.536  30.877  1.00  0.00     0.135 A 
ATOM     52  C   UNL A   1      37.035  33.685  29.091  1.00  0.00     0.135 A 
ATOM     53  F   UNL A   1      35.911  31.661  31.893  1.00  0.00    -0.206 F 
ATOM     54  C   UNL A   1      34.722  33.184  30.561  1.00  0.00     0.059 A 
ATOM     55  C   UNL A   1      35.862  34.361  28.768  1.00  0.00     0.059 A 
ATOM     56  F   UNL A   1      38.139  33.950  28.374  1.00  0.00    -0.206 F 
ATOM     57  C   UNL A   1      34.707  34.096  29.504  1.00  0.00     0.060 A 
BRANCH  57  58
ATOM     58  S   UNL A   1      33.166  34.962  29.130  1.00  0.00     0.124 S 
ATOM     59  O   UNL A   1      32.528  35.006  30.440  1.00  0.00    -0.237 OA
ATOM     60  O   UNL A   1      33.650  36.238  28.611  1.00  0.00    -0.237 OA
ATOM     61  O   UNL A   1      32.527  34.096  28.144  1.00  0.00    -0.744 OA
ENDBRANCH  57  58
ENDBRANCH  25  50
BRANCH  37  62
ATOM     62  C   UNL A   1      42.710  34.526  33.903  1.00  0.00     0.058 A 
ATOM     63  C   UNL A   1      42.498  34.633  35.284  1.00  0.00     0.135 A 
ATOM     64  C   UNL A   1      43.429  35.549  33.262  1.00  0.00     0.135 A 
ATOM     65  F   UNL A   1      41.810  33.682  35.936  1.00  0.00    -0.206 F 
ATOM     66  C   UNL A   1      42.998  35.706  36.011  1.00  0.00     0.059 A 
ATOM     67  C   UNL A   1      43.955  36.622  33.973  1.00  0.00     0.059 A 
ATOM     68  F   UNL A   1      43.664  35.484  31.942  1.00  0.00    -0.206 F 
ATOM     69  C   UNL A   1      43.738  36.690  35.349  1.00  0.00     0.060 A 
BRANCH  69  70
ATOM     70  S   UNL A   1      44.469  38.022  36.323  1.00  0.00     0.124 S 
ATOM     71  O   UNL A   1      43.758  37.886  37.589  1.00  0.00    -0.237 OA
ATOM     72  O   UNL A   1      45.882  37.652  36.347  1.00  0.00    -0.237 OA
ATOM     73  O   UNL A   1      44.155  39.221  35.551  1.00  0.00    -0.744 OA
ENDBRANCH  69  70
ENDBRANCH  37  62
ENDBRANCH  11  12
ENDBRANCH   4   6
ENDBRANCH   1   2
BRANCH   1  74
ATOM     74  C   UNL A   1      35.832  23.866  24.464  1.00  0.00     0.023 C 
BRANCH  74  75
ATOM     75  C   UNL A   1      35.069  22.577  24.167  1.00  0.00     0.023 C 
BRANCH  75  76
ATOM     76  C   UNL A   1      33.564  22.642  24.400  1.00  0.00     0.116 C 
BRANCH  76  77
ATOM     77  N   UNL A   1      33.199  22.702  25.810  1.00  0.00    -0.352 N 
ATOM     78  C   UNL A   1      32.592  23.715  26.507  1.00  0.00     0.256 C 
ATOM     79  H   UNL A   1      33.420  21.901  26.337  1.00  0.00     0.163 HD
ATOM     80  O   UNL A   1      32.321  23.579  27.697  1.00  0.00    -0.269 OA
BRANCH  78  81
ATOM     81  C   UNL A   1      32.241  24.939  25.770  1.00  0.00     0.104 A 
ATOM     82  C   UNL A   1      33.010  26.024  25.930  1.00  0.00     0.104 A 
ATOM     83  C   UNL A   1      31.028  25.051  24.940  1.00  0.00     0.202 A 
ATOM     84  N   UNL A   1      32.723  27.298  25.480  1.00  0.00    -0.343 N 
ATOM     85  C   UNL A   1      30.731  26.385  24.365  1.00  0.00     0.047 A 
ATOM     86  O   UNL A   1      30.266  24.108  24.758  1.00  0.00    -0.288 OA
ATOM     87  C   UNL A   1      31.577  27.478  24.641  1.00  0.00     0.054 A 
ATOM     88  C   UNL A   1      29.571  26.542  23.600  1.00  0.00     0.016 A 
ATOM     89  C   UNL A   1      31.223  28.723  24.094  1.00  0.00     0.053 A 
ATOM     90  C   UNL A   1      29.220  27.804  23.125  1.00  0.00     0.027 A 
ATOM     91  C   UNL A   1      30.031  28.915  23.371  1.00  0.00     0.039 A 
BRANCH  84  92
ATOM     92  C   UNL A   1      33.439  28.462  26.065  1.00  0.00     0.087 C 
ATOM     93  C   UNL A   1      33.580  28.768  27.537  1.00  0.00     0.027 C 
ATOM     94  C   UNL A   1      34.768  28.296  26.753  1.00  0.00     0.027 C 
ENDBRANCH  84  92
BRANCH  91  95
ATOM     95  N   UNL A   1      29.677  30.177  22.947  1.00  0.00    -0.360 N 
ATOM     96  C   UNL A   1      29.516  30.451  21.516  1.00  0.00     0.178 C 
ATOM     97  C   UNL A   1      29.135  31.171  23.878  1.00  0.00     0.178 C 
ATOM     98  C   UNL A   1      28.055  30.861  21.217  1.00  0.00     0.282 C 
ATOM     99  C   UNL A   1      27.696  31.568  23.486  1.00  0.00     0.282 C 
ATOM    100  N   UNL A   1      27.560  31.968  22.067  1.00  0.00    -0.343 N 
ATOM    101  H   UNL A   1      26.580  32.155  21.853  1.00  0.00     0.346 HD
ATOM    102  H   UNL A   1      28.101  32.815  21.888  1.00  0.00     0.346 HD
ENDBRANCH  91  95
ENDBRANCH  78  81
ENDBRANCH  76  77
ENDBRANCH  75  76
ENDBRANCH  74  75
ENDBRANCH   1  74
TORSDOF 16
ENDMDL
