MODEL 1
REMARK VINA RESULT:     -11.2      0.000      0.000
REMARK SMILES COC1CCN(c2nc(C(C)C)c(C(=O)NCCCCNC(=O)c3ccc(-c4c5nc(c(-c6c(F)cc(S(=O)(=O)[O-])cc6F)c6ccc([nH]6)c(-c6c(F)cc(S(=O)(=O)[O-])cc6F)c6nc(c(-c7c(F)cc(S(=O)(=O)[O-])cc7F)c7ccc4[nH]7)C=C6)C=C5)cc3)s2)CC1
REMARK SMILES IDX 19 1 18 2 17 3 16 4 14 5 15 6 13 8 7 9 8 10 90 11 9 12 6 13
REMARK SMILES IDX 3 14 4 15 92 16 5 17 91 18 2 19 1 20 10 21 11 22 12 23 20 24
REMARK SMILES IDX 21 25 22 26 23 28 24 29 25 30 89 31 26 32 88 33 27 34 28 35
REMARK SMILES IDX 29 36 82 37 30 38 87 39 81 40 83 41 31 42 86 43 80 44 79 45
REMARK SMILES IDX 32 47 66 48 45 49 65 50 46 51 49 52 64 53 84 54 47 55 48 56
REMARK SMILES IDX 63 58 85 59 50 60 33 61 34 62 43 63 35 64 36 65 42 66 44 67
REMARK SMILES IDX 37 68 38 69 39 70 40 71 41 72 67 73 68 74 77 75 69 76 70 77
REMARK SMILES IDX 76 78 78 79 71 80 72 81 73 82 74 83 75 84 51 85 52 86 61 87
REMARK SMILES IDX 53 88 54 89 60 90 62 91 55 92 56 93 57 94 58 95 59 96
REMARK H PARENT 16 7 21 27 83 46 49 57
REMARK Flexibility Score: inf
ROOT
ATOM      1  C   UNL A   1      32.360  28.673  26.735  1.00  0.00     0.023 C 
ENDROOT
BRANCH   1   2
ATOM      2  C   UNL A   1      31.693  29.546  25.678  1.00  0.00     0.023 C 
BRANCH   2   3
ATOM      3  C   UNL A   1      32.412  29.574  24.332  1.00  0.00     0.116 C 
BRANCH   3   4
ATOM      4  N   UNL A   1      31.741  28.776  23.346  1.00  0.00    -0.351 N 
ATOM      5  C   UNL A   1      31.584  27.445  23.085  1.00  0.00     0.263 C 
ATOM      6  O   UNL A   1      30.862  27.291  22.085  1.00  0.00    -0.268 OA
ATOM      7  H   UNL A   1      31.271  29.335  22.685  1.00  0.00     0.163 HD
BRANCH   5   8
ATOM      8  C   UNL A   1      32.143  26.299  23.811  1.00  0.00     0.117 A 
ATOM      9  C   UNL A   1      33.941  24.668  24.388  1.00  0.00     0.186 A 
ATOM     10  N   UNL A   1      32.860  24.446  25.084  1.00  0.00    -0.224 NA
ATOM     11  S   UNL A   1      33.763  25.910  23.240  1.00  0.00    -0.091 S 
ATOM     12  C   UNL A   1      31.856  25.390  24.838  1.00  0.00     0.069 A 
BRANCH   9  13
ATOM     13  N   UNL A   1      35.094  23.963  24.527  1.00  0.00    -0.348 N 
ATOM     14  C   UNL A   1      37.485  22.409  24.868  1.00  0.00     0.121 C 
ATOM     15  C   UNL A   1      37.227  23.690  25.666  1.00  0.00     0.053 C 
ATOM     16  C   UNL A   1      36.737  22.464  23.531  1.00  0.00     0.053 C 
ATOM     17  C   UNL A   1      35.736  23.938  25.840  1.00  0.00     0.121 C 
ATOM     18  C   UNL A   1      35.248  22.744  23.736  1.00  0.00     0.121 C 
BRANCH  14  19
ATOM     19  O   UNL A   1      37.058  21.221  25.549  1.00  0.00    -0.381 OA
ATOM     20  C   UNL A   1      37.345  20.015  24.856  1.00  0.00     0.195 C 
ENDBRANCH  14  19
ENDBRANCH   9  13
BRANCH  12  21
ATOM     21  C   UNL A   1      30.716  25.204  25.808  1.00  0.00     0.034 C 
ATOM     22  C   UNL A   1      29.406  25.790  25.282  1.00  0.00     0.014 C 
ATOM     23  C   UNL A   1      30.663  23.816  26.450  1.00  0.00     0.014 C 
ENDBRANCH  12  21
ENDBRANCH   5   8
ENDBRANCH   3   4
ENDBRANCH   2   3
ENDBRANCH   1   2
BRANCH   1  24
ATOM     24  C   UNL A   1      33.748  29.132  27.168  1.00  0.00     0.116 C 
BRANCH  24  25
ATOM     25  N   UNL A   1      33.770  30.390  27.908  1.00  0.00    -0.352 N 
ATOM     26  C   UNL A   1      34.830  30.917  28.612  1.00  0.00     0.251 C 
ATOM     27  H   UNL A   1      32.937  30.916  27.904  1.00  0.00     0.163 HD
ATOM     28  O   UNL A   1      34.728  31.970  29.231  1.00  0.00    -0.269 OA
BRANCH  26  29
ATOM     29  C   UNL A   1      36.081  30.137  28.640  1.00  0.00     0.039 A 
ATOM     30  C   UNL A   1      36.903  30.139  27.511  1.00  0.00     0.014 A 
ATOM     31  C   UNL A   1      36.513  29.580  29.845  1.00  0.00     0.014 A 
ATOM     32  C   UNL A   1      38.214  29.672  27.623  1.00  0.00     0.010 A 
ATOM     33  C   UNL A   1      37.838  29.185  29.970  1.00  0.00     0.010 A 
ATOM     34  C   UNL A   1      38.708  29.250  28.867  1.00  0.00    -0.014 A 
BRANCH  34  35
ATOM     35  C   UNL A   1      40.136  28.892  29.070  1.00  0.00     0.031 A 
ATOM     36  C   UNL A   1      41.105  29.958  29.496  1.00  0.00     0.074 A 
ATOM     37  C   UNL A   1      40.577  27.660  28.745  1.00  0.00     0.049 A 
ATOM     38  N   UNL A   1      42.411  29.929  29.509  1.00  0.00    -0.248 NA
ATOM     39  C   UNL A   1      40.526  31.245  29.917  1.00  0.00     0.031 C 
ATOM     40  C   UNL A   1      39.744  26.553  28.265  1.00  0.00     0.029 A 
ATOM     41  N   UNL A   1      41.847  27.138  28.740  1.00  0.00    -0.354 N 
ATOM     42  C   UNL A   1      42.811  31.204  29.885  1.00  0.00     0.074 A 
ATOM     43  C   UNL A   1      41.611  31.991  30.071  1.00  0.00     0.031 C 
ATOM     44  C   UNL A   1      40.524  25.487  28.019  1.00  0.00     0.029 A 
ATOM     45  C   UNL A   1      41.915  25.842  28.283  1.00  0.00     0.049 A 
ATOM     46  H   UNL A   1      42.638  27.645  29.037  1.00  0.00     0.167 HD
ATOM     47  C   UNL A   1      44.067  31.673  30.068  1.00  0.00     0.037 A 
ATOM     48  C   UNL A   1      42.977  25.038  28.081  1.00  0.00     0.037 A 
ATOM     49  C   UNL A   1      45.251  30.866  29.956  1.00  0.00     0.049 A 
ATOM     50  C   UNL A   1      44.358  25.559  28.378  1.00  0.00     0.074 A 
ATOM     51  C   UNL A   1      46.564  31.230  30.196  1.00  0.00     0.029 A 
ATOM     52  N   UNL A   1      45.262  29.528  29.596  1.00  0.00    -0.354 N 
ATOM     53  N   UNL A   1      44.715  26.758  28.772  1.00  0.00    -0.248 NA
ATOM     54  C   UNL A   1      45.479  24.623  28.208  1.00  0.00     0.031 C 
ATOM     55  C   UNL A   1      47.373  30.111  29.971  1.00  0.00     0.029 A 
ATOM     56  C   UNL A   1      46.559  29.047  29.615  1.00  0.00     0.049 A 
ATOM     57  H   UNL A   1      44.467  28.998  29.362  1.00  0.00     0.167 HD
ATOM     58  C   UNL A   1      46.095  26.710  28.928  1.00  0.00     0.074 A 
ATOM     59  C   UNL A   1      46.512  25.366  28.586  1.00  0.00     0.031 C 
ATOM     60  C   UNL A   1      46.943  27.692  29.316  1.00  0.00     0.037 A 
BRANCH  47  61
ATOM     61  C   UNL A   1      44.226  33.122  30.423  1.00  0.00     0.058 A 
ATOM     62  C   UNL A   1      44.270  33.551  31.758  1.00  0.00     0.135 A 
ATOM     63  C   UNL A   1      44.381  34.088  29.415  1.00  0.00     0.135 A 
ATOM     64  F   UNL A   1      44.107  32.668  32.756  1.00  0.00    -0.206 F 
ATOM     65  C   UNL A   1      44.440  34.892  32.084  1.00  0.00     0.059 A 
ATOM     66  C   UNL A   1      44.576  35.432  29.718  1.00  0.00     0.059 A 
ATOM     67  F   UNL A   1      44.342  33.729  28.122  1.00  0.00    -0.206 F 
ATOM     68  C   UNL A   1      44.592  35.825  31.057  1.00  0.00     0.060 A 
BRANCH  68  69
ATOM     69  S   UNL A   1      44.832  37.559  31.493  1.00  0.00     0.124 S 
ATOM     70  O   UNL A   1      43.846  37.729  32.557  1.00  0.00    -0.237 OA
ATOM     71  O   UNL A   1      46.229  37.588  31.914  1.00  0.00    -0.237 OA
ATOM     72  O   UNL A   1      44.542  38.264  30.248  1.00  0.00    -0.744 OA
ENDBRANCH  68  69
ENDBRANCH  47  61
BRANCH  48  73
ATOM     73  C   UNL A   1      42.786  23.652  27.582  1.00  0.00     0.058 A 
ATOM     74  C   UNL A   1      42.820  23.372  26.208  1.00  0.00     0.135 A 
ATOM     75  C   UNL A   1      42.553  22.583  28.461  1.00  0.00     0.135 A 
ATOM     76  F   UNL A   1      43.034  24.362  25.329  1.00  0.00    -0.206 F 
ATOM     77  C   UNL A   1      42.604  22.088  25.720  1.00  0.00     0.059 A 
ATOM     78  C   UNL A   1      42.355  21.286  27.998  1.00  0.00     0.059 A 
ATOM     79  F   UNL A   1      42.532  22.796  29.786  1.00  0.00    -0.206 F 
ATOM     80  C   UNL A   1      42.367  21.051  26.623  1.00  0.00     0.060 A 
BRANCH  80  81
ATOM     81  S   UNL A   1      42.114  19.380  25.986  1.00  0.00     0.124 S 
ATOM     82  O   UNL A   1      42.914  19.408  24.767  1.00  0.00    -0.237 OA
ATOM     83  O   UNL A   1      42.631  18.552  27.071  1.00  0.00    -0.237 OA
ATOM     84  O   UNL A   1      40.668  19.314  25.794  1.00  0.00    -0.744 OA
ENDBRANCH  80  81
ENDBRANCH  48  73
BRANCH  60  85
ATOM     85  C   UNL A   1      48.396  27.349  29.459  1.00  0.00     0.058 A 
ATOM     86  C   UNL A   1      49.310  27.591  28.424  1.00  0.00     0.135 A 
ATOM     87  C   UNL A   1      48.890  26.879  30.686  1.00  0.00     0.135 A 
ATOM     88  F   UNL A   1      48.882  28.035  27.233  1.00  0.00    -0.206 F 
ATOM     89  C   UNL A   1      50.674  27.383  28.605  1.00  0.00     0.059 A 
ATOM     90  C   UNL A   1      50.250  26.680  30.892  1.00  0.00     0.059 A 
ATOM     91  F   UNL A   1      48.050  26.641  31.705  1.00  0.00    -0.206 F 
ATOM     92  C   UNL A   1      51.135  26.936  29.845  1.00  0.00     0.060 A 
BRANCH  92  93
ATOM     93  S   UNL A   1      52.914  26.753  30.097  1.00  0.00     0.124 S 
ATOM     94  O   UNL A   1      52.957  25.809  31.209  1.00  0.00    -0.237 OA
ATOM     95  O   UNL A   1      53.364  26.237  28.809  1.00  0.00    -0.237 OA
ATOM     96  O   UNL A   1      53.352  28.111  30.407  1.00  0.00    -0.744 OA
ENDBRANCH  92  93
ENDBRANCH  60  85
ENDBRANCH  34  35
ENDBRANCH  26  29
ENDBRANCH  24  25
ENDBRANCH   1  24
TORSDOF 17
ENDMDL
MODEL 2
REMARK VINA RESULT:     -11.1      1.786      2.558
REMARK SMILES COC1CCN(c2nc(C(C)C)c(C(=O)NCCCCNC(=O)c3ccc(-c4c5nc(c(-c6c(F)cc(S(=O)(=O)[O-])cc6F)c6ccc([nH]6)c(-c6c(F)cc(S(=O)(=O)[O-])cc6F)c6nc(c(-c7c(F)cc(S(=O)(=O)[O-])cc7F)c7ccc4[nH]7)C=C6)C=C5)cc3)s2)CC1
REMARK SMILES IDX 19 1 18 2 17 3 16 4 14 5 15 6 13 8 7 9 8 10 90 11 9 12 6 13
REMARK SMILES IDX 3 14 4 15 92 16 5 17 91 18 2 19 1 20 10 21 11 22 12 23 20 24
REMARK SMILES IDX 21 25 22 26 23 28 24 29 25 30 89 31 26 32 88 33 27 34 28 35
REMARK SMILES IDX 29 36 82 37 30 38 87 39 81 40 83 41 31 42 86 43 80 44 79 45
REMARK SMILES IDX 32 47 66 48 45 49 65 50 46 51 49 52 64 53 84 54 47 55 48 56
REMARK SMILES IDX 63 58 85 59 50 60 33 61 34 62 43 63 35 64 36 65 42 66 44 67
REMARK SMILES IDX 37 68 38 69 39 70 40 71 41 72 67 73 68 74 77 75 69 76 70 77
REMARK SMILES IDX 76 78 78 79 71 80 72 81 73 82 74 83 75 84 51 85 52 86 61 87
REMARK SMILES IDX 53 88 54 89 60 90 62 91 55 92 56 93 57 94 58 95 59 96
REMARK H PARENT 16 7 21 27 83 46 49 57
REMARK Flexibility Score: inf
ROOT
ATOM      1  C   UNL A   1      32.823  28.746  25.918  1.00  0.00     0.023 C 
ENDROOT
BRANCH   1   2
ATOM      2  C   UNL A   1      33.635  28.226  24.737  1.00  0.00     0.023 C 
BRANCH   2   3
ATOM      3  C   UNL A   1      33.437  26.743  24.436  1.00  0.00     0.116 C 
BRANCH   3   4
ATOM      4  N   UNL A   1      34.458  25.930  25.034  1.00  0.00    -0.351 N 
ATOM      5  C   UNL A   1      34.681  24.597  25.224  1.00  0.00     0.263 C 
ATOM      6  O   UNL A   1      35.770  24.426  25.798  1.00  0.00    -0.268 OA
ATOM      7  H   UNL A   1      35.188  26.478  25.404  1.00  0.00     0.163 HD
BRANCH   5   8
ATOM      8  C   UNL A   1      33.827  23.464  24.845  1.00  0.00     0.117 A 
ATOM      9  C   UNL A   1      33.384  21.064  24.327  1.00  0.00     0.186 A 
ATOM     10  N   UNL A   1      32.295  21.776  24.238  1.00  0.00    -0.224 NA
ATOM     11  S   UNL A   1      34.772  21.990  24.656  1.00  0.00    -0.091 S 
ATOM     12  C   UNL A   1      32.494  23.115  24.595  1.00  0.00     0.069 A 
BRANCH   9  13
ATOM     13  N   UNL A   1      33.430  19.718  24.144  1.00  0.00    -0.348 N 
ATOM     14  C   UNL A   1      33.480  16.864  23.832  1.00  0.00     0.121 C 
ATOM     15  C   UNL A   1      34.707  17.653  24.299  1.00  0.00     0.053 C 
ATOM     16  C   UNL A   1      32.577  17.758  22.975  1.00  0.00     0.053 C 
ATOM     17  C   UNL A   1      34.298  18.931  25.017  1.00  0.00     0.121 C 
ATOM     18  C   UNL A   1      32.207  19.046  23.711  1.00  0.00     0.121 C 
BRANCH  14  19
ATOM     19  O   UNL A   1      32.684  16.362  24.915  1.00  0.00    -0.381 OA
ATOM     20  C   UNL A   1      32.901  14.991  25.213  1.00  0.00     0.195 C 
ENDBRANCH  14  19
ENDBRANCH   9  13
BRANCH  12  21
ATOM     21  C   UNL A   1      31.173  23.839  24.666  1.00  0.00     0.034 C 
ATOM     22  C   UNL A   1      31.043  24.687  25.932  1.00  0.00     0.014 C 
ATOM     23  C   UNL A   1      30.735  24.471  23.343  1.00  0.00     0.014 C 
ENDBRANCH  12  21
ENDBRANCH   5   8
ENDBRANCH   3   4
ENDBRANCH   2   3
ENDBRANCH   1   2
BRANCH   1  24
ATOM     24  C   UNL A   1      33.591  28.858  27.230  1.00  0.00     0.116 C 
BRANCH  24  25
ATOM     25  N   UNL A   1      33.648  30.205  27.789  1.00  0.00    -0.352 N 
ATOM     26  C   UNL A   1      34.741  30.817  28.365  1.00  0.00     0.251 C 
ATOM     27  H   UNL A   1      32.818  30.733  27.750  1.00  0.00     0.163 HD
ATOM     28  O   UNL A   1      34.668  31.945  28.837  1.00  0.00    -0.269 OA
BRANCH  26  29
ATOM     29  C   UNL A   1      35.991  30.038  28.443  1.00  0.00     0.039 A 
ATOM     30  C   UNL A   1      36.870  30.062  27.358  1.00  0.00     0.014 A 
ATOM     31  C   UNL A   1      36.361  29.460  29.659  1.00  0.00     0.014 A 
ATOM     32  C   UNL A   1      38.174  29.595  27.529  1.00  0.00     0.010 A 
ATOM     33  C   UNL A   1      37.679  29.066  29.845  1.00  0.00     0.010 A 
ATOM     34  C   UNL A   1      38.605  29.152  28.790  1.00  0.00    -0.014 A 
BRANCH  34  35
ATOM     35  C   UNL A   1      40.021  28.793  29.059  1.00  0.00     0.031 A 
ATOM     36  C   UNL A   1      40.965  29.853  29.550  1.00  0.00     0.074 A 
ATOM     37  C   UNL A   1      40.481  27.566  28.739  1.00  0.00     0.049 A 
ATOM     38  N   UNL A   1      42.269  29.826  29.629  1.00  0.00    -0.248 NA
ATOM     39  C   UNL A   1      40.363  31.133  29.961  1.00  0.00     0.031 C 
ATOM     40  C   UNL A   1      39.675  26.466  28.201  1.00  0.00     0.029 A 
ATOM     41  N   UNL A   1      41.750  27.046  28.790  1.00  0.00    -0.354 N 
ATOM     42  C   UNL A   1      42.647  31.095  30.043  1.00  0.00     0.074 A 
ATOM     43  C   UNL A   1      41.437  31.878  30.181  1.00  0.00     0.031 C 
ATOM     44  C   UNL A   1      40.469  25.404  27.979  1.00  0.00     0.029 A 
ATOM     45  C   UNL A   1      41.844  25.757  28.318  1.00  0.00     0.049 A 
ATOM     46  H   UNL A   1      42.525  27.549  29.135  1.00  0.00     0.167 HD
ATOM     47  C   UNL A   1      43.891  31.564  30.297  1.00  0.00     0.037 A 
ATOM     48  C   UNL A   1      42.917  24.958  28.159  1.00  0.00     0.037 A 
ATOM     49  C   UNL A   1      45.080  30.759  30.234  1.00  0.00     0.049 A 
ATOM     50  C   UNL A   1      44.279  25.476  28.533  1.00  0.00     0.074 A 
ATOM     51  C   UNL A   1      46.379  31.121  30.545  1.00  0.00     0.029 A 
ATOM     52  N   UNL A   1      45.113  29.427  29.854  1.00  0.00    -0.354 N 
ATOM     53  N   UNL A   1      44.614  26.669  28.963  1.00  0.00    -0.248 NA
ATOM     54  C   UNL A   1      45.409  24.544  28.407  1.00  0.00     0.031 C 
ATOM     55  C   UNL A   1      47.201  30.007  30.345  1.00  0.00     0.029 A 
ATOM     56  C   UNL A   1      46.408  28.947  29.933  1.00  0.00     0.049 A 
ATOM     57  H   UNL A   1      44.331  28.900  29.572  1.00  0.00     0.167 HD
ATOM     58  C   UNL A   1      45.984  26.620  29.188  1.00  0.00     0.074 A 
ATOM     59  C   UNL A   1      46.420  25.282  28.848  1.00  0.00     0.031 C 
ATOM     60  C   UNL A   1      46.809  27.598  29.633  1.00  0.00     0.037 A 
BRANCH  47  61
ATOM     61  C   UNL A   1      44.029  33.007  30.681  1.00  0.00     0.058 A 
ATOM     62  C   UNL A   1      44.125  34.018  29.713  1.00  0.00     0.135 A 
ATOM     63  C   UNL A   1      44.023  33.387  32.033  1.00  0.00     0.135 A 
ATOM     64  F   UNL A   1      44.155  33.704  28.409  1.00  0.00    -0.206 F 
ATOM     65  C   UNL A   1      44.230  35.358  30.072  1.00  0.00     0.059 A 
ATOM     66  C   UNL A   1      44.103  34.722  32.414  1.00  0.00     0.059 A 
ATOM     67  F   UNL A   1      43.938  32.456  32.996  1.00  0.00    -0.206 F 
ATOM     68  C   UNL A   1      44.218  35.700  31.425  1.00  0.00     0.060 A 
BRANCH  68  69
ATOM     69  S   UNL A   1      44.336  37.443  31.877  1.00  0.00     0.124 S 
ATOM     70  O   UNL A   1      45.759  37.568  32.178  1.00  0.00    -0.237 OA
ATOM     71  O   UNL A   1      43.884  38.115  30.664  1.00  0.00    -0.237 OA
ATOM     72  O   UNL A   1      43.439  37.556  33.023  1.00  0.00    -0.744 OA
ENDBRANCH  68  69
ENDBRANCH  47  61
BRANCH  48  73
ATOM     73  C   UNL A   1      42.754  23.578  27.631  1.00  0.00     0.058 A 
ATOM     74  C   UNL A   1      42.850  23.321  26.255  1.00  0.00     0.135 A 
ATOM     75  C   UNL A   1      42.486  22.495  28.482  1.00  0.00     0.135 A 
ATOM     76  F   UNL A   1      43.100  24.325  25.402  1.00  0.00    -0.206 F 
ATOM     77  C   UNL A   1      42.662  22.043  25.738  1.00  0.00     0.059 A 
ATOM     78  C   UNL A   1      42.315  21.205  27.990  1.00  0.00     0.059 A 
ATOM     79  F   UNL A   1      42.405  22.687  29.807  1.00  0.00    -0.206 F 
ATOM     80  C   UNL A   1      42.389  20.992  26.613  1.00  0.00     0.060 A 
BRANCH  80  81
ATOM     81  S   UNL A   1      42.172  19.330  25.939  1.00  0.00     0.124 S 
ATOM     82  O   UNL A   1      40.729  19.286  25.731  1.00  0.00    -0.237 OA
ATOM     83  O   UNL A   1      42.991  19.374  24.732  1.00  0.00    -0.237 OA
ATOM     84  O   UNL A   1      42.685  18.472  27.003  1.00  0.00    -0.744 OA
ENDBRANCH  80  81
ENDBRANCH  48  73
BRANCH  60  85
ATOM     85  C   UNL A   1      48.253  27.254  29.845  1.00  0.00     0.058 A 
ATOM     86  C   UNL A   1      49.214  27.484  28.850  1.00  0.00     0.135 A 
ATOM     87  C   UNL A   1      48.691  26.796  31.097  1.00  0.00     0.135 A 
ATOM     88  F   UNL A   1      48.841  27.918  27.636  1.00  0.00    -0.206 F 
ATOM     89  C   UNL A   1      50.568  27.277  29.093  1.00  0.00     0.059 A 
ATOM     90  C   UNL A   1      50.041  26.598  31.366  1.00  0.00     0.059 A 
ATOM     91  F   UNL A   1      47.806  26.569  32.080  1.00  0.00    -0.206 F 
ATOM     92  C   UNL A   1      50.972  26.842  30.358  1.00  0.00     0.060 A 
BRANCH  92  93
ATOM     93  S   UNL A   1      52.737  26.660  30.691  1.00  0.00     0.124 S 
ATOM     94  O   UNL A   1      53.071  27.975  31.229  1.00  0.00    -0.237 OA
ATOM     95  O   UNL A   1      52.767  25.558  31.647  1.00  0.00    -0.237 OA
ATOM     96  O   UNL A   1      53.299  26.356  29.378  1.00  0.00    -0.744 OA
ENDBRANCH  92  93
ENDBRANCH  60  85
ENDBRANCH  34  35
ENDBRANCH  26  29
ENDBRANCH  24  25
ENDBRANCH   1  24
TORSDOF 17
ENDMDL
MODEL 3
REMARK VINA RESULT:     -11.0      4.231     11.172
REMARK SMILES COC1CCN(c2nc(C(C)C)c(C(=O)NCCCCNC(=O)c3ccc(-c4c5nc(c(-c6c(F)cc(S(=O)(=O)[O-])cc6F)c6ccc([nH]6)c(-c6c(F)cc(S(=O)(=O)[O-])cc6F)c6nc(c(-c7c(F)cc(S(=O)(=O)[O-])cc7F)c7ccc4[nH]7)C=C6)C=C5)cc3)s2)CC1
REMARK SMILES IDX 19 1 18 2 17 3 16 4 14 5 15 6 13 8 7 9 8 10 90 11 9 12 6 13
REMARK SMILES IDX 3 14 4 15 92 16 5 17 91 18 2 19 1 20 10 21 11 22 12 23 20 24
REMARK SMILES IDX 21 25 22 26 23 28 24 29 25 30 89 31 26 32 88 33 27 34 28 35
REMARK SMILES IDX 29 36 82 37 30 38 87 39 81 40 83 41 31 42 86 43 80 44 79 45
REMARK SMILES IDX 32 47 66 48 45 49 65 50 46 51 49 52 64 53 84 54 47 55 48 56
REMARK SMILES IDX 63 58 85 59 50 60 33 61 34 62 43 63 35 64 36 65 42 66 44 67
REMARK SMILES IDX 37 68 38 69 39 70 40 71 41 72 67 73 68 74 77 75 69 76 70 77
REMARK SMILES IDX 76 78 78 79 71 80 72 81 73 82 74 83 75 84 51 85 52 86 61 87
REMARK SMILES IDX 53 88 54 89 60 90 62 91 55 92 56 93 57 94 58 95 59 96
REMARK H PARENT 16 7 21 27 83 46 49 57
REMARK Flexibility Score: inf
ROOT
ATOM      1  C   UNL A   1      40.361  20.453  26.042  1.00  0.00     0.023 C 
ENDROOT
BRANCH   1   2
ATOM      2  C   UNL A   1      41.429  19.721  26.848  1.00  0.00     0.023 C 
BRANCH   2   3
ATOM      3  C   UNL A   1      42.845  19.856  26.294  1.00  0.00     0.116 C 
BRANCH   3   4
ATOM      4  N   UNL A   1      42.962  20.953  25.375  1.00  0.00    -0.351 N 
ATOM      5  C   UNL A   1      43.600  22.159  25.346  1.00  0.00     0.263 C 
ATOM      6  O   UNL A   1      43.379  22.730  24.265  1.00  0.00    -0.268 OA
ATOM      7  H   UNL A   1      42.448  20.792  24.550  1.00  0.00     0.163 HD
BRANCH   5   8
ATOM      8  C   UNL A   1      44.437  22.777  26.383  1.00  0.00     0.117 A 
ATOM      9  C   UNL A   1      46.413  24.061  27.199  1.00  0.00     0.186 A 
ATOM     10  N   UNL A   1      45.638  23.707  28.187  1.00  0.00    -0.224 NA
ATOM     11  S   UNL A   1      45.908  23.455  25.693  1.00  0.00    -0.091 S 
ATOM     12  C   UNL A   1      44.480  23.049  27.756  1.00  0.00     0.069 A 
BRANCH   9  13
ATOM     13  N   UNL A   1      47.538  24.810  27.345  1.00  0.00    -0.348 N 
ATOM     14  C   UNL A   1      49.863  26.467  27.655  1.00  0.00     0.121 C 
ATOM     15  C   UNL A   1      49.493  25.826  26.313  1.00  0.00     0.053 C 
ATOM     16  C   UNL A   1      49.307  25.625  28.809  1.00  0.00     0.053 C 
ATOM     17  C   UNL A   1      47.992  25.605  26.206  1.00  0.00     0.121 C 
ATOM     18  C   UNL A   1      47.803  25.395  28.657  1.00  0.00     0.121 C 
BRANCH  14  19
ATOM     19  O   UNL A   1      49.349  27.797  27.808  1.00  0.00    -0.381 OA
ATOM     20  C   UNL A   1      49.837  28.484  28.950  1.00  0.00     0.195 C 
ENDBRANCH  14  19
ENDBRANCH   9  13
BRANCH  12  21
ATOM     21  C   UNL A   1      43.535  22.844  28.913  1.00  0.00     0.034 C 
ATOM     22  C   UNL A   1      44.169  23.218  30.253  1.00  0.00     0.014 C 
ATOM     23  C   UNL A   1      42.108  23.328  28.646  1.00  0.00     0.014 C 
ENDBRANCH  12  21
ENDBRANCH   5   8
ENDBRANCH   3   4
ENDBRANCH   2   3
ENDBRANCH   1   2
BRANCH   1  24
ATOM     24  C   UNL A   1      39.792  21.700  26.708  1.00  0.00     0.116 C 
BRANCH  24  25
ATOM     25  N   UNL A   1      38.665  22.305  26.004  1.00  0.00    -0.352 N 
ATOM     26  C   UNL A   1      38.286  23.630  26.032  1.00  0.00     0.251 C 
ATOM     27  H   UNL A   1      38.117  21.702  25.452  1.00  0.00     0.163 HD
ATOM     28  O   UNL A   1      37.296  24.026  25.428  1.00  0.00    -0.269 OA
BRANCH  26  29
ATOM     29  C   UNL A   1      39.088  24.547  26.864  1.00  0.00     0.039 A 
ATOM     30  C   UNL A   1      40.005  25.396  26.241  1.00  0.00     0.014 A 
ATOM     31  C   UNL A   1      38.778  24.688  28.218  1.00  0.00     0.014 A 
ATOM     32  C   UNL A   1      40.537  26.467  26.961  1.00  0.00     0.010 A 
ATOM     33  C   UNL A   1      39.253  25.796  28.907  1.00  0.00     0.010 A 
ATOM     34  C   UNL A   1      40.117  26.710  28.279  1.00  0.00    -0.014 A 
BRANCH  34  35
ATOM     35  C   UNL A   1      40.535  27.921  29.031  1.00  0.00     0.031 A 
ATOM     36  C   UNL A   1      41.826  27.897  29.798  1.00  0.00     0.074 A 
ATOM     37  C   UNL A   1      39.702  28.976  29.131  1.00  0.00     0.049 A 
ATOM     38  N   UNL A   1      42.270  28.738  30.695  1.00  0.00    -0.248 NA
ATOM     39  C   UNL A   1      42.715  26.747  29.559  1.00  0.00     0.031 C 
ATOM     40  C   UNL A   1      38.395  29.097  28.479  1.00  0.00     0.029 A 
ATOM     41  N   UNL A   1      39.817  30.141  29.849  1.00  0.00    -0.354 N 
ATOM     42  C   UNL A   1      43.457  28.193  31.165  1.00  0.00     0.074 A 
ATOM     43  C   UNL A   1      43.657  26.940  30.471  1.00  0.00     0.031 C 
ATOM     44  C   UNL A   1      37.835  30.270  28.823  1.00  0.00     0.029 A 
ATOM     45  C   UNL A   1      38.721  30.967  29.750  1.00  0.00     0.049 A 
ATOM     46  H   UNL A   1      40.612  30.366  30.386  1.00  0.00     0.167 HD
ATOM     47  C   UNL A   1      44.309  28.700  32.087  1.00  0.00     0.037 A 
ATOM     48  C   UNL A   1      38.452  32.142  30.352  1.00  0.00     0.037 A 
ATOM     49  C   UNL A   1      44.144  29.982  32.715  1.00  0.00     0.049 A 
ATOM     50  C   UNL A   1      39.460  32.725  31.306  1.00  0.00     0.074 A 
ATOM     51  C   UNL A   1      44.991  30.617  33.606  1.00  0.00     0.029 A 
ATOM     52  N   UNL A   1      43.071  30.833  32.502  1.00  0.00    -0.354 N 
ATOM     53  N   UNL A   1      40.598  32.214  31.710  1.00  0.00    -0.248 NA
ATOM     54  C   UNL A   1      39.153  34.042  31.884  1.00  0.00     0.031 C 
ATOM     55  C   UNL A   1      44.425  31.852  33.939  1.00  0.00     0.029 A 
ATOM     56  C   UNL A   1      43.238  31.993  33.236  1.00  0.00     0.049 A 
ATOM     57  H   UNL A   1      42.305  30.641  31.915  1.00  0.00     0.167 HD
ATOM     58  C   UNL A   1      41.157  33.159  32.562  1.00  0.00     0.074 A 
ATOM     59  C   UNL A   1      40.234  34.274  32.618  1.00  0.00     0.031 C 
ATOM     60  C   UNL A   1      42.328  33.108  33.240  1.00  0.00     0.037 A 
BRANCH  47  61
ATOM     61  C   UNL A   1      45.504  27.874  32.461  1.00  0.00     0.058 A 
ATOM     62  C   UNL A   1      45.464  26.964  33.528  1.00  0.00     0.135 A 
ATOM     63  C   UNL A   1      46.691  27.963  31.715  1.00  0.00     0.135 A 
ATOM     64  F   UNL A   1      44.359  26.858  34.283  1.00  0.00    -0.206 F 
ATOM     65  C   UNL A   1      46.566  26.184  33.858  1.00  0.00     0.059 A 
ATOM     66  C   UNL A   1      47.798  27.175  32.012  1.00  0.00     0.059 A 
ATOM     67  F   UNL A   1      46.781  28.822  30.687  1.00  0.00    -0.206 F 
ATOM     68  C   UNL A   1      47.730  26.297  33.094  1.00  0.00     0.060 A 
BRANCH  68  69
ATOM     69  S   UNL A   1      49.147  25.264  33.520  1.00  0.00     0.124 S 
ATOM     70  O   UNL A   1      49.753  25.049  32.209  1.00  0.00    -0.237 OA
ATOM     71  O   UNL A   1      49.898  26.120  34.432  1.00  0.00    -0.237 OA
ATOM     72  O   UNL A   1      48.536  24.087  34.131  1.00  0.00    -0.744 OA
ENDBRANCH  68  69
ENDBRANCH  47  61
BRANCH  48  73
ATOM     73  C   UNL A   1      37.182  32.858  30.067  1.00  0.00     0.058 A 
ATOM     74  C   UNL A   1      36.039  32.629  30.847  1.00  0.00     0.135 A 
ATOM     75  C   UNL A   1      37.078  33.772  29.008  1.00  0.00     0.135 A 
ATOM     76  F   UNL A   1      36.088  31.760  31.867  1.00  0.00    -0.206 F 
ATOM     77  C   UNL A   1      34.830  33.260  30.572  1.00  0.00     0.059 A 
ATOM     78  C   UNL A   1      35.886  34.432  28.726  1.00  0.00     0.059 A 
ATOM     79  F   UNL A   1      38.149  34.041  28.245  1.00  0.00    -0.206 F 
ATOM     80  C   UNL A   1      34.762  34.156  29.505  1.00  0.00     0.060 A 
BRANCH  80  81
ATOM     81  S   UNL A   1      33.197  34.994  29.168  1.00  0.00     0.124 S 
ATOM     82  O   UNL A   1      33.658  36.301  28.715  1.00  0.00    -0.237 OA
ATOM     83  O   UNL A   1      32.599  34.138  28.149  1.00  0.00    -0.237 OA
ATOM     84  O   UNL A   1      32.524  34.973  30.464  1.00  0.00    -0.744 OA
ENDBRANCH  80  81
ENDBRANCH  48  73
BRANCH  60  85
ATOM     85  C   UNL A   1      42.721  34.306  34.052  1.00  0.00     0.058 A 
ATOM     86  C   UNL A   1      42.364  34.424  35.403  1.00  0.00     0.135 A 
ATOM     87  C   UNL A   1      43.559  35.286  33.499  1.00  0.00     0.135 A 
ATOM     88  F   UNL A   1      41.561  33.512  35.972  1.00  0.00    -0.206 F 
ATOM     89  C   UNL A   1      42.833  35.477  36.183  1.00  0.00     0.059 A 
ATOM     90  C   UNL A   1      44.051  36.337  34.264  1.00  0.00     0.059 A 
ATOM     91  F   UNL A   1      43.931  35.208  32.211  1.00  0.00    -0.206 F 
ATOM     92  C   UNL A   1      43.682  36.423  35.606  1.00  0.00     0.060 A 
BRANCH  92  93
ATOM     93  S   UNL A   1      44.355  37.736  36.648  1.00  0.00     0.124 S 
ATOM     94  O   UNL A   1      43.476  37.666  37.811  1.00  0.00    -0.237 OA
ATOM     95  O   UNL A   1      45.729  37.295  36.865  1.00  0.00    -0.237 OA
ATOM     96  O   UNL A   1      44.211  38.930  35.821  1.00  0.00    -0.744 OA
ENDBRANCH  92  93
ENDBRANCH  60  85
ENDBRANCH  34  35
ENDBRANCH  26  29
ENDBRANCH  24  25
ENDBRANCH   1  24
TORSDOF 17
ENDMDL
