MODEL 1
REMARK VINA RESULT:     -13.3      0.000      0.000
REMARK SMILES O=C(NCCCCNC(=O)[C@H](c1c[nH]c2ccc(Br)cc12)[N@H+]1CCC[C@H](c2nc3ccccc3s2)C1)c1ccc(-c2c3nc(c(-c4c(F)cc(S(=O)(=O)[O-])cc4F)c4ccc([nH]4)c(-c4c(F)cc(S(=O)(=O)[O-])cc4F)c4nc(c(-c5c(F)cc(S(=O)(=O)[O-])cc5F)c5ccc2[nH]5)C=C4)C=C3)cc1
REMARK SMILES IDX 5 1 4 2 3 3 1 4 2 5 37 7 38 8 102 9 39 10 101 11 40 12 41 13
REMARK SMILES IDX 42 14 95 15 43 16 100 17 94 18 96 19 44 20 99 21 93 22 92 23
REMARK SMILES IDX 45 25 79 26 58 27 78 28 59 29 62 30 77 31 97 32 60 33 61 34
REMARK SMILES IDX 76 36 98 37 63 38 46 39 47 40 56 41 48 42 49 43 55 44 57 45
REMARK SMILES IDX 50 46 51 47 52 48 53 49 54 50 80 51 81 52 90 53 82 54 83 55
REMARK SMILES IDX 89 56 91 57 84 58 85 59 86 60 87 61 88 62 64 63 65 64 74 65
REMARK SMILES IDX 66 66 67 67 73 68 75 69 68 70 69 71 70 72 71 73 72 74 6 75
REMARK SMILES IDX 7 76 8 77 9 78 10 80 11 81 22 82 23 83 36 84 24 86 26 87
REMARK SMILES IDX 25 88 27 89 28 90 35 91 29 92 34 93 30 94 33 95 31 96 32 97
REMARK SMILES IDX 12 98 13 99 21 100 14 101 15 102 20 103 16 105 18 106 17 107
REMARK SMILES IDX 19 108
REMARK H PARENT 3 6 96 24 62 35 8 79 22 85 14 104
REMARK Flexibility Score: inf
ROOT
ATOM      1  C   UNL A   1      37.513  23.629  25.676  1.00  0.00     0.023 C 
ENDROOT
BRANCH   1   2
ATOM      2  C   UNL A   1      38.545  24.098  26.689  1.00  0.00     0.116 C 
BRANCH   2   3
ATOM      3  N   UNL A   1      39.906  23.930  26.212  1.00  0.00    -0.352 N 
ATOM      4  O   UNL A   1      42.061  24.526  25.906  1.00  0.00    -0.269 OA
ATOM      5  C   UNL A   1      41.004  24.697  26.509  1.00  0.00     0.251 C 
ATOM      6  H   UNL A   1      40.060  23.174  25.601  1.00  0.00     0.163 HD
BRANCH   5   7
ATOM      7  C   UNL A   1      40.891  25.745  27.544  1.00  0.00     0.039 A 
ATOM      8  C   UNL A   1      39.961  25.619  28.580  1.00  0.00     0.014 A 
ATOM      9  C   UNL A   1      41.731  26.859  27.477  1.00  0.00     0.014 A 
ATOM     10  C   UNL A   1      39.809  26.650  29.500  1.00  0.00     0.010 A 
ATOM     11  C   UNL A   1      41.624  27.864  28.443  1.00  0.00     0.010 A 
ATOM     12  C   UNL A   1      40.659  27.767  29.457  1.00  0.00    -0.014 A 
BRANCH  12  13
ATOM     13  C   UNL A   1      40.617  28.752  30.562  1.00  0.00     0.031 A 
ATOM     14  C   UNL A   1      41.532  28.639  31.747  1.00  0.00     0.074 A 
ATOM     15  C   UNL A   1      39.713  29.750  30.481  1.00  0.00     0.049 A 
ATOM     16  N   UNL A   1      41.592  29.401  32.808  1.00  0.00    -0.248 NA
ATOM     17  C   UNL A   1      42.497  27.529  31.751  1.00  0.00     0.031 C 
ATOM     18  C   UNL A   1      38.757  29.929  29.383  1.00  0.00     0.029 A 
ATOM     19  N   UNL A   1      39.443  30.791  31.328  1.00  0.00    -0.354 N 
ATOM     20  C   UNL A   1      42.581  28.856  33.616  1.00  0.00     0.074 A 
ATOM     21  C   UNL A   1      43.093  27.691  32.927  1.00  0.00     0.031 C 
ATOM     22  C   UNL A   1      38.016  31.021  29.618  1.00  0.00     0.029 A 
ATOM     23  C   UNL A   1      38.404  31.585  30.905  1.00  0.00     0.049 A 
ATOM     24  H   UNL A   1      39.944  30.956  32.160  1.00  0.00     0.167 HD
ATOM     25  C   UNL A   1      43.016  29.297  34.821  1.00  0.00     0.037 A 
ATOM     26  C   UNL A   1      37.801  32.630  31.501  1.00  0.00     0.037 A 
ATOM     27  C   UNL A   1      42.513  30.477  35.478  1.00  0.00     0.049 A 
ATOM     28  C   UNL A   1      38.297  33.080  32.844  1.00  0.00     0.074 A 
ATOM     29  C   UNL A   1      42.956  31.059  36.653  1.00  0.00     0.029 A 
ATOM     30  N   UNL A   1      41.450  31.245  35.029  1.00  0.00    -0.354 N 
ATOM     31  N   UNL A   1      39.286  32.599  33.558  1.00  0.00    -0.248 NA
ATOM     32  C   UNL A   1      37.590  34.205  33.471  1.00  0.00     0.031 C 
ATOM     33  C   UNL A   1      42.130  32.151  36.940  1.00  0.00     0.029 A 
ATOM     34  C   UNL A   1      41.195  32.272  35.924  1.00  0.00     0.049 A 
ATOM     35  H   UNL A   1      40.949  31.085  34.195  1.00  0.00     0.167 HD
ATOM     36  C   UNL A   1      39.319  33.359  34.718  1.00  0.00     0.074 A 
ATOM     37  C   UNL A   1      38.271  34.352  34.598  1.00  0.00     0.031 C 
ATOM     38  C   UNL A   1      40.138  33.241  35.791  1.00  0.00     0.037 A 
BRANCH  25  39
ATOM     39  C   UNL A   1      44.083  28.510  35.529  1.00  0.00     0.058 A 
ATOM     40  C   UNL A   1      43.767  27.457  36.398  1.00  0.00     0.135 A 
ATOM     41  C   UNL A   1      45.438  28.742  35.242  1.00  0.00     0.135 A 
ATOM     42  F   UNL A   1      42.488  27.201  36.715  1.00  0.00    -0.206 F 
ATOM     43  C   UNL A   1      44.760  26.656  36.957  1.00  0.00     0.059 A 
ATOM     44  C   UNL A   1      46.446  27.944  35.776  1.00  0.00     0.059 A 
ATOM     45  F   UNL A   1      45.792  29.740  34.417  1.00  0.00    -0.206 F 
ATOM     46  C   UNL A   1      46.095  26.903  36.634  1.00  0.00     0.060 A 
BRANCH  46  47
ATOM     47  S   UNL A   1      47.366  25.820  37.325  1.00  0.00     0.124 S 
ATOM     48  O   UNL A   1      47.541  26.389  38.658  1.00  0.00    -0.237 OA
ATOM     49  O   UNL A   1      46.721  24.512  37.276  1.00  0.00    -0.237 OA
ATOM     50  O   UNL A   1      48.494  25.994  36.416  1.00  0.00    -0.744 OA
ENDBRANCH  46  47
ENDBRANCH  25  39
BRANCH  26  51
ATOM     51  C   UNL A   1      36.635  33.283  30.853  1.00  0.00     0.058 A 
ATOM     52  C   UNL A   1      35.334  33.087  31.332  1.00  0.00     0.135 A 
ATOM     53  C   UNL A   1      36.808  34.123  29.742  1.00  0.00     0.135 A 
ATOM     54  F   UNL A   1      35.120  32.291  32.391  1.00  0.00    -0.206 F 
ATOM     55  C   UNL A   1      34.237  33.684  30.719  1.00  0.00     0.059 A 
ATOM     56  C   UNL A   1      35.731  34.752  29.129  1.00  0.00     0.059 A 
ATOM     57  F   UNL A   1      38.038  34.357  29.259  1.00  0.00    -0.206 F 
ATOM     58  C   UNL A   1      34.447  34.513  29.615  1.00  0.00     0.060 A 
BRANCH  58  59
ATOM     59  S   UNL A   1      33.024  35.308  28.838  1.00  0.00     0.124 S 
ATOM     60  O   UNL A   1      33.650  36.449  28.183  1.00  0.00    -0.237 OA
ATOM     61  O   UNL A   1      32.525  34.259  27.954  1.00  0.00    -0.237 OA
ATOM     62  O   UNL A   1      32.160  35.623  29.972  1.00  0.00    -0.744 OA
ENDBRANCH  58  59
ENDBRANCH  26  51
BRANCH  38  63
ATOM     63  C   UNL A   1      39.922  34.204  36.922  1.00  0.00     0.058 A 
ATOM     64  C   UNL A   1      40.431  35.511  36.870  1.00  0.00     0.135 A 
ATOM     65  C   UNL A   1      39.167  33.833  38.045  1.00  0.00     0.135 A 
ATOM     66  F   UNL A   1      41.169  35.907  35.821  1.00  0.00    -0.206 F 
ATOM     67  C   UNL A   1      40.212  36.414  37.903  1.00  0.00     0.059 A 
ATOM     68  C   UNL A   1      38.916  34.728  39.079  1.00  0.00     0.059 A 
ATOM     69  F   UNL A   1      38.655  32.595  38.137  1.00  0.00    -0.206 F 
ATOM     70  C   UNL A   1      39.451  36.014  39.003  1.00  0.00     0.060 A 
BRANCH  70  71
ATOM     71  S   UNL A   1      39.141  37.208  40.321  1.00  0.00     0.124 S 
ATOM     72  O   UNL A   1      38.263  36.447  41.204  1.00  0.00    -0.237 OA
ATOM     73  O   UNL A   1      40.483  37.469  40.831  1.00  0.00    -0.237 OA
ATOM     74  O   UNL A   1      38.514  38.326  39.623  1.00  0.00    -0.744 OA
ENDBRANCH  70  71
ENDBRANCH  38  63
ENDBRANCH  12  13
ENDBRANCH   5   7
ENDBRANCH   2   3
ENDBRANCH   1   2
BRANCH   1  75
ATOM     75  C   UNL A   1      37.442  22.111  25.498  1.00  0.00     0.023 C 
BRANCH  75  76
ATOM     76  C   UNL A   1      36.777  21.650  24.198  1.00  0.00     0.116 C 
BRANCH  76  77
ATOM     77  N   UNL A   1      36.108  22.750  23.531  1.00  0.00    -0.351 N 
ATOM     78  C   UNL A   1      34.758  22.959  23.371  1.00  0.00     0.283 C 
ATOM     79  H   UNL A   1      36.695  23.436  23.141  1.00  0.00     0.163 HD
ATOM     80  O   UNL A   1      34.436  23.734  22.466  1.00  0.00    -0.268 OA
BRANCH  78  81
ATOM     81  C   UNL A   1      33.747  22.221  24.315  1.00  0.00     0.307 C 
BRANCH  81  82
ATOM     82  N   UNL A   1      32.823  23.103  25.095  1.00  0.00    -0.320 N 
ATOM     83  C   UNL A   1      31.674  22.455  25.722  1.00  0.00     0.263 C 
ATOM     84  C   UNL A   1      33.419  24.173  25.901  1.00  0.00     0.274 C 
ATOM     85  H   UNL A   1      32.419  23.618  24.313  1.00  0.00     0.349 HD
ATOM     86  C   UNL A   1      30.624  23.456  26.210  1.00  0.00     0.062 C 
ATOM     87  C   UNL A   1      32.410  25.217  26.436  1.00  0.00     0.104 C 
ATOM     88  C   UNL A   1      31.250  24.494  27.133  1.00  0.00     0.022 C 
BRANCH  87  89
ATOM     89  C   UNL A   1      31.929  26.164  25.353  1.00  0.00     0.103 A 
ATOM     90  N   UNL A   1      30.670  26.361  25.023  1.00  0.00    -0.241 NA
ATOM     91  S   UNL A   1      33.068  27.073  24.431  1.00  0.00    -0.118 S 
ATOM     92  C   UNL A   1      30.568  27.352  24.068  1.00  0.00     0.082 A 
ATOM     93  C   UNL A   1      31.781  27.883  23.628  1.00  0.00     0.055 A 
ATOM     94  C   UNL A   1      29.368  27.858  23.529  1.00  0.00     0.030 A 
ATOM     95  C   UNL A   1      31.836  28.915  22.677  1.00  0.00     0.021 A 
ATOM     96  C   UNL A   1      29.411  28.888  22.585  1.00  0.00     0.002 A 
ATOM     97  C   UNL A   1      30.631  29.411  22.169  1.00  0.00     0.002 A 
ENDBRANCH  87  89
ENDBRANCH  81  82
BRANCH  81  98
ATOM     98  C   UNL A   1      33.045  21.133  23.525  1.00  0.00     0.044 A 
ATOM     99  C   UNL A   1      32.156  21.309  22.478  1.00  0.00     0.094 A 
ATOM    100  C   UNL A   1      33.234  19.712  23.661  1.00  0.00     0.010 A 
ATOM    101  N   UNL A   1      31.794  20.082  21.998  1.00  0.00    -0.361 N 
ATOM    102  C   UNL A   1      32.462  19.091  22.677  1.00  0.00     0.046 A 
ATOM    103  C   UNL A   1      34.030  18.901  24.498  1.00  0.00     0.026 A 
ATOM    104  H   UNL A   1      31.149  19.929  21.271  1.00  0.00     0.166 HD
ATOM    105  C   UNL A   1      32.452  17.704  22.479  1.00  0.00     0.028 A 
ATOM    106  C   UNL A   1      34.047  17.517  24.293  1.00  0.00     0.018 A 
ATOM    107  C   UNL A   1      33.272  16.925  23.300  1.00  0.00     0.018 A 
ATOM    108  Br  UNL A   1      35.169  16.435  25.367  1.00  0.00    -0.051 Br
ENDBRANCH  81  98
ENDBRANCH  78  81
ENDBRANCH  76  77
ENDBRANCH  75  76
ENDBRANCH   1  75
TORSDOF 17
ENDMDL
MODEL 2
REMARK VINA RESULT:     -13.2      0.550      7.878
REMARK SMILES O=C(NCCCCNC(=O)[C@H](c1c[nH]c2ccc(Br)cc12)[N@H+]1CCC[C@H](c2nc3ccccc3s2)C1)c1ccc(-c2c3nc(c(-c4c(F)cc(S(=O)(=O)[O-])cc4F)c4ccc([nH]4)c(-c4c(F)cc(S(=O)(=O)[O-])cc4F)c4nc(c(-c5c(F)cc(S(=O)(=O)[O-])cc5F)c5ccc2[nH]5)C=C4)C=C3)cc1
REMARK SMILES IDX 5 1 4 2 3 3 1 4 2 5 37 7 38 8 102 9 39 10 101 11 40 12 41 13
REMARK SMILES IDX 42 14 95 15 43 16 100 17 94 18 96 19 44 20 99 21 93 22 92 23
REMARK SMILES IDX 45 25 79 26 58 27 78 28 59 29 62 30 77 31 97 32 60 33 61 34
REMARK SMILES IDX 76 36 98 37 63 38 46 39 47 40 56 41 48 42 49 43 55 44 57 45
REMARK SMILES IDX 50 46 51 47 52 48 53 49 54 50 80 51 81 52 90 53 82 54 83 55
REMARK SMILES IDX 89 56 91 57 84 58 85 59 86 60 87 61 88 62 64 63 65 64 74 65
REMARK SMILES IDX 66 66 67 67 73 68 75 69 68 70 69 71 70 72 71 73 72 74 6 75
REMARK SMILES IDX 7 76 8 77 9 78 10 80 11 81 22 82 23 83 36 84 24 86 26 87
REMARK SMILES IDX 25 88 27 89 28 90 35 91 29 92 34 93 30 94 33 95 31 96 32 97
REMARK SMILES IDX 12 98 13 99 21 100 14 101 15 102 20 103 16 105 18 106 17 107
REMARK SMILES IDX 19 108
REMARK H PARENT 3 6 96 24 62 35 8 79 22 85 14 104
REMARK Flexibility Score: inf
ROOT
ATOM      1  C   UNL A   1      37.453  23.707  25.832  1.00  0.00     0.023 C 
ENDROOT
BRANCH   1   2
ATOM      2  C   UNL A   1      38.592  24.230  26.693  1.00  0.00     0.116 C 
BRANCH   2   3
ATOM      3  N   UNL A   1      39.797  24.482  25.924  1.00  0.00    -0.352 N 
ATOM      4  O   UNL A   1      41.620  25.652  25.292  1.00  0.00    -0.269 OA
ATOM      5  C   UNL A   1      40.732  25.467  26.120  1.00  0.00     0.251 C 
ATOM      6  H   UNL A   1      39.964  23.872  25.169  1.00  0.00     0.163 HD
BRANCH   5   7
ATOM      7  C   UNL A   1      40.641  26.315  27.327  1.00  0.00     0.039 A 
ATOM      8  C   UNL A   1      41.391  27.490  27.423  1.00  0.00     0.014 A 
ATOM      9  C   UNL A   1      39.790  25.929  28.365  1.00  0.00     0.014 A 
ATOM     10  C   UNL A   1      41.358  28.237  28.595  1.00  0.00     0.010 A 
ATOM     11  C   UNL A   1      39.707  26.717  29.517  1.00  0.00     0.010 A 
ATOM     12  C   UNL A   1      40.494  27.872  29.640  1.00  0.00    -0.014 A 
BRANCH  12  13
ATOM     13  C   UNL A   1      40.323  28.788  30.792  1.00  0.00     0.031 A 
ATOM     14  C   UNL A   1      39.273  29.861  30.790  1.00  0.00     0.074 A 
ATOM     15  C   UNL A   1      41.157  28.641  31.841  1.00  0.00     0.049 A 
ATOM     16  N   UNL A   1      39.023  30.760  31.706  1.00  0.00    -0.248 NA
ATOM     17  C   UNL A   1      38.396  29.945  29.612  1.00  0.00     0.031 C 
ATOM     18  C   UNL A   1      42.232  27.646  31.926  1.00  0.00     0.029 A 
ATOM     19  N   UNL A   1      41.242  29.320  33.027  1.00  0.00    -0.354 N 
ATOM     20  C   UNL A   1      37.979  31.530  31.211  1.00  0.00     0.074 A 
ATOM     21  C   UNL A   1      37.644  30.998  29.908  1.00  0.00     0.031 C 
ATOM     22  C   UNL A   1      42.858  27.773  33.105  1.00  0.00     0.029 A 
ATOM     23  C   UNL A   1      42.268  28.889  33.833  1.00  0.00     0.049 A 
ATOM     24  H   UNL A   1      40.627  30.048  33.278  1.00  0.00     0.167 HD
ATOM     25  C   UNL A   1      37.362  32.583  31.801  1.00  0.00     0.037 A 
ATOM     26  C   UNL A   1      42.714  29.362  35.011  1.00  0.00     0.037 A 
ATOM     27  C   UNL A   1      37.692  33.080  33.113  1.00  0.00     0.049 A 
ATOM     28  C   UNL A   1      42.019  30.541  35.627  1.00  0.00     0.074 A 
ATOM     29  C   UNL A   1      37.060  34.078  33.836  1.00  0.00     0.029 A 
ATOM     30  N   UNL A   1      38.747  32.630  33.892  1.00  0.00    -0.354 N 
ATOM     31  N   UNL A   1      40.982  31.208  35.180  1.00  0.00    -0.248 NA
ATOM     32  C   UNL A   1      42.558  31.041  36.898  1.00  0.00     0.031 C 
ATOM     33  C   UNL A   1      37.764  34.266  35.030  1.00  0.00     0.029 A 
ATOM     34  C   UNL A   1      38.811  33.358  35.069  1.00  0.00     0.049 A 
ATOM     35  H   UNL A   1      39.361  31.901  33.644  1.00  0.00     0.167 HD
ATOM     36  C   UNL A   1      40.746  32.207  36.113  1.00  0.00     0.074 A 
ATOM     37  C   UNL A   1      41.728  32.040  37.164  1.00  0.00     0.031 C 
ATOM     38  C   UNL A   1      39.805  33.183  36.096  1.00  0.00     0.037 A 
BRANCH  25  39
ATOM     39  C   UNL A   1      36.271  33.288  31.046  1.00  0.00     0.058 A 
ATOM     40  C   UNL A   1      34.933  33.231  31.461  1.00  0.00     0.135 A 
ATOM     41  C   UNL A   1      36.587  34.123  29.962  1.00  0.00     0.135 A 
ATOM     42  F   UNL A   1      34.575  32.439  32.484  1.00  0.00    -0.206 F 
ATOM     43  C   UNL A   1      33.945  33.982  30.829  1.00  0.00     0.059 A 
ATOM     44  C   UNL A   1      35.620  34.895  29.326  1.00  0.00     0.059 A 
ATOM     45  F   UNL A   1      37.854  34.210  29.525  1.00  0.00    -0.206 F 
ATOM     46  C   UNL A   1      34.300  34.816  29.767  1.00  0.00     0.060 A 
BRANCH  46  47
ATOM     47  S   UNL A   1      33.016  35.825  28.995  1.00  0.00     0.124 S 
ATOM     48  O   UNL A   1      32.354  34.847  28.136  1.00  0.00    -0.237 OA
ATOM     49  O   UNL A   1      32.242  36.281  30.145  1.00  0.00    -0.237 OA
ATOM     50  O   UNL A   1      33.769  36.863  28.299  1.00  0.00    -0.744 OA
ENDBRANCH  46  47
ENDBRANCH  25  39
BRANCH  26  51
ATOM     51  C   UNL A   1      43.905  28.750  35.654  1.00  0.00     0.058 A 
ATOM     52  C   UNL A   1      45.201  29.177  35.338  1.00  0.00     0.135 A 
ATOM     53  C   UNL A   1      43.763  27.726  36.604  1.00  0.00     0.135 A 
ATOM     54  F   UNL A   1      45.385  30.151  34.434  1.00  0.00    -0.206 F 
ATOM     55  C   UNL A   1      46.320  28.596  35.926  1.00  0.00     0.059 A 
ATOM     56  C   UNL A   1      44.864  27.149  37.225  1.00  0.00     0.059 A 
ATOM     57  F   UNL A   1      42.540  27.297  36.954  1.00  0.00    -0.206 F 
ATOM     58  C   UNL A   1      46.139  27.579  36.867  1.00  0.00     0.060 A 
BRANCH  58  59
ATOM     59  S   UNL A   1      47.593  26.846  37.647  1.00  0.00     0.124 S 
ATOM     60  O   UNL A   1      47.168  26.769  39.039  1.00  0.00    -0.237 OA
ATOM     61  O   UNL A   1      47.715  25.572  36.945  1.00  0.00    -0.237 OA
ATOM     62  O   UNL A   1      48.649  27.814  37.359  1.00  0.00    -0.744 OA
ENDBRANCH  58  59
ENDBRANCH  26  51
BRANCH  38  63
ATOM     63  C   UNL A   1      39.805  34.148  37.246  1.00  0.00     0.058 A 
ATOM     64  C   UNL A   1      39.074  33.885  38.414  1.00  0.00     0.135 A 
ATOM     65  C   UNL A   1      40.574  35.321  37.197  1.00  0.00     0.135 A 
ATOM     66  F   UNL A   1      38.315  32.781  38.502  1.00  0.00    -0.206 F 
ATOM     67  C   UNL A   1      39.091  34.763  39.492  1.00  0.00     0.059 A 
ATOM     68  C   UNL A   1      40.624  36.202  38.272  1.00  0.00     0.059 A 
ATOM     69  F   UNL A   1      41.294  35.612  36.103  1.00  0.00    -0.206 F 
ATOM     70  C   UNL A   1      39.870  35.918  39.412  1.00  0.00     0.060 A 
BRANCH  70  71
ATOM     71  S   UNL A   1      39.915  37.032  40.832  1.00  0.00     0.124 S 
ATOM     72  O   UNL A   1      41.174  37.737  40.612  1.00  0.00    -0.237 OA
ATOM     73  O   UNL A   1      38.704  37.824  40.649  1.00  0.00    -0.237 OA
ATOM     74  O   UNL A   1      39.895  36.123  41.974  1.00  0.00    -0.744 OA
ENDBRANCH  70  71
ENDBRANCH  38  63
ENDBRANCH  12  13
ENDBRANCH   5   7
ENDBRANCH   2   3
ENDBRANCH   1   2
BRANCH   1  75
ATOM     75  C   UNL A   1      37.447  22.189  25.638  1.00  0.00     0.023 C 
BRANCH  75  76
ATOM     76  C   UNL A   1      36.731  21.710  24.372  1.00  0.00     0.116 C 
BRANCH  76  77
ATOM     77  N   UNL A   1      36.099  22.812  23.675  1.00  0.00    -0.351 N 
ATOM     78  C   UNL A   1      34.759  23.029  23.457  1.00  0.00     0.283 C 
ATOM     79  H   UNL A   1      36.707  23.494  23.311  1.00  0.00     0.163 HD
ATOM     80  O   UNL A   1      34.481  23.805  22.537  1.00  0.00    -0.268 OA
BRANCH  78  81
ATOM     81  C   UNL A   1      33.703  22.300  24.357  1.00  0.00     0.307 C 
BRANCH  81  82
ATOM     82  N   UNL A   1      32.771  23.189  25.118  1.00  0.00    -0.320 N 
ATOM     83  C   UNL A   1      31.624  22.546  25.753  1.00  0.00     0.263 C 
ATOM     84  C   UNL A   1      33.357  24.279  25.905  1.00  0.00     0.274 C 
ATOM     85  H   UNL A   1      32.366  23.687  24.325  1.00  0.00     0.349 HD
ATOM     86  C   UNL A   1      30.566  23.548  26.219  1.00  0.00     0.062 C 
ATOM     87  C   UNL A   1      32.340  25.325  26.418  1.00  0.00     0.104 C 
ATOM     88  C   UNL A   1      31.182  24.607  27.125  1.00  0.00     0.022 C 
BRANCH  87  89
ATOM     89  C   UNL A   1      31.855  26.249  25.316  1.00  0.00     0.103 A 
ATOM     90  N   UNL A   1      30.596  26.434  24.982  1.00  0.00    -0.241 NA
ATOM     91  S   UNL A   1      32.991  27.144  24.378  1.00  0.00    -0.118 S 
ATOM     92  C   UNL A   1      30.491  27.406  24.007  1.00  0.00     0.082 A 
ATOM     93  C   UNL A   1      31.701  27.933  23.559  1.00  0.00     0.055 A 
ATOM     94  C   UNL A   1      29.289  27.896  23.458  1.00  0.00     0.030 A 
ATOM     95  C   UNL A   1      31.753  28.946  22.588  1.00  0.00     0.021 A 
ATOM     96  C   UNL A   1      29.328  28.907  22.494  1.00  0.00     0.002 A 
ATOM     97  C   UNL A   1      30.546  29.427  22.069  1.00  0.00     0.002 A 
ENDBRANCH  87  89
ENDBRANCH  81  82
BRANCH  81  98
ATOM     98  C   UNL A   1      33.007  21.236  23.530  1.00  0.00     0.044 A 
ATOM     99  C   UNL A   1      32.129  21.443  22.479  1.00  0.00     0.094 A 
ATOM    100  C   UNL A   1      33.191  19.811  23.627  1.00  0.00     0.010 A 
ATOM    101  N   UNL A   1      31.770  20.231  21.960  1.00  0.00    -0.361 N 
ATOM    102  C   UNL A   1      32.429  19.220  22.619  1.00  0.00     0.046 A 
ATOM    103  C   UNL A   1      33.977  18.975  24.450  1.00  0.00     0.026 A 
ATOM    104  H   UNL A   1      31.132  20.100  21.223  1.00  0.00     0.166 HD
ATOM    105  C   UNL A   1      32.417  17.839  22.382  1.00  0.00     0.028 A 
ATOM    106  C   UNL A   1      33.993  17.598  24.207  1.00  0.00     0.018 A 
ATOM    107  C   UNL A   1      33.227  17.035  23.190  1.00  0.00     0.018 A 
ATOM    108  Br  UNL A   1      35.101  16.483  25.262  1.00  0.00    -0.051 Br
ENDBRANCH  81  98
ENDBRANCH  78  81
ENDBRANCH  76  77
ENDBRANCH  75  76
ENDBRANCH   1  75
TORSDOF 17
ENDMDL
MODEL 3
REMARK VINA RESULT:     -12.6      6.370     11.877
REMARK SMILES O=C(NCCCCNC(=O)[C@H](c1c[nH]c2ccc(Br)cc12)[N@H+]1CCC[C@H](c2nc3ccccc3s2)C1)c1ccc(-c2c3nc(c(-c4c(F)cc(S(=O)(=O)[O-])cc4F)c4ccc([nH]4)c(-c4c(F)cc(S(=O)(=O)[O-])cc4F)c4nc(c(-c5c(F)cc(S(=O)(=O)[O-])cc5F)c5ccc2[nH]5)C=C4)C=C3)cc1
REMARK SMILES IDX 5 1 4 2 3 3 1 4 2 5 37 7 38 8 102 9 39 10 101 11 40 12 41 13
REMARK SMILES IDX 42 14 95 15 43 16 100 17 94 18 96 19 44 20 99 21 93 22 92 23
REMARK SMILES IDX 45 25 79 26 58 27 78 28 59 29 62 30 77 31 97 32 60 33 61 34
REMARK SMILES IDX 76 36 98 37 63 38 46 39 47 40 56 41 48 42 49 43 55 44 57 45
REMARK SMILES IDX 50 46 51 47 52 48 53 49 54 50 80 51 81 52 90 53 82 54 83 55
REMARK SMILES IDX 89 56 91 57 84 58 85 59 86 60 87 61 88 62 64 63 65 64 74 65
REMARK SMILES IDX 66 66 67 67 73 68 75 69 68 70 69 71 70 72 71 73 72 74 6 75
REMARK SMILES IDX 7 76 8 77 9 78 10 80 11 81 22 82 23 83 36 84 24 86 26 87
REMARK SMILES IDX 25 88 27 89 28 90 35 91 29 92 34 93 30 94 33 95 31 96 32 97
REMARK SMILES IDX 12 98 13 99 21 100 14 101 15 102 20 103 16 105 18 106 17 107
REMARK SMILES IDX 19 108
REMARK H PARENT 3 6 96 24 62 35 8 79 22 85 14 104
REMARK Flexibility Score: inf
ROOT
ATOM      1  C   UNL A   1      34.311  30.116  27.158  1.00  0.00     0.023 C 
ENDROOT
BRANCH   1   2
ATOM      2  C   UNL A   1      35.565  29.868  27.981  1.00  0.00     0.116 C 
BRANCH   2   3
ATOM      3  N   UNL A   1      35.385  30.206  29.381  1.00  0.00    -0.352 N 
ATOM      4  O   UNL A   1      35.981  30.331  31.554  1.00  0.00    -0.269 OA
ATOM      5  C   UNL A   1      36.320  30.165  30.386  1.00  0.00     0.251 C 
ATOM      6  H   UNL A   1      34.483  30.500  29.643  1.00  0.00     0.163 HD
BRANCH   5   7
ATOM      7  C   UNL A   1      37.732  29.895  30.044  1.00  0.00     0.039 A 
ATOM      8  C   UNL A   1      38.639  29.514  31.037  1.00  0.00     0.014 A 
ATOM      9  C   UNL A   1      38.145  30.020  28.715  1.00  0.00     0.014 A 
ATOM     10  C   UNL A   1      39.981  29.342  30.716  1.00  0.00     0.010 A 
ATOM     11  C   UNL A   1      39.481  29.780  28.383  1.00  0.00     0.010 A 
ATOM     12  C   UNL A   1      40.407  29.445  29.383  1.00  0.00    -0.014 A 
BRANCH  12  13
ATOM     13  C   UNL A   1      41.795  29.060  29.033  1.00  0.00     0.031 A 
ATOM     14  C   UNL A   1      42.911  30.062  29.041  1.00  0.00     0.074 A 
ATOM     15  C   UNL A   1      42.022  27.777  28.686  1.00  0.00     0.049 A 
ATOM     16  N   UNL A   1      44.168  29.887  28.727  1.00  0.00    -0.248 NA
ATOM     17  C   UNL A   1      42.580  31.438  29.445  1.00  0.00     0.031 C 
ATOM     18  C   UNL A   1      40.996  26.731  28.617  1.00  0.00     0.029 A 
ATOM     19  N   UNL A   1      43.174  27.133  28.322  1.00  0.00    -0.354 N 
ATOM     20  C   UNL A   1      44.776  31.128  28.871  1.00  0.00     0.074 A 
ATOM     21  C   UNL A   1      43.747  32.054  29.296  1.00  0.00     0.031 C 
ATOM     22  C   UNL A   1      41.567  25.575  28.248  1.00  0.00     0.029 A 
ATOM     23  C   UNL A   1      42.984  25.810  28.000  1.00  0.00     0.049 A 
ATOM     24  H   UNL A   1      44.054  27.574  28.293  1.00  0.00     0.167 HD
ATOM     25  C   UNL A   1      46.075  31.453  28.668  1.00  0.00     0.037 A 
ATOM     26  C   UNL A   1      43.844  24.893  27.520  1.00  0.00     0.037 A 
ATOM     27  C   UNL A   1      47.091  30.510  28.272  1.00  0.00     0.049 A 
ATOM     28  C   UNL A   1      45.272  25.293  27.289  1.00  0.00     0.074 A 
ATOM     29  C   UNL A   1      48.452  30.723  28.135  1.00  0.00     0.029 A 
ATOM     30  N   UNL A   1      46.858  29.184  27.938  1.00  0.00    -0.354 N 
ATOM     31  N   UNL A   1      45.845  26.453  27.506  1.00  0.00    -0.248 NA
ATOM     32  C   UNL A   1      46.168  24.268  26.737  1.00  0.00     0.031 C 
ATOM     33  C   UNL A   1      49.035  29.539  27.670  1.00  0.00     0.029 A 
ATOM     34  C   UNL A   1      48.043  28.578  27.555  1.00  0.00     0.049 A 
ATOM     35  H   UNL A   1      45.980  28.740  27.969  1.00  0.00     0.167 HD
ATOM     36  C   UNL A   1      47.168  26.298  27.115  1.00  0.00     0.074 A 
ATOM     37  C   UNL A   1      47.318  24.926  26.676  1.00  0.00     0.031 C 
ATOM     38  C   UNL A   1      48.167  27.214  27.110  1.00  0.00     0.037 A 
BRANCH  25  39
ATOM     39  C   UNL A   1      46.493  32.884  28.854  1.00  0.00     0.058 A 
ATOM     40  C   UNL A   1      46.445  33.809  27.802  1.00  0.00     0.135 A 
ATOM     41  C   UNL A   1      46.835  33.360  30.131  1.00  0.00     0.135 A 
ATOM     42  F   UNL A   1      46.136  33.405  26.560  1.00  0.00    -0.206 F 
ATOM     43  C   UNL A   1      46.719  35.159  28.009  1.00  0.00     0.059 A 
ATOM     44  C   UNL A   1      47.096  34.706  30.365  1.00  0.00     0.059 A 
ATOM     45  F   UNL A   1      46.896  32.513  31.171  1.00  0.00    -0.206 F 
ATOM     46  C   UNL A   1      47.036  35.598  29.296  1.00  0.00     0.060 A 
BRANCH  46  47
ATOM     47  S   UNL A   1      47.334  37.361  29.558  1.00  0.00     0.124 S 
ATOM     48  O   UNL A   1      47.797  37.376  30.942  1.00  0.00    -0.237 OA
ATOM     49  O   UNL A   1      48.347  37.660  28.550  1.00  0.00    -0.237 OA
ATOM     50  O   UNL A   1      46.027  37.966  29.327  1.00  0.00    -0.744 OA
ENDBRANCH  46  47
ENDBRANCH  25  39
BRANCH  26  51
ATOM     51  C   UNL A   1      43.363  23.530  27.183  1.00  0.00     0.058 A 
ATOM     52  C   UNL A   1      43.119  22.577  28.181  1.00  0.00     0.135 A 
ATOM     53  C   UNL A   1      43.131  23.158  25.849  1.00  0.00     0.135 A 
ATOM     54  F   UNL A   1      43.328  22.887  29.470  1.00  0.00    -0.206 F 
ATOM     55  C   UNL A   1      42.683  21.294  27.869  1.00  0.00     0.059 A 
ATOM     56  C   UNL A   1      42.670  21.891  25.514  1.00  0.00     0.059 A 
ATOM     57  F   UNL A   1      43.332  24.043  24.860  1.00  0.00    -0.206 F 
ATOM     58  C   UNL A   1      42.464  20.960  26.530  1.00  0.00     0.060 A 
BRANCH  58  59
ATOM     59  S   UNL A   1      41.872  19.302  26.131  1.00  0.00     0.124 S 
ATOM     60  O   UNL A   1      42.657  18.992  24.942  1.00  0.00    -0.237 OA
ATOM     61  O   UNL A   1      42.213  18.551  27.335  1.00  0.00    -0.237 OA
ATOM     62  O   UNL A   1      40.442  19.503  25.912  1.00  0.00    -0.744 OA
ENDBRANCH  58  59
ENDBRANCH  26  51
BRANCH  38  63
ATOM     63  C   UNL A   1      49.505  26.758  26.605  1.00  0.00     0.058 A 
ATOM     64  C   UNL A   1      50.419  26.113  27.452  1.00  0.00     0.135 A 
ATOM     65  C   UNL A   1      49.858  26.928  25.258  1.00  0.00     0.135 A 
ATOM     66  F   UNL A   1      50.130  25.939  28.751  1.00  0.00    -0.206 F 
ATOM     67  C   UNL A   1      51.649  25.667  26.983  1.00  0.00     0.059 A 
ATOM     68  C   UNL A   1      51.074  26.468  24.762  1.00  0.00     0.059 A 
ATOM     69  F   UNL A   1      49.014  27.534  24.408  1.00  0.00    -0.206 F 
ATOM     70  C   UNL A   1      51.967  25.848  25.635  1.00  0.00     0.060 A 
BRANCH  70  71
ATOM     71  S   UNL A   1      53.551  25.229  25.029  1.00  0.00     0.124 S 
ATOM     72  O   UNL A   1      54.492  25.951  25.880  1.00  0.00    -0.237 OA
ATOM     73  O   UNL A   1      53.444  23.795  25.277  1.00  0.00    -0.237 OA
ATOM     74  O   UNL A   1      53.550  25.618  23.622  1.00  0.00    -0.744 OA
ENDBRANCH  70  71
ENDBRANCH  38  63
ENDBRANCH  12  13
ENDBRANCH   5   7
ENDBRANCH   2   3
ENDBRANCH   1   2
BRANCH   1  75
ATOM     75  C   UNL A   1      33.638  28.849  26.626  1.00  0.00     0.023 C 
BRANCH  75  76
ATOM     76  C   UNL A   1      32.197  28.644  27.101  1.00  0.00     0.116 C 
BRANCH  76  77
ATOM     77  N   UNL A   1      31.858  27.235  27.160  1.00  0.00    -0.351 N 
ATOM     78  C   UNL A   1      31.237  26.465  26.205  1.00  0.00     0.283 C 
ATOM     79  H   UNL A   1      32.104  26.769  27.990  1.00  0.00     0.163 HD
ATOM     80  O   UNL A   1      30.719  25.419  26.609  1.00  0.00    -0.268 OA
BRANCH  78  81
ATOM     81  C   UNL A   1      31.222  26.949  24.714  1.00  0.00     0.307 C 
BRANCH  81  82
ATOM     82  N   UNL A   1      32.107  26.192  23.775  1.00  0.00    -0.320 N 
ATOM     83  C   UNL A   1      31.820  26.330  22.350  1.00  0.00     0.263 C 
ATOM     84  C   UNL A   1      33.537  26.121  24.093  1.00  0.00     0.274 C 
ATOM     85  H   UNL A   1      31.786  25.250  24.001  1.00  0.00     0.349 HD
ATOM     86  C   UNL A   1      32.545  25.287  21.497  1.00  0.00     0.062 C 
ATOM     87  C   UNL A   1      34.334  25.091  23.258  1.00  0.00     0.104 C 
ATOM     88  C   UNL A   1      34.044  25.309  21.766  1.00  0.00     0.022 C 
BRANCH  87  89
ATOM     89  C   UNL A   1      34.064  23.662  23.692  1.00  0.00     0.103 A 
ATOM     90  N   UNL A   1      33.037  22.934  23.308  1.00  0.00    -0.241 NA
ATOM     91  S   UNL A   1      35.139  22.874  24.786  1.00  0.00    -0.118 S 
ATOM     92  C   UNL A   1      33.137  21.652  23.808  1.00  0.00     0.082 A 
ATOM     93  C   UNL A   1      34.240  21.417  24.629  1.00  0.00     0.055 A 
ATOM     94  C   UNL A   1      32.243  20.594  23.550  1.00  0.00     0.030 A 
ATOM     95  C   UNL A   1      34.489  20.154  25.192  1.00  0.00     0.021 A 
ATOM     96  C   UNL A   1      32.482  19.332  24.100  1.00  0.00     0.002 A 
ATOM     97  C   UNL A   1      33.594  19.116  24.907  1.00  0.00     0.002 A 
ENDBRANCH  87  89
ENDBRANCH  81  82
BRANCH  81  98
ATOM     98  C   UNL A   1      29.782  27.063  24.251  1.00  0.00     0.044 A 
ATOM     99  C   UNL A   1      28.812  26.075  24.301  1.00  0.00     0.094 A 
ATOM    100  C   UNL A   1      29.129  28.244  23.750  1.00  0.00     0.010 A 
ATOM    101  N   UNL A   1      27.633  26.592  23.845  1.00  0.00    -0.361 N 
ATOM    102  C   UNL A   1      27.787  27.922  23.534  1.00  0.00     0.046 A 
ATOM    103  C   UNL A   1      29.546  29.571  23.508  1.00  0.00     0.026 A 
ATOM    104  H   UNL A   1      26.794  26.086  23.752  1.00  0.00     0.166 HD
ATOM    105  C   UNL A   1      26.840  28.857  23.099  1.00  0.00     0.028 A 
ATOM    106  C   UNL A   1      28.603  30.519  23.098  1.00  0.00     0.018 A 
ATOM    107  C   UNL A   1      27.270  30.172  22.896  1.00  0.00     0.018 A 
ATOM    108  Br  UNL A   1      29.145  32.315  22.842  1.00  0.00    -0.051 Br
ENDBRANCH  81  98
ENDBRANCH  78  81
ENDBRANCH  76  77
ENDBRANCH  75  76
ENDBRANCH   1  75
TORSDOF 17
ENDMDL
