MODEL 1
REMARK VINA RESULT:     -10.4      0.000      0.000
REMARK SMILES CCN(CCC(=O)NCCCCNC(=O)c1ccc(-c2c3nc(c(-c4c(F)cc(S(=O)(=O)[O-])cc4F)c4ccc([nH]4)c(-c4c(F)cc(S(=O)(=O)[O-])cc4F)c4nc(c(-c5c(F)cc(S(=O)(=O)[O-])cc5F)c5ccc2[nH]5)C=C4)C=C3)cc1)C(=O)c1cc(Cl)ccc1F
REMARK SMILES IDX 10 1 9 2 8 3 6 4 7 5 5 7 4 8 3 9 2 10 1 11 82 12 83 13 84 14
REMARK SMILES IDX 85 15 90 16 86 17 89 18 91 19 87 20 88 21 11 22 12 23 13 24
REMARK SMILES IDX 14 25 15 27 16 28 17 29 81 30 18 31 80 32 19 33 20 34 21 35
REMARK SMILES IDX 74 36 22 37 79 38 73 39 75 40 23 41 78 42 72 43 71 44 24 46
REMARK SMILES IDX 58 47 37 48 57 49 38 50 41 51 56 52 76 53 39 54 40 55 55 57
REMARK SMILES IDX 77 58 42 59 25 60 26 61 35 62 27 63 28 64 34 65 36 66 29 67
REMARK SMILES IDX 30 68 31 69 32 70 33 71 59 72 60 73 69 74 61 75 62 76 68 77
REMARK SMILES IDX 70 78 63 79 64 80 65 81 66 82 67 83 43 84 44 85 53 86 45 87
REMARK SMILES IDX 46 88 52 89 54 90 47 91 48 92 49 93 50 94 51 95
REMARK H PARENT 8 6 13 26 75 45 41 56
REMARK Flexibility Score: inf
ROOT
ATOM      1  C   UNL A   1      33.174  29.084  24.751  1.00  0.00     0.023 C 
ENDROOT
BRANCH   1   2
ATOM      2  C   UNL A   1      32.544  28.374  23.562  1.00  0.00     0.116 C 
BRANCH   2   3
ATOM      3  N   UNL A   1      33.421  27.361  23.002  1.00  0.00    -0.356 N 
ATOM      4  C   UNL A   1      33.181  26.039  22.779  1.00  0.00     0.221 C 
ATOM      5  O   UNL A   1      34.049  25.370  22.216  1.00  0.00    -0.275 OA
ATOM      6  H   UNL A   1      34.318  27.676  22.746  1.00  0.00     0.163 HD
BRANCH   4   7
ATOM      7  C   UNL A   1      31.869  25.417  23.193  1.00  0.00     0.121 C 
BRANCH   7   8
ATOM      8  C   UNL A   1      31.930  24.656  24.514  1.00  0.00     0.129 C 
BRANCH   8   9
ATOM      9  N   UNL A   1      32.349  23.251  24.449  1.00  0.00    -0.338 N 
BRANCH   9  10
ATOM     10  C   UNL A   1      31.970  22.576  23.187  1.00  0.00     0.116 C 
ATOM     11  C   UNL A   1      32.224  21.089  22.996  1.00  0.00     0.027 C 
ENDBRANCH   9  10
BRANCH   9  12
ATOM     12  C   UNL A   1      33.184  22.625  25.400  1.00  0.00     0.256 C 
ATOM     13  O   UNL A   1      32.747  22.210  26.475  1.00  0.00    -0.269 OA
BRANCH  12  14
ATOM     14  C   UNL A   1      34.681  22.671  25.304  1.00  0.00     0.077 A 
ATOM     15  C   UNL A   1      35.314  21.431  25.067  1.00  0.00     0.037 A 
ATOM     16  C   UNL A   1      35.501  23.790  25.409  1.00  0.00     0.136 A 
ATOM     17  C   UNL A   1      36.707  21.317  25.059  1.00  0.00     0.042 A 
ATOM     18  C   UNL A   1      36.896  23.671  25.452  1.00  0.00     0.041 A 
ATOM     19  F   UNL A   1      35.015  25.034  25.401  1.00  0.00    -0.206 F 
ATOM     20  Cl  UNL A   1      37.443  19.786  24.795  1.00  0.00    -0.084 Cl
ATOM     21  C   UNL A   1      37.504  22.430  25.291  1.00  0.00     0.023 A 
ENDBRANCH  12  14
ENDBRANCH   9  12
ENDBRANCH   8   9
ENDBRANCH   7   8
ENDBRANCH   4   7
ENDBRANCH   2   3
ENDBRANCH   1   2
BRANCH   1  22
ATOM     22  C   UNL A   1      33.884  28.174  25.742  1.00  0.00     0.023 C 
BRANCH  22  23
ATOM     23  C   UNL A   1      33.488  28.393  27.189  1.00  0.00     0.116 C 
BRANCH  23  24
ATOM     24  N   UNL A   1      33.432  29.798  27.568  1.00  0.00    -0.352 N 
ATOM     25  C   UNL A   1      34.413  30.594  28.107  1.00  0.00     0.251 C 
ATOM     26  H   UNL A   1      32.566  30.241  27.419  1.00  0.00     0.163 HD
ATOM     27  O   UNL A   1      34.147  31.741  28.454  1.00  0.00    -0.269 OA
BRANCH  25  28
ATOM     28  C   UNL A   1      35.771  30.043  28.302  1.00  0.00     0.039 A 
ATOM     29  C   UNL A   1      36.696  30.134  27.261  1.00  0.00     0.014 A 
ATOM     30  C   UNL A   1      36.145  29.491  29.528  1.00  0.00     0.014 A 
ATOM     31  C   UNL A   1      38.018  29.743  27.481  1.00  0.00     0.010 A 
ATOM     32  C   UNL A   1      37.480  29.221  29.781  1.00  0.00     0.010 A 
ATOM     33  C   UNL A   1      38.431  29.327  28.757  1.00  0.00    -0.014 A 
BRANCH  33  34
ATOM     34  C   UNL A   1      39.841  28.964  29.045  1.00  0.00     0.031 A 
ATOM     35  C   UNL A   1      40.767  29.997  29.633  1.00  0.00     0.074 A 
ATOM     36  C   UNL A   1      40.305  27.745  28.705  1.00  0.00     0.049 A 
ATOM     37  N   UNL A   1      42.056  29.930  29.837  1.00  0.00    -0.248 NA
ATOM     38  C   UNL A   1      40.171  31.296  29.994  1.00  0.00     0.031 C 
ATOM     39  C   UNL A   1      39.524  26.684  28.062  1.00  0.00     0.029 A 
ATOM     40  N   UNL A   1      41.555  27.195  28.842  1.00  0.00    -0.354 N 
ATOM     41  C   UNL A   1      42.424  31.179  30.328  1.00  0.00     0.074 A 
ATOM     42  C   UNL A   1      41.241  32.007  30.315  1.00  0.00     0.031 C 
ATOM     43  C   UNL A   1      40.305  25.606  27.884  1.00  0.00     0.029 A 
ATOM     44  C   UNL A   1      41.649  25.908  28.363  1.00  0.00     0.049 A 
ATOM     45  H   UNL A   1      42.313  27.676  29.246  1.00  0.00     0.167 HD
ATOM     46  C   UNL A   1      43.630  31.587  30.786  1.00  0.00     0.037 A 
ATOM     47  C   UNL A   1      42.704  25.072  28.311  1.00  0.00     0.037 A 
ATOM     48  C   UNL A   1      44.791  30.741  30.842  1.00  0.00     0.049 A 
ATOM     49  C   UNL A   1      44.026  25.535  28.862  1.00  0.00     0.074 A 
ATOM     50  C   UNL A   1      46.050  31.037  31.332  1.00  0.00     0.029 A 
ATOM     51  N   UNL A   1      44.828  29.424  30.409  1.00  0.00    -0.354 N 
ATOM     52  N   UNL A   1      44.343  26.704  29.368  1.00  0.00    -0.248 NA
ATOM     53  C   UNL A   1      45.129  24.565  28.850  1.00  0.00     0.031 C 
ATOM     54  C   UNL A   1      46.857  29.906  31.171  1.00  0.00     0.029 A 
ATOM     55  C   UNL A   1      46.088  28.892  30.619  1.00  0.00     0.049 A 
ATOM     56  H   UNL A   1      44.070  28.939  30.009  1.00  0.00     0.167 HD
ATOM     57  C   UNL A   1      45.675  26.602  29.753  1.00  0.00     0.074 A 
ATOM     58  C   UNL A   1      46.098  25.251  29.439  1.00  0.00     0.031 C 
ATOM     59  C   UNL A   1      46.479  27.540  30.313  1.00  0.00     0.037 A 
BRANCH  46  60
ATOM     60  C   UNL A   1      43.739  32.999  31.294  1.00  0.00     0.058 A 
ATOM     61  C   UNL A   1      44.030  34.066  30.428  1.00  0.00     0.135 A 
ATOM     62  C   UNL A   1      43.530  33.295  32.650  1.00  0.00     0.135 A 
ATOM     63  F   UNL A   1      44.259  33.837  29.124  1.00  0.00    -0.206 F 
ATOM     64  C   UNL A   1      44.142  35.371  30.893  1.00  0.00     0.059 A 
ATOM     65  C   UNL A   1      43.607  34.600  33.131  1.00  0.00     0.059 A 
ATOM     66  F   UNL A   1      43.253  32.314  33.522  1.00  0.00    -0.206 F 
ATOM     67  C   UNL A   1      43.929  35.628  32.248  1.00  0.00     0.060 A 
BRANCH  67  68
ATOM     68  S   UNL A   1      44.069  37.330  32.831  1.00  0.00     0.124 S 
ATOM     69  O   UNL A   1      42.912  37.430  33.718  1.00  0.00    -0.237 OA
ATOM     70  O   UNL A   1      45.372  37.329  33.490  1.00  0.00    -0.237 OA
ATOM     71  O   UNL A   1      43.990  38.118  31.606  1.00  0.00    -0.744 OA
ENDBRANCH  67  68
ENDBRANCH  46  60
BRANCH  47  72
ATOM     72  C   UNL A   1      42.550  23.709  27.734  1.00  0.00     0.058 A 
ATOM     73  C   UNL A   1      42.350  22.593  28.560  1.00  0.00     0.135 A 
ATOM     74  C   UNL A   1      42.598  23.495  26.349  1.00  0.00     0.135 A 
ATOM     75  F   UNL A   1      42.298  22.746  29.893  1.00  0.00    -0.206 F 
ATOM     76  C   UNL A   1      42.232  21.309  28.037  1.00  0.00     0.059 A 
ATOM     77  C   UNL A   1      42.456  22.223  25.799  1.00  0.00     0.059 A 
ATOM     78  F   UNL A   1      42.767  24.530  25.512  1.00  0.00    -0.206 F 
ATOM     79  C   UNL A   1      42.289  21.134  26.654  1.00  0.00     0.060 A 
BRANCH  79  80
ATOM     80  S   UNL A   1      42.110  19.467  25.983  1.00  0.00     0.124 S 
ATOM     81  O   UNL A   1      42.655  18.656  27.066  1.00  0.00    -0.237 OA
ATOM     82  O   UNL A   1      40.669  19.371  25.776  1.00  0.00    -0.237 OA
ATOM     83  O   UNL A   1      42.910  19.510  24.762  1.00  0.00    -0.744 OA
ENDBRANCH  79  80
ENDBRANCH  47  72
BRANCH  59  84
ATOM     84  C   UNL A   1      47.883  27.130  30.657  1.00  0.00     0.058 A 
ATOM     85  C   UNL A   1      48.918  27.184  29.711  1.00  0.00     0.135 A 
ATOM     86  C   UNL A   1      48.205  26.735  31.965  1.00  0.00     0.135 A 
ATOM     87  F   UNL A   1      48.658  27.551  28.446  1.00  0.00    -0.206 F 
ATOM     88  C   UNL A   1      50.221  26.840  30.045  1.00  0.00     0.059 A 
ATOM     89  C   UNL A   1      49.508  26.412  32.327  1.00  0.00     0.059 A 
ATOM     90  F   UNL A   1      47.252  26.678  32.909  1.00  0.00    -0.206 F 
ATOM     91  C   UNL A   1      50.508  26.457  31.357  1.00  0.00     0.060 A 
BRANCH  91  92
ATOM     92  S   UNL A   1      52.213  26.050  31.787  1.00  0.00     0.124 S 
ATOM     93  O   UNL A   1      52.136  24.604  31.960  1.00  0.00    -0.237 OA
ATOM     94  O   UNL A   1      52.950  26.511  30.615  1.00  0.00    -0.237 OA
ATOM     95  O   UNL A   1      52.447  26.817  33.007  1.00  0.00    -0.744 OA
ENDBRANCH  91  92
ENDBRANCH  59  84
ENDBRANCH  33  34
ENDBRANCH  25  28
ENDBRANCH  23  24
ENDBRANCH  22  23
ENDBRANCH   1  22
TORSDOF 19
ENDMDL
MODEL 2
REMARK VINA RESULT:     -10.0      2.851      3.978
REMARK SMILES CCN(CCC(=O)NCCCCNC(=O)c1ccc(-c2c3nc(c(-c4c(F)cc(S(=O)(=O)[O-])cc4F)c4ccc([nH]4)c(-c4c(F)cc(S(=O)(=O)[O-])cc4F)c4nc(c(-c5c(F)cc(S(=O)(=O)[O-])cc5F)c5ccc2[nH]5)C=C4)C=C3)cc1)C(=O)c1cc(Cl)ccc1F
REMARK SMILES IDX 10 1 9 2 8 3 6 4 7 5 5 7 4 8 3 9 2 10 1 11 82 12 83 13 84 14
REMARK SMILES IDX 85 15 90 16 86 17 89 18 91 19 87 20 88 21 11 22 12 23 13 24
REMARK SMILES IDX 14 25 15 27 16 28 17 29 81 30 18 31 80 32 19 33 20 34 21 35
REMARK SMILES IDX 74 36 22 37 79 38 73 39 75 40 23 41 78 42 72 43 71 44 24 46
REMARK SMILES IDX 58 47 37 48 57 49 38 50 41 51 56 52 76 53 39 54 40 55 55 57
REMARK SMILES IDX 77 58 42 59 25 60 26 61 35 62 27 63 28 64 34 65 36 66 29 67
REMARK SMILES IDX 30 68 31 69 32 70 33 71 59 72 60 73 69 74 61 75 62 76 68 77
REMARK SMILES IDX 70 78 63 79 64 80 65 81 66 82 67 83 43 84 44 85 53 86 45 87
REMARK SMILES IDX 46 88 52 89 54 90 47 91 48 92 49 93 50 94 51 95
REMARK H PARENT 8 6 13 26 75 45 41 56
REMARK Flexibility Score: inf
ROOT
ATOM      1  C   UNL A   1      33.539  28.448  27.238  1.00  0.00     0.023 C 
ENDROOT
BRANCH   1   2
ATOM      2  C   UNL A   1      32.038  28.528  27.011  1.00  0.00     0.116 C 
BRANCH   2   3
ATOM      3  N   UNL A   1      31.404  27.222  27.074  1.00  0.00    -0.356 N 
ATOM      4  C   UNL A   1      30.821  26.496  26.079  1.00  0.00     0.221 C 
ATOM      5  O   UNL A   1      30.409  25.365  26.340  1.00  0.00    -0.275 OA
ATOM      6  H   UNL A   1      31.395  26.802  27.964  1.00  0.00     0.163 HD
BRANCH   4   7
ATOM      7  C   UNL A   1      30.708  27.061  24.683  1.00  0.00     0.121 C 
BRANCH   7   8
ATOM      8  C   UNL A   1      31.281  26.154  23.598  1.00  0.00     0.129 C 
BRANCH   8   9
ATOM      9  N   UNL A   1      32.743  26.112  23.473  1.00  0.00    -0.338 N 
BRANCH   9  10
ATOM     10  C   UNL A   1      33.392  27.431  23.654  1.00  0.00     0.116 C 
ATOM     11  C   UNL A   1      33.765  28.282  22.450  1.00  0.00     0.027 C 
ENDBRANCH   9  10
BRANCH   9  12
ATOM     12  C   UNL A   1      33.499  24.924  23.370  1.00  0.00     0.256 C 
ATOM     13  O   UNL A   1      33.979  24.552  22.297  1.00  0.00    -0.269 OA
BRANCH  12  14
ATOM     14  C   UNL A   1      33.534  23.900  24.466  1.00  0.00     0.077 A 
ATOM     15  C   UNL A   1      33.455  22.555  24.044  1.00  0.00     0.037 A 
ATOM     16  C   UNL A   1      33.649  24.129  25.834  1.00  0.00     0.136 A 
ATOM     17  C   UNL A   1      33.373  21.508  24.968  1.00  0.00     0.042 A 
ATOM     18  C   UNL A   1      33.516  23.088  26.762  1.00  0.00     0.041 A 
ATOM     19  F   UNL A   1      33.961  25.328  26.333  1.00  0.00    -0.206 F 
ATOM     20  Cl  UNL A   1      33.248  19.884  24.419  1.00  0.00    -0.084 Cl
ATOM     21  C   UNL A   1      33.363  21.774  26.331  1.00  0.00     0.023 A 
ENDBRANCH  12  14
ENDBRANCH   9  12
ENDBRANCH   8   9
ENDBRANCH   7   8
ENDBRANCH   4   7
ENDBRANCH   2   3
ENDBRANCH   1   2
BRANCH   1  22
ATOM     22  C   UNL A   1      34.244  29.790  27.370  1.00  0.00     0.023 C 
BRANCH  22  23
ATOM     23  C   UNL A   1      35.546  29.741  28.144  1.00  0.00     0.116 C 
BRANCH  23  24
ATOM     24  N   UNL A   1      35.449  30.312  29.480  1.00  0.00    -0.352 N 
ATOM     25  C   UNL A   1      36.444  30.572  30.390  1.00  0.00     0.251 C 
ATOM     26  H   UNL A   1      34.538  30.544  29.774  1.00  0.00     0.163 HD
ATOM     27  O   UNL A   1      36.154  30.971  31.515  1.00  0.00    -0.269 OA
BRANCH  25  28
ATOM     28  C   UNL A   1      37.853  30.328  30.017  1.00  0.00     0.039 A 
ATOM     29  C   UNL A   1      38.774  30.015  31.018  1.00  0.00     0.014 A 
ATOM     30  C   UNL A   1      38.250  30.352  28.680  1.00  0.00     0.014 A 
ATOM     31  C   UNL A   1      40.074  29.648  30.665  1.00  0.00     0.010 A 
ATOM     32  C   UNL A   1      39.499  29.868  28.325  1.00  0.00     0.010 A 
ATOM     33  C   UNL A   1      40.434  29.527  29.312  1.00  0.00    -0.014 A 
BRANCH  33  34
ATOM     34  C   UNL A   1      41.786  29.079  28.897  1.00  0.00     0.031 A 
ATOM     35  C   UNL A   1      42.909  30.082  28.824  1.00  0.00     0.074 A 
ATOM     36  C   UNL A   1      41.984  27.803  28.511  1.00  0.00     0.049 A 
ATOM     37  N   UNL A   1      44.123  29.931  28.363  1.00  0.00    -0.248 NA
ATOM     38  C   UNL A   1      42.610  31.450  29.285  1.00  0.00     0.031 C 
ATOM     39  C   UNL A   1      40.958  26.757  28.467  1.00  0.00     0.029 A 
ATOM     40  N   UNL A   1      43.117  27.170  28.067  1.00  0.00    -0.354 N 
ATOM     41  C   UNL A   1      44.719  31.184  28.461  1.00  0.00     0.074 A 
ATOM     42  C   UNL A   1      43.713  32.099  28.947  1.00  0.00     0.031 C 
ATOM     43  C   UNL A   1      41.515  25.610  28.047  1.00  0.00     0.029 A 
ATOM     44  C   UNL A   1      42.924  25.844  27.753  1.00  0.00     0.049 A 
ATOM     45  H   UNL A   1      43.988  27.622  27.981  1.00  0.00     0.167 HD
ATOM     46  C   UNL A   1      46.002  31.533  28.207  1.00  0.00     0.037 A 
ATOM     47  C   UNL A   1      43.787  24.926  27.276  1.00  0.00     0.037 A 
ATOM     48  C   UNL A   1      47.010  30.606  27.772  1.00  0.00     0.049 A 
ATOM     49  C   UNL A   1      45.217  25.328  27.039  1.00  0.00     0.074 A 
ATOM     50  C   UNL A   1      48.352  30.842  27.531  1.00  0.00     0.029 A 
ATOM     51  N   UNL A   1      46.791  29.258  27.530  1.00  0.00    -0.354 N 
ATOM     52  N   UNL A   1      45.777  26.507  27.183  1.00  0.00    -0.248 NA
ATOM     53  C   UNL A   1      46.138  24.277  26.588  1.00  0.00     0.031 C 
ATOM     54  C   UNL A   1      48.938  29.641  27.118  1.00  0.00     0.029 A 
ATOM     55  C   UNL A   1      47.970  28.648  27.141  1.00  0.00     0.049 A 
ATOM     56  H   UNL A   1      45.922  28.802  27.619  1.00  0.00     0.167 HD
ATOM     57  C   UNL A   1      47.118  26.333  26.861  1.00  0.00     0.074 A 
ATOM     58  C   UNL A   1      47.290  24.931  26.533  1.00  0.00     0.031 C 
ATOM     59  C   UNL A   1      48.119  27.248  26.836  1.00  0.00     0.037 A 
BRANCH  46  60
ATOM     60  C   UNL A   1      46.388  32.969  28.430  1.00  0.00     0.058 A 
ATOM     61  C   UNL A   1      46.844  33.417  29.682  1.00  0.00     0.135 A 
ATOM     62  C   UNL A   1      46.325  33.904  27.384  1.00  0.00     0.135 A 
ATOM     63  F   UNL A   1      46.906  32.571  30.722  1.00  0.00    -0.206 F 
ATOM     64  C   UNL A   1      47.193  34.745  29.897  1.00  0.00     0.059 A 
ATOM     65  C   UNL A   1      46.699  35.233  27.571  1.00  0.00     0.059 A 
ATOM     66  F   UNL A   1      45.893  33.532  26.170  1.00  0.00    -0.206 F 
ATOM     67  C   UNL A   1      47.116  35.647  28.834  1.00  0.00     0.060 A 
BRANCH  67  68
ATOM     68  S   UNL A   1      47.582  37.365  29.130  1.00  0.00     0.124 S 
ATOM     69  O   UNL A   1      46.407  37.866  29.839  1.00  0.00    -0.237 OA
ATOM     70  O   UNL A   1      48.794  37.227  29.932  1.00  0.00    -0.237 OA
ATOM     71  O   UNL A   1      47.781  37.900  27.787  1.00  0.00    -0.744 OA
ENDBRANCH  67  68
ENDBRANCH  46  60
BRANCH  47  72
ATOM     72  C   UNL A   1      43.328  23.535  27.012  1.00  0.00     0.058 A 
ATOM     73  C   UNL A   1      42.981  23.123  25.717  1.00  0.00     0.135 A 
ATOM     74  C   UNL A   1      43.228  22.593  28.046  1.00  0.00     0.135 A 
ATOM     75  F   UNL A   1      43.058  23.988  24.694  1.00  0.00    -0.206 F 
ATOM     76  C   UNL A   1      42.523  21.834  25.459  1.00  0.00     0.059 A 
ATOM     77  C   UNL A   1      42.798  21.289  27.809  1.00  0.00     0.059 A 
ATOM     78  F   UNL A   1      43.567  22.930  29.300  1.00  0.00    -0.206 F 
ATOM     79  C   UNL A   1      42.433  20.924  26.514  1.00  0.00     0.060 A 
BRANCH  79  80
ATOM     80  S   UNL A   1      41.861  19.247  26.166  1.00  0.00     0.124 S 
ATOM     81  O   UNL A   1      42.233  18.551  27.393  1.00  0.00    -0.237 OA
ATOM     82  O   UNL A   1      40.431  19.447  25.955  1.00  0.00    -0.237 OA
ATOM     83  O   UNL A   1      42.618  18.876  24.974  1.00  0.00    -0.744 OA
ENDBRANCH  79  80
ENDBRANCH  47  72
BRANCH  59  84
ATOM     84  C   UNL A   1      49.493  26.759  26.477  1.00  0.00     0.058 A 
ATOM     85  C   UNL A   1      50.319  26.129  27.419  1.00  0.00     0.135 A 
ATOM     86  C   UNL A   1      49.961  26.870  25.158  1.00  0.00     0.135 A 
ATOM     87  F   UNL A   1      49.917  26.003  28.694  1.00  0.00    -0.206 F 
ATOM     88  C   UNL A   1      51.574  25.644  27.071  1.00  0.00     0.059 A 
ATOM     89  C   UNL A   1      51.203  26.368  24.782  1.00  0.00     0.059 A 
ATOM     90  F   UNL A   1      49.203  27.454  24.217  1.00  0.00    -0.206 F 
ATOM     91  C   UNL A   1      52.007  25.767  25.749  1.00  0.00     0.060 A 
BRANCH  91  92
ATOM     92  S   UNL A   1      53.622  25.098  25.303  1.00  0.00     0.124 S 
ATOM     93  O   UNL A   1      53.362  23.663  25.324  1.00  0.00    -0.237 OA
ATOM     94  O   UNL A   1      53.851  25.682  23.985  1.00  0.00    -0.237 OA
ATOM     95  O   UNL A   1      54.499  25.593  26.360  1.00  0.00    -0.744 OA
ENDBRANCH  91  92
ENDBRANCH  59  84
ENDBRANCH  33  34
ENDBRANCH  25  28
ENDBRANCH  23  24
ENDBRANCH  22  23
ENDBRANCH   1  22
TORSDOF 19
ENDMDL
MODEL 3
REMARK VINA RESULT:      -9.8      4.826     10.397
REMARK SMILES CCN(CCC(=O)NCCCCNC(=O)c1ccc(-c2c3nc(c(-c4c(F)cc(S(=O)(=O)[O-])cc4F)c4ccc([nH]4)c(-c4c(F)cc(S(=O)(=O)[O-])cc4F)c4nc(c(-c5c(F)cc(S(=O)(=O)[O-])cc5F)c5ccc2[nH]5)C=C4)C=C3)cc1)C(=O)c1cc(Cl)ccc1F
REMARK SMILES IDX 10 1 9 2 8 3 6 4 7 5 5 7 4 8 3 9 2 10 1 11 82 12 83 13 84 14
REMARK SMILES IDX 85 15 90 16 86 17 89 18 91 19 87 20 88 21 11 22 12 23 13 24
REMARK SMILES IDX 14 25 15 27 16 28 17 29 81 30 18 31 80 32 19 33 20 34 21 35
REMARK SMILES IDX 74 36 22 37 79 38 73 39 75 40 23 41 78 42 72 43 71 44 24 46
REMARK SMILES IDX 58 47 37 48 57 49 38 50 41 51 56 52 76 53 39 54 40 55 55 57
REMARK SMILES IDX 77 58 42 59 25 60 26 61 35 62 27 63 28 64 34 65 36 66 29 67
REMARK SMILES IDX 30 68 31 69 32 70 33 71 59 72 60 73 69 74 61 75 62 76 68 77
REMARK SMILES IDX 70 78 63 79 64 80 65 81 66 82 67 83 43 84 44 85 53 86 45 87
REMARK SMILES IDX 46 88 52 89 54 90 47 91 48 92 49 93 50 94 51 95
REMARK H PARENT 8 6 13 26 75 45 41 56
REMARK Flexibility Score: inf
ROOT
ATOM      1  C   UNL A   1      37.761  22.080  25.331  1.00  0.00     0.023 C 
ENDROOT
BRANCH   1   2
ATOM      2  C   UNL A   1      36.491  21.599  24.644  1.00  0.00     0.116 C 
BRANCH   2   3
ATOM      3  N   UNL A   1      36.072  22.494  23.580  1.00  0.00    -0.356 N 
ATOM      4  C   UNL A   1      34.860  23.081  23.372  1.00  0.00     0.221 C 
ATOM      5  O   UNL A   1      34.744  23.875  22.438  1.00  0.00    -0.275 OA
ATOM      6  H   UNL A   1      36.764  22.706  22.912  1.00  0.00     0.163 HD
BRANCH   4   7
ATOM      7  C   UNL A   1      33.696  22.780  24.286  1.00  0.00     0.121 C 
BRANCH   7   8
ATOM      8  C   UNL A   1      33.486  23.814  25.387  1.00  0.00     0.129 C 
BRANCH   8   9
ATOM      9  N   UNL A   1      32.512  24.879  25.117  1.00  0.00    -0.338 N 
BRANCH   9  10
ATOM     10  C   UNL A   1      31.917  24.811  23.763  1.00  0.00     0.116 C 
ATOM     11  C   UNL A   1      30.460  24.417  23.575  1.00  0.00     0.027 C 
ENDBRANCH   9  10
BRANCH   9  12
ATOM     12  C   UNL A   1      32.036  25.786  26.089  1.00  0.00     0.256 C 
ATOM     13  O   UNL A   1      31.215  25.449  26.944  1.00  0.00    -0.269 OA
BRANCH  12  14
ATOM     14  C   UNL A   1      32.264  27.266  25.983  1.00  0.00     0.077 A 
ATOM     15  C   UNL A   1      33.446  27.743  26.592  1.00  0.00     0.037 A 
ATOM     16  C   UNL A   1      31.456  28.204  25.347  1.00  0.00     0.136 A 
ATOM     17  C   UNL A   1      33.727  29.112  26.656  1.00  0.00     0.042 A 
ATOM     18  C   UNL A   1      31.709  29.577  25.454  1.00  0.00     0.041 A 
ATOM     19  F   UNL A   1      30.447  27.850  24.547  1.00  0.00    -0.206 F 
ATOM     20  Cl  UNL A   1      35.160  29.659  27.431  1.00  0.00    -0.084 Cl
ATOM     21  C   UNL A   1      32.839  30.037  26.122  1.00  0.00     0.023 A 
ENDBRANCH  12  14
ENDBRANCH   9  12
ENDBRANCH   8   9
ENDBRANCH   7   8
ENDBRANCH   4   7
ENDBRANCH   2   3
ENDBRANCH   1   2
BRANCH   1  22
ATOM     22  C   UNL A   1      37.706  23.506  25.860  1.00  0.00     0.023 C 
BRANCH  22  23
ATOM     23  C   UNL A   1      38.755  23.826  26.907  1.00  0.00     0.116 C 
BRANCH  23  24
ATOM     24  N   UNL A   1      40.106  23.899  26.371  1.00  0.00    -0.352 N 
ATOM     25  C   UNL A   1      41.083  24.838  26.596  1.00  0.00     0.251 C 
ATOM     26  H   UNL A   1      40.356  23.171  25.756  1.00  0.00     0.163 HD
ATOM     27  O   UNL A   1      42.139  24.784  25.972  1.00  0.00    -0.269 OA
BRANCH  25  28
ATOM     28  C   UNL A   1      40.832  25.931  27.559  1.00  0.00     0.039 A 
ATOM     29  C   UNL A   1      39.798  25.794  28.487  1.00  0.00     0.014 A 
ATOM     30  C   UNL A   1      41.651  27.061  27.582  1.00  0.00     0.014 A 
ATOM     31  C   UNL A   1      39.640  26.755  29.486  1.00  0.00     0.010 A 
ATOM     32  C   UNL A   1      41.572  27.945  28.646  1.00  0.00     0.010 A 
ATOM     33  C   UNL A   1      40.555  27.815  29.602  1.00  0.00    -0.014 A 
BRANCH  33  34
ATOM     34  C   UNL A   1      40.458  28.820  30.689  1.00  0.00     0.031 A 
ATOM     35  C   UNL A   1      41.338  28.686  31.904  1.00  0.00     0.074 A 
ATOM     36  C   UNL A   1      39.530  29.796  30.622  1.00  0.00     0.049 A 
ATOM     37  N   UNL A   1      41.322  29.371  33.017  1.00  0.00    -0.248 NA
ATOM     38  C   UNL A   1      42.338  27.603  31.885  1.00  0.00     0.031 C 
ATOM     39  C   UNL A   1      38.570  29.985  29.532  1.00  0.00     0.029 A 
ATOM     40  N   UNL A   1      39.233  30.808  31.500  1.00  0.00    -0.354 N 
ATOM     41  C   UNL A   1      42.289  28.791  33.830  1.00  0.00     0.074 A 
ATOM     42  C   UNL A   1      42.817  27.651  33.118  1.00  0.00     0.031 C 
ATOM     43  C   UNL A   1      37.810  31.062  29.794  1.00  0.00     0.029 A 
ATOM     44  C   UNL A   1      38.199  31.615  31.086  1.00  0.00     0.049 A 
ATOM     45  H   UNL A   1      39.715  30.943  32.349  1.00  0.00     0.167 HD
ATOM     46  C   UNL A   1      42.728  29.195  35.045  1.00  0.00     0.037 A 
ATOM     47  C   UNL A   1      37.627  32.677  31.686  1.00  0.00     0.037 A 
ATOM     48  C   UNL A   1      42.233  30.361  35.725  1.00  0.00     0.049 A 
ATOM     49  C   UNL A   1      38.158  33.132  33.018  1.00  0.00     0.074 A 
ATOM     50  C   UNL A   1      42.640  30.889  36.938  1.00  0.00     0.029 A 
ATOM     51  N   UNL A   1      41.232  31.191  35.242  1.00  0.00    -0.354 N 
ATOM     52  N   UNL A   1      39.108  32.599  33.752  1.00  0.00    -0.248 NA
ATOM     53  C   UNL A   1      37.553  34.336  33.601  1.00  0.00     0.031 C 
ATOM     54  C   UNL A   1      41.867  32.025  37.198  1.00  0.00     0.029 A 
ATOM     55  C   UNL A   1      41.007  32.227  36.130  1.00  0.00     0.049 A 
ATOM     56  H   UNL A   1      40.751  31.060  34.392  1.00  0.00     0.167 HD
ATOM     57  C   UNL A   1      39.228  33.416  34.870  1.00  0.00     0.074 A 
ATOM     58  C   UNL A   1      38.267  34.489  34.707  1.00  0.00     0.031 C 
ATOM     59  C   UNL A   1      40.055  33.292  35.938  1.00  0.00     0.037 A 
BRANCH  46  60
ATOM     60  C   UNL A   1      43.820  28.389  35.693  1.00  0.00     0.058 A 
ATOM     61  C   UNL A   1      45.175  28.638  35.415  1.00  0.00     0.135 A 
ATOM     62  C   UNL A   1      43.517  27.373  36.614  1.00  0.00     0.135 A 
ATOM     63  F   UNL A   1      45.521  29.585  34.528  1.00  0.00    -0.206 F 
ATOM     64  C   UNL A   1      46.188  27.890  36.003  1.00  0.00     0.059 A 
ATOM     65  C   UNL A   1      44.518  26.632  37.237  1.00  0.00     0.059 A 
ATOM     66  F   UNL A   1      42.240  27.090  36.912  1.00  0.00    -0.206 F 
ATOM     67  C   UNL A   1      45.849  26.888  36.914  1.00  0.00     0.060 A 
BRANCH  67  68
ATOM     68  S   UNL A   1      47.179  25.933  37.673  1.00  0.00     0.124 S 
ATOM     69  O   UNL A   1      46.564  25.532  38.936  1.00  0.00    -0.237 OA
ATOM     70  O   UNL A   1      47.389  24.863  36.704  1.00  0.00    -0.237 OA
ATOM     71  O   UNL A   1      48.269  26.896  37.785  1.00  0.00    -0.744 OA
ENDBRANCH  67  68
ENDBRANCH  46  60
BRANCH  47  72
ATOM     72  C   UNL A   1      36.504  33.394  31.024  1.00  0.00     0.058 A 
ATOM     73  C   UNL A   1      35.199  33.318  31.532  1.00  0.00     0.135 A 
ATOM     74  C   UNL A   1      36.712  34.170  29.873  1.00  0.00     0.135 A 
ATOM     75  F   UNL A   1      34.947  32.587  32.629  1.00  0.00    -0.206 F 
ATOM     76  C   UNL A   1      34.133  33.960  30.907  1.00  0.00     0.059 A 
ATOM     77  C   UNL A   1      35.668  34.844  29.246  1.00  0.00     0.059 A 
ATOM     78  F   UNL A   1      37.945  34.293  29.359  1.00  0.00    -0.206 F 
ATOM     79  C   UNL A   1      34.378  34.720  29.762  1.00  0.00     0.060 A 
BRANCH  79  80
ATOM     80  S   UNL A   1      32.995  35.569  28.972  1.00  0.00     0.124 S 
ATOM     81  O   UNL A   1      32.424  34.503  28.157  1.00  0.00    -0.237 OA
ATOM     82  O   UNL A   1      32.198  35.992  30.119  1.00  0.00    -0.237 OA
ATOM     83  O   UNL A   1      33.642  36.651  28.236  1.00  0.00    -0.744 OA
ENDBRANCH  79  80
ENDBRANCH  47  72
BRANCH  59  84
ATOM     84  C   UNL A   1      39.985  34.357  36.994  1.00  0.00     0.058 A 
ATOM     85  C   UNL A   1      39.170  34.217  38.127  1.00  0.00     0.135 A 
ATOM     86  C   UNL A   1      40.789  35.504  36.897  1.00  0.00     0.135 A 
ATOM     87  F   UNL A   1      38.379  33.141  38.262  1.00  0.00    -0.206 F 
ATOM     88  C   UNL A   1      39.138  35.189  39.119  1.00  0.00     0.059 A 
ATOM     89  C   UNL A   1      40.792  36.476  37.892  1.00  0.00     0.059 A 
ATOM     90  F   UNL A   1      41.595  35.678  35.838  1.00  0.00    -0.206 F 
ATOM     91  C   UNL A   1      39.955  36.315  38.994  1.00  0.00     0.060 A 
BRANCH  91  92
ATOM     92  S   UNL A   1      39.933  37.550  40.309  1.00  0.00     0.124 S 
ATOM     93  O   UNL A   1      40.200  36.731  41.486  1.00  0.00    -0.237 OA
ATOM     94  O   UNL A   1      41.006  38.455  39.908  1.00  0.00    -0.237 OA
ATOM     95  O   UNL A   1      38.587  38.111  40.227  1.00  0.00    -0.744 OA
ENDBRANCH  91  92
ENDBRANCH  59  84
ENDBRANCH  33  34
ENDBRANCH  25  28
ENDBRANCH  23  24
ENDBRANCH  22  23
ENDBRANCH   1  22
TORSDOF 19
ENDMDL
