MODEL 1
REMARK VINA RESULT:     -11.4      0.000      0.000
REMARK SMILES C[C@@H]1CCC[C@@](Cc2ncccn2)(C(=O)NCCCCNC(=O)c2ccc(-c3c4nc(c(-c5c(F)cc(S(=O)(=O)[O-])cc5F)c5ccc([nH]5)c(-c5c(F)cc(S(=O)(=O)[O-])cc5F)c5nc(c(-c6c(F)cc(S(=O)(=O)[O-])cc6F)c6ccc3[nH]6)C=C5)C=C4)cc2)C1
REMARK SMILES IDX 19 1 18 2 17 3 16 4 14 5 15 6 6 8 1 9 2 10 3 11 90 12 4 13
REMARK SMILES IDX 5 14 7 15 8 16 9 17 13 18 10 19 12 20 11 21 20 22 21 23
REMARK SMILES IDX 22 24 23 26 24 27 25 28 89 29 26 30 88 31 27 32 28 33 29 34
REMARK SMILES IDX 82 35 30 36 87 37 81 38 83 39 31 40 86 41 80 42 79 43 32 45
REMARK SMILES IDX 66 46 45 47 65 48 46 49 49 50 64 51 84 52 47 53 48 54 63 56
REMARK SMILES IDX 85 57 50 58 33 59 34 60 43 61 35 62 36 63 42 64 44 65 37 66
REMARK SMILES IDX 38 67 39 68 40 69 41 70 67 71 68 72 77 73 69 74 70 75 76 76
REMARK SMILES IDX 78 77 71 78 72 79 73 80 74 81 75 82 51 83 52 84 61 85 53 86
REMARK SMILES IDX 54 87 60 88 62 89 55 90 56 91 57 92 58 93 59 94
REMARK H PARENT 16 7 21 25 83 44 49 55
REMARK Flexibility Score: inf
ROOT
ATOM      1  C   UNL A   1      32.466  28.376  26.290  1.00  0.00     0.023 C 
ENDROOT
BRANCH   1   2
ATOM      2  C   UNL A   1      31.372  27.574  26.994  1.00  0.00     0.023 C 
BRANCH   2   3
ATOM      3  C   UNL A   1      30.826  26.396  26.202  1.00  0.00     0.116 C 
BRANCH   3   4
ATOM      4  N   UNL A   1      30.983  25.122  26.867  1.00  0.00    -0.356 N 
ATOM      5  C   UNL A   1      31.824  24.077  26.646  1.00  0.00     0.226 C 
ATOM      6  O   UNL A   1      31.882  23.256  27.572  1.00  0.00    -0.274 OA
ATOM      7  H   UNL A   1      30.367  24.986  27.622  1.00  0.00     0.163 HD
BRANCH   5   8
ATOM      8  C   UNL A   1      32.675  23.876  25.354  1.00  0.00     0.056 C 
ATOM      9  C   UNL A   1      32.806  22.572  22.186  1.00  0.00     0.007 C 
ATOM     10  C   UNL A   1      32.099  23.811  22.736  1.00  0.00    -0.013 C 
ATOM     11  C   UNL A   1      32.937  25.074  22.544  1.00  0.00     0.003 C 
ATOM     12  C   UNL A   1      31.620  23.680  24.194  1.00  0.00     0.020 C 
ATOM     13  C   UNL A   1      34.040  25.194  23.583  1.00  0.00     0.001 C 
ATOM     14  C   UNL A   1      33.491  25.145  25.007  1.00  0.00     0.017 C 
BRANCH   8  15
ATOM     15  C   UNL A   1      33.490  22.557  25.464  1.00  0.00     0.094 C 
BRANCH  15  16
ATOM     16  C   UNL A   1      34.989  22.604  25.356  1.00  0.00     0.129 A 
ATOM     17  N   UNL A   1      35.570  21.935  24.341  1.00  0.00    -0.241 NA
ATOM     18  N   UNL A   1      35.665  23.293  26.295  1.00  0.00    -0.241 NA
ATOM     19  C   UNL A   1      36.916  21.992  24.276  1.00  0.00     0.115 A 
ATOM     20  C   UNL A   1      37.009  23.310  26.186  1.00  0.00     0.115 A 
ATOM     21  C   UNL A   1      37.694  22.678  25.178  1.00  0.00     0.040 A 
ENDBRANCH  15  16
ENDBRANCH   8  15
ENDBRANCH   5   8
ENDBRANCH   3   4
ENDBRANCH   2   3
ENDBRANCH   1   2
BRANCH   1  22
ATOM     22  C   UNL A   1      33.678  28.749  27.141  1.00  0.00     0.116 C 
BRANCH  22  23
ATOM     23  N   UNL A   1      33.599  30.070  27.755  1.00  0.00    -0.352 N 
ATOM     24  C   UNL A   1      34.606  30.757  28.396  1.00  0.00     0.251 C 
ATOM     25  H   UNL A   1      32.727  30.522  27.705  1.00  0.00     0.163 HD
ATOM     26  O   UNL A   1      34.407  31.866  28.877  1.00  0.00    -0.269 OA
BRANCH  24  27
ATOM     27  C   UNL A   1      35.924  30.103  28.517  1.00  0.00     0.039 A 
ATOM     28  C   UNL A   1      36.792  30.117  27.423  1.00  0.00     0.014 A 
ATOM     29  C   UNL A   1      36.332  29.591  29.750  1.00  0.00     0.014 A 
ATOM     30  C   UNL A   1      38.112  29.690  27.590  1.00  0.00     0.010 A 
ATOM     31  C   UNL A   1      37.659  29.218  29.927  1.00  0.00     0.010 A 
ATOM     32  C   UNL A   1      38.565  29.280  28.855  1.00  0.00    -0.014 A 
BRANCH  32  33
ATOM     33  C   UNL A   1      39.983  28.919  29.100  1.00  0.00     0.031 A 
ATOM     34  C   UNL A   1      40.939  29.969  29.591  1.00  0.00     0.074 A 
ATOM     35  C   UNL A   1      40.433  27.690  28.776  1.00  0.00     0.049 A 
ATOM     36  N   UNL A   1      42.240  29.920  29.693  1.00  0.00    -0.248 NA
ATOM     37  C   UNL A   1      40.350  31.257  29.990  1.00  0.00     0.031 C 
ATOM     38  C   UNL A   1      39.611  26.595  28.256  1.00  0.00     0.029 A 
ATOM     39  N   UNL A   1      41.700  27.164  28.813  1.00  0.00    -0.354 N 
ATOM     40  C   UNL A   1      42.631  31.178  30.135  1.00  0.00     0.074 A 
ATOM     41  C   UNL A   1      41.429  31.977  30.253  1.00  0.00     0.031 C 
ATOM     42  C   UNL A   1      40.395  25.528  28.024  1.00  0.00     0.029 A 
ATOM     43  C   UNL A   1      41.777  25.873  28.342  1.00  0.00     0.049 A 
ATOM     44  H   UNL A   1      42.481  27.663  29.144  1.00  0.00     0.167 HD
ATOM     45  C   UNL A   1      43.875  31.622  30.429  1.00  0.00     0.037 A 
ATOM     46  C   UNL A   1      42.843  25.068  28.171  1.00  0.00     0.037 A 
ATOM     47  C   UNL A   1      45.062  30.814  30.343  1.00  0.00     0.049 A 
ATOM     48  C   UNL A   1      44.213  25.573  28.533  1.00  0.00     0.074 A 
ATOM     49  C   UNL A   1      46.365  31.159  30.651  1.00  0.00     0.029 A 
ATOM     50  N   UNL A   1      45.086  29.490  29.928  1.00  0.00    -0.354 N 
ATOM     51  N   UNL A   1      44.563  26.757  28.976  1.00  0.00    -0.248 NA
ATOM     52  C   UNL A   1      45.335  24.634  28.376  1.00  0.00     0.031 C 
ATOM     53  C   UNL A   1      47.182  30.050  30.407  1.00  0.00     0.029 A 
ATOM     54  C   UNL A   1      46.381  29.004  29.976  1.00  0.00     0.049 A 
ATOM     55  H   UNL A   1      44.299  28.973  29.641  1.00  0.00     0.167 HD
ATOM     56  C   UNL A   1      45.936  26.695  29.180  1.00  0.00     0.074 A 
ATOM     57  C   UNL A   1      46.356  25.360  28.813  1.00  0.00     0.031 C 
ATOM     58  C   UNL A   1      46.773  27.659  29.635  1.00  0.00     0.037 A 
BRANCH  45  59
ATOM     59  C   UNL A   1      44.009  33.050  30.872  1.00  0.00     0.058 A 
ATOM     60  C   UNL A   1      43.916  33.410  32.225  1.00  0.00     0.135 A 
ATOM     61  C   UNL A   1      44.234  34.071  29.935  1.00  0.00     0.135 A 
ATOM     62  F   UNL A   1      43.681  32.474  33.158  1.00  0.00    -0.206 F 
ATOM     63  C   UNL A   1      44.005  34.736  32.633  1.00  0.00     0.059 A 
ATOM     64  C   UNL A   1      44.353  35.403  30.323  1.00  0.00     0.059 A 
ATOM     65  F   UNL A   1      44.331  33.781  28.628  1.00  0.00    -0.206 F 
ATOM     66  C   UNL A   1      44.217  35.726  31.672  1.00  0.00     0.060 A 
BRANCH  66  67
ATOM     67  S   UNL A   1      44.311  37.447  32.210  1.00  0.00     0.124 S 
ATOM     68  O   UNL A   1      45.732  37.577  32.515  1.00  0.00    -0.237 OA
ATOM     69  O   UNL A   1      43.849  38.173  31.030  1.00  0.00    -0.237 OA
ATOM     70  O   UNL A   1      43.413  37.492  33.359  1.00  0.00    -0.744 OA
ENDBRANCH  66  67
ENDBRANCH  45  59
BRANCH  46  71
ATOM     71  C   UNL A   1      42.654  23.688  27.651  1.00  0.00     0.058 A 
ATOM     72  C   UNL A   1      42.659  23.436  26.271  1.00  0.00     0.135 A 
ATOM     73  C   UNL A   1      42.484  22.596  28.514  1.00  0.00     0.135 A 
ATOM     74  F   UNL A   1      42.814  24.451  25.406  1.00  0.00    -0.206 F 
ATOM     75  C   UNL A   1      42.488  22.154  25.763  1.00  0.00     0.059 A 
ATOM     76  C   UNL A   1      42.330  21.300  28.031  1.00  0.00     0.059 A 
ATOM     77  F   UNL A   1      42.490  22.784  29.843  1.00  0.00    -0.206 F 
ATOM     78  C   UNL A   1      42.324  21.091  26.652  1.00  0.00     0.060 A 
BRANCH  78  79
ATOM     79  S   UNL A   1      42.156  19.419  25.987  1.00  0.00     0.124 S 
ATOM     80  O   UNL A   1      40.718  19.334  25.770  1.00  0.00    -0.237 OA
ATOM     81  O   UNL A   1      42.981  19.482  24.783  1.00  0.00    -0.237 OA
ATOM     82  O   UNL A   1      42.687  18.580  27.056  1.00  0.00    -0.744 OA
ENDBRANCH  78  79
ENDBRANCH  46  71
BRANCH  58  83
ATOM     83  C   UNL A   1      48.218  27.298  29.818  1.00  0.00     0.058 A 
ATOM     84  C   UNL A   1      49.169  27.531  28.814  1.00  0.00     0.135 A 
ATOM     85  C   UNL A   1      48.667  26.792  31.049  1.00  0.00     0.135 A 
ATOM     86  F   UNL A   1      48.787  28.007  27.619  1.00  0.00    -0.206 F 
ATOM     87  C   UNL A   1      50.520  27.270  29.023  1.00  0.00     0.059 A 
ATOM     88  C   UNL A   1      50.014  26.542  31.286  1.00  0.00     0.059 A 
ATOM     89  F   UNL A   1      47.794  26.559  32.042  1.00  0.00    -0.206 F 
ATOM     90  C   UNL A   1      50.933  26.781  30.264  1.00  0.00     0.060 A 
BRANCH  90  91
ATOM     91  S   UNL A   1      52.696  26.511  30.549  1.00  0.00     0.124 S 
ATOM     92  O   UNL A   1      53.171  26.222  29.199  1.00  0.00    -0.237 OA
ATOM     93  O   UNL A   1      53.124  27.787  31.113  1.00  0.00    -0.237 OA
ATOM     94  O   UNL A   1      52.720  25.385  31.478  1.00  0.00    -0.744 OA
ENDBRANCH  90  91
ENDBRANCH  58  83
ENDBRANCH  32  33
ENDBRANCH  24  27
ENDBRANCH  22  23
ENDBRANCH   1  22
TORSDOF 16
ENDMDL
MODEL 2
REMARK VINA RESULT:     -11.3      3.174      9.560
REMARK SMILES C[C@@H]1CCC[C@@](Cc2ncccn2)(C(=O)NCCCCNC(=O)c2ccc(-c3c4nc(c(-c5c(F)cc(S(=O)(=O)[O-])cc5F)c5ccc([nH]5)c(-c5c(F)cc(S(=O)(=O)[O-])cc5F)c5nc(c(-c6c(F)cc(S(=O)(=O)[O-])cc6F)c6ccc3[nH]6)C=C5)C=C4)cc2)C1
REMARK SMILES IDX 19 1 18 2 17 3 16 4 14 5 15 6 6 8 1 9 2 10 3 11 90 12 4 13
REMARK SMILES IDX 5 14 7 15 8 16 9 17 13 18 10 19 12 20 11 21 20 22 21 23
REMARK SMILES IDX 22 24 23 26 24 27 25 28 89 29 26 30 88 31 27 32 28 33 29 34
REMARK SMILES IDX 82 35 30 36 87 37 81 38 83 39 31 40 86 41 80 42 79 43 32 45
REMARK SMILES IDX 66 46 45 47 65 48 46 49 49 50 64 51 84 52 47 53 48 54 63 56
REMARK SMILES IDX 85 57 50 58 33 59 34 60 43 61 35 62 36 63 42 64 44 65 37 66
REMARK SMILES IDX 38 67 39 68 40 69 41 70 67 71 68 72 77 73 69 74 70 75 76 76
REMARK SMILES IDX 78 77 71 78 72 79 73 80 74 81 75 82 51 83 52 84 61 85 53 86
REMARK SMILES IDX 54 87 60 88 62 89 55 90 56 91 57 92 58 93 59 94
REMARK H PARENT 16 7 21 25 83 44 49 55
REMARK Flexibility Score: inf
ROOT
ATOM      1  C   UNL A   1      35.701  23.394  25.633  1.00  0.00     0.023 C 
ENDROOT
BRANCH   1   2
ATOM      2  C   UNL A   1      34.514  23.170  24.698  1.00  0.00     0.023 C 
BRANCH   2   3
ATOM      3  C   UNL A   1      33.584  24.365  24.540  1.00  0.00     0.116 C 
BRANCH   3   4
ATOM      4  N   UNL A   1      32.675  24.546  25.649  1.00  0.00    -0.356 N 
ATOM      5  C   UNL A   1      32.105  25.657  26.187  1.00  0.00     0.226 C 
ATOM      6  O   UNL A   1      31.160  25.432  26.956  1.00  0.00    -0.274 OA
ATOM      7  H   UNL A   1      32.420  23.709  26.098  1.00  0.00     0.163 HD
BRANCH   5   8
ATOM      8  C   UNL A   1      32.559  27.121  25.895  1.00  0.00     0.056 C 
ATOM      9  C   UNL A   1      31.710  30.443  25.937  1.00  0.00     0.007 C 
ATOM     10  C   UNL A   1      32.085  29.485  27.069  1.00  0.00    -0.013 C 
ATOM     11  C   UNL A   1      33.568  29.580  27.424  1.00  0.00     0.003 C 
ATOM     12  C   UNL A   1      31.663  28.023  26.836  1.00  0.00     0.020 C 
ATOM     13  C   UNL A   1      34.443  28.822  26.439  1.00  0.00     0.001 C 
ATOM     14  C   UNL A   1      34.029  27.357  26.319  1.00  0.00     0.017 C 
BRANCH   8  15
ATOM     15  C   UNL A   1      32.209  27.495  24.428  1.00  0.00     0.094 C 
BRANCH  15  16
ATOM     16  C   UNL A   1      30.767  27.617  24.021  1.00  0.00     0.129 A 
ATOM     17  N   UNL A   1      29.972  26.540  24.179  1.00  0.00    -0.241 NA
ATOM     18  N   UNL A   1      30.358  28.789  23.499  1.00  0.00    -0.241 NA
ATOM     19  C   UNL A   1      28.686  26.679  23.798  1.00  0.00     0.115 A 
ATOM     20  C   UNL A   1      29.065  28.871  23.127  1.00  0.00     0.115 A 
ATOM     21  C   UNL A   1      28.171  27.837  23.267  1.00  0.00     0.040 A 
ENDBRANCH  15  16
ENDBRANCH   8  15
ENDBRANCH   5   8
ENDBRANCH   3   4
ENDBRANCH   2   3
ENDBRANCH   1   2
BRANCH   1  22
ATOM     22  C   UNL A   1      37.039  23.692  24.958  1.00  0.00     0.116 C 
BRANCH  22  23
ATOM     23  N   UNL A   1      38.097  22.738  25.269  1.00  0.00    -0.352 N 
ATOM     24  C   UNL A   1      39.175  22.926  26.105  1.00  0.00     0.251 C 
ATOM     25  H   UNL A   1      38.032  21.858  24.832  1.00  0.00     0.163 HD
ATOM     26  O   UNL A   1      40.002  22.039  26.279  1.00  0.00    -0.269 OA
BRANCH  24  27
ATOM     27  C   UNL A   1      39.324  24.241  26.760  1.00  0.00     0.039 A 
ATOM     28  C   UNL A   1      38.760  24.439  28.022  1.00  0.00     0.014 A 
ATOM     29  C   UNL A   1      40.123  25.221  26.169  1.00  0.00     0.014 A 
ATOM     30  C   UNL A   1      39.071  25.599  28.736  1.00  0.00     0.010 A 
ATOM     31  C   UNL A   1      40.474  26.348  26.903  1.00  0.00     0.010 A 
ATOM     32  C   UNL A   1      39.965  26.539  28.199  1.00  0.00    -0.014 A 
BRANCH  32  33
ATOM     33  C   UNL A   1      40.404  27.732  28.966  1.00  0.00     0.031 A 
ATOM     34  C   UNL A   1      41.703  27.689  29.719  1.00  0.00     0.074 A 
ATOM     35  C   UNL A   1      39.588  28.800  29.078  1.00  0.00     0.049 A 
ATOM     36  N   UNL A   1      42.181  28.536  30.591  1.00  0.00    -0.248 NA
ATOM     37  C   UNL A   1      42.561  26.518  29.481  1.00  0.00     0.031 C 
ATOM     38  C   UNL A   1      38.286  28.946  28.425  1.00  0.00     0.029 A 
ATOM     39  N   UNL A   1      39.725  29.956  29.804  1.00  0.00    -0.354 N 
ATOM     40  C   UNL A   1      43.379  27.988  31.031  1.00  0.00     0.074 A 
ATOM     41  C   UNL A   1      43.538  26.720  30.351  1.00  0.00     0.031 C 
ATOM     42  C   UNL A   1      37.746  30.124  28.779  1.00  0.00     0.029 A 
ATOM     43  C   UNL A   1      38.642  30.799  29.711  1.00  0.00     0.049 A 
ATOM     44  H   UNL A   1      40.523  30.162  30.342  1.00  0.00     0.167 HD
ATOM     45  C   UNL A   1      44.271  28.500  31.911  1.00  0.00     0.037 A 
ATOM     46  C   UNL A   1      38.395  31.974  30.322  1.00  0.00     0.037 A 
ATOM     47  C   UNL A   1      44.125  29.776  32.558  1.00  0.00     0.049 A 
ATOM     48  C   UNL A   1      39.414  32.539  31.274  1.00  0.00     0.074 A 
ATOM     49  C   UNL A   1      44.988  30.400  33.439  1.00  0.00     0.029 A 
ATOM     50  N   UNL A   1      43.045  30.630  32.382  1.00  0.00    -0.354 N 
ATOM     51  N   UNL A   1      40.556  32.019  31.659  1.00  0.00    -0.248 NA
ATOM     52  C   UNL A   1      39.118  33.849  31.872  1.00  0.00     0.031 C 
ATOM     53  C   UNL A   1      44.424  31.626  33.811  1.00  0.00     0.029 A 
ATOM     54  C   UNL A   1      43.223  31.777  33.136  1.00  0.00     0.049 A 
ATOM     55  H   UNL A   1      42.268  30.447  31.807  1.00  0.00     0.167 HD
ATOM     56  C   UNL A   1      41.126  32.952  32.518  1.00  0.00     0.074 A 
ATOM     57  C   UNL A   1      40.206  34.067  32.598  1.00  0.00     0.031 C 
ATOM     58  C   UNL A   1      42.309  32.890  33.177  1.00  0.00     0.037 A 
BRANCH  45  59
ATOM     59  C   UNL A   1      45.485  27.672  32.220  1.00  0.00     0.058 A 
ATOM     60  C   UNL A   1      45.502  26.770  33.294  1.00  0.00     0.135 A 
ATOM     61  C   UNL A   1      46.643  27.780  31.433  1.00  0.00     0.135 A 
ATOM     62  F   UNL A   1      44.427  26.644  34.088  1.00  0.00    -0.206 F 
ATOM     63  C   UNL A   1      46.636  26.027  33.602  1.00  0.00     0.059 A 
ATOM     64  C   UNL A   1      47.782  27.028  31.708  1.00  0.00     0.059 A 
ATOM     65  F   UNL A   1      46.680  28.629  30.395  1.00  0.00    -0.206 F 
ATOM     66  C   UNL A   1      47.774  26.169  32.807  1.00  0.00     0.060 A 
BRANCH  66  67
ATOM     67  S   UNL A   1      49.249  25.216  33.227  1.00  0.00     0.124 S 
ATOM     68  O   UNL A   1      49.777  24.902  31.904  1.00  0.00    -0.237 OA
ATOM     69  O   UNL A   1      50.030  26.171  34.009  1.00  0.00    -0.237 OA
ATOM     70  O   UNL A   1      48.716  24.084  33.978  1.00  0.00    -0.744 OA
ENDBRANCH  66  67
ENDBRANCH  45  59
BRANCH  46  71
ATOM     71  C   UNL A   1      37.134  32.708  30.036  1.00  0.00     0.058 A 
ATOM     72  C   UNL A   1      35.964  32.431  30.759  1.00  0.00     0.135 A 
ATOM     73  C   UNL A   1      37.075  33.707  29.054  1.00  0.00     0.135 A 
ATOM     74  F   UNL A   1      35.971  31.479  31.704  1.00  0.00    -0.206 F 
ATOM     75  C   UNL A   1      34.776  33.107  30.509  1.00  0.00     0.059 A 
ATOM     76  C   UNL A   1      35.903  34.412  28.799  1.00  0.00     0.059 A 
ATOM     77  F   UNL A   1      38.173  34.021  28.348  1.00  0.00    -0.206 F 
ATOM     78  C   UNL A   1      34.755  34.098  29.526  1.00  0.00     0.060 A 
BRANCH  78  79
ATOM     79  S   UNL A   1      33.222  35.011  29.245  1.00  0.00     0.124 S 
ATOM     80  O   UNL A   1      32.549  34.159  28.272  1.00  0.00    -0.237 OA
ATOM     81  O   UNL A   1      32.632  35.044  30.581  1.00  0.00    -0.237 OA
ATOM     82  O   UNL A   1      33.688  36.300  28.743  1.00  0.00    -0.744 OA
ENDBRANCH  78  79
ENDBRANCH  46  71
BRANCH  58  83
ATOM     83  C   UNL A   1      42.710  34.079  34.001  1.00  0.00     0.058 A 
ATOM     84  C   UNL A   1      42.354  34.193  35.352  1.00  0.00     0.135 A 
ATOM     85  C   UNL A   1      43.535  35.073  33.449  1.00  0.00     0.135 A 
ATOM     86  F   UNL A   1      41.562  33.272  35.923  1.00  0.00    -0.206 F 
ATOM     87  C   UNL A   1      42.800  35.257  36.130  1.00  0.00     0.059 A 
ATOM     88  C   UNL A   1      44.007  36.134  34.213  1.00  0.00     0.059 A 
ATOM     89  F   UNL A   1      43.907  35.002  32.161  1.00  0.00    -0.206 F 
ATOM     90  C   UNL A   1      43.631  36.219  35.553  1.00  0.00     0.060 A 
BRANCH  90  91
ATOM     91  S   UNL A   1      44.261  37.559  36.588  1.00  0.00     0.124 S 
ATOM     92  O   UNL A   1      43.350  37.503  37.727  1.00  0.00    -0.237 OA
ATOM     93  O   UNL A   1      45.633  37.136  36.851  1.00  0.00    -0.237 OA
ATOM     94  O   UNL A   1      44.128  38.736  35.735  1.00  0.00    -0.744 OA
ENDBRANCH  90  91
ENDBRANCH  58  83
ENDBRANCH  32  33
ENDBRANCH  24  27
ENDBRANCH  22  23
ENDBRANCH   1  22
TORSDOF 16
ENDMDL
MODEL 3
REMARK VINA RESULT:     -11.2      5.274     10.058
REMARK SMILES C[C@@H]1CCC[C@@](Cc2ncccn2)(C(=O)NCCCCNC(=O)c2ccc(-c3c4nc(c(-c5c(F)cc(S(=O)(=O)[O-])cc5F)c5ccc([nH]5)c(-c5c(F)cc(S(=O)(=O)[O-])cc5F)c5nc(c(-c6c(F)cc(S(=O)(=O)[O-])cc6F)c6ccc3[nH]6)C=C5)C=C4)cc2)C1
REMARK SMILES IDX 19 1 18 2 17 3 16 4 14 5 15 6 6 8 1 9 2 10 3 11 90 12 4 13
REMARK SMILES IDX 5 14 7 15 8 16 9 17 13 18 10 19 12 20 11 21 20 22 21 23
REMARK SMILES IDX 22 24 23 26 24 27 25 28 89 29 26 30 88 31 27 32 28 33 29 34
REMARK SMILES IDX 82 35 30 36 87 37 81 38 83 39 31 40 86 41 80 42 79 43 32 45
REMARK SMILES IDX 66 46 45 47 65 48 46 49 49 50 64 51 84 52 47 53 48 54 63 56
REMARK SMILES IDX 85 57 50 58 33 59 34 60 43 61 35 62 36 63 42 64 44 65 37 66
REMARK SMILES IDX 38 67 39 68 40 69 41 70 67 71 68 72 77 73 69 74 70 75 76 76
REMARK SMILES IDX 78 77 71 78 72 79 73 80 74 81 75 82 51 83 52 84 61 85 53 86
REMARK SMILES IDX 54 87 60 88 62 89 55 90 56 91 57 92 58 93 59 94
REMARK H PARENT 16 7 21 25 83 44 49 55
REMARK Flexibility Score: inf
ROOT
ATOM      1  C   UNL A   1      40.014  22.568  27.336  1.00  0.00     0.023 C 
ENDROOT
BRANCH   1   2
ATOM      2  C   UNL A   1      39.325  21.937  26.127  1.00  0.00     0.023 C 
BRANCH   2   3
ATOM      3  C   UNL A   1      37.958  22.515  25.791  1.00  0.00     0.116 C 
BRANCH   3   4
ATOM      4  N   UNL A   1      37.664  22.532  24.376  1.00  0.00    -0.356 N 
ATOM      5  C   UNL A   1      36.509  22.731  23.688  1.00  0.00     0.226 C 
ATOM      6  O   UNL A   1      36.659  22.953  22.479  1.00  0.00    -0.274 OA
ATOM      7  H   UNL A   1      38.447  22.369  23.803  1.00  0.00     0.163 HD
BRANCH   5   8
ATOM      8  C   UNL A   1      35.081  22.697  24.316  1.00  0.00     0.056 C 
ATOM      9  C   UNL A   1      32.464  20.750  25.376  1.00  0.00     0.007 C 
ATOM     10  C   UNL A   1      33.829  21.033  26.006  1.00  0.00    -0.013 C 
ATOM     11  C   UNL A   1      33.757  22.164  27.030  1.00  0.00     0.003 C 
ATOM     12  C   UNL A   1      34.964  21.273  24.993  1.00  0.00     0.020 C 
ATOM     13  C   UNL A   1      33.734  23.534  26.371  1.00  0.00     0.001 C 
ATOM     14  C   UNL A   1      34.931  23.743  25.448  1.00  0.00     0.017 C 
BRANCH   8  15
ATOM     15  C   UNL A   1      34.012  22.761  23.190  1.00  0.00     0.094 C 
BRANCH  15  16
ATOM     16  C   UNL A   1      33.276  24.049  22.943  1.00  0.00     0.129 A 
ATOM     17  N   UNL A   1      31.971  24.105  23.274  1.00  0.00    -0.241 NA
ATOM     18  N   UNL A   1      33.960  25.065  22.382  1.00  0.00    -0.241 NA
ATOM     19  C   UNL A   1      31.339  25.272  23.033  1.00  0.00     0.115 A 
ATOM     20  C   UNL A   1      33.277  26.205  22.156  1.00  0.00     0.115 A 
ATOM     21  C   UNL A   1      31.952  26.369  22.477  1.00  0.00     0.040 A 
ENDBRANCH  15  16
ENDBRANCH   8  15
ENDBRANCH   5   8
ENDBRANCH   3   4
ENDBRANCH   2   3
ENDBRANCH   1   2
BRANCH   1  22
ATOM     22  C   UNL A   1      41.355  23.248  27.065  1.00  0.00     0.116 C 
BRANCH  22  23
ATOM     23  N   UNL A   1      41.325  24.227  25.985  1.00  0.00    -0.352 N 
ATOM     24  C   UNL A   1      41.286  25.599  26.098  1.00  0.00     0.251 C 
ATOM     25  H   UNL A   1      41.334  23.866  25.069  1.00  0.00     0.163 HD
ATOM     26  O   UNL A   1      41.259  26.315  25.104  1.00  0.00    -0.269 OA
BRANCH  24  27
ATOM     27  C   UNL A   1      41.244  26.182  27.454  1.00  0.00     0.039 A 
ATOM     28  C   UNL A   1      42.337  26.921  27.910  1.00  0.00     0.014 A 
ATOM     29  C   UNL A   1      40.073  26.091  28.210  1.00  0.00     0.014 A 
ATOM     30  C   UNL A   1      42.225  27.647  29.099  1.00  0.00     0.010 A 
ATOM     31  C   UNL A   1      39.946  26.857  29.363  1.00  0.00     0.010 A 
ATOM     32  C   UNL A   1      41.014  27.655  29.809  1.00  0.00    -0.014 A 
BRANCH  32  33
ATOM     33  C   UNL A   1      40.818  28.494  31.017  1.00  0.00     0.031 A 
ATOM     34  C   UNL A   1      39.765  29.566  31.009  1.00  0.00     0.074 A 
ATOM     35  C   UNL A   1      41.654  28.370  32.067  1.00  0.00     0.049 A 
ATOM     36  N   UNL A   1      39.552  30.522  31.874  1.00  0.00    -0.248 NA
ATOM     37  C   UNL A   1      38.852  29.580  29.856  1.00  0.00     0.031 C 
ATOM     38  C   UNL A   1      42.738  27.393  32.179  1.00  0.00     0.029 A 
ATOM     39  N   UNL A   1      41.737  29.091  33.232  1.00  0.00    -0.354 N 
ATOM     40  C   UNL A   1      38.504  31.271  31.356  1.00  0.00     0.074 A 
ATOM     41  C   UNL A   1      38.145  30.676  30.086  1.00  0.00     0.031 C 
ATOM     42  C   UNL A   1      43.376  27.574  33.348  1.00  0.00     0.029 A 
ATOM     43  C   UNL A   1      42.772  28.702  34.051  1.00  0.00     0.049 A 
ATOM     44  H   UNL A   1      41.115  29.819  33.461  1.00  0.00     0.167 HD
ATOM     45  C   UNL A   1      37.887  32.349  31.895  1.00  0.00     0.037 A 
ATOM     46  C   UNL A   1      43.196  29.209  35.224  1.00  0.00     0.037 A 
ATOM     47  C   UNL A   1      38.225  32.916  33.173  1.00  0.00     0.049 A 
ATOM     48  C   UNL A   1      42.477  30.389  35.820  1.00  0.00     0.074 A 
ATOM     49  C   UNL A   1      37.639  33.987  33.823  1.00  0.00     0.029 A 
ATOM     50  N   UNL A   1      39.235  32.448  34.001  1.00  0.00    -0.354 N 
ATOM     51  N   UNL A   1      41.469  31.071  35.329  1.00  0.00    -0.248 NA
ATOM     52  C   UNL A   1      42.947  30.869  37.128  1.00  0.00     0.031 C 
ATOM     53  C   UNL A   1      38.305  34.178  35.039  1.00  0.00     0.029 A 
ATOM     54  C   UNL A   1      39.286  33.206  35.158  1.00  0.00     0.049 A 
ATOM     55  H   UNL A   1      39.828  31.690  33.796  1.00  0.00     0.167 HD
ATOM     56  C   UNL A   1      41.165  32.037  36.281  1.00  0.00     0.074 A 
ATOM     57  C   UNL A   1      42.095  31.854  37.376  1.00  0.00     0.031 C 
ATOM     58  C   UNL A   1      40.200  32.988  36.251  1.00  0.00     0.037 A 
BRANCH  45  59
ATOM     59  C   UNL A   1      36.784  32.981  31.097  1.00  0.00     0.058 A 
ATOM     60  C   UNL A   1      37.055  33.768  29.967  1.00  0.00     0.135 A 
ATOM     61  C   UNL A   1      35.441  32.797  31.463  1.00  0.00     0.135 A 
ATOM     62  F   UNL A   1      38.323  33.990  29.587  1.00  0.00    -0.206 F 
ATOM     63  C   UNL A   1      36.036  34.381  29.247  1.00  0.00     0.059 A 
ATOM     64  C   UNL A   1      34.403  33.381  30.742  1.00  0.00     0.059 A 
ATOM     65  F   UNL A   1      35.127  32.054  32.536  1.00  0.00    -0.206 F 
ATOM     66  C   UNL A   1      34.713  34.187  29.648  1.00  0.00     0.060 A 
BRANCH  66  67
ATOM     67  S   UNL A   1      33.398  35.004  28.718  1.00  0.00     0.124 S 
ATOM     68  O   UNL A   1      34.077  36.212  28.260  1.00  0.00    -0.237 OA
ATOM     69  O   UNL A   1      33.086  34.023  27.683  1.00  0.00    -0.237 OA
ATOM     70  O   UNL A   1      32.355  35.208  29.718  1.00  0.00    -0.744 OA
ENDBRANCH  66  67
ENDBRANCH  45  59
BRANCH  46  71
ATOM     71  C   UNL A   1      44.349  28.588  35.928  1.00  0.00     0.058 A 
ATOM     72  C   UNL A   1      44.161  27.491  36.781  1.00  0.00     0.135 A 
ATOM     73  C   UNL A   1      45.656  29.064  35.752  1.00  0.00     0.135 A 
ATOM     74  F   UNL A   1      42.927  27.004  36.984  1.00  0.00    -0.206 F 
ATOM     75  C   UNL A   1      45.225  26.893  37.446  1.00  0.00     0.059 A 
ATOM     76  C   UNL A   1      46.741  28.471  36.392  1.00  0.00     0.059 A 
ATOM     77  F   UNL A   1      45.889  30.101  34.933  1.00  0.00    -0.206 F 
ATOM     78  C   UNL A   1      46.514  27.391  37.245  1.00  0.00     0.060 A 
BRANCH  78  79
ATOM     79  S   UNL A   1      47.899  26.577  38.070  1.00  0.00     0.124 S 
ATOM     80  O   UNL A   1      48.403  25.712  37.010  1.00  0.00    -0.237 OA
ATOM     81  O   UNL A   1      48.751  27.707  38.430  1.00  0.00    -0.237 OA
ATOM     82  O   UNL A   1      47.265  25.898  39.195  1.00  0.00    -0.744 OA
ENDBRANCH  78  79
ENDBRANCH  46  71
BRANCH  58  83
ATOM     83  C   UNL A   1      40.055  33.872  37.455  1.00  0.00     0.058 A 
ATOM     84  C   UNL A   1      40.794  35.055  37.594  1.00  0.00     0.135 A 
ATOM     85  C   UNL A   1      39.098  33.571  38.439  1.00  0.00     0.135 A 
ATOM     86  F   UNL A   1      41.725  35.381  36.683  1.00  0.00    -0.206 F 
ATOM     87  C   UNL A   1      40.594  35.911  38.672  1.00  0.00     0.059 A 
ATOM     88  C   UNL A   1      38.869  34.421  39.515  1.00  0.00     0.059 A 
ATOM     89  F   UNL A   1      38.362  32.452  38.344  1.00  0.00    -0.206 F 
ATOM     90  C   UNL A   1      39.625  35.588  39.624  1.00  0.00     0.060 A 
BRANCH  90  91
ATOM     91  S   UNL A   1      39.323  36.739  40.983  1.00  0.00     0.124 S 
ATOM     92  O   UNL A   1      40.683  37.119  41.354  1.00  0.00    -0.237 OA
ATOM     93  O   UNL A   1      38.526  37.781  40.344  1.00  0.00    -0.237 OA
ATOM     94  O   UNL A   1      38.608  35.926  41.963  1.00  0.00    -0.744 OA
ENDBRANCH  90  91
ENDBRANCH  58  83
ENDBRANCH  32  33
ENDBRANCH  24  27
ENDBRANCH  22  23
ENDBRANCH   1  22
TORSDOF 16
ENDMDL
