MODEL 1
REMARK VINA RESULT:     -10.9      0.000      0.000
REMARK SMILES CCC(CC)NC(=O)NC[C@H]1CC[C@H](C(=O)NCCCCNC(=O)c2ccc(-c3c4nc(c(-c5c(F)cc(S(=O)(=O)[O-])cc5F)c5ccc([nH]5)c(-c5c(F)cc(S(=O)(=O)[O-])cc5F)c5nc(c(-c6c(F)cc(S(=O)(=O)[O-])cc6F)c6ccc3[nH]6)C=C5)C=C4)cc2)O1
REMARK SMILES IDX 19 1 18 2 17 3 15 4 16 5 14 7 11 8 12 9 91 10 13 11 10 12
REMARK SMILES IDX 9 13 6 14 7 15 8 17 3 19 2 20 1 21 4 22 5 23 20 24 21 25
REMARK SMILES IDX 22 26 23 27 24 29 25 30 26 31 90 32 27 33 89 34 28 35 29 36
REMARK SMILES IDX 30 37 83 38 31 39 88 40 82 41 84 42 32 43 87 44 81 45 80 46
REMARK SMILES IDX 33 48 67 49 46 50 66 51 47 52 50 53 65 54 85 55 48 56 49 57
REMARK SMILES IDX 64 59 86 60 51 61 34 62 35 63 44 64 36 65 37 66 43 67 45 68
REMARK SMILES IDX 38 69 39 70 40 71 41 72 42 73 68 74 69 75 78 76 70 77 71 78
REMARK SMILES IDX 77 79 79 80 72 81 73 82 74 83 75 84 76 85 52 86 53 87 62 88
REMARK SMILES IDX 54 89 55 90 61 91 63 92 56 93 57 94 58 95 59 96 60 97
REMARK H PARENT 17 6 6 16 9 18 22 28 84 47 50 58
REMARK Flexibility Score: inf
ROOT
ATOM      1  C   UNL A   1      37.404  22.650  25.072  1.00  0.00     0.023 C 
ENDROOT
BRANCH   1   2
ATOM      2  C   UNL A   1      36.482  23.133  26.193  1.00  0.00     0.116 C 
BRANCH   2   3
ATOM      3  N   UNL A   1      35.446  22.167  26.492  1.00  0.00    -0.354 N 
ATOM      4  C   UNL A   1      34.188  22.041  25.981  1.00  0.00     0.249 C 
ATOM      5  O   UNL A   1      33.497  21.105  26.398  1.00  0.00    -0.272 OA
ATOM      6  H   UNL A   1      35.688  21.498  27.171  1.00  0.00     0.163 HD
BRANCH   4   7
ATOM      7  C   UNL A   1      33.591  23.066  24.987  1.00  0.00     0.207 C 
ATOM      8  C   UNL A   1      31.602  23.287  23.767  1.00  0.00     0.138 C 
ATOM      9  C   UNL A   1      32.541  22.430  22.945  1.00  0.00     0.037 C 
ATOM     10  O   UNL A   1      32.192  23.354  25.081  1.00  0.00    -0.363 OA
ATOM     11  C   UNL A   1      33.897  22.688  23.545  1.00  0.00     0.045 C 
BRANCH   8  12
ATOM     12  C   UNL A   1      31.313  24.702  23.229  1.00  0.00     0.149 C 
BRANCH  12  13
ATOM     13  N   UNL A   1      31.786  24.939  21.874  1.00  0.00    -0.336 N 
ATOM     14  N   UNL A   1      32.878  27.035  21.838  1.00  0.00    -0.335 N 
ATOM     15  C   UNL A   1      32.590  25.841  21.304  1.00  0.00     0.315 C 
ATOM     16  H   UNL A   1      33.679  27.455  21.449  1.00  0.00     0.165 HD
ATOM     17  O   UNL A   1      33.097  25.562  20.216  1.00  0.00    -0.249 OA
ATOM     18  H   UNL A   1      31.432  24.283  21.229  1.00  0.00     0.165 HD
BRANCH  14  19
ATOM     19  C   UNL A   1      32.250  27.841  22.876  1.00  0.00     0.083 C 
BRANCH  19  20
ATOM     20  C   UNL A   1      33.229  28.895  23.405  1.00  0.00     0.021 C 
ATOM     21  C   UNL A   1      32.892  29.336  24.823  1.00  0.00     0.006 C 
ENDBRANCH  19  20
BRANCH  19  22
ATOM     22  C   UNL A   1      30.891  28.390  22.396  1.00  0.00     0.021 C 
ATOM     23  C   UNL A   1      29.691  27.989  23.241  1.00  0.00     0.006 C 
ENDBRANCH  19  22
ENDBRANCH  14  19
ENDBRANCH  12  13
ENDBRANCH   8  12
ENDBRANCH   4   7
ENDBRANCH   2   3
ENDBRANCH   1   2
BRANCH   1  24
ATOM     24  C   UNL A   1      38.018  21.269  25.281  1.00  0.00     0.023 C 
BRANCH  24  25
ATOM     25  C   UNL A   1      39.288  21.253  26.125  1.00  0.00     0.116 C 
BRANCH  25  26
ATOM     26  N   UNL A   1      40.023  20.004  26.068  1.00  0.00    -0.352 N 
ATOM     27  C   UNL A   1      41.398  19.834  26.162  1.00  0.00     0.251 C 
ATOM     28  H   UNL A   1      39.488  19.186  25.950  1.00  0.00     0.163 HD
ATOM     29  O   UNL A   1      41.905  18.731  26.034  1.00  0.00    -0.269 OA
BRANCH  27  30
ATOM     30  C   UNL A   1      42.223  21.041  26.360  1.00  0.00     0.039 A 
ATOM     31  C   UNL A   1      42.639  21.757  25.237  1.00  0.00     0.014 A 
ATOM     32  C   UNL A   1      42.459  21.522  27.647  1.00  0.00     0.014 A 
ATOM     33  C   UNL A   1      43.213  23.019  25.408  1.00  0.00     0.010 A 
ATOM     34  C   UNL A   1      42.969  22.804  27.813  1.00  0.00     0.010 A 
ATOM     35  C   UNL A   1      43.331  23.571  26.694  1.00  0.00    -0.014 A 
BRANCH  35  36
ATOM     36  C   UNL A   1      43.789  24.966  26.897  1.00  0.00     0.031 A 
ATOM     37  C   UNL A   1      45.236  25.315  26.702  1.00  0.00     0.074 A 
ATOM     38  C   UNL A   1      42.921  25.890  27.356  1.00  0.00     0.049 A 
ATOM     39  N   UNL A   1      45.852  26.442  26.946  1.00  0.00    -0.248 NA
ATOM     40  C   UNL A   1      46.112  24.245  26.198  1.00  0.00     0.031 C 
ATOM     41  C   UNL A   1      41.502  25.655  27.641  1.00  0.00     0.029 A 
ATOM     42  N   UNL A   1      43.107  27.210  27.683  1.00  0.00    -0.354 N 
ATOM     43  C   UNL A   1      47.189  26.212  26.647  1.00  0.00     0.074 A 
ATOM     44  C   UNL A   1      47.301  24.827  26.242  1.00  0.00     0.031 C 
ATOM     45  C   UNL A   1      40.947  26.793  28.090  1.00  0.00     0.029 A 
ATOM     46  C   UNL A   1      41.973  27.828  28.155  1.00  0.00     0.049 A 
ATOM     47  H   UNL A   1      43.972  27.670  27.590  1.00  0.00     0.167 HD
ATOM     48  C   UNL A   1      48.225  27.083  26.690  1.00  0.00     0.037 A 
ATOM     49  C   UNL A   1      41.785  29.086  28.601  1.00  0.00     0.037 A 
ATOM     50  C   UNL A   1      48.099  28.468  27.055  1.00  0.00     0.049 A 
ATOM     51  C   UNL A   1      42.946  30.041  28.615  1.00  0.00     0.074 A 
ATOM     52  C   UNL A   1      49.073  29.451  27.049  1.00  0.00     0.029 A 
ATOM     53  N   UNL A   1      46.926  29.068  27.490  1.00  0.00    -0.354 N 
ATOM     54  N   UNL A   1      44.191  29.825  28.264  1.00  0.00    -0.248 NA
ATOM     55  C   UNL A   1      42.680  31.407  29.084  1.00  0.00     0.031 C 
ATOM     56  C   UNL A   1      48.495  30.641  27.506  1.00  0.00     0.029 A 
ATOM     57  C   UNL A   1      47.154  30.404  27.770  1.00  0.00     0.049 A 
ATOM     58  H   UNL A   1      46.059  28.610  27.585  1.00  0.00     0.167 HD
ATOM     59  C   UNL A   1      44.853  31.031  28.456  1.00  0.00     0.074 A 
ATOM     60  C   UNL A   1      43.869  31.976  28.943  1.00  0.00     0.031 C 
ATOM     61  C   UNL A   1      46.159  31.329  28.251  1.00  0.00     0.037 A 
BRANCH  48  62
ATOM     62  C   UNL A   1      49.581  26.560  26.318  1.00  0.00     0.058 A 
ATOM     63  C   UNL A   1      50.097  26.722  25.023  1.00  0.00     0.135 A 
ATOM     64  C   UNL A   1      50.381  25.909  27.268  1.00  0.00     0.135 A 
ATOM     65  F   UNL A   1      49.363  27.322  24.072  1.00  0.00    -0.206 F 
ATOM     66  C   UNL A   1      51.351  26.232  24.675  1.00  0.00     0.059 A 
ATOM     67  C   UNL A   1      51.649  25.429  26.948  1.00  0.00     0.059 A 
ATOM     68  F   UNL A   1      49.932  25.726  28.520  1.00  0.00    -0.206 F 
ATOM     69  C   UNL A   1      52.118  25.582  25.643  1.00  0.00     0.060 A 
BRANCH  69  70
ATOM     70  S   UNL A   1      53.742  24.947  25.178  1.00  0.00     0.124 S 
ATOM     71  O   UNL A   1      53.492  23.509  25.145  1.00  0.00    -0.237 OA
ATOM     72  O   UNL A   1      53.969  25.580  23.883  1.00  0.00    -0.237 OA
ATOM     73  O   UNL A   1      54.608  25.410  26.258  1.00  0.00    -0.744 OA
ENDBRANCH  69  70
ENDBRANCH  48  62
BRANCH  49  74
ATOM     74  C   UNL A   1      40.439  29.518  29.054  1.00  0.00     0.058 A 
ATOM     75  C   UNL A   1      40.168  29.707  30.417  1.00  0.00     0.135 A 
ATOM     76  C   UNL A   1      39.405  29.767  28.139  1.00  0.00     0.135 A 
ATOM     77  F   UNL A   1      41.125  29.477  31.329  1.00  0.00    -0.206 F 
ATOM     78  C   UNL A   1      38.915  30.117  30.860  1.00  0.00     0.059 A 
ATOM     79  C   UNL A   1      38.149  30.195  28.557  1.00  0.00     0.059 A 
ATOM     80  F   UNL A   1      39.622  29.616  26.823  1.00  0.00    -0.206 F 
ATOM     81  C   UNL A   1      37.911  30.359  29.921  1.00  0.00     0.060 A 
BRANCH  81  82
ATOM     82  S   UNL A   1      36.303  30.947  30.499  1.00  0.00     0.124 S 
ATOM     83  O   UNL A   1      35.935  29.905  31.449  1.00  0.00    -0.237 OA
ATOM     84  O   UNL A   1      36.636  32.248  31.073  1.00  0.00    -0.237 OA
ATOM     85  O   UNL A   1      35.509  30.998  29.274  1.00  0.00    -0.744 OA
ENDBRANCH  81  82
ENDBRANCH  49  74
BRANCH  61  86
ATOM     86  C   UNL A   1      46.600  32.734  28.536  1.00  0.00     0.058 A 
ATOM     87  C   UNL A   1      47.102  33.100  29.793  1.00  0.00     0.135 A 
ATOM     88  C   UNL A   1      46.581  33.706  27.523  1.00  0.00     0.135 A 
ATOM     89  F   UNL A   1      47.131  32.206  30.795  1.00  0.00    -0.206 F 
ATOM     90  C   UNL A   1      47.566  34.387  30.041  1.00  0.00     0.059 A 
ATOM     91  C   UNL A   1      47.058  34.995  27.744  1.00  0.00     0.059 A 
ATOM     92  F   UNL A   1      46.115  33.402  26.302  1.00  0.00    -0.206 F 
ATOM     93  C   UNL A   1      47.542  35.327  29.008  1.00  0.00     0.060 A 
BRANCH  93  94
ATOM     94  S   UNL A   1      48.197  36.979  29.323  1.00  0.00     0.124 S 
ATOM     95  O   UNL A   1      48.708  36.838  30.682  1.00  0.00    -0.237 OA
ATOM     96  O   UNL A   1      49.206  37.125  28.278  1.00  0.00    -0.237 OA
ATOM     97  O   UNL A   1      47.026  37.840  29.177  1.00  0.00    -0.744 OA
ENDBRANCH  93  94
ENDBRANCH  61  86
ENDBRANCH  35  36
ENDBRANCH  27  30
ENDBRANCH  25  26
ENDBRANCH  24  25
ENDBRANCH   1  24
TORSDOF 19
ENDMDL
MODEL 2
REMARK VINA RESULT:     -10.6      6.294      8.436
REMARK SMILES CCC(CC)NC(=O)NC[C@H]1CC[C@H](C(=O)NCCCCNC(=O)c2ccc(-c3c4nc(c(-c5c(F)cc(S(=O)(=O)[O-])cc5F)c5ccc([nH]5)c(-c5c(F)cc(S(=O)(=O)[O-])cc5F)c5nc(c(-c6c(F)cc(S(=O)(=O)[O-])cc6F)c6ccc3[nH]6)C=C5)C=C4)cc2)O1
REMARK SMILES IDX 19 1 18 2 17 3 15 4 16 5 14 7 11 8 12 9 91 10 13 11 10 12
REMARK SMILES IDX 9 13 6 14 7 15 8 17 3 19 2 20 1 21 4 22 5 23 20 24 21 25
REMARK SMILES IDX 22 26 23 27 24 29 25 30 26 31 90 32 27 33 89 34 28 35 29 36
REMARK SMILES IDX 30 37 83 38 31 39 88 40 82 41 84 42 32 43 87 44 81 45 80 46
REMARK SMILES IDX 33 48 67 49 46 50 66 51 47 52 50 53 65 54 85 55 48 56 49 57
REMARK SMILES IDX 64 59 86 60 51 61 34 62 35 63 44 64 36 65 37 66 43 67 45 68
REMARK SMILES IDX 38 69 39 70 40 71 41 72 42 73 68 74 69 75 78 76 70 77 71 78
REMARK SMILES IDX 77 79 79 80 72 81 73 82 74 83 75 84 76 85 52 86 53 87 62 88
REMARK SMILES IDX 54 89 55 90 61 91 63 92 56 93 57 94 58 95 59 96 60 97
REMARK H PARENT 17 6 6 16 9 18 22 28 84 47 50 58
REMARK Flexibility Score: inf
ROOT
ATOM      1  C   UNL A   1      36.790  22.876  25.411  1.00  0.00     0.023 C 
ENDROOT
BRANCH   1   2
ATOM      2  C   UNL A   1      35.588  22.214  26.086  1.00  0.00     0.116 C 
BRANCH   2   3
ATOM      3  N   UNL A   1      35.425  20.838  25.669  1.00  0.00    -0.354 N 
ATOM      4  C   UNL A   1      34.499  20.274  24.841  1.00  0.00     0.249 C 
ATOM      5  O   UNL A   1      34.590  19.060  24.629  1.00  0.00    -0.272 OA
ATOM      6  H   UNL A   1      36.086  20.211  26.040  1.00  0.00     0.163 HD
BRANCH   4   7
ATOM      7  C   UNL A   1      33.315  21.079  24.252  1.00  0.00     0.207 C 
ATOM      8  C   UNL A   1      32.670  23.331  24.168  1.00  0.00     0.138 C 
ATOM      9  C   UNL A   1      32.161  22.767  25.477  1.00  0.00     0.037 C 
ATOM     10  O   UNL A   1      33.599  22.352  23.661  1.00  0.00    -0.363 OA
ATOM     11  C   UNL A   1      32.210  21.276  25.279  1.00  0.00     0.045 C 
BRANCH   8  12
ATOM     12  C   UNL A   1      31.608  23.673  23.106  1.00  0.00     0.149 C 
BRANCH  12  13
ATOM     13  N   UNL A   1      32.094  24.502  22.014  1.00  0.00    -0.336 N 
ATOM     14  N   UNL A   1      32.474  26.676  22.862  1.00  0.00    -0.335 N 
ATOM     15  C   UNL A   1      32.620  25.727  21.928  1.00  0.00     0.315 C 
ATOM     16  H   UNL A   1      33.133  27.403  22.787  1.00  0.00     0.165 HD
ATOM     17  O   UNL A   1      33.278  26.007  20.923  1.00  0.00    -0.249 OA
ATOM     18  H   UNL A   1      32.019  24.057  21.138  1.00  0.00     0.165 HD
BRANCH  14  19
ATOM     19  C   UNL A   1      31.541  26.853  23.966  1.00  0.00     0.083 C 
BRANCH  19  20
ATOM     20  C   UNL A   1      32.279  27.318  25.225  1.00  0.00     0.021 C 
ATOM     21  C   UNL A   1      31.446  27.130  26.485  1.00  0.00     0.006 C 
ENDBRANCH  19  20
BRANCH  19  22
ATOM     22  C   UNL A   1      30.349  27.736  23.540  1.00  0.00     0.021 C 
ATOM     23  C   UNL A   1      30.633  29.229  23.483  1.00  0.00     0.006 C 
ENDBRANCH  19  22
ENDBRANCH  14  19
ENDBRANCH  12  13
ENDBRANCH   8  12
ENDBRANCH   4   7
ENDBRANCH   2   3
ENDBRANCH   1   2
BRANCH   1  24
ATOM     24  C   UNL A   1      38.128  22.677  26.119  1.00  0.00     0.023 C 
BRANCH  24  25
ATOM     25  C   UNL A   1      38.895  23.961  26.412  1.00  0.00     0.116 C 
BRANCH  25  26
ATOM     26  N   UNL A   1      40.313  23.886  26.117  1.00  0.00    -0.352 N 
ATOM     27  C   UNL A   1      41.307  24.754  26.546  1.00  0.00     0.251 C 
ATOM     28  H   UNL A   1      40.603  23.136  25.549  1.00  0.00     0.163 HD
ATOM     29  O   UNL A   1      42.463  24.620  26.175  1.00  0.00    -0.269 OA
BRANCH  27  30
ATOM     30  C   UNL A   1      40.905  25.876  27.416  1.00  0.00     0.039 A 
ATOM     31  C   UNL A   1      39.969  25.638  28.423  1.00  0.00     0.014 A 
ATOM     32  C   UNL A   1      41.553  27.106  27.314  1.00  0.00     0.014 A 
ATOM     33  C   UNL A   1      39.754  26.615  29.398  1.00  0.00     0.010 A 
ATOM     34  C   UNL A   1      41.387  28.051  28.319  1.00  0.00     0.010 A 
ATOM     35  C   UNL A   1      40.502  27.804  29.381  1.00  0.00    -0.014 A 
BRANCH  35  36
ATOM     36  C   UNL A   1      40.411  28.790  30.485  1.00  0.00     0.031 A 
ATOM     37  C   UNL A   1      41.265  28.625  31.708  1.00  0.00     0.074 A 
ATOM     38  C   UNL A   1      39.485  29.768  30.427  1.00  0.00     0.049 A 
ATOM     39  N   UNL A   1      41.246  29.304  32.824  1.00  0.00    -0.248 NA
ATOM     40  C   UNL A   1      42.249  27.531  31.684  1.00  0.00     0.031 C 
ATOM     41  C   UNL A   1      38.555  29.992  29.316  1.00  0.00     0.029 A 
ATOM     42  N   UNL A   1      39.159  30.747  31.331  1.00  0.00    -0.354 N 
ATOM     43  C   UNL A   1      42.196  28.708  33.644  1.00  0.00     0.074 A 
ATOM     44  C   UNL A   1      42.746  27.588  32.912  1.00  0.00     0.031 C 
ATOM     45  C   UNL A   1      37.772  31.046  29.601  1.00  0.00     0.029 A 
ATOM     46  C   UNL A   1      38.121  31.552  30.924  1.00  0.00     0.049 A 
ATOM     47  H   UNL A   1      39.623  30.861  32.191  1.00  0.00     0.167 HD
ATOM     48  C   UNL A   1      42.586  29.075  34.887  1.00  0.00     0.037 A 
ATOM     49  C   UNL A   1      37.512  32.577  31.553  1.00  0.00     0.037 A 
ATOM     50  C   UNL A   1      42.064  30.214  35.594  1.00  0.00     0.049 A 
ATOM     51  C   UNL A   1      37.981  32.980  32.923  1.00  0.00     0.074 A 
ATOM     52  C   UNL A   1      42.454  30.716  36.822  1.00  0.00     0.029 A 
ATOM     53  N   UNL A   1      41.041  31.029  35.133  1.00  0.00    -0.354 N 
ATOM     54  N   UNL A   1      38.928  32.447  33.657  1.00  0.00    -0.248 NA
ATOM     55  C   UNL A   1      37.301  34.120  33.552  1.00  0.00     0.031 C 
ATOM     56  C   UNL A   1      41.647  31.821  37.118  1.00  0.00     0.029 A 
ATOM     57  C   UNL A   1      40.774  32.022  36.059  1.00  0.00     0.049 A 
ATOM     58  H   UNL A   1      40.573  30.917  34.273  1.00  0.00     0.167 HD
ATOM     59  C   UNL A   1      38.968  33.195  34.826  1.00  0.00     0.074 A 
ATOM     60  C   UNL A   1      37.958  34.226  34.699  1.00  0.00     0.031 C 
ATOM     61  C   UNL A   1      39.767  33.041  35.911  1.00  0.00     0.037 A 
BRANCH  48  62
ATOM     62  C   UNL A   1      43.640  28.239  35.554  1.00  0.00     0.058 A 
ATOM     63  C   UNL A   1      45.006  28.480  35.343  1.00  0.00     0.135 A 
ATOM     64  C   UNL A   1      43.282  27.201  36.427  1.00  0.00     0.135 A 
ATOM     65  F   UNL A   1      45.400  29.450  34.503  1.00  0.00    -0.206 F 
ATOM     66  C   UNL A   1      45.983  27.702  35.954  1.00  0.00     0.059 A 
ATOM     67  C   UNL A   1      44.243  26.423  37.067  1.00  0.00     0.059 A 
ATOM     68  F   UNL A   1      41.988  26.927  36.659  1.00  0.00    -0.206 F 
ATOM     69  C   UNL A   1      45.591  26.672  36.811  1.00  0.00     0.060 A 
BRANCH  69  70
ATOM     70  S   UNL A   1      46.869  25.667  37.596  1.00  0.00     0.124 S 
ATOM     71  O   UNL A   1      46.738  26.072  38.993  1.00  0.00    -0.237 OA
ATOM     72  O   UNL A   1      46.435  24.309  37.288  1.00  0.00    -0.237 OA
ATOM     73  O   UNL A   1      48.094  26.097  36.929  1.00  0.00    -0.744 OA
ENDBRANCH  69  70
ENDBRANCH  48  62
BRANCH  49  74
ATOM     74  C   UNL A   1      36.404  33.303  30.884  1.00  0.00     0.058 A 
ATOM     75  C   UNL A   1      35.087  33.194  31.355  1.00  0.00     0.135 A 
ATOM     76  C   UNL A   1      36.637  34.132  29.776  1.00  0.00     0.135 A 
ATOM     77  F   UNL A   1      34.816  32.410  32.409  1.00  0.00    -0.206 F 
ATOM     78  C   UNL A   1      34.037  33.872  30.745  1.00  0.00     0.059 A 
ATOM     79  C   UNL A   1      35.606  34.834  29.160  1.00  0.00     0.059 A 
ATOM     80  F   UNL A   1      37.883  34.281  29.299  1.00  0.00    -0.206 F 
ATOM     81  C   UNL A   1      34.307  34.691  29.647  1.00  0.00     0.060 A 
BRANCH  81  82
ATOM     82  S   UNL A   1      32.948  35.613  28.895  1.00  0.00     0.124 S 
ATOM     83  O   UNL A   1      32.383  34.617  27.992  1.00  0.00    -0.237 OA
ATOM     84  O   UNL A   1      32.131  35.962  30.054  1.00  0.00    -0.237 OA
ATOM     85  O   UNL A   1      33.624  36.738  28.255  1.00  0.00    -0.744 OA
ENDBRANCH  81  82
ENDBRANCH  49  74
BRANCH  61  86
ATOM     86  C   UNL A   1      39.595  34.016  37.038  1.00  0.00     0.058 A 
ATOM     87  C   UNL A   1      38.775  33.722  38.137  1.00  0.00     0.135 A 
ATOM     88  C   UNL A   1      40.308  35.224  37.051  1.00  0.00     0.135 A 
ATOM     89  F   UNL A   1      38.065  32.582  38.165  1.00  0.00    -0.206 F 
ATOM     90  C   UNL A   1      38.661  34.598  39.210  1.00  0.00     0.059 A 
ATOM     91  C   UNL A   1      40.225  36.107  38.124  1.00  0.00     0.059 A 
ATOM     92  F   UNL A   1      41.111  35.546  36.025  1.00  0.00    -0.206 F 
ATOM     93  C   UNL A   1      39.393  35.787  39.196  1.00  0.00     0.060 A 
BRANCH  93  94
ATOM     94  S   UNL A   1      39.282  36.893  40.618  1.00  0.00     0.124 S 
ATOM     95  O   UNL A   1      38.536  36.074  41.568  1.00  0.00    -0.237 OA
ATOM     96  O   UNL A   1      40.684  37.128  40.948  1.00  0.00    -0.237 OA
ATOM     97  O   UNL A   1      38.567  38.051  40.090  1.00  0.00    -0.744 OA
ENDBRANCH  93  94
ENDBRANCH  61  86
ENDBRANCH  35  36
ENDBRANCH  27  30
ENDBRANCH  25  26
ENDBRANCH  24  25
ENDBRANCH   1  24
TORSDOF 19
ENDMDL
MODEL 3
REMARK VINA RESULT:     -10.6      6.486     11.989
REMARK SMILES CCC(CC)NC(=O)NC[C@H]1CC[C@H](C(=O)NCCCCNC(=O)c2ccc(-c3c4nc(c(-c5c(F)cc(S(=O)(=O)[O-])cc5F)c5ccc([nH]5)c(-c5c(F)cc(S(=O)(=O)[O-])cc5F)c5nc(c(-c6c(F)cc(S(=O)(=O)[O-])cc6F)c6ccc3[nH]6)C=C5)C=C4)cc2)O1
REMARK SMILES IDX 19 1 18 2 17 3 15 4 16 5 14 7 11 8 12 9 91 10 13 11 10 12
REMARK SMILES IDX 9 13 6 14 7 15 8 17 3 19 2 20 1 21 4 22 5 23 20 24 21 25
REMARK SMILES IDX 22 26 23 27 24 29 25 30 26 31 90 32 27 33 89 34 28 35 29 36
REMARK SMILES IDX 30 37 83 38 31 39 88 40 82 41 84 42 32 43 87 44 81 45 80 46
REMARK SMILES IDX 33 48 67 49 46 50 66 51 47 52 50 53 65 54 85 55 48 56 49 57
REMARK SMILES IDX 64 59 86 60 51 61 34 62 35 63 44 64 36 65 37 66 43 67 45 68
REMARK SMILES IDX 38 69 39 70 40 71 41 72 42 73 68 74 69 75 78 76 70 77 71 78
REMARK SMILES IDX 77 79 79 80 72 81 73 82 74 83 75 84 76 85 52 86 53 87 62 88
REMARK SMILES IDX 54 89 55 90 61 91 63 92 56 93 57 94 58 95 59 96 60 97
REMARK H PARENT 17 6 6 16 9 18 22 28 84 47 50 58
REMARK Flexibility Score: inf
ROOT
ATOM      1  C   UNL A   1      32.693  30.284  26.875  1.00  0.00     0.023 C 
ENDROOT
BRANCH   1   2
ATOM      2  C   UNL A   1      32.204  29.544  25.629  1.00  0.00     0.116 C 
BRANCH   2   3
ATOM      3  N   UNL A   1      33.198  29.543  24.578  1.00  0.00    -0.354 N 
ATOM      4  C   UNL A   1      33.363  28.690  23.526  1.00  0.00     0.249 C 
ATOM      5  O   UNL A   1      34.294  28.922  22.748  1.00  0.00    -0.272 OA
ATOM      6  H   UNL A   1      33.858  30.270  24.630  1.00  0.00     0.163 HD
BRANCH   4   7
ATOM      7  C   UNL A   1      32.493  27.424  23.342  1.00  0.00     0.207 C 
ATOM      8  C   UNL A   1      32.530  25.212  24.119  1.00  0.00     0.138 C 
ATOM      9  C   UNL A   1      33.416  25.273  22.893  1.00  0.00     0.037 C 
ATOM     10  O   UNL A   1      32.281  26.586  24.483  1.00  0.00    -0.363 OA
ATOM     11  C   UNL A   1      33.012  26.551  22.209  1.00  0.00     0.045 C 
BRANCH   8  12
ATOM     12  C   UNL A   1      31.204  24.441  23.973  1.00  0.00     0.149 C 
BRANCH  12  13
ATOM     13  N   UNL A   1      30.627  23.995  25.231  1.00  0.00    -0.336 N 
ATOM     14  N   UNL A   1      32.056  22.349  26.146  1.00  0.00    -0.335 N 
ATOM     15  C   UNL A   1      31.053  23.232  26.242  1.00  0.00     0.315 C 
ATOM     16  H   UNL A   1      32.424  22.079  27.018  1.00  0.00     0.165 HD
ATOM     17  O   UNL A   1      30.488  23.342  27.332  1.00  0.00    -0.249 OA
ATOM     18  H   UNL A   1      29.711  24.333  25.369  1.00  0.00     0.165 HD
BRANCH  14  19
ATOM     19  C   UNL A   1      32.713  21.704  25.018  1.00  0.00     0.083 C 
BRANCH  19  20
ATOM     20  C   UNL A   1      34.229  21.914  25.088  1.00  0.00     0.021 C 
ATOM     21  C   UNL A   1      34.748  21.903  26.519  1.00  0.00     0.006 C 
ENDBRANCH  19  20
BRANCH  19  22
ATOM     22  C   UNL A   1      32.259  20.236  24.884  1.00  0.00     0.021 C 
ATOM     23  C   UNL A   1      33.352  19.247  24.509  1.00  0.00     0.006 C 
ENDBRANCH  19  22
ENDBRANCH  14  19
ENDBRANCH  12  13
ENDBRANCH   8  12
ENDBRANCH   4   7
ENDBRANCH   2   3
ENDBRANCH   1   2
BRANCH   1  24
ATOM     24  C   UNL A   1      32.221  31.730  27.003  1.00  0.00     0.023 C 
BRANCH  24  25
ATOM     25  C   UNL A   1      33.202  32.665  27.703  1.00  0.00     0.116 C 
BRANCH  25  26
ATOM     26  N   UNL A   1      32.709  34.017  27.881  1.00  0.00    -0.352 N 
ATOM     27  C   UNL A   1      33.158  34.961  28.794  1.00  0.00     0.251 C 
ATOM     28  H   UNL A   1      31.975  34.298  27.288  1.00  0.00     0.163 HD
ATOM     29  O   UNL A   1      32.616  36.050  28.891  1.00  0.00    -0.269 OA
BRANCH  27  30
ATOM     30  C   UNL A   1      34.272  34.575  29.683  1.00  0.00     0.039 A 
ATOM     31  C   UNL A   1      33.971  34.052  30.941  1.00  0.00     0.014 A 
ATOM     32  C   UNL A   1      35.583  34.608  29.212  1.00  0.00     0.014 A 
ATOM     33  C   UNL A   1      34.991  33.466  31.695  1.00  0.00     0.010 A 
ATOM     34  C   UNL A   1      36.584  33.967  29.934  1.00  0.00     0.010 A 
ATOM     35  C   UNL A   1      36.291  33.372  31.172  1.00  0.00    -0.014 A 
BRANCH  35  36
ATOM     36  C   UNL A   1      37.355  32.620  31.877  1.00  0.00     0.031 A 
ATOM     37  C   UNL A   1      37.870  33.112  33.199  1.00  0.00     0.074 A 
ATOM     38  C   UNL A   1      37.927  31.557  31.276  1.00  0.00     0.049 A 
ATOM     39  N   UNL A   1      38.873  32.667  33.910  1.00  0.00    -0.248 NA
ATOM     40  C   UNL A   1      37.187  34.278  33.782  1.00  0.00     0.031 C 
ATOM     41  C   UNL A   1      37.554  31.021  29.963  1.00  0.00     0.029 A 
ATOM     42  N   UNL A   1      38.958  30.746  31.680  1.00  0.00    -0.354 N 
ATOM     43  C   UNL A   1      38.956  33.510  35.011  1.00  0.00     0.074 A 
ATOM     44  C   UNL A   1      37.928  34.516  34.854  1.00  0.00     0.031 C 
ATOM     45  C   UNL A   1      38.336  29.968  29.677  1.00  0.00     0.029 A 
ATOM     46  C   UNL A   1      39.286  29.772  30.768  1.00  0.00     0.049 A 
ATOM     47  H   UNL A   1      39.420  30.853  32.543  1.00  0.00     0.167 HD
ATOM     48  C   UNL A   1      39.802  33.439  36.065  1.00  0.00     0.037 A 
ATOM     49  C   UNL A   1      40.251  28.832  30.802  1.00  0.00     0.037 A 
ATOM     50  C   UNL A   1      40.795  32.413  36.235  1.00  0.00     0.049 A 
ATOM     51  C   UNL A   1      41.162  28.759  31.995  1.00  0.00     0.074 A 
ATOM     52  C   UNL A   1      41.644  32.206  37.307  1.00  0.00     0.029 A 
ATOM     53  N   UNL A   1      41.072  31.420  35.307  1.00  0.00    -0.354 N 
ATOM     54  N   UNL A   1      41.183  29.524  33.061  1.00  0.00    -0.248 NA
ATOM     55  C   UNL A   1      42.179  27.699  31.993  1.00  0.00     0.031 C 
ATOM     56  C   UNL A   1      42.454  31.103  37.017  1.00  0.00     0.029 A 
ATOM     57  C   UNL A   1      42.089  30.606  35.775  1.00  0.00     0.049 A 
ATOM     58  H   UNL A   1      40.612  31.309  34.443  1.00  0.00     0.167 HD
ATOM     59  C   UNL A   1      42.204  29.029  33.862  1.00  0.00     0.074 A 
ATOM     60  C   UNL A   1      42.770  27.892  33.165  1.00  0.00     0.031 C 
ATOM     61  C   UNL A   1      42.636  29.477  35.066  1.00  0.00     0.037 A 
BRANCH  48  62
ATOM     62  C   UNL A   1      39.676  34.496  37.123  1.00  0.00     0.058 A 
ATOM     63  C   UNL A   1      40.288  35.751  36.979  1.00  0.00     0.135 A 
ATOM     64  C   UNL A   1      38.921  34.261  38.282  1.00  0.00     0.135 A 
ATOM     65  F   UNL A   1      41.036  36.019  35.897  1.00  0.00    -0.206 F 
ATOM     66  C   UNL A   1      40.178  36.729  37.962  1.00  0.00     0.059 A 
ATOM     67  C   UNL A   1      38.779  35.233  39.268  1.00  0.00     0.059 A 
ATOM     68  F   UNL A   1      38.319  33.076  38.469  1.00  0.00    -0.206 F 
ATOM     69  C   UNL A   1      39.425  36.458  39.105  1.00  0.00     0.060 A 
BRANCH  69  70
ATOM     70  S   UNL A   1      39.293  37.735  40.375  1.00  0.00     0.124 S 
ATOM     71  O   UNL A   1      40.611  38.358  40.298  1.00  0.00    -0.237 OA
ATOM     72  O   UNL A   1      38.180  38.545  39.892  1.00  0.00    -0.237 OA
ATOM     73  O   UNL A   1      39.027  36.975  41.592  1.00  0.00    -0.744 OA
ENDBRANCH  69  70
ENDBRANCH  48  62
BRANCH  49  74
ATOM     74  C   UNL A   1      40.394  27.875  29.676  1.00  0.00     0.058 A 
ATOM     75  C   UNL A   1      39.555  26.756  29.574  1.00  0.00     0.135 A 
ATOM     76  C   UNL A   1      41.356  28.067  28.671  1.00  0.00     0.135 A 
ATOM     77  F   UNL A   1      38.624  26.530  30.514  1.00  0.00    -0.206 F 
ATOM     78  C   UNL A   1      39.670  25.852  28.524  1.00  0.00     0.059 A 
ATOM     79  C   UNL A   1      41.478  27.186  27.602  1.00  0.00     0.059 A 
ATOM     80  F   UNL A   1      42.171  29.133  28.716  1.00  0.00    -0.206 F 
ATOM     81  C   UNL A   1      40.636  26.077  27.540  1.00  0.00     0.060 A 
BRANCH  81  82
ATOM     82  S   UNL A   1      40.742  24.930  26.149  1.00  0.00     0.124 S 
ATOM     83  O   UNL A   1      41.177  25.814  25.073  1.00  0.00    -0.237 OA
ATOM     84  O   UNL A   1      41.729  23.962  26.619  1.00  0.00    -0.237 OA
ATOM     85  O   UNL A   1      39.379  24.418  26.037  1.00  0.00    -0.744 OA
ENDBRANCH  81  82
ENDBRANCH  49  74
BRANCH  61  86
ATOM     86  C   UNL A   1      43.764  28.731  35.715  1.00  0.00     0.058 A 
ATOM     87  C   UNL A   1      43.524  27.642  36.565  1.00  0.00     0.135 A 
ATOM     88  C   UNL A   1      45.097  29.067  35.433  1.00  0.00     0.135 A 
ATOM     89  F   UNL A   1      42.265  27.289  36.872  1.00  0.00    -0.206 F 
ATOM     90  C   UNL A   1      44.569  26.913  37.121  1.00  0.00     0.059 A 
ATOM     91  C   UNL A   1      46.158  28.339  35.962  1.00  0.00     0.059 A 
ATOM     92  F   UNL A   1      45.377  30.097  34.620  1.00  0.00    -0.206 F 
ATOM     93  C   UNL A   1      45.884  27.268  36.810  1.00  0.00     0.060 A 
BRANCH  93  94
ATOM     94  S   UNL A   1      47.233  26.282  37.493  1.00  0.00     0.124 S 
ATOM     95  O   UNL A   1      46.505  25.289  38.276  1.00  0.00    -0.237 OA
ATOM     96  O   UNL A   1      47.896  25.780  36.293  1.00  0.00    -0.237 OA
ATOM     97  O   UNL A   1      48.003  27.252  38.266  1.00  0.00    -0.744 OA
ENDBRANCH  93  94
ENDBRANCH  61  86
ENDBRANCH  35  36
ENDBRANCH  27  30
ENDBRANCH  25  26
ENDBRANCH  24  25
ENDBRANCH   1  24
TORSDOF 19
ENDMDL
