MODEL 1
REMARK VINA RESULT:     -13.9      0.000      0.000
REMARK SMILES Cc1cc(C(=O)NCCCCNC(=O)c2ccc(-c3c4nc(c(-c5c(F)cc(S(=O)(=O)[O-])cc5F)c5ccc([nH]5)c(-c5c(F)cc(S(=O)(=O)[O-])cc5F)c5nc(c(-c6c(F)cc(S(=O)(=O)[O-])cc6F)c6ccc3[nH]6)C=C5)C=C4)cc2)ccc1NS(=O)(=O)c1c(F)cccc1F
REMARK SMILES IDX 9 1 8 2 7 3 5 4 6 5 4 7 1 8 2 9 3 10 83 11 82 12 81 13 84 14
REMARK SMILES IDX 85 16 86 17 87 18 88 19 89 20 94 21 90 22 91 23 93 24 95 25
REMARK SMILES IDX 92 26 10 27 11 28 12 29 13 30 14 32 15 33 16 34 80 35 17 36
REMARK SMILES IDX 79 37 18 38 19 39 20 40 73 41 21 42 78 43 72 44 74 45 22 46
REMARK SMILES IDX 77 47 71 48 70 49 23 51 57 52 36 53 56 54 37 55 40 56 55 57
REMARK SMILES IDX 75 58 38 59 39 60 54 62 76 63 41 64 24 65 25 66 34 67 26 68
REMARK SMILES IDX 27 69 33 70 35 71 28 72 29 73 30 74 31 75 32 76 58 77 59 78
REMARK SMILES IDX 68 79 60 80 61 81 67 82 69 83 62 84 63 85 64 86 65 87 66 88
REMARK SMILES IDX 42 89 43 90 52 91 44 92 45 93 51 94 53 95 46 96 47 97 48 98
REMARK SMILES IDX 49 99 50 100
REMARK H PARENT 7 6 84 15 12 31 74 50 40 61
REMARK Flexibility Score: inf
ROOT
ATOM      1  C   UNL A   1      33.428  28.545  25.972  1.00  0.00     0.023 C 
ENDROOT
BRANCH   1   2
ATOM      2  C   UNL A   1      32.883  29.373  24.800  1.00  0.00     0.116 C 
BRANCH   2   3
ATOM      3  N   UNL A   1      33.600  29.187  23.543  1.00  0.00    -0.352 N 
ATOM      4  C   UNL A   1      33.566  28.218  22.567  1.00  0.00     0.251 C 
ATOM      5  O   UNL A   1      34.336  28.327  21.612  1.00  0.00    -0.269 OA
ATOM      6  H   UNL A   1      34.244  29.908  23.353  1.00  0.00     0.163 HD
BRANCH   4   7
ATOM      7  C   UNL A   1      32.721  26.998  22.661  1.00  0.00     0.040 A 
ATOM      8  C   UNL A   1      33.266  23.298  21.999  1.00  0.00     0.046 C 
ATOM      9  C   UNL A   1      32.655  24.559  22.546  1.00  0.00    -0.026 A 
ATOM     10  C   UNL A   1      33.307  25.778  22.296  1.00  0.00     0.019 A 
ATOM     11  C   UNL A   1      31.449  24.583  23.261  1.00  0.00     0.052 A 
ATOM     12  C   UNL A   1      30.744  25.783  23.344  1.00  0.00     0.028 A 
ATOM     13  C   UNL A   1      31.382  26.994  23.042  1.00  0.00     0.016 A 
BRANCH  11  14
ATOM     14  N   UNL A   1      31.084  23.401  23.974  1.00  0.00    -0.279 N 
ATOM     15  H   UNL A   1      30.508  22.760  23.496  1.00  0.00     0.180 HD
BRANCH  14  16
ATOM     16  S   UNL A   1      31.529  22.987  25.535  1.00  0.00     0.267 S 
ATOM     17  O   UNL A   1      31.012  24.037  26.387  1.00  0.00    -0.201 OA
ATOM     18  O   UNL A   1      31.095  21.613  25.699  1.00  0.00    -0.201 OA
BRANCH  16  19
ATOM     19  C   UNL A   1      33.276  22.980  25.668  1.00  0.00     0.158 A 
ATOM     20  C   UNL A   1      33.924  24.208  25.752  1.00  0.00     0.146 A 
ATOM     21  C   UNL A   1      34.033  21.820  25.585  1.00  0.00     0.146 A 
ATOM     22  F   UNL A   1      33.237  25.343  25.935  1.00  0.00    -0.205 F 
ATOM     23  C   UNL A   1      35.313  24.291  25.662  1.00  0.00     0.041 A 
ATOM     24  C   UNL A   1      35.423  21.892  25.469  1.00  0.00     0.041 A 
ATOM     25  F   UNL A   1      33.462  20.608  25.586  1.00  0.00    -0.205 F 
ATOM     26  C   UNL A   1      36.065  23.131  25.489  1.00  0.00     0.006 A 
ENDBRANCH  16  19
ENDBRANCH  14  16
ENDBRANCH  11  14
ENDBRANCH   4   7
ENDBRANCH   2   3
ENDBRANCH   1   2
BRANCH   1  27
ATOM     27  C   UNL A   1      34.656  29.114  26.689  1.00  0.00     0.023 C 
BRANCH  27  28
ATOM     28  C   UNL A   1      34.324  30.071  27.833  1.00  0.00     0.116 C 
BRANCH  28  29
ATOM     29  N   UNL A   1      35.186  31.240  27.934  1.00  0.00    -0.352 N 
ATOM     30  C   UNL A   1      36.516  31.290  28.342  1.00  0.00     0.251 C 
ATOM     31  H   UNL A   1      34.778  32.101  27.682  1.00  0.00     0.163 HD
ATOM     32  O   UNL A   1      37.066  32.343  28.598  1.00  0.00    -0.269 OA
BRANCH  30  33
ATOM     33  C   UNL A   1      37.274  30.016  28.355  1.00  0.00     0.039 A 
ATOM     34  C   UNL A   1      37.269  29.270  29.540  1.00  0.00     0.014 A 
ATOM     35  C   UNL A   1      38.175  29.726  27.336  1.00  0.00     0.014 A 
ATOM     36  C   UNL A   1      38.311  28.381  29.794  1.00  0.00     0.010 A 
ATOM     37  C   UNL A   1      39.258  28.923  27.628  1.00  0.00     0.010 A 
ATOM     38  C   UNL A   1      39.357  28.294  28.879  1.00  0.00    -0.014 A 
BRANCH  38  39
ATOM     39  C   UNL A   1      40.645  27.667  29.160  1.00  0.00     0.031 A 
ATOM     40  C   UNL A   1      40.895  26.260  28.765  1.00  0.00     0.074 A 
ATOM     41  C   UNL A   1      41.662  28.426  29.620  1.00  0.00     0.049 A 
ATOM     42  N   UNL A   1      41.907  25.553  29.144  1.00  0.00    -0.248 NA
ATOM     43  C   UNL A   1      39.962  25.513  27.934  1.00  0.00     0.031 C 
ATOM     44  C   UNL A   1      43.089  28.130  29.541  1.00  0.00     0.029 A 
ATOM     45  N   UNL A   1      41.597  29.562  30.421  1.00  0.00    -0.354 N 
ATOM     46  C   UNL A   1      41.928  24.401  28.385  1.00  0.00     0.074 A 
ATOM     47  C   UNL A   1      40.647  24.388  27.723  1.00  0.00     0.031 C 
ATOM     48  C   UNL A   1      43.748  28.903  30.419  1.00  0.00     0.029 A 
ATOM     49  C   UNL A   1      42.752  29.598  31.218  1.00  0.00     0.049 A 
ATOM     50  H   UNL A   1      40.868  30.224  30.430  1.00  0.00     0.167 HD
ATOM     51  C   UNL A   1      43.089  23.682  28.306  1.00  0.00     0.037 A 
ATOM     52  C   UNL A   1      42.669  29.505  32.579  1.00  0.00     0.037 A 
ATOM     53  C   UNL A   1      44.076  24.189  29.267  1.00  0.00     0.049 A 
ATOM     54  C   UNL A   1      43.311  28.263  33.159  1.00  0.00     0.074 A 
ATOM     55  C   UNL A   1      45.179  25.018  29.138  1.00  0.00     0.029 A 
ATOM     56  N   UNL A   1      43.821  24.091  30.633  1.00  0.00    -0.354 N 
ATOM     57  N   UNL A   1      43.664  27.226  32.450  1.00  0.00    -0.248 NA
ATOM     58  C   UNL A   1      43.595  28.082  34.581  1.00  0.00     0.031 C 
ATOM     59  C   UNL A   1      45.530  25.489  30.429  1.00  0.00     0.029 A 
ATOM     60  C   UNL A   1      44.661  24.924  31.347  1.00  0.00     0.049 A 
ATOM     61  H   UNL A   1      43.137  23.506  31.034  1.00  0.00     0.167 HD
ATOM     62  C   UNL A   1      44.165  26.250  33.272  1.00  0.00     0.074 A 
ATOM     63  C   UNL A   1      44.129  26.847  34.595  1.00  0.00     0.031 C 
ATOM     64  C   UNL A   1      44.553  25.029  32.797  1.00  0.00     0.037 A 
BRANCH  51  65
ATOM     65  C   UNL A   1      43.446  22.736  27.159  1.00  0.00     0.058 A 
ATOM     66  C   UNL A   1      42.782  21.493  27.016  1.00  0.00     0.135 A 
ATOM     67  C   UNL A   1      44.485  22.931  26.227  1.00  0.00     0.135 A 
ATOM     68  F   UNL A   1      41.695  21.193  27.739  1.00  0.00    -0.206 F 
ATOM     69  C   UNL A   1      43.200  20.494  26.129  1.00  0.00     0.059 A 
ATOM     70  C   UNL A   1      44.951  21.934  25.362  1.00  0.00     0.059 A 
ATOM     71  F   UNL A   1      45.067  24.120  26.054  1.00  0.00    -0.206 F 
ATOM     72  C   UNL A   1      44.314  20.706  25.333  1.00  0.00     0.060 A 
BRANCH  72  73
ATOM     73  S   UNL A   1      44.899  19.387  24.253  1.00  0.00     0.124 S 
ATOM     74  O   UNL A   1      44.200  18.223  24.788  1.00  0.00    -0.237 OA
ATOM     75  O   UNL A   1      44.460  19.848  22.941  1.00  0.00    -0.237 OA
ATOM     76  O   UNL A   1      46.345  19.391  24.464  1.00  0.00    -0.744 OA
ENDBRANCH  72  73
ENDBRANCH  51  65
BRANCH  52  77
ATOM     77  C   UNL A   1      41.487  30.216  33.138  1.00  0.00     0.058 A 
ATOM     78  C   UNL A   1      41.584  31.615  33.258  1.00  0.00     0.135 A 
ATOM     79  C   UNL A   1      40.203  29.653  33.075  1.00  0.00     0.135 A 
ATOM     80  F   UNL A   1      42.788  32.203  33.337  1.00  0.00    -0.206 F 
ATOM     81  C   UNL A   1      40.470  32.433  33.125  1.00  0.00     0.059 A 
ATOM     82  C   UNL A   1      39.070  30.458  32.946  1.00  0.00     0.059 A 
ATOM     83  F   UNL A   1      40.053  28.324  32.969  1.00  0.00    -0.206 F 
ATOM     84  C   UNL A   1      39.230  31.843  32.890  1.00  0.00     0.060 A 
BRANCH  84  85
ATOM     85  S   UNL A   1      37.907  32.915  32.282  1.00  0.00     0.124 S 
ATOM     86  O   UNL A   1      36.903  31.947  31.855  1.00  0.00    -0.237 OA
ATOM     87  O   UNL A   1      37.578  33.669  33.493  1.00  0.00    -0.237 OA
ATOM     88  O   UNL A   1      38.553  33.673  31.219  1.00  0.00    -0.744 OA
ENDBRANCH  84  85
ENDBRANCH  52  77
BRANCH  64  89
ATOM     89  C   UNL A   1      44.946  23.844  33.644  1.00  0.00     0.058 A 
ATOM     90  C   UNL A   1      44.068  22.807  33.999  1.00  0.00     0.135 A 
ATOM     91  C   UNL A   1      46.299  23.654  34.014  1.00  0.00     0.135 A 
ATOM     92  F   UNL A   1      42.783  22.821  33.614  1.00  0.00    -0.206 F 
ATOM     93  C   UNL A   1      44.486  21.688  34.724  1.00  0.00     0.059 A 
ATOM     94  C   UNL A   1      46.748  22.521  34.689  1.00  0.00     0.059 A 
ATOM     95  F   UNL A   1      47.239  24.565  33.717  1.00  0.00    -0.206 F 
ATOM     96  C   UNL A   1      45.828  21.553  35.064  1.00  0.00     0.060 A 
BRANCH  96  97
ATOM     97  S   UNL A   1      46.393  20.084  35.943  1.00  0.00     0.124 S 
ATOM     98  O   UNL A   1      45.790  20.281  37.257  1.00  0.00    -0.237 OA
ATOM     99  O   UNL A   1      45.834  18.993  35.149  1.00  0.00    -0.237 OA
ATOM    100  O   UNL A   1      47.847  20.205  35.887  1.00  0.00    -0.744 OA
ENDBRANCH  96  97
ENDBRANCH  64  89
ENDBRANCH  38  39
ENDBRANCH  30  33
ENDBRANCH  28  29
ENDBRANCH  27  28
ENDBRANCH   1  27
TORSDOF 17
ENDMDL
MODEL 2
REMARK VINA RESULT:     -13.8      1.287      1.899
REMARK SMILES Cc1cc(C(=O)NCCCCNC(=O)c2ccc(-c3c4nc(c(-c5c(F)cc(S(=O)(=O)[O-])cc5F)c5ccc([nH]5)c(-c5c(F)cc(S(=O)(=O)[O-])cc5F)c5nc(c(-c6c(F)cc(S(=O)(=O)[O-])cc6F)c6ccc3[nH]6)C=C5)C=C4)cc2)ccc1NS(=O)(=O)c1c(F)cccc1F
REMARK SMILES IDX 9 1 8 2 7 3 5 4 6 5 4 7 1 8 2 9 3 10 83 11 82 12 81 13 84 14
REMARK SMILES IDX 85 16 86 17 87 18 88 19 89 20 94 21 90 22 91 23 93 24 95 25
REMARK SMILES IDX 92 26 10 27 11 28 12 29 13 30 14 32 15 33 16 34 80 35 17 36
REMARK SMILES IDX 79 37 18 38 19 39 20 40 73 41 21 42 78 43 72 44 74 45 22 46
REMARK SMILES IDX 77 47 71 48 70 49 23 51 57 52 36 53 56 54 37 55 40 56 55 57
REMARK SMILES IDX 75 58 38 59 39 60 54 62 76 63 41 64 24 65 25 66 34 67 26 68
REMARK SMILES IDX 27 69 33 70 35 71 28 72 29 73 30 74 31 75 32 76 58 77 59 78
REMARK SMILES IDX 68 79 60 80 61 81 67 82 69 83 62 84 63 85 64 86 65 87 66 88
REMARK SMILES IDX 42 89 43 90 52 91 44 92 45 93 51 94 53 95 46 96 47 97 48 98
REMARK SMILES IDX 49 99 50 100
REMARK H PARENT 7 6 84 15 12 31 74 50 40 61
REMARK Flexibility Score: inf
ROOT
ATOM      1  C   UNL A   1      33.032  29.445  25.199  1.00  0.00     0.023 C 
ENDROOT
BRANCH   1   2
ATOM      2  C   UNL A   1      33.227  29.036  23.732  1.00  0.00     0.116 C 
BRANCH   2   3
ATOM      3  N   UNL A   1      32.049  29.224  22.891  1.00  0.00    -0.352 N 
ATOM      4  C   UNL A   1      30.930  28.463  22.644  1.00  0.00     0.251 C 
ATOM      5  O   UNL A   1      30.103  28.889  21.837  1.00  0.00    -0.269 OA
ATOM      6  H   UNL A   1      32.058  30.075  22.395  1.00  0.00     0.163 HD
BRANCH   4   7
ATOM      7  C   UNL A   1      30.721  27.110  23.225  1.00  0.00     0.040 A 
ATOM      8  C   UNL A   1      32.189  23.664  22.599  1.00  0.00     0.046 C 
ATOM      9  C   UNL A   1      31.489  24.794  23.305  1.00  0.00    -0.026 A 
ATOM     10  C   UNL A   1      31.469  26.055  22.687  1.00  0.00     0.019 A 
ATOM     11  C   UNL A   1      30.822  24.641  24.529  1.00  0.00     0.052 A 
ATOM     12  C   UNL A   1      29.854  25.579  24.885  1.00  0.00     0.028 A 
ATOM     13  C   UNL A   1      29.804  26.818  24.230  1.00  0.00     0.016 A 
BRANCH  11  14
ATOM     14  N   UNL A   1      31.272  23.600  25.398  1.00  0.00    -0.279 N 
ATOM     15  H   UNL A   1      30.724  22.782  25.424  1.00  0.00     0.180 HD
BRANCH  14  16
ATOM     16  S   UNL A   1      32.631  23.622  26.377  1.00  0.00     0.267 S 
ATOM     17  O   UNL A   1      33.158  24.968  26.294  1.00  0.00    -0.201 OA
ATOM     18  O   UNL A   1      32.192  23.069  27.643  1.00  0.00    -0.201 OA
BRANCH  16  19
ATOM     19  C   UNL A   1      33.835  22.520  25.740  1.00  0.00     0.158 A 
ATOM     20  C   UNL A   1      33.397  21.292  25.253  1.00  0.00     0.146 A 
ATOM     21  C   UNL A   1      35.197  22.775  25.802  1.00  0.00     0.146 A 
ATOM     22  F   UNL A   1      32.093  21.041  25.080  1.00  0.00    -0.205 F 
ATOM     23  C   UNL A   1      34.307  20.292  24.915  1.00  0.00     0.041 A 
ATOM     24  C   UNL A   1      36.118  21.772  25.489  1.00  0.00     0.041 A 
ATOM     25  F   UNL A   1      35.671  23.968  26.184  1.00  0.00    -0.205 F 
ATOM     26  C   UNL A   1      35.673  20.521  25.062  1.00  0.00     0.006 A 
ENDBRANCH  16  19
ENDBRANCH  14  16
ENDBRANCH  11  14
ENDBRANCH   4   7
ENDBRANCH   2   3
ENDBRANCH   1   2
BRANCH   1  27
ATOM     27  C   UNL A   1      34.239  29.250  26.121  1.00  0.00     0.023 C 
BRANCH  27  28
ATOM     28  C   UNL A   1      34.130  29.986  27.455  1.00  0.00     0.116 C 
BRANCH  28  29
ATOM     29  N   UNL A   1      34.952  31.183  27.573  1.00  0.00    -0.352 N 
ATOM     30  C   UNL A   1      36.279  31.273  27.981  1.00  0.00     0.251 C 
ATOM     31  H   UNL A   1      34.514  32.033  27.334  1.00  0.00     0.163 HD
ATOM     32  O   UNL A   1      36.794  32.339  28.252  1.00  0.00    -0.269 OA
BRANCH  30  33
ATOM     33  C   UNL A   1      37.081  30.024  27.976  1.00  0.00     0.039 A 
ATOM     34  C   UNL A   1      37.057  29.233  29.131  1.00  0.00     0.014 A 
ATOM     35  C   UNL A   1      38.029  29.805  26.983  1.00  0.00     0.014 A 
ATOM     36  C   UNL A   1      38.118  28.369  29.392  1.00  0.00     0.010 A 
ATOM     37  C   UNL A   1      39.127  29.028  27.287  1.00  0.00     0.010 A 
ATOM     38  C   UNL A   1      39.200  28.353  28.516  1.00  0.00    -0.014 A 
BRANCH  38  39
ATOM     39  C   UNL A   1      40.498  27.759  28.824  1.00  0.00     0.031 A 
ATOM     40  C   UNL A   1      40.771  26.342  28.488  1.00  0.00     0.074 A 
ATOM     41  C   UNL A   1      41.502  28.553  29.254  1.00  0.00     0.049 A 
ATOM     42  N   UNL A   1      41.793  25.667  28.896  1.00  0.00    -0.248 NA
ATOM     43  C   UNL A   1      39.851  25.546  27.687  1.00  0.00     0.031 C 
ATOM     44  C   UNL A   1      42.934  28.277  29.188  1.00  0.00     0.029 A 
ATOM     45  N   UNL A   1      41.418  29.719  30.007  1.00  0.00    -0.354 N 
ATOM     46  C   UNL A   1      41.834  24.485  28.185  1.00  0.00     0.074 A 
ATOM     47  C   UNL A   1      40.554  24.424  27.523  1.00  0.00     0.031 C 
ATOM     48  C   UNL A   1      43.578  29.095  30.034  1.00  0.00     0.029 A 
ATOM     49  C   UNL A   1      42.571  29.807  30.803  1.00  0.00     0.049 A 
ATOM     50  H   UNL A   1      40.678  30.369  29.988  1.00  0.00     0.167 HD
ATOM     51  C   UNL A   1      43.006  23.782  28.137  1.00  0.00     0.037 A 
ATOM     52  C   UNL A   1      42.487  29.768  32.167  1.00  0.00     0.037 A 
ATOM     53  C   UNL A   1      43.983  24.344  29.077  1.00  0.00     0.049 A 
ATOM     54  C   UNL A   1      43.147  28.561  32.798  1.00  0.00     0.074 A 
ATOM     55  C   UNL A   1      45.073  25.185  28.916  1.00  0.00     0.029 A 
ATOM     56  N   UNL A   1      43.728  24.297  30.446  1.00  0.00    -0.354 N 
ATOM     57  N   UNL A   1      43.518  27.502  32.133  1.00  0.00    -0.248 NA
ATOM     58  C   UNL A   1      43.432  28.443  34.227  1.00  0.00     0.031 C 
ATOM     59  C   UNL A   1      45.415  25.713  30.187  1.00  0.00     0.029 A 
ATOM     60  C   UNL A   1      44.553  25.173  31.126  1.00  0.00     0.049 A 
ATOM     61  H   UNL A   1      43.053  23.719  30.870  1.00  0.00     0.167 HD
ATOM     62  C   UNL A   1      44.033  26.569  32.995  1.00  0.00     0.074 A 
ATOM     63  C   UNL A   1      43.986  27.219  34.291  1.00  0.00     0.031 C 
ATOM     64  C   UNL A   1      44.441  25.336  32.570  1.00  0.00     0.037 A 
BRANCH  51  65
ATOM     65  C   UNL A   1      43.380  22.796  27.030  1.00  0.00     0.058 A 
ATOM     66  C   UNL A   1      42.717  21.549  26.921  1.00  0.00     0.135 A 
ATOM     67  C   UNL A   1      44.433  22.957  26.108  1.00  0.00     0.135 A 
ATOM     68  F   UNL A   1      41.619  21.275  27.637  1.00  0.00    -0.206 F 
ATOM     69  C   UNL A   1      43.148  20.518  26.077  1.00  0.00     0.059 A 
ATOM     70  C   UNL A   1      44.912  21.929  25.287  1.00  0.00     0.059 A 
ATOM     71  F   UNL A   1      45.019  24.139  25.902  1.00  0.00    -0.206 F 
ATOM     72  C   UNL A   1      44.275  20.701  25.291  1.00  0.00     0.060 A 
BRANCH  72  73
ATOM     73  S   UNL A   1      44.875  19.345  24.268  1.00  0.00     0.124 S 
ATOM     74  O   UNL A   1      44.198  18.195  24.859  1.00  0.00    -0.237 OA
ATOM     75  O   UNL A   1      44.421  19.738  22.940  1.00  0.00    -0.237 OA
ATOM     76  O   UNL A   1      46.322  19.382  24.470  1.00  0.00    -0.744 OA
ENDBRANCH  72  73
ENDBRANCH  51  65
BRANCH  52  77
ATOM     77  C   UNL A   1      41.293  30.482  32.695  1.00  0.00     0.058 A 
ATOM     78  C   UNL A   1      40.155  29.702  32.972  1.00  0.00     0.135 A 
ATOM     79  C   UNL A   1      41.416  31.715  33.356  1.00  0.00     0.135 A 
ATOM     80  F   UNL A   1      39.981  28.522  32.356  1.00  0.00    -0.206 F 
ATOM     81  C   UNL A   1      39.279  30.034  33.997  1.00  0.00     0.059 A 
ATOM     82  C   UNL A   1      40.543  32.069  34.386  1.00  0.00     0.059 A 
ATOM     83  F   UNL A   1      42.477  32.502  33.124  1.00  0.00    -0.206 F 
ATOM     84  C   UNL A   1      39.531  31.179  34.748  1.00  0.00     0.060 A 
BRANCH  84  85
ATOM     85  S   UNL A   1      38.662  31.340  36.326  1.00  0.00     0.124 S 
ATOM     86  O   UNL A   1      38.486  29.947  36.720  1.00  0.00    -0.237 OA
ATOM     87  O   UNL A   1      39.641  32.095  37.109  1.00  0.00    -0.237 OA
ATOM     88  O   UNL A   1      37.447  32.059  35.966  1.00  0.00    -0.744 OA
ENDBRANCH  84  85
ENDBRANCH  52  77
BRANCH  64  89
ATOM     89  C   UNL A   1      44.851  24.193  33.466  1.00  0.00     0.058 A 
ATOM     90  C   UNL A   1      44.026  23.098  33.770  1.00  0.00     0.135 A 
ATOM     91  C   UNL A   1      46.182  24.107  33.942  1.00  0.00     0.135 A 
ATOM     92  F   UNL A   1      42.777  23.013  33.287  1.00  0.00    -0.206 F 
ATOM     93  C   UNL A   1      44.466  22.022  34.544  1.00  0.00     0.059 A 
ATOM     94  C   UNL A   1      46.658  23.018  34.670  1.00  0.00     0.059 A 
ATOM     95  F   UNL A   1      47.073  25.081  33.703  1.00  0.00    -0.206 F 
ATOM     96  C   UNL A   1      45.784  21.989  34.989  1.00  0.00     0.060 A 
BRANCH  96  97
ATOM     97  S   UNL A   1      46.384  20.576  35.934  1.00  0.00     0.124 S 
ATOM     98  O   UNL A   1      45.898  19.460  35.128  1.00  0.00    -0.237 OA
ATOM     99  O   UNL A   1      47.831  20.772  35.931  1.00  0.00    -0.237 OA
ATOM    100  O   UNL A   1      45.740  20.750  37.232  1.00  0.00    -0.744 OA
ENDBRANCH  96  97
ENDBRANCH  64  89
ENDBRANCH  38  39
ENDBRANCH  30  33
ENDBRANCH  28  29
ENDBRANCH  27  28
ENDBRANCH   1  27
TORSDOF 17
ENDMDL
MODEL 3
REMARK VINA RESULT:     -13.6      4.493     11.283
REMARK SMILES Cc1cc(C(=O)NCCCCNC(=O)c2ccc(-c3c4nc(c(-c5c(F)cc(S(=O)(=O)[O-])cc5F)c5ccc([nH]5)c(-c5c(F)cc(S(=O)(=O)[O-])cc5F)c5nc(c(-c6c(F)cc(S(=O)(=O)[O-])cc6F)c6ccc3[nH]6)C=C5)C=C4)cc2)ccc1NS(=O)(=O)c1c(F)cccc1F
REMARK SMILES IDX 9 1 8 2 7 3 5 4 6 5 4 7 1 8 2 9 3 10 83 11 82 12 81 13 84 14
REMARK SMILES IDX 85 16 86 17 87 18 88 19 89 20 94 21 90 22 91 23 93 24 95 25
REMARK SMILES IDX 92 26 10 27 11 28 12 29 13 30 14 32 15 33 16 34 80 35 17 36
REMARK SMILES IDX 79 37 18 38 19 39 20 40 73 41 21 42 78 43 72 44 74 45 22 46
REMARK SMILES IDX 77 47 71 48 70 49 23 51 57 52 36 53 56 54 37 55 40 56 55 57
REMARK SMILES IDX 75 58 38 59 39 60 54 62 76 63 41 64 24 65 25 66 34 67 26 68
REMARK SMILES IDX 27 69 33 70 35 71 28 72 29 73 30 74 31 75 32 76 58 77 59 78
REMARK SMILES IDX 68 79 60 80 61 81 67 82 69 83 62 84 63 85 64 86 65 87 66 88
REMARK SMILES IDX 42 89 43 90 52 91 44 92 45 93 51 94 53 95 46 96 47 97 48 98
REMARK SMILES IDX 49 99 50 100
REMARK H PARENT 7 6 84 15 12 31 74 50 40 61
REMARK Flexibility Score: inf
ROOT
ATOM      1  C   UNL A   1      36.320  21.398  25.749  1.00  0.00     0.023 C 
ENDROOT
BRANCH   1   2
ATOM      2  C   UNL A   1      35.742  20.284  24.864  1.00  0.00     0.116 C 
BRANCH   2   3
ATOM      3  N   UNL A   1      34.349  19.952  25.143  1.00  0.00    -0.352 N 
ATOM      4  C   UNL A   1      33.173  20.664  25.074  1.00  0.00     0.251 C 
ATOM      5  O   UNL A   1      32.132  20.100  25.414  1.00  0.00    -0.269 OA
ATOM      6  H   UNL A   1      34.224  19.022  25.443  1.00  0.00     0.163 HD
BRANCH   4   7
ATOM      7  C   UNL A   1      33.114  22.104  24.711  1.00  0.00     0.040 A 
ATOM      8  C   UNL A   1      31.846  25.253  26.415  1.00  0.00     0.046 C 
ATOM      9  C   UNL A   1      32.617  24.371  25.470  1.00  0.00    -0.026 A 
ATOM     10  C   UNL A   1      32.531  22.980  25.637  1.00  0.00     0.019 A 
ATOM     11  C   UNL A   1      33.385  24.869  24.407  1.00  0.00     0.052 A 
ATOM     12  C   UNL A   1      33.691  24.017  23.347  1.00  0.00     0.028 A 
ATOM     13  C   UNL A   1      33.554  22.630  23.500  1.00  0.00     0.016 A 
BRANCH  11  14
ATOM     14  N   UNL A   1      33.918  26.187  24.541  1.00  0.00    -0.279 N 
ATOM     15  H   UNL A   1      34.740  26.276  25.077  1.00  0.00     0.180 HD
BRANCH  14  16
ATOM     16  S   UNL A   1      33.298  27.597  23.884  1.00  0.00     0.267 S 
ATOM     17  O   UNL A   1      34.357  28.155  23.071  1.00  0.00    -0.201 OA
ATOM     18  O   UNL A   1      32.029  27.212  23.297  1.00  0.00    -0.201 OA
BRANCH  16  19
ATOM     19  C   UNL A   1      32.931  28.734  25.166  1.00  0.00     0.158 A 
ATOM     20  C   UNL A   1      31.828  29.564  25.000  1.00  0.00     0.146 A 
ATOM     21  C   UNL A   1      33.750  28.911  26.272  1.00  0.00     0.146 A 
ATOM     22  F   UNL A   1      30.954  29.366  24.005  1.00  0.00    -0.205 F 
ATOM     23  C   UNL A   1      31.590  30.621  25.879  1.00  0.00     0.041 A 
ATOM     24  C   UNL A   1      33.536  29.980  27.144  1.00  0.00     0.041 A 
ATOM     25  F   UNL A   1      34.777  28.088  26.524  1.00  0.00    -0.205 F 
ATOM     26  C   UNL A   1      32.465  30.850  26.938  1.00  0.00     0.006 A 
ENDBRANCH  16  19
ENDBRANCH  14  16
ENDBRANCH  11  14
ENDBRANCH   4   7
ENDBRANCH   2   3
ENDBRANCH   1   2
BRANCH   1  27
ATOM     27  C   UNL A   1      37.628  22.033  25.269  1.00  0.00     0.023 C 
BRANCH  27  28
ATOM     28  C   UNL A   1      38.103  23.206  26.124  1.00  0.00     0.116 C 
BRANCH  28  29
ATOM     29  N   UNL A   1      39.273  22.939  26.950  1.00  0.00    -0.352 N 
ATOM     30  C   UNL A   1      40.134  23.860  27.538  1.00  0.00     0.251 C 
ATOM     31  H   UNL A   1      39.479  21.989  27.112  1.00  0.00     0.163 HD
ATOM     32  O   UNL A   1      41.198  23.525  28.019  1.00  0.00    -0.269 OA
BRANCH  30  33
ATOM     33  C   UNL A   1      39.660  25.262  27.651  1.00  0.00     0.039 A 
ATOM     34  C   UNL A   1      40.227  26.209  26.790  1.00  0.00     0.014 A 
ATOM     35  C   UNL A   1      38.904  25.660  28.748  1.00  0.00     0.014 A 
ATOM     36  C   UNL A   1      40.223  27.554  27.153  1.00  0.00     0.010 A 
ATOM     37  C   UNL A   1      38.988  26.974  29.158  1.00  0.00     0.010 A 
ATOM     38  C   UNL A   1      39.694  27.913  28.390  1.00  0.00    -0.014 A 
BRANCH  38  39
ATOM     39  C   UNL A   1      39.913  29.206  29.033  1.00  0.00     0.031 A 
ATOM     40  C   UNL A   1      38.876  30.261  28.964  1.00  0.00     0.074 A 
ATOM     41  C   UNL A   1      40.985  29.370  29.838  1.00  0.00     0.049 A 
ATOM     42  N   UNL A   1      39.046  31.492  29.313  1.00  0.00    -0.248 NA
ATOM     43  C   UNL A   1      37.547  30.005  28.425  1.00  0.00     0.031 C 
ATOM     44  C   UNL A   1      41.153  30.366  30.891  1.00  0.00     0.029 A 
ATOM     45  N   UNL A   1      42.234  28.763  29.745  1.00  0.00    -0.354 N 
ATOM     46  C   UNL A   1      37.808  32.102  29.343  1.00  0.00     0.074 A 
ATOM     47  C   UNL A   1      36.932  31.159  28.691  1.00  0.00     0.031 C 
ATOM     48  C   UNL A   1      42.455  30.465  31.199  1.00  0.00     0.029 A 
ATOM     49  C   UNL A   1      43.192  29.664  30.235  1.00  0.00     0.049 A 
ATOM     50  H   UNL A   1      42.415  27.860  29.396  1.00  0.00     0.167 HD
ATOM     51  C   UNL A   1      37.661  33.265  30.046  1.00  0.00     0.037 A 
ATOM     52  C   UNL A   1      44.167  30.165  29.419  1.00  0.00     0.037 A 
ATOM     53  C   UNL A   1      38.967  33.776  30.477  1.00  0.00     0.049 A 
ATOM     54  C   UNL A   1      44.085  31.659  29.193  1.00  0.00     0.074 A 
ATOM     55  C   UNL A   1      39.648  33.730  31.683  1.00  0.00     0.029 A 
ATOM     56  N   UNL A   1      39.895  34.186  29.523  1.00  0.00    -0.354 N 
ATOM     57  N   UNL A   1      43.045  32.386  29.495  1.00  0.00    -0.248 NA
ATOM     58  C   UNL A   1      45.160  32.453  28.601  1.00  0.00     0.031 C 
ATOM     59  C   UNL A   1      41.012  34.028  31.432  1.00  0.00     0.029 A 
ATOM     60  C   UNL A   1      41.156  34.284  30.079  1.00  0.00     0.049 A 
ATOM     61  H   UNL A   1      39.681  34.380  28.581  1.00  0.00     0.167 HD
ATOM     62  C   UNL A   1      43.262  33.687  29.120  1.00  0.00     0.074 A 
ATOM     63  C   UNL A   1      44.615  33.683  28.594  1.00  0.00     0.031 C 
ATOM     64  C   UNL A   1      42.306  34.653  29.263  1.00  0.00     0.037 A 
BRANCH  51  65
ATOM     65  C   UNL A   1      36.335  33.772  30.613  1.00  0.00     0.058 A 
ATOM     66  C   UNL A   1      35.320  34.257  29.752  1.00  0.00     0.135 A 
ATOM     67  C   UNL A   1      36.023  33.906  31.981  1.00  0.00     0.135 A 
ATOM     68  F   UNL A   1      35.396  34.101  28.423  1.00  0.00    -0.206 F 
ATOM     69  C   UNL A   1      34.179  34.929  30.206  1.00  0.00     0.059 A 
ATOM     70  C   UNL A   1      34.914  34.612  32.461  1.00  0.00     0.059 A 
ATOM     71  F   UNL A   1      36.741  33.304  32.933  1.00  0.00    -0.206 F 
ATOM     72  C   UNL A   1      34.002  35.140  31.564  1.00  0.00     0.060 A 
BRANCH  72  73
ATOM     73  S   UNL A   1      32.576  36.078  32.140  1.00  0.00     0.124 S 
ATOM     74  O   UNL A   1      32.204  36.831  30.946  1.00  0.00    -0.237 OA
ATOM     75  O   UNL A   1      31.655  35.020  32.538  1.00  0.00    -0.237 OA
ATOM     76  O   UNL A   1      33.116  36.881  33.235  1.00  0.00    -0.744 OA
ENDBRANCH  72  73
ENDBRANCH  51  65
BRANCH  52  77
ATOM     77  C   UNL A   1      44.676  29.164  28.442  1.00  0.00     0.058 A 
ATOM     78  C   UNL A   1      45.613  28.228  28.918  1.00  0.00     0.135 A 
ATOM     79  C   UNL A   1      43.936  28.823  27.298  1.00  0.00     0.135 A 
ATOM     80  F   UNL A   1      46.357  28.510  30.000  1.00  0.00    -0.206 F 
ATOM     81  C   UNL A   1      45.678  26.940  28.405  1.00  0.00     0.059 A 
ATOM     82  C   UNL A   1      43.991  27.534  26.764  1.00  0.00     0.059 A 
ATOM     83  F   UNL A   1      43.035  29.680  26.797  1.00  0.00    -0.206 F 
ATOM     84  C   UNL A   1      44.804  26.583  27.381  1.00  0.00     0.060 A 
BRANCH  84  85
ATOM     85  S   UNL A   1      44.597  24.817  27.049  1.00  0.00     0.124 S 
ATOM     86  O   UNL A   1      43.519  24.817  26.067  1.00  0.00    -0.237 OA
ATOM     87  O   UNL A   1      45.921  24.473  26.529  1.00  0.00    -0.237 OA
ATOM     88  O   UNL A   1      44.267  24.268  28.357  1.00  0.00    -0.744 OA
ENDBRANCH  84  85
ENDBRANCH  52  77
BRANCH  64  89
ATOM     89  C   UNL A   1      42.395  36.058  28.721  1.00  0.00     0.058 A 
ATOM     90  C   UNL A   1      43.187  37.070  29.287  1.00  0.00     0.135 A 
ATOM     91  C   UNL A   1      41.767  36.387  27.495  1.00  0.00     0.135 A 
ATOM     92  F   UNL A   1      43.916  36.847  30.392  1.00  0.00    -0.206 F 
ATOM     93  C   UNL A   1      43.302  38.339  28.715  1.00  0.00     0.059 A 
ATOM     94  C   UNL A   1      41.911  37.628  26.879  1.00  0.00     0.059 A 
ATOM     95  F   UNL A   1      40.997  35.500  26.846  1.00  0.00    -0.206 F 
ATOM     96  C   UNL A   1      42.661  38.609  27.511  1.00  0.00     0.060 A 
BRANCH  96  97
ATOM     97  S   UNL A   1      42.852  40.222  26.727  1.00  0.00     0.124 S 
ATOM     98  O   UNL A   1      41.624  40.311  25.942  1.00  0.00    -0.237 OA
ATOM     99  O   UNL A   1      42.938  41.131  27.867  1.00  0.00    -0.237 OA
ATOM    100  O   UNL A   1      44.085  40.072  25.962  1.00  0.00    -0.744 OA
ENDBRANCH  96  97
ENDBRANCH  64  89
ENDBRANCH  38  39
ENDBRANCH  30  33
ENDBRANCH  28  29
ENDBRANCH  27  28
ENDBRANCH   1  27
TORSDOF 17
ENDMDL
