MODEL 1
REMARK VINA RESULT:     -11.1      0.000      0.000
REMARK SMILES CCn1cc(CC(=O)NCCCCNC(=O)c2ccc(-c3c4nc(c(-c5c(F)cc(S(=O)(=O)[O-])cc5F)c5ccc([nH]5)c(-c5c(F)cc(S(=O)(=O)[O-])cc5F)c5nc(c(-c6c(F)cc(S(=O)(=O)[O-])cc6F)c6ccc3[nH]6)C=C5)C=C4)cc2)c2ccccc21
REMARK SMILES IDX 12 1 11 2 10 3 9 4 7 5 8 6 6 8 5 9 3 10 4 11 88 12 83 13
REMARK SMILES IDX 87 14 84 15 86 16 85 17 2 18 1 19 13 20 14 21 15 22 16 24
REMARK SMILES IDX 17 25 18 26 82 27 19 28 81 29 20 30 21 31 22 32 75 33 23 34
REMARK SMILES IDX 80 35 74 36 76 37 24 38 79 39 73 40 72 41 25 43 59 44 38 45
REMARK SMILES IDX 58 46 39 47 42 48 57 49 77 50 40 51 41 52 56 54 78 55 43 56
REMARK SMILES IDX 26 57 27 58 36 59 28 60 29 61 35 62 37 63 30 64 31 65 32 66
REMARK SMILES IDX 33 67 34 68 60 69 61 70 70 71 62 72 63 73 69 74 71 75 64 76
REMARK SMILES IDX 65 77 66 78 67 79 68 80 44 81 45 82 54 83 46 84 47 85 53 86
REMARK SMILES IDX 55 87 48 88 49 89 50 90 51 91 52 92
REMARK H PARENT 9 7 14 23 76 42 42 53
REMARK Flexibility Score: inf
ROOT
ATOM      1  C   UNL A   1      33.115  34.692  29.005  1.00  0.00     0.023 C 
ENDROOT
BRANCH   1   2
ATOM      2  C   UNL A   1      33.512  36.051  29.604  1.00  0.00     0.023 C 
BRANCH   2   3
ATOM      3  C   UNL A   1      33.199  36.209  31.092  1.00  0.00     0.116 C 
BRANCH   3   4
ATOM      4  N   UNL A   1      33.068  34.931  31.764  1.00  0.00    -0.356 N 
ATOM      5  C   UNL A   1      33.873  34.377  32.720  1.00  0.00     0.224 C 
ATOM      6  O   UNL A   1      33.563  33.272  33.174  1.00  0.00    -0.275 OA
ATOM      7  H   UNL A   1      32.291  34.388  31.495  1.00  0.00     0.163 HD
BRANCH   5   8
ATOM      8  C   UNL A   1      35.067  35.148  33.264  1.00  0.00     0.137 C 
BRANCH   8   9
ATOM      9  C   UNL A   1      36.269  34.290  33.493  1.00  0.00    -0.013 A 
ATOM     10  N   UNL A   1      37.793  33.018  34.522  1.00  0.00    -0.347 N 
ATOM     11  C   UNL A   1      36.538  33.559  34.635  1.00  0.00     0.091 A 
ATOM     12  C   UNL A   1      38.315  33.300  33.276  1.00  0.00     0.048 A 
ATOM     13  C   UNL A   1      37.373  34.092  32.608  1.00  0.00     0.003 A 
ATOM     14  C   UNL A   1      39.544  32.963  32.684  1.00  0.00     0.027 A 
ATOM     15  C   UNL A   1      37.669  34.555  31.309  1.00  0.00     0.010 A 
ATOM     16  C   UNL A   1      39.812  33.436  31.395  1.00  0.00     0.002 A 
ATOM     17  C   UNL A   1      38.888  34.220  30.714  1.00  0.00     0.001 A 
BRANCH  10  18
ATOM     18  C   UNL A   1      38.489  32.365  35.621  1.00  0.00     0.119 C 
ATOM     19  C   UNL A   1      38.430  30.847  35.562  1.00  0.00     0.027 C 
ENDBRANCH  10  18
ENDBRANCH   8   9
ENDBRANCH   5   8
ENDBRANCH   3   4
ENDBRANCH   2   3
ENDBRANCH   1   2
BRANCH   1  20
ATOM     20  C   UNL A   1      34.294  33.814  28.581  1.00  0.00     0.116 C 
BRANCH  20  21
ATOM     21  N   UNL A   1      33.897  32.598  27.902  1.00  0.00    -0.352 N 
ATOM     22  C   UNL A   1      34.435  31.350  27.767  1.00  0.00     0.251 C 
ATOM     23  H   UNL A   1      33.040  32.694  27.426  1.00  0.00     0.163 HD
ATOM     24  O   UNL A   1      33.723  30.523  27.189  1.00  0.00    -0.269 OA
BRANCH  22  25
ATOM     25  C   UNL A   1      35.797  30.945  28.211  1.00  0.00     0.039 A 
ATOM     26  C   UNL A   1      36.792  31.803  28.681  1.00  0.00     0.014 A 
ATOM     27  C   UNL A   1      36.097  29.574  28.092  1.00  0.00     0.014 A 
ATOM     28  C   UNL A   1      38.072  31.327  28.948  1.00  0.00     0.010 A 
ATOM     29  C   UNL A   1      37.369  29.090  28.370  1.00  0.00     0.010 A 
ATOM     30  C   UNL A   1      38.370  29.978  28.755  1.00  0.00    -0.014 A 
BRANCH  30  31
ATOM     31  C   UNL A   1      39.730  29.529  29.035  1.00  0.00     0.031 A 
ATOM     32  C   UNL A   1      40.124  29.519  30.477  1.00  0.00     0.074 A 
ATOM     33  C   UNL A   1      40.532  29.031  28.073  1.00  0.00     0.049 A 
ATOM     34  N   UNL A   1      41.132  30.101  31.044  1.00  0.00    -0.248 NA
ATOM     35  C   UNL A   1      39.222  28.844  31.424  1.00  0.00     0.031 C 
ATOM     36  C   UNL A   1      40.188  28.746  26.676  1.00  0.00     0.029 A 
ATOM     37  N   UNL A   1      41.806  28.560  28.173  1.00  0.00    -0.354 N 
ATOM     38  C   UNL A   1      41.097  29.724  32.388  1.00  0.00     0.074 A 
ATOM     39  C   UNL A   1      39.837  29.056  32.588  1.00  0.00     0.031 C 
ATOM     40  C   UNL A   1      41.133  27.943  26.141  1.00  0.00     0.029 A 
ATOM     41  C   UNL A   1      42.201  27.759  27.110  1.00  0.00     0.049 A 
ATOM     42  H   UNL A   1      42.395  28.770  28.934  1.00  0.00     0.167 HD
ATOM     43  C   UNL A   1      42.177  29.837  33.211  1.00  0.00     0.037 A 
ATOM     44  C   UNL A   1      43.281  26.938  27.065  1.00  0.00     0.037 A 
ATOM     45  C   UNL A   1      43.164  30.732  32.677  1.00  0.00     0.049 A 
ATOM     46  C   UNL A   1      44.228  27.399  28.114  1.00  0.00     0.074 A 
ATOM     47  C   UNL A   1      43.184  32.080  32.372  1.00  0.00     0.029 A 
ATOM     48  N   UNL A   1      44.267  30.193  32.062  1.00  0.00    -0.354 N 
ATOM     49  N   UNL A   1      44.872  28.534  28.069  1.00  0.00    -0.248 NA
ATOM     50  C   UNL A   1      44.128  26.794  29.434  1.00  0.00     0.031 C 
ATOM     51  C   UNL A   1      44.002  32.184  31.212  1.00  0.00     0.029 A 
ATOM     52  C   UNL A   1      44.466  30.903  30.906  1.00  0.00     0.049 A 
ATOM     53  H   UNL A   1      44.811  29.440  32.389  1.00  0.00     0.167 HD
ATOM     54  C   UNL A   1      44.887  28.988  29.380  1.00  0.00     0.074 A 
ATOM     55  C   UNL A   1      44.501  27.833  30.187  1.00  0.00     0.031 C 
ATOM     56  C   UNL A   1      44.938  30.322  29.669  1.00  0.00     0.037 A 
BRANCH  43  57
ATOM     57  C   UNL A   1      42.476  28.907  34.361  1.00  0.00     0.058 A 
ATOM     58  C   UNL A   1      42.571  29.416  35.674  1.00  0.00     0.135 A 
ATOM     59  C   UNL A   1      42.956  27.591  34.181  1.00  0.00     0.135 A 
ATOM     60  F   UNL A   1      42.149  30.659  35.957  1.00  0.00    -0.206 F 
ATOM     61  C   UNL A   1      43.167  28.698  36.712  1.00  0.00     0.059 A 
ATOM     62  C   UNL A   1      43.506  26.838  35.214  1.00  0.00     0.059 A 
ATOM     63  F   UNL A   1      43.005  27.013  32.974  1.00  0.00    -0.206 F 
ATOM     64  C   UNL A   1      43.650  27.416  36.464  1.00  0.00     0.060 A 
BRANCH  64  65
ATOM     65  S   UNL A   1      44.545  26.543  37.763  1.00  0.00     0.124 S 
ATOM     66  O   UNL A   1      43.676  25.394  37.993  1.00  0.00    -0.237 OA
ATOM     67  O   UNL A   1      45.821  26.261  37.116  1.00  0.00    -0.237 OA
ATOM     68  O   UNL A   1      44.600  27.520  38.848  1.00  0.00    -0.744 OA
ENDBRANCH  64  65
ENDBRANCH  43  57
BRANCH  44  69
ATOM     69  C   UNL A   1      43.396  25.613  26.397  1.00  0.00     0.058 A 
ATOM     70  C   UNL A   1      44.276  25.410  25.318  1.00  0.00     0.135 A 
ATOM     71  C   UNL A   1      42.843  24.447  26.967  1.00  0.00     0.135 A 
ATOM     72  F   UNL A   1      44.872  26.457  24.728  1.00  0.00    -0.206 F 
ATOM     73  C   UNL A   1      44.620  24.130  24.863  1.00  0.00     0.059 A 
ATOM     74  C   UNL A   1      43.156  23.164  26.521  1.00  0.00     0.059 A 
ATOM     75  F   UNL A   1      42.047  24.509  28.045  1.00  0.00    -0.206 F 
ATOM     76  C   UNL A   1      44.067  23.012  25.486  1.00  0.00     0.060 A 
BRANCH  76  77
ATOM     77  S   UNL A   1      44.636  21.359  25.023  1.00  0.00     0.124 S 
ATOM     78  O   UNL A   1      45.884  21.246  25.770  1.00  0.00    -0.237 OA
ATOM     79  O   UNL A   1      43.538  20.516  25.486  1.00  0.00    -0.237 OA
ATOM     80  O   UNL A   1      44.784  21.444  23.572  1.00  0.00    -0.744 OA
ENDBRANCH  76  77
ENDBRANCH  44  69
BRANCH  56  81
ATOM     81  C   UNL A   1      45.249  31.284  28.551  1.00  0.00     0.058 A 
ATOM     82  C   UNL A   1      44.286  31.778  27.653  1.00  0.00     0.135 A 
ATOM     83  C   UNL A   1      46.524  31.865  28.504  1.00  0.00     0.135 A 
ATOM     84  F   UNL A   1      43.015  31.356  27.704  1.00  0.00    -0.206 F 
ATOM     85  C   UNL A   1      44.586  32.777  26.727  1.00  0.00     0.059 A 
ATOM     86  C   UNL A   1      46.838  32.886  27.610  1.00  0.00     0.059 A 
ATOM     87  F   UNL A   1      47.470  31.485  29.380  1.00  0.00    -0.206 F 
ATOM     88  C   UNL A   1      45.866  33.330  26.717  1.00  0.00     0.060 A 
BRANCH  88  89
ATOM     89  S   UNL A   1      46.217  34.693  25.585  1.00  0.00     0.124 S 
ATOM     90  O   UNL A   1      45.798  35.853  26.362  1.00  0.00    -0.237 OA
ATOM     91  O   UNL A   1      47.652  34.561  25.363  1.00  0.00    -0.237 OA
ATOM     92  O   UNL A   1      45.386  34.389  24.419  1.00  0.00    -0.744 OA
ENDBRANCH  88  89
ENDBRANCH  56  81
ENDBRANCH  30  31
ENDBRANCH  22  25
ENDBRANCH  20  21
ENDBRANCH   1  20
TORSDOF 16
ENDMDL
MODEL 2
REMARK VINA RESULT:     -10.8      3.851     10.977
REMARK SMILES CCn1cc(CC(=O)NCCCCNC(=O)c2ccc(-c3c4nc(c(-c5c(F)cc(S(=O)(=O)[O-])cc5F)c5ccc([nH]5)c(-c5c(F)cc(S(=O)(=O)[O-])cc5F)c5nc(c(-c6c(F)cc(S(=O)(=O)[O-])cc6F)c6ccc3[nH]6)C=C5)C=C4)cc2)c2ccccc21
REMARK SMILES IDX 12 1 11 2 10 3 9 4 7 5 8 6 6 8 5 9 3 10 4 11 88 12 83 13
REMARK SMILES IDX 87 14 84 15 86 16 85 17 2 18 1 19 13 20 14 21 15 22 16 24
REMARK SMILES IDX 17 25 18 26 82 27 19 28 81 29 20 30 21 31 22 32 75 33 23 34
REMARK SMILES IDX 80 35 74 36 76 37 24 38 79 39 73 40 72 41 25 43 59 44 38 45
REMARK SMILES IDX 58 46 39 47 42 48 57 49 77 50 40 51 41 52 56 54 78 55 43 56
REMARK SMILES IDX 26 57 27 58 36 59 28 60 29 61 35 62 37 63 30 64 31 65 32 66
REMARK SMILES IDX 33 67 34 68 60 69 61 70 70 71 62 72 63 73 69 74 71 75 64 76
REMARK SMILES IDX 65 77 66 78 67 79 68 80 44 81 45 82 54 83 46 84 47 85 53 86
REMARK SMILES IDX 55 87 48 88 49 89 50 90 51 91 52 92
REMARK H PARENT 9 7 14 23 76 42 42 53
REMARK Flexibility Score: inf
ROOT
ATOM      1  C   UNL A   1      40.485  20.353  26.197  1.00  0.00     0.023 C 
ENDROOT
BRANCH   1   2
ATOM      2  C   UNL A   1      40.281  21.580  27.099  1.00  0.00     0.023 C 
BRANCH   2   3
ATOM      3  C   UNL A   1      39.401  22.675  26.498  1.00  0.00     0.116 C 
BRANCH   3   4
ATOM      4  N   UNL A   1      38.529  22.170  25.455  1.00  0.00    -0.356 N 
ATOM      5  C   UNL A   1      37.344  22.679  25.004  1.00  0.00     0.224 C 
ATOM      6  O   UNL A   1      36.767  22.091  24.085  1.00  0.00    -0.275 OA
ATOM      7  H   UNL A   1      38.834  21.344  25.010  1.00  0.00     0.163 HD
BRANCH   5   8
ATOM      8  C   UNL A   1      36.802  23.985  25.569  1.00  0.00     0.137 C 
BRANCH   8   9
ATOM      9  C   UNL A   1      35.327  24.139  25.386  1.00  0.00    -0.013 A 
ATOM     10  N   UNL A   1      33.355  24.900  24.657  1.00  0.00    -0.347 N 
ATOM     11  C   UNL A   1      34.705  24.897  24.413  1.00  0.00     0.091 A 
ATOM     12  C   UNL A   1      33.069  24.071  25.722  1.00  0.00     0.048 A 
ATOM     13  C   UNL A   1      34.291  23.575  26.193  1.00  0.00     0.003 A 
ATOM     14  C   UNL A   1      31.852  23.736  26.341  1.00  0.00     0.027 A 
ATOM     15  C   UNL A   1      34.293  22.716  27.312  1.00  0.00     0.010 A 
ATOM     16  C   UNL A   1      31.884  22.883  27.448  1.00  0.00     0.002 A 
ATOM     17  C   UNL A   1      33.085  22.377  27.928  1.00  0.00     0.001 A 
BRANCH  10  18
ATOM     18  C   UNL A   1      32.414  25.765  23.961  1.00  0.00     0.119 C 
ATOM     19  C   UNL A   1      32.257  25.431  22.486  1.00  0.00     0.027 C 
ENDBRANCH  10  18
ENDBRANCH   8   9
ENDBRANCH   5   8
ENDBRANCH   3   4
ENDBRANCH   2   3
ENDBRANCH   1   2
BRANCH   1  20
ATOM     20  C   UNL A   1      41.778  19.579  26.456  1.00  0.00     0.116 C 
BRANCH  20  21
ATOM     21  N   UNL A   1      42.796  19.794  25.448  1.00  0.00    -0.352 N 
ATOM     22  C   UNL A   1      43.681  20.797  25.171  1.00  0.00     0.251 C 
ATOM     23  H   UNL A   1      42.865  19.043  24.814  1.00  0.00     0.163 HD
ATOM     24  O   UNL A   1      44.491  20.558  24.270  1.00  0.00    -0.269 OA
BRANCH  22  25
ATOM     25  C   UNL A   1      43.704  22.134  25.827  1.00  0.00     0.039 A 
ATOM     26  C   UNL A   1      44.349  22.446  27.024  1.00  0.00     0.014 A 
ATOM     27  C   UNL A   1      42.960  23.142  25.185  1.00  0.00     0.014 A 
ATOM     28  C   UNL A   1      44.195  23.699  27.607  1.00  0.00     0.010 A 
ATOM     29  C   UNL A   1      42.813  24.400  25.755  1.00  0.00     0.010 A 
ATOM     30  C   UNL A   1      43.396  24.662  26.992  1.00  0.00    -0.014 A 
BRANCH  30  31
ATOM     31  C   UNL A   1      43.253  25.958  27.649  1.00  0.00     0.031 A 
ATOM     32  C   UNL A   1      44.342  26.946  27.376  1.00  0.00     0.074 A 
ATOM     33  C   UNL A   1      42.150  26.288  28.349  1.00  0.00     0.049 A 
ATOM     34  N   UNL A   1      45.091  27.578  28.221  1.00  0.00    -0.248 NA
ATOM     35  C   UNL A   1      44.700  27.191  25.969  1.00  0.00     0.031 C 
ATOM     36  C   UNL A   1      40.908  25.520  28.481  1.00  0.00     0.029 A 
ATOM     37  N   UNL A   1      41.860  27.449  29.000  1.00  0.00    -0.354 N 
ATOM     38  C   UNL A   1      45.896  28.433  27.467  1.00  0.00     0.074 A 
ATOM     39  C   UNL A   1      45.701  28.064  26.089  1.00  0.00     0.031 C 
ATOM     40  C   UNL A   1      39.935  26.328  28.956  1.00  0.00     0.029 A 
ATOM     41  C   UNL A   1      40.509  27.625  29.271  1.00  0.00     0.049 A 
ATOM     42  H   UNL A   1      42.548  28.104  29.256  1.00  0.00     0.167 HD
ATOM     43  C   UNL A   1      46.545  29.502  28.010  1.00  0.00     0.037 A 
ATOM     44  C   UNL A   1      39.896  28.777  29.646  1.00  0.00     0.037 A 
ATOM     45  C   UNL A   1      46.640  29.398  29.440  1.00  0.00     0.049 A 
ATOM     46  C   UNL A   1      40.946  29.676  30.192  1.00  0.00     0.074 A 
ATOM     47  C   UNL A   1      47.252  28.513  30.306  1.00  0.00     0.029 A 
ATOM     48  N   UNL A   1      45.762  30.125  30.205  1.00  0.00    -0.354 N 
ATOM     49  N   UNL A   1      41.590  29.455  31.305  1.00  0.00    -0.248 NA
ATOM     50  C   UNL A   1      41.593  30.604  29.275  1.00  0.00     0.031 C 
ATOM     51  C   UNL A   1      46.373  28.422  31.422  1.00  0.00     0.029 A 
ATOM     52  C   UNL A   1      45.303  29.288  31.189  1.00  0.00     0.049 A 
ATOM     53  H   UNL A   1      45.511  31.068  30.072  1.00  0.00     0.167 HD
ATOM     54  C   UNL A   1      42.891  29.868  31.053  1.00  0.00     0.074 A 
ATOM     55  C   UNL A   1      42.810  30.652  29.824  1.00  0.00     0.031 C 
ATOM     56  C   UNL A   1      43.952  29.307  31.705  1.00  0.00     0.037 A 
BRANCH  43  57
ATOM     57  C   UNL A   1      46.832  30.790  27.279  1.00  0.00     0.058 A 
ATOM     58  C   UNL A   1      48.148  31.299  27.238  1.00  0.00     0.135 A 
ATOM     59  C   UNL A   1      45.819  31.684  26.868  1.00  0.00     0.135 A 
ATOM     60  F   UNL A   1      49.188  30.537  27.613  1.00  0.00    -0.206 F 
ATOM     61  C   UNL A   1      48.426  32.622  26.887  1.00  0.00     0.059 A 
ATOM     62  C   UNL A   1      46.080  32.989  26.465  1.00  0.00     0.059 A 
ATOM     63  F   UNL A   1      44.521  31.364  26.935  1.00  0.00    -0.206 F 
ATOM     64  C   UNL A   1      47.380  33.464  26.521  1.00  0.00     0.060 A 
BRANCH  64  65
ATOM     65  S   UNL A   1      47.718  35.206  26.204  1.00  0.00     0.124 S 
ATOM     66  O   UNL A   1      48.486  35.133  24.967  1.00  0.00    -0.237 OA
ATOM     67  O   UNL A   1      46.374  35.761  26.093  1.00  0.00    -0.237 OA
ATOM     68  O   UNL A   1      48.468  35.623  27.387  1.00  0.00    -0.744 OA
ENDBRANCH  64  65
ENDBRANCH  43  57
BRANCH  44  69
ATOM     69  C   UNL A   1      38.537  29.254  29.270  1.00  0.00     0.058 A 
ATOM     70  C   UNL A   1      37.580  29.583  30.246  1.00  0.00     0.135 A 
ATOM     71  C   UNL A   1      38.232  29.652  27.951  1.00  0.00     0.135 A 
ATOM     72  F   UNL A   1      37.794  29.269  31.533  1.00  0.00    -0.206 F 
ATOM     73  C   UNL A   1      36.414  30.299  29.942  1.00  0.00     0.059 A 
ATOM     74  C   UNL A   1      37.072  30.350  27.620  1.00  0.00     0.059 A 
ATOM     75  F   UNL A   1      39.099  29.459  26.946  1.00  0.00    -0.206 F 
ATOM     76  C   UNL A   1      36.180  30.695  28.626  1.00  0.00     0.060 A 
BRANCH  76  77
ATOM     77  S   UNL A   1      34.772  31.767  28.252  1.00  0.00     0.124 S 
ATOM     78  O   UNL A   1      34.319  32.149  29.585  1.00  0.00    -0.237 OA
ATOM     79  O   UNL A   1      35.394  32.825  27.462  1.00  0.00    -0.237 OA
ATOM     80  O   UNL A   1      33.865  30.892  27.513  1.00  0.00    -0.744 OA
ENDBRANCH  76  77
ENDBRANCH  44  69
BRANCH  56  81
ATOM     81  C   UNL A   1      43.676  28.424  32.894  1.00  0.00     0.058 A 
ATOM     82  C   UNL A   1      43.460  28.908  34.196  1.00  0.00     0.135 A 
ATOM     83  C   UNL A   1      43.441  27.059  32.673  1.00  0.00     0.135 A 
ATOM     84  F   UNL A   1      43.555  30.217  34.471  1.00  0.00    -0.206 F 
ATOM     85  C   UNL A   1      43.065  28.070  35.239  1.00  0.00     0.059 A 
ATOM     86  C   UNL A   1      43.015  26.208  33.691  1.00  0.00     0.059 A 
ATOM     87  F   UNL A   1      43.565  26.547  31.437  1.00  0.00    -0.206 F 
ATOM     88  C   UNL A   1      42.839  26.719  34.974  1.00  0.00     0.060 A 
BRANCH  88  89
ATOM     89  S   UNL A   1      42.228  25.661  36.305  1.00  0.00     0.124 S 
ATOM     90  O   UNL A   1      42.404  26.510  37.477  1.00  0.00    -0.237 OA
ATOM     91  O   UNL A   1      40.848  25.410  35.904  1.00  0.00    -0.237 OA
ATOM     92  O   UNL A   1      43.107  24.493  36.241  1.00  0.00    -0.744 OA
ENDBRANCH  88  89
ENDBRANCH  56  81
ENDBRANCH  30  31
ENDBRANCH  22  25
ENDBRANCH  20  21
ENDBRANCH   1  20
TORSDOF 16
ENDMDL
MODEL 3
REMARK VINA RESULT:     -10.8      3.681      6.210
REMARK SMILES CCn1cc(CC(=O)NCCCCNC(=O)c2ccc(-c3c4nc(c(-c5c(F)cc(S(=O)(=O)[O-])cc5F)c5ccc([nH]5)c(-c5c(F)cc(S(=O)(=O)[O-])cc5F)c5nc(c(-c6c(F)cc(S(=O)(=O)[O-])cc6F)c6ccc3[nH]6)C=C5)C=C4)cc2)c2ccccc21
REMARK SMILES IDX 12 1 11 2 10 3 9 4 7 5 8 6 6 8 5 9 3 10 4 11 88 12 83 13
REMARK SMILES IDX 87 14 84 15 86 16 85 17 2 18 1 19 13 20 14 21 15 22 16 24
REMARK SMILES IDX 17 25 18 26 82 27 19 28 81 29 20 30 21 31 22 32 75 33 23 34
REMARK SMILES IDX 80 35 74 36 76 37 24 38 79 39 73 40 72 41 25 43 59 44 38 45
REMARK SMILES IDX 58 46 39 47 42 48 57 49 77 50 40 51 41 52 56 54 78 55 43 56
REMARK SMILES IDX 26 57 27 58 36 59 28 60 29 61 35 62 37 63 30 64 31 65 32 66
REMARK SMILES IDX 33 67 34 68 60 69 61 70 70 71 62 72 63 73 69 74 71 75 64 76
REMARK SMILES IDX 65 77 66 78 67 79 68 80 44 81 45 82 54 83 46 84 47 85 53 86
REMARK SMILES IDX 55 87 48 88 49 89 50 90 51 91 52 92
REMARK H PARENT 9 7 14 23 76 42 42 53
REMARK Flexibility Score: inf
ROOT
ATOM      1  C   UNL A   1      33.198  28.276  27.059  1.00  0.00     0.023 C 
ENDROOT
BRANCH   1   2
ATOM      2  C   UNL A   1      31.735  27.806  27.025  1.00  0.00     0.023 C 
BRANCH   2   3
ATOM      3  C   UNL A   1      31.480  26.578  26.151  1.00  0.00     0.116 C 
BRANCH   3   4
ATOM      4  N   UNL A   1      31.208  25.391  26.938  1.00  0.00    -0.356 N 
ATOM      5  C   UNL A   1      31.074  24.096  26.521  1.00  0.00     0.224 C 
ATOM      6  O   UNL A   1      30.857  23.228  27.371  1.00  0.00    -0.275 OA
ATOM      7  H   UNL A   1      31.105  25.538  27.907  1.00  0.00     0.163 HD
BRANCH   5   8
ATOM      8  C   UNL A   1      31.275  23.734  25.056  1.00  0.00     0.137 C 
BRANCH   8   9
ATOM      9  C   UNL A   1      32.387  22.760  24.836  1.00  0.00    -0.013 A 
ATOM     10  N   UNL A   1      33.484  20.833  24.546  1.00  0.00    -0.347 N 
ATOM     11  C   UNL A   1      32.244  21.419  24.534  1.00  0.00     0.091 A 
ATOM     12  C   UNL A   1      34.454  21.792  24.754  1.00  0.00     0.048 A 
ATOM     13  C   UNL A   1      33.790  23.012  24.932  1.00  0.00     0.003 A 
ATOM     14  C   UNL A   1      35.854  21.697  24.839  1.00  0.00     0.027 A 
ATOM     15  C   UNL A   1      34.552  24.170  25.197  1.00  0.00     0.010 A 
ATOM     16  C   UNL A   1      36.583  22.861  25.103  1.00  0.00     0.002 A 
ATOM     17  C   UNL A   1      35.944  24.082  25.279  1.00  0.00     0.001 A 
BRANCH  10  18
ATOM     18  C   UNL A   1      33.694  19.395  24.479  1.00  0.00     0.119 C 
ATOM     19  C   UNL A   1      32.745  18.600  25.362  1.00  0.00     0.027 C 
ENDBRANCH  10  18
ENDBRANCH   8   9
ENDBRANCH   5   8
ENDBRANCH   3   4
ENDBRANCH   2   3
ENDBRANCH   1   2
BRANCH   1  20
ATOM     20  C   UNL A   1      33.435  29.666  26.467  1.00  0.00     0.116 C 
BRANCH  20  21
ATOM     21  N   UNL A   1      33.515  30.715  27.463  1.00  0.00    -0.352 N 
ATOM     22  C   UNL A   1      34.517  31.252  28.220  1.00  0.00     0.251 C 
ATOM     23  H   UNL A   1      32.643  31.141  27.633  1.00  0.00     0.163 HD
ATOM     24  O   UNL A   1      34.207  32.241  28.891  1.00  0.00    -0.269 OA
BRANCH  22  25
ATOM     25  C   UNL A   1      35.901  30.712  28.327  1.00  0.00     0.039 A 
ATOM     26  C   UNL A   1      36.265  29.370  28.217  1.00  0.00     0.014 A 
ATOM     27  C   UNL A   1      36.905  31.657  28.612  1.00  0.00     0.014 A 
ATOM     28  C   UNL A   1      37.574  28.967  28.461  1.00  0.00     0.010 A 
ATOM     29  C   UNL A   1      38.217  31.263  28.843  1.00  0.00     0.010 A 
ATOM     30  C   UNL A   1      38.540  29.910  28.812  1.00  0.00    -0.014 A 
BRANCH  30  31
ATOM     31  C   UNL A   1      39.897  29.437  29.073  1.00  0.00     0.031 A 
ATOM     32  C   UNL A   1      40.295  29.374  30.512  1.00  0.00     0.074 A 
ATOM     33  C   UNL A   1      40.691  28.965  28.091  1.00  0.00     0.049 A 
ATOM     34  N   UNL A   1      41.310  29.926  31.096  1.00  0.00    -0.248 NA
ATOM     35  C   UNL A   1      39.389  28.675  31.438  1.00  0.00     0.031 C 
ATOM     36  C   UNL A   1      40.341  28.732  26.687  1.00  0.00     0.029 A 
ATOM     37  N   UNL A   1      41.961  28.479  28.172  1.00  0.00    -0.354 N 
ATOM     38  C   UNL A   1      41.274  29.504  32.426  1.00  0.00     0.074 A 
ATOM     39  C   UNL A   1      40.009  28.841  32.607  1.00  0.00     0.031 C 
ATOM     40  C   UNL A   1      41.277  27.939  26.122  1.00  0.00     0.029 A 
ATOM     41  C   UNL A   1      42.345  27.711  27.080  1.00  0.00     0.049 A 
ATOM     42  H   UNL A   1      42.554  28.656  28.938  1.00  0.00     0.167 HD
ATOM     43  C   UNL A   1      42.357  29.578  33.250  1.00  0.00     0.037 A 
ATOM     44  C   UNL A   1      43.417  26.882  27.004  1.00  0.00     0.037 A 
ATOM     45  C   UNL A   1      43.352  30.481  32.744  1.00  0.00     0.049 A 
ATOM     46  C   UNL A   1      44.371  27.297  28.065  1.00  0.00     0.074 A 
ATOM     47  C   UNL A   1      43.385  31.838  32.486  1.00  0.00     0.029 A 
ATOM     48  N   UNL A   1      44.448  29.952  32.107  1.00  0.00    -0.354 N 
ATOM     49  N   UNL A   1      45.026  28.426  28.058  1.00  0.00    -0.248 NA
ATOM     50  C   UNL A   1      44.269  26.648  29.365  1.00  0.00     0.031 C 
ATOM     51  C   UNL A   1      44.200  31.974  31.327  1.00  0.00     0.029 A 
ATOM     52  C   UNL A   1      44.651  30.700  30.976  1.00  0.00     0.049 A 
ATOM     53  H   UNL A   1      44.985  29.183  32.407  1.00  0.00     0.167 HD
ATOM     54  C   UNL A   1      45.049  28.834  29.383  1.00  0.00     0.074 A 
ATOM     55  C   UNL A   1      44.654  27.657  30.151  1.00  0.00     0.031 C 
ATOM     56  C   UNL A   1      45.114  30.157  29.718  1.00  0.00     0.037 A 
BRANCH  43  57
ATOM     57  C   UNL A   1      42.651  28.605  34.366  1.00  0.00     0.058 A 
ATOM     58  C   UNL A   1      42.745  29.067  35.696  1.00  0.00     0.135 A 
ATOM     59  C   UNL A   1      43.125  27.295  34.140  1.00  0.00     0.135 A 
ATOM     60  F   UNL A   1      42.329  30.301  36.024  1.00  0.00    -0.206 F 
ATOM     61  C   UNL A   1      43.337  28.309  36.709  1.00  0.00     0.059 A 
ATOM     62  C   UNL A   1      43.670  26.503  35.145  1.00  0.00     0.059 A 
ATOM     63  F   UNL A   1      43.174  26.760  32.913  1.00  0.00    -0.206 F 
ATOM     64  C   UNL A   1      43.814  27.035  36.416  1.00  0.00     0.060 A 
BRANCH  64  65
ATOM     65  S   UNL A   1      44.703  26.112  37.684  1.00  0.00     0.124 S 
ATOM     66  O   UNL A   1      44.236  26.766  38.901  1.00  0.00    -0.237 OA
ATOM     67  O   UNL A   1      44.222  24.753  37.463  1.00  0.00    -0.237 OA
ATOM     68  O   UNL A   1      46.105  26.339  37.344  1.00  0.00    -0.744 OA
ENDBRANCH  64  65
ENDBRANCH  43  57
BRANCH  44  69
ATOM     69  C   UNL A   1      43.518  25.580  26.290  1.00  0.00     0.058 A 
ATOM     70  C   UNL A   1      44.512  25.348  25.323  1.00  0.00     0.135 A 
ATOM     71  C   UNL A   1      42.808  24.441  26.727  1.00  0.00     0.135 A 
ATOM     72  F   UNL A   1      45.258  26.366  24.865  1.00  0.00    -0.206 F 
ATOM     73  C   UNL A   1      44.814  24.064  24.851  1.00  0.00     0.059 A 
ATOM     74  C   UNL A   1      43.078  23.156  26.261  1.00  0.00     0.059 A 
ATOM     75  F   UNL A   1      41.886  24.524  27.697  1.00  0.00    -0.206 F 
ATOM     76  C   UNL A   1      44.102  22.971  25.343  1.00  0.00     0.060 A 
BRANCH  76  77
ATOM     77  S   UNL A   1      44.600  21.296  24.873  1.00  0.00     0.124 S 
ATOM     78  O   UNL A   1      45.903  21.175  25.516  1.00  0.00    -0.237 OA
ATOM     79  O   UNL A   1      43.528  20.487  25.445  1.00  0.00    -0.237 OA
ATOM     80  O   UNL A   1      44.627  21.346  23.414  1.00  0.00    -0.744 OA
ENDBRANCH  76  77
ENDBRANCH  44  69
BRANCH  56  81
ATOM     81  C   UNL A   1      45.431  31.154  28.633  1.00  0.00     0.058 A 
ATOM     82  C   UNL A   1      44.459  31.755  27.815  1.00  0.00     0.135 A 
ATOM     83  C   UNL A   1      46.739  31.653  28.545  1.00  0.00     0.135 A 
ATOM     84  F   UNL A   1      43.167  31.415  27.913  1.00  0.00    -0.206 F 
ATOM     85  C   UNL A   1      44.778  32.780  26.922  1.00  0.00     0.059 A 
ATOM     86  C   UNL A   1      47.075  32.697  27.686  1.00  0.00     0.059 A 
ATOM     87  F   UNL A   1      47.700  31.167  29.348  1.00  0.00    -0.206 F 
ATOM     88  C   UNL A   1      46.090  33.249  26.870  1.00  0.00     0.060 A 
BRANCH  88  89
ATOM     89  S   UNL A   1      46.474  34.644  25.788  1.00  0.00     0.124 S 
ATOM     90  O   UNL A   1      47.883  34.421  25.488  1.00  0.00    -0.237 OA
ATOM     91  O   UNL A   1      45.549  34.447  24.676  1.00  0.00    -0.237 OA
ATOM     92  O   UNL A   1      46.189  35.810  26.623  1.00  0.00    -0.744 OA
ENDBRANCH  88  89
ENDBRANCH  56  81
ENDBRANCH  30  31
ENDBRANCH  22  25
ENDBRANCH  20  21
ENDBRANCH   1  20
TORSDOF 16
ENDMDL
