MODEL 1
REMARK VINA RESULT:      -9.8      0.000      0.000
REMARK SMILES O=C(/C=C/c1cccs1)NCC(=O)NCCCCNC(=O)c1ccc(-c2c3nc(c(-c4c(F)cc(S(=O)(=O)[O-])cc4F)c4ccc([nH]4)c(-c4c(F)cc(S(=O)(=O)[O-])cc4F)c4nc(c(-c5c(F)cc(S(=O)(=O)[O-])cc5F)c5ccc2[nH]5)C=C4)C=C3)cc1
REMARK SMILES IDX 16 1 15 2 14 3 12 4 13 5 11 7 10 8 1 9 2 10 3 12 4 13 5 14
REMARK SMILES IDX 6 15 9 16 7 17 8 18 17 19 18 20 19 21 20 22 21 24 22 25
REMARK SMILES IDX 23 26 87 27 24 28 86 29 25 30 26 31 27 32 80 33 28 34 85 35
REMARK SMILES IDX 79 36 81 37 29 38 84 39 78 40 77 41 30 43 64 44 43 45 63 46
REMARK SMILES IDX 44 47 47 48 62 49 82 50 45 51 46 52 61 54 83 55 48 56 31 57
REMARK SMILES IDX 32 58 41 59 33 60 34 61 40 62 42 63 35 64 36 65 37 66 38 67
REMARK SMILES IDX 39 68 65 69 66 70 75 71 67 72 68 73 74 74 76 75 69 76 70 77
REMARK SMILES IDX 71 78 72 79 73 80 49 81 50 82 59 83 51 84 52 85 58 86 60 87
REMARK SMILES IDX 53 88 54 89 55 90 56 91 57 92
REMARK H PARENT 14 6 10 11 19 23 81 42 47 53
REMARK Flexibility Score: inf
ROOT
ATOM      1  C   UNL A   1      33.769  35.226  28.633  1.00  0.00     0.023 C 
ENDROOT
BRANCH   1   2
ATOM      2  C   UNL A   1      33.460  36.590  29.248  1.00  0.00     0.116 C 
BRANCH   2   3
ATOM      3  N   UNL A   1      32.510  36.484  30.338  1.00  0.00    -0.355 N 
ATOM      4  C   UNL A   1      32.709  36.728  31.667  1.00  0.00     0.239 C 
ATOM      5  O   UNL A   1      31.764  36.589  32.446  1.00  0.00    -0.273 OA
ATOM      6  H   UNL A   1      31.601  36.200  30.087  1.00  0.00     0.163 HD
BRANCH   4   7
ATOM      7  C   UNL A   1      34.076  37.203  32.159  1.00  0.00     0.216 C 
BRANCH   7   8
ATOM      8  N   UNL A   1      35.007  36.099  32.346  1.00  0.00    -0.343 N 
ATOM      9  O   UNL A   1      34.287  35.588  34.454  1.00  0.00    -0.270 OA
ATOM     10  C   UNL A   1      35.032  35.375  33.503  1.00  0.00     0.244 C 
ATOM     11  H   UNL A   1      35.633  35.871  31.622  1.00  0.00     0.164 HD
BRANCH  10  12
ATOM     12  C   UNL A   1      36.011  34.265  33.600  1.00  0.00     0.072 C 
ATOM     13  C   UNL A   1      37.170  34.143  32.936  1.00  0.00     0.024 C 
BRANCH  13  14
ATOM     14  C   UNL A   1      38.027  33.019  33.144  1.00  0.00     0.027 A 
ATOM     15  C   UNL A   1      37.768  31.657  33.085  1.00  0.00     0.020 A 
ATOM     16  S   UNL A   1      39.689  33.288  33.524  1.00  0.00    -0.144 S 
ATOM     17  C   UNL A   1      38.907  30.853  33.374  1.00  0.00     0.012 A 
ATOM     18  C   UNL A   1      40.018  31.617  33.641  1.00  0.00     0.065 A 
ENDBRANCH  13  14
ENDBRANCH  10  12
ENDBRANCH   7   8
ENDBRANCH   4   7
ENDBRANCH   2   3
ENDBRANCH   1   2
BRANCH   1  19
ATOM     19  C   UNL A   1      34.364  34.204  29.608  1.00  0.00     0.023 C 
BRANCH  19  20
ATOM     20  C   UNL A   1      35.065  33.010  28.964  1.00  0.00     0.116 C 
BRANCH  20  21
ATOM     21  N   UNL A   1      34.140  32.006  28.458  1.00  0.00    -0.352 N 
ATOM     22  C   UNL A   1      34.394  30.699  28.116  1.00  0.00     0.251 C 
ATOM     23  H   UNL A   1      33.208  32.303  28.347  1.00  0.00     0.163 HD
ATOM     24  O   UNL A   1      33.516  30.014  27.599  1.00  0.00    -0.269 OA
BRANCH  22  25
ATOM     25  C   UNL A   1      35.744  30.136  28.336  1.00  0.00     0.039 A 
ATOM     26  C   UNL A   1      36.649  30.119  27.271  1.00  0.00     0.014 A 
ATOM     27  C   UNL A   1      36.126  29.665  29.595  1.00  0.00     0.014 A 
ATOM     28  C   UNL A   1      37.966  29.710  27.490  1.00  0.00     0.010 A 
ATOM     29  C   UNL A   1      37.453  29.310  29.824  1.00  0.00     0.010 A 
ATOM     30  C   UNL A   1      38.390  29.346  28.780  1.00  0.00    -0.014 A 
BRANCH  30  31
ATOM     31  C   UNL A   1      39.815  29.045  29.072  1.00  0.00     0.031 A 
ATOM     32  C   UNL A   1      40.720  30.113  29.613  1.00  0.00     0.074 A 
ATOM     33  C   UNL A   1      40.311  27.830  28.759  1.00  0.00     0.049 A 
ATOM     34  N   UNL A   1      42.012  30.075  29.814  1.00  0.00    -0.248 NA
ATOM     35  C   UNL A   1      40.096  31.402  29.950  1.00  0.00     0.031 C 
ATOM     36  C   UNL A   1      39.541  26.722  28.187  1.00  0.00     0.029 A 
ATOM     37  N   UNL A   1      41.587  27.331  28.855  1.00  0.00    -0.354 N 
ATOM     38  C   UNL A   1      42.360  31.336  30.283  1.00  0.00     0.074 A 
ATOM     39  C   UNL A   1      41.148  32.128  30.302  1.00  0.00     0.031 C 
ATOM     40  C   UNL A   1      40.358  25.675  27.991  1.00  0.00     0.029 A 
ATOM     41  C   UNL A   1      41.713  26.046  28.384  1.00  0.00     0.049 A 
ATOM     42  H   UNL A   1      42.339  27.847  29.226  1.00  0.00     0.167 HD
ATOM     43  C   UNL A   1      43.576  31.786  30.677  1.00  0.00     0.037 A 
ATOM     44  C   UNL A   1      42.802  25.260  28.264  1.00  0.00     0.037 A 
ATOM     45  C   UNL A   1      44.772  30.985  30.682  1.00  0.00     0.049 A 
ATOM     46  C   UNL A   1      44.141  25.786  28.697  1.00  0.00     0.074 A 
ATOM     47  C   UNL A   1      46.034  31.329  31.132  1.00  0.00     0.029 A 
ATOM     48  N   UNL A   1      44.856  29.683  30.213  1.00  0.00    -0.354 N 
ATOM     49  N   UNL A   1      44.441  26.960  29.197  1.00  0.00    -0.248 NA
ATOM     50  C   UNL A   1      45.291  24.883  28.549  1.00  0.00     0.031 C 
ATOM     51  C   UNL A   1      46.891  30.248  30.901  1.00  0.00     0.029 A 
ATOM     52  C   UNL A   1      46.154  29.217  30.341  1.00  0.00     0.049 A 
ATOM     53  H   UNL A   1      44.104  29.165  29.845  1.00  0.00     0.167 HD
ATOM     54  C   UNL A   1      45.810  26.933  29.437  1.00  0.00     0.074 A 
ATOM     55  C   UNL A   1      46.278  25.621  29.040  1.00  0.00     0.031 C 
ATOM     56  C   UNL A   1      46.605  27.907  29.941  1.00  0.00     0.037 A 
BRANCH  43  57
ATOM     57  C   UNL A   1      43.672  33.212  31.140  1.00  0.00     0.058 A 
ATOM     58  C   UNL A   1      43.444  33.566  32.479  1.00  0.00     0.135 A 
ATOM     59  C   UNL A   1      44.029  34.232  30.243  1.00  0.00     0.135 A 
ATOM     60  F   UNL A   1      43.086  32.631  33.373  1.00  0.00    -0.206 F 
ATOM     61  C   UNL A   1      43.540  34.885  32.908  1.00  0.00     0.059 A 
ATOM     62  C   UNL A   1      44.155  35.555  30.656  1.00  0.00     0.059 A 
ATOM     63  F   UNL A   1      44.258  33.947  28.952  1.00  0.00    -0.206 F 
ATOM     64  C   UNL A   1      43.893  35.873  31.988  1.00  0.00     0.060 A 
BRANCH  64  65
ATOM     65  S   UNL A   1      44.013  37.582  32.560  1.00  0.00     0.124 S 
ATOM     66  O   UNL A   1      43.738  38.319  31.331  1.00  0.00    -0.237 OA
ATOM     67  O   UNL A   1      42.972  37.645  33.582  1.00  0.00    -0.237 OA
ATOM     68  O   UNL A   1      45.382  37.677  33.058  1.00  0.00    -0.744 OA
ENDBRANCH  64  65
ENDBRANCH  43  57
BRANCH  44  69
ATOM     69  C   UNL A   1      42.664  23.887  27.710  1.00  0.00     0.058 A 
ATOM     70  C   UNL A   1      42.719  23.663  26.327  1.00  0.00     0.135 A 
ATOM     71  C   UNL A   1      42.495  22.776  28.549  1.00  0.00     0.135 A 
ATOM     72  F   UNL A   1      42.872  24.696  25.485  1.00  0.00    -0.206 F 
ATOM     73  C   UNL A   1      42.602  22.384  25.792  1.00  0.00     0.059 A 
ATOM     74  C   UNL A   1      42.397  21.485  28.038  1.00  0.00     0.059 A 
ATOM     75  F   UNL A   1      42.452  22.938  29.880  1.00  0.00    -0.206 F 
ATOM     76  C   UNL A   1      42.443  21.300  26.658  1.00  0.00     0.060 A 
BRANCH  76  77
ATOM     77  S   UNL A   1      42.349  19.637  25.958  1.00  0.00     0.124 S 
ATOM     78  O   UNL A   1      42.647  18.812  27.122  1.00  0.00    -0.237 OA
ATOM     79  O   UNL A   1      40.973  19.585  25.472  1.00  0.00    -0.237 OA
ATOM     80  O   UNL A   1      43.372  19.656  24.915  1.00  0.00    -0.744 OA
ENDBRANCH  76  77
ENDBRANCH  44  69
BRANCH  56  81
ATOM     81  C   UNL A   1      48.064  27.594  30.108  1.00  0.00     0.058 A 
ATOM     82  C   UNL A   1      48.559  27.021  31.290  1.00  0.00     0.135 A 
ATOM     83  C   UNL A   1      48.964  27.803  29.051  1.00  0.00     0.135 A 
ATOM     84  F   UNL A   1      47.740  26.812  32.333  1.00  0.00    -0.206 F 
ATOM     85  C   UNL A   1      49.897  26.670  31.420  1.00  0.00     0.059 A 
ATOM     86  C   UNL A   1      50.304  27.439  29.151  1.00  0.00     0.059 A 
ATOM     87  F   UNL A   1      48.539  28.342  27.898  1.00  0.00    -0.206 F 
ATOM     88  C   UNL A   1      50.762  26.878  30.343  1.00  0.00     0.060 A 
BRANCH  88  89
ATOM     89  S   UNL A   1      52.485  26.362  30.502  1.00  0.00     0.124 S 
ATOM     90  O   UNL A   1      52.353  25.125  31.265  1.00  0.00    -0.237 OA
ATOM     91  O   UNL A   1      52.896  26.207  29.111  1.00  0.00    -0.237 OA
ATOM     92  O   UNL A   1      53.109  27.475  31.213  1.00  0.00    -0.744 OA
ENDBRANCH  88  89
ENDBRANCH  56  81
ENDBRANCH  30  31
ENDBRANCH  22  25
ENDBRANCH  20  21
ENDBRANCH  19  20
ENDBRANCH   1  19
TORSDOF 17
ENDMDL
MODEL 2
REMARK VINA RESULT:      -9.8      2.433      3.041
REMARK SMILES O=C(/C=C/c1cccs1)NCC(=O)NCCCCNC(=O)c1ccc(-c2c3nc(c(-c4c(F)cc(S(=O)(=O)[O-])cc4F)c4ccc([nH]4)c(-c4c(F)cc(S(=O)(=O)[O-])cc4F)c4nc(c(-c5c(F)cc(S(=O)(=O)[O-])cc5F)c5ccc2[nH]5)C=C4)C=C3)cc1
REMARK SMILES IDX 16 1 15 2 14 3 12 4 13 5 11 7 10 8 1 9 2 10 3 12 4 13 5 14
REMARK SMILES IDX 6 15 9 16 7 17 8 18 17 19 18 20 19 21 20 22 21 24 22 25
REMARK SMILES IDX 23 26 87 27 24 28 86 29 25 30 26 31 27 32 80 33 28 34 85 35
REMARK SMILES IDX 79 36 81 37 29 38 84 39 78 40 77 41 30 43 64 44 43 45 63 46
REMARK SMILES IDX 44 47 47 48 62 49 82 50 45 51 46 52 61 54 83 55 48 56 31 57
REMARK SMILES IDX 32 58 41 59 33 60 34 61 40 62 42 63 35 64 36 65 37 66 38 67
REMARK SMILES IDX 39 68 65 69 66 70 75 71 67 72 68 73 74 74 76 75 69 76 70 77
REMARK SMILES IDX 71 78 72 79 73 80 49 81 50 82 59 83 51 84 52 85 58 86 60 87
REMARK SMILES IDX 53 88 54 89 55 90 56 91 57 92
REMARK H PARENT 14 6 10 11 19 23 81 42 47 53
REMARK Flexibility Score: inf
ROOT
ATOM      1  C   UNL A   1      33.718  35.389  28.750  1.00  0.00     0.023 C 
ENDROOT
BRANCH   1   2
ATOM      2  C   UNL A   1      33.474  36.551  29.711  1.00  0.00     0.116 C 
BRANCH   2   3
ATOM      3  N   UNL A   1      32.396  36.265  30.637  1.00  0.00    -0.355 N 
ATOM      4  C   UNL A   1      32.382  36.402  31.996  1.00  0.00     0.239 C 
ATOM      5  O   UNL A   1      31.356  36.111  32.614  1.00  0.00    -0.273 OA
ATOM      6  H   UNL A   1      31.563  35.928  30.233  1.00  0.00     0.163 HD
BRANCH   4   7
ATOM      7  C   UNL A   1      33.614  36.945  32.721  1.00  0.00     0.216 C 
BRANCH   7   8
ATOM      8  N   UNL A   1      34.203  35.962  33.617  1.00  0.00    -0.343 N 
ATOM      9  O   UNL A   1      35.687  35.154  32.078  1.00  0.00    -0.270 OA
ATOM     10  C   UNL A   1      35.208  35.134  33.208  1.00  0.00     0.244 C 
ATOM     11  H   UNL A   1      33.868  35.892  34.540  1.00  0.00     0.164 HD
BRANCH  10  12
ATOM     12  C   UNL A   1      35.749  34.168  34.194  1.00  0.00     0.072 C 
ATOM     13  C   UNL A   1      37.037  33.952  34.498  1.00  0.00     0.024 C 
BRANCH  13  14
ATOM     14  C   UNL A   1      37.414  32.993  35.488  1.00  0.00     0.027 A 
ATOM     15  C   UNL A   1      37.806  31.668  35.365  1.00  0.00     0.020 A 
ATOM     16  S   UNL A   1      37.430  33.463  37.149  1.00  0.00    -0.144 S 
ATOM     17  C   UNL A   1      38.087  31.045  36.615  1.00  0.00     0.012 A 
ATOM     18  C   UNL A   1      37.911  31.910  37.669  1.00  0.00     0.065 A 
ENDBRANCH  13  14
ENDBRANCH  10  12
ENDBRANCH   7   8
ENDBRANCH   4   7
ENDBRANCH   2   3
ENDBRANCH   1   2
BRANCH   1  19
ATOM     19  C   UNL A   1      33.921  34.030  29.429  1.00  0.00     0.023 C 
BRANCH  19  20
ATOM     20  C   UNL A   1      34.813  33.045  28.677  1.00  0.00     0.116 C 
BRANCH  20  21
ATOM     21  N   UNL A   1      34.065  32.060  27.911  1.00  0.00    -0.352 N 
ATOM     22  C   UNL A   1      34.419  30.771  27.590  1.00  0.00     0.251 C 
ATOM     23  H   UNL A   1      33.186  32.357  27.580  1.00  0.00     0.163 HD
ATOM     24  O   UNL A   1      33.712  30.106  26.838  1.00  0.00    -0.269 OA
BRANCH  22  25
ATOM     25  C   UNL A   1      35.679  30.207  28.121  1.00  0.00     0.039 A 
ATOM     26  C   UNL A   1      36.842  30.313  27.354  1.00  0.00     0.014 A 
ATOM     27  C   UNL A   1      35.718  29.611  29.384  1.00  0.00     0.014 A 
ATOM     28  C   UNL A   1      38.064  29.901  27.891  1.00  0.00     0.010 A 
ATOM     29  C   UNL A   1      36.944  29.251  29.939  1.00  0.00     0.010 A 
ATOM     30  C   UNL A   1      38.130  29.410  29.205  1.00  0.00    -0.014 A 
BRANCH  30  31
ATOM     31  C   UNL A   1      39.430  29.098  29.852  1.00  0.00     0.031 A 
ATOM     32  C   UNL A   1      39.947  29.958  30.970  1.00  0.00     0.074 A 
ATOM     33  C   UNL A   1      40.187  28.094  29.365  1.00  0.00     0.049 A 
ATOM     34  N   UNL A   1      41.107  29.918  31.572  1.00  0.00    -0.248 NA
ATOM     35  C   UNL A   1      39.050  31.018  31.458  1.00  0.00     0.031 C 
ATOM     36  C   UNL A   1      39.814  27.214  28.254  1.00  0.00     0.029 A 
ATOM     37  N   UNL A   1      41.438  27.657  29.727  1.00  0.00    -0.354 N 
ATOM     38  C   UNL A   1      41.090  30.955  32.497  1.00  0.00     0.074 A 
ATOM     39  C   UNL A   1      39.817  31.630  32.350  1.00  0.00     0.031 C 
ATOM     40  C   UNL A   1      40.810  26.341  28.030  1.00  0.00     0.029 A 
ATOM     41  C   UNL A   1      41.906  26.622  28.952  1.00  0.00     0.049 A 
ATOM     42  H   UNL A   1      41.950  28.050  30.470  1.00  0.00     0.167 HD
ATOM     43  C   UNL A   1      42.041  31.302  33.396  1.00  0.00     0.037 A 
ATOM     44  C   UNL A   1      43.092  25.982  28.969  1.00  0.00     0.037 A 
ATOM     45  C   UNL A   1      43.294  30.610  33.556  1.00  0.00     0.049 A 
ATOM     46  C   UNL A   1      44.136  26.392  29.969  1.00  0.00     0.074 A 
ATOM     47  C   UNL A   1      44.290  30.842  34.488  1.00  0.00     0.029 A 
ATOM     48  N   UNL A   1      43.724  29.557  32.765  1.00  0.00    -0.354 N 
ATOM     49  N   UNL A   1      44.078  27.335  30.878  1.00  0.00    -0.248 NA
ATOM     50  C   UNL A   1      45.408  25.656  29.945  1.00  0.00     0.031 C 
ATOM     51  C   UNL A   1      45.339  29.951  34.237  1.00  0.00     0.029 A 
ATOM     52  C   UNL A   1      44.981  29.141  33.172  1.00  0.00     0.049 A 
ATOM     53  H   UNL A   1      43.211  29.161  32.023  1.00  0.00     0.167 HD
ATOM     54  C   UNL A   1      45.297  27.296  31.544  1.00  0.00     0.074 A 
ATOM     55  C   UNL A   1      46.069  26.228  30.943  1.00  0.00     0.031 C 
ATOM     56  C   UNL A   1      45.736  28.075  32.562  1.00  0.00     0.037 A 
BRANCH  43  57
ATOM     57  C   UNL A   1      41.762  32.483  34.282  1.00  0.00     0.058 A 
ATOM     58  C   UNL A   1      41.397  32.322  35.628  1.00  0.00     0.135 A 
ATOM     59  C   UNL A   1      41.895  33.792  33.790  1.00  0.00     0.135 A 
ATOM     60  F   UNL A   1      41.242  31.092  36.142  1.00  0.00    -0.206 F 
ATOM     61  C   UNL A   1      41.146  33.415  36.449  1.00  0.00     0.059 A 
ATOM     62  C   UNL A   1      41.673  34.902  34.601  1.00  0.00     0.059 A 
ATOM     63  F   UNL A   1      42.243  34.002  32.511  1.00  0.00    -0.206 F 
ATOM     64  C   UNL A   1      41.283  34.702  35.924  1.00  0.00     0.060 A 
BRANCH  64  65
ATOM     65  S   UNL A   1      40.952  36.113  37.002  1.00  0.00     0.124 S 
ATOM     66  O   UNL A   1      39.836  36.750  36.312  1.00  0.00    -0.237 OA
ATOM     67  O   UNL A   1      40.628  35.469  38.272  1.00  0.00    -0.237 OA
ATOM     68  O   UNL A   1      42.209  36.855  36.984  1.00  0.00    -0.744 OA
ENDBRANCH  64  65
ENDBRANCH  43  57
BRANCH  44  69
ATOM     69  C   UNL A   1      43.351  24.880  28.005  1.00  0.00     0.058 A 
ATOM     70  C   UNL A   1      44.000  25.130  26.787  1.00  0.00     0.135 A 
ATOM     71  C   UNL A   1      42.973  23.559  28.289  1.00  0.00     0.135 A 
ATOM     72  F   UNL A   1      44.373  26.379  26.469  1.00  0.00    -0.206 F 
ATOM     73  C   UNL A   1      44.259  24.109  25.879  1.00  0.00     0.059 A 
ATOM     74  C   UNL A   1      43.240  22.518  27.404  1.00  0.00     0.059 A 
ATOM     75  F   UNL A   1      42.363  23.267  29.448  1.00  0.00    -0.206 F 
ATOM     76  C   UNL A   1      43.876  22.805  26.198  1.00  0.00     0.060 A 
BRANCH  76  77
ATOM     77  S   UNL A   1      44.267  21.477  25.037  1.00  0.00     0.124 S 
ATOM     78  O   UNL A   1      45.607  21.096  25.467  1.00  0.00    -0.237 OA
ATOM     79  O   UNL A   1      43.209  20.509  25.308  1.00  0.00    -0.237 OA
ATOM     80  O   UNL A   1      44.183  22.137  23.736  1.00  0.00    -0.744 OA
ENDBRANCH  76  77
ENDBRANCH  44  69
BRANCH  56  81
ATOM     81  C   UNL A   1      47.109  27.798  33.106  1.00  0.00     0.058 A 
ATOM     82  C   UNL A   1      48.244  28.439  32.585  1.00  0.00     0.135 A 
ATOM     83  C   UNL A   1      47.282  26.940  34.203  1.00  0.00     0.135 A 
ATOM     84  F   UNL A   1      48.131  29.261  31.529  1.00  0.00    -0.206 F 
ATOM     85  C   UNL A   1      49.506  28.234  33.132  1.00  0.00     0.059 A 
ATOM     86  C   UNL A   1      48.533  26.737  34.780  1.00  0.00     0.059 A 
ATOM     87  F   UNL A   1      46.227  26.309  34.741  1.00  0.00    -0.206 F 
ATOM     88  C   UNL A   1      49.640  27.386  34.232  1.00  0.00     0.060 A 
BRANCH  88  89
ATOM     89  S   UNL A   1      51.274  27.175  34.970  1.00  0.00     0.124 S 
ATOM     90  O   UNL A   1      51.938  26.334  33.980  1.00  0.00    -0.237 OA
ATOM     91  O   UNL A   1      51.758  28.548  35.062  1.00  0.00    -0.237 OA
ATOM     92  O   UNL A   1      50.989  26.532  36.250  1.00  0.00    -0.744 OA
ENDBRANCH  88  89
ENDBRANCH  56  81
ENDBRANCH  30  31
ENDBRANCH  22  25
ENDBRANCH  20  21
ENDBRANCH  19  20
ENDBRANCH   1  19
TORSDOF 17
ENDMDL
MODEL 3
REMARK VINA RESULT:      -9.7      2.776      8.905
REMARK SMILES O=C(/C=C/c1cccs1)NCC(=O)NCCCCNC(=O)c1ccc(-c2c3nc(c(-c4c(F)cc(S(=O)(=O)[O-])cc4F)c4ccc([nH]4)c(-c4c(F)cc(S(=O)(=O)[O-])cc4F)c4nc(c(-c5c(F)cc(S(=O)(=O)[O-])cc5F)c5ccc2[nH]5)C=C4)C=C3)cc1
REMARK SMILES IDX 16 1 15 2 14 3 12 4 13 5 11 7 10 8 1 9 2 10 3 12 4 13 5 14
REMARK SMILES IDX 6 15 9 16 7 17 8 18 17 19 18 20 19 21 20 22 21 24 22 25
REMARK SMILES IDX 23 26 87 27 24 28 86 29 25 30 26 31 27 32 80 33 28 34 85 35
REMARK SMILES IDX 79 36 81 37 29 38 84 39 78 40 77 41 30 43 64 44 43 45 63 46
REMARK SMILES IDX 44 47 47 48 62 49 82 50 45 51 46 52 61 54 83 55 48 56 31 57
REMARK SMILES IDX 32 58 41 59 33 60 34 61 40 62 42 63 35 64 36 65 37 66 38 67
REMARK SMILES IDX 39 68 65 69 66 70 75 71 67 72 68 73 74 74 76 75 69 76 70 77
REMARK SMILES IDX 71 78 72 79 73 80 49 81 50 82 59 83 51 84 52 85 58 86 60 87
REMARK SMILES IDX 53 88 54 89 55 90 56 91 57 92
REMARK H PARENT 14 6 10 11 19 23 81 42 47 53
REMARK Flexibility Score: inf
ROOT
ATOM      1  C   UNL A   1      35.043  34.561  28.723  1.00  0.00     0.023 C 
ENDROOT
BRANCH   1   2
ATOM      2  C   UNL A   1      33.642  34.740  29.306  1.00  0.00     0.116 C 
BRANCH   2   3
ATOM      3  N   UNL A   1      33.452  36.071  29.849  1.00  0.00    -0.355 N 
ATOM      4  C   UNL A   1      32.973  36.429  31.077  1.00  0.00     0.239 C 
ATOM      5  O   UNL A   1      32.893  37.626  31.359  1.00  0.00    -0.273 OA
ATOM      6  H   UNL A   1      33.702  36.815  29.254  1.00  0.00     0.163 HD
BRANCH   4   7
ATOM      7  C   UNL A   1      32.583  35.351  32.088  1.00  0.00     0.216 C 
BRANCH   7   8
ATOM      8  N   UNL A   1      33.688  34.998  32.967  1.00  0.00    -0.343 N 
ATOM      9  O   UNL A   1      33.915  32.873  32.155  1.00  0.00    -0.270 OA
ATOM     10  C   UNL A   1      34.267  33.762  32.924  1.00  0.00     0.244 C 
ATOM     11  H   UNL A   1      34.024  35.664  33.608  1.00  0.00     0.164 HD
BRANCH  10  12
ATOM     12  C   UNL A   1      35.391  33.495  33.854  1.00  0.00     0.072 C 
ATOM     13  C   UNL A   1      36.591  32.977  33.553  1.00  0.00     0.024 C 
BRANCH  13  14
ATOM     14  C   UNL A   1      37.589  32.790  34.557  1.00  0.00     0.027 A 
ATOM     15  C   UNL A   1      38.282  33.709  35.331  1.00  0.00     0.020 A 
ATOM     16  S   UNL A   1      38.082  31.186  34.963  1.00  0.00    -0.144 S 
ATOM     17  C   UNL A   1      39.218  33.107  36.220  1.00  0.00     0.012 A 
ATOM     18  C   UNL A   1      39.217  31.737  36.113  1.00  0.00     0.065 A 
ENDBRANCH  13  14
ENDBRANCH  10  12
ENDBRANCH   7   8
ENDBRANCH   4   7
ENDBRANCH   2   3
ENDBRANCH   1   2
BRANCH   1  19
ATOM     19  C   UNL A   1      35.961  33.641  29.535  1.00  0.00     0.023 C 
BRANCH  19  20
ATOM     20  C   UNL A   1      35.968  32.175  29.108  1.00  0.00     0.116 C 
BRANCH  20  21
ATOM     21  N   UNL A   1      35.792  31.252  30.219  1.00  0.00    -0.352 N 
ATOM     22  C   UNL A   1      36.674  30.316  30.707  1.00  0.00     0.251 C 
ATOM     23  H   UNL A   1      34.926  31.305  30.685  1.00  0.00     0.163 HD
ATOM     24  O   UNL A   1      36.324  29.538  31.589  1.00  0.00    -0.269 OA
BRANCH  22  25
ATOM     25  C   UNL A   1      38.034  30.225  30.131  1.00  0.00     0.039 A 
ATOM     26  C   UNL A   1      39.136  30.321  30.984  1.00  0.00     0.014 A 
ATOM     27  C   UNL A   1      38.216  30.008  28.762  1.00  0.00     0.014 A 
ATOM     28  C   UNL A   1      40.421  30.111  30.479  1.00  0.00     0.010 A 
ATOM     29  C   UNL A   1      39.493  29.745  28.271  1.00  0.00     0.010 A 
ATOM     30  C   UNL A   1      40.605  29.776  29.127  1.00  0.00    -0.014 A 
BRANCH  30  31
ATOM     31  C   UNL A   1      41.941  29.408  28.594  1.00  0.00     0.031 A 
ATOM     32  C   UNL A   1      42.226  27.997  28.167  1.00  0.00     0.074 A 
ATOM     33  C   UNL A   1      42.926  30.330  28.585  1.00  0.00     0.049 A 
ATOM     34  N   UNL A   1      43.359  27.461  27.794  1.00  0.00    -0.248 NA
ATOM     35  C   UNL A   1      41.092  27.059  28.186  1.00  0.00     0.031 C 
ATOM     36  C   UNL A   1      42.785  31.724  29.015  1.00  0.00     0.029 A 
ATOM     37  N   UNL A   1      44.246  30.228  28.221  1.00  0.00    -0.354 N 
ATOM     38  C   UNL A   1      43.082  26.121  27.550  1.00  0.00     0.074 A 
ATOM     39  C   UNL A   1      41.681  25.918  27.853  1.00  0.00     0.031 C 
ATOM     40  C   UNL A   1      43.968  32.346  28.884  1.00  0.00     0.029 A 
ATOM     41  C   UNL A   1      44.959  31.391  28.400  1.00  0.00     0.049 A 
ATOM     42  H   UNL A   1      44.644  29.400  27.867  1.00  0.00     0.167 HD
ATOM     43  C   UNL A   1      43.916  25.154  27.099  1.00  0.00     0.037 A 
ATOM     44  C   UNL A   1      46.268  31.654  28.213  1.00  0.00     0.037 A 
ATOM     45  C   UNL A   1      45.302  25.368  26.773  1.00  0.00     0.049 A 
ATOM     46  C   UNL A   1      47.175  30.560  27.722  1.00  0.00     0.074 A 
ATOM     47  C   UNL A   1      46.208  24.468  26.240  1.00  0.00     0.029 A 
ATOM     48  N   UNL A   1      45.982  26.563  26.951  1.00  0.00    -0.354 N 
ATOM     49  N   UNL A   1      46.882  29.315  27.437  1.00  0.00    -0.248 NA
ATOM     50  C   UNL A   1      48.591  30.906  27.530  1.00  0.00     0.031 C 
ATOM     51  C   UNL A   1      47.447  25.109  26.131  1.00  0.00     0.029 A 
ATOM     52  C   UNL A   1      47.304  26.417  26.561  1.00  0.00     0.049 A 
ATOM     53  H   UNL A   1      45.586  27.392  27.302  1.00  0.00     0.167 HD
ATOM     54  C   UNL A   1      48.073  28.731  27.018  1.00  0.00     0.074 A 
ATOM     55  C   UNL A   1      49.087  29.763  27.074  1.00  0.00     0.031 C 
ATOM     56  C   UNL A   1      48.302  27.456  26.622  1.00  0.00     0.037 A 
BRANCH  43  57
ATOM     57  C   UNL A   1      43.350  23.773  26.928  1.00  0.00     0.058 A 
ATOM     58  C   UNL A   1      42.986  23.280  25.665  1.00  0.00     0.135 A 
ATOM     59  C   UNL A   1      43.202  22.919  28.033  1.00  0.00     0.135 A 
ATOM     60  F   UNL A   1      43.095  24.061  24.579  1.00  0.00    -0.206 F 
ATOM     61  C   UNL A   1      42.468  21.999  25.506  1.00  0.00     0.059 A 
ATOM     62  C   UNL A   1      42.709  21.625  27.894  1.00  0.00     0.059 A 
ATOM     63  F   UNL A   1      43.535  23.341  29.263  1.00  0.00    -0.206 F 
ATOM     64  C   UNL A   1      42.330  21.180  26.628  1.00  0.00     0.060 A 
BRANCH  64  65
ATOM     65  S   UNL A   1      41.656  19.520  26.406  1.00  0.00     0.124 S 
ATOM     66  O   UNL A   1      41.993  18.897  27.682  1.00  0.00    -0.237 OA
ATOM     67  O   UNL A   1      40.237  19.784  26.186  1.00  0.00    -0.237 OA
ATOM     68  O   UNL A   1      42.383  19.011  25.247  1.00  0.00    -0.744 OA
ENDBRANCH  64  65
ENDBRANCH  43  57
BRANCH  44  69
ATOM     69  C   UNL A   1      46.794  33.016  28.488  1.00  0.00     0.058 A 
ATOM     70  C   UNL A   1      46.800  33.998  27.489  1.00  0.00     0.135 A 
ATOM     71  C   UNL A   1      47.283  33.366  29.756  1.00  0.00     0.135 A 
ATOM     72  F   UNL A   1      46.350  33.708  26.259  1.00  0.00    -0.206 F 
ATOM     73  C   UNL A   1      47.280  35.281  27.732  1.00  0.00     0.059 A 
ATOM     74  C   UNL A   1      47.749  34.648  30.030  1.00  0.00     0.059 A 
ATOM     75  F   UNL A   1      47.284  32.464  30.750  1.00  0.00    -0.206 F 
ATOM     76  C   UNL A   1      47.751  35.597  29.008  1.00  0.00     0.060 A 
BRANCH  76  77
ATOM     77  S   UNL A   1      48.320  37.281  29.331  1.00  0.00     0.124 S 
ATOM     78  O   UNL A   1      49.754  37.155  29.101  1.00  0.00    -0.237 OA
ATOM     79  O   UNL A   1      47.578  38.052  28.339  1.00  0.00    -0.237 OA
ATOM     80  O   UNL A   1      47.918  37.508  30.717  1.00  0.00    -0.744 OA
ENDBRANCH  76  77
ENDBRANCH  44  69
BRANCH  56  81
ATOM     81  C   UNL A   1      49.700  27.100  26.204  1.00  0.00     0.058 A 
ATOM     82  C   UNL A   1      50.616  26.545  27.112  1.00  0.00     0.135 A 
ATOM     83  C   UNL A   1      50.105  27.248  24.869  1.00  0.00     0.135 A 
ATOM     84  F   UNL A   1      50.279  26.393  28.403  1.00  0.00    -0.206 F 
ATOM     85  C   UNL A   1      51.887  26.153  26.710  1.00  0.00     0.059 A 
ATOM     86  C   UNL A   1      51.365  26.842  24.440  1.00  0.00     0.059 A 
ATOM     87  F   UNL A   1      49.264  27.767  23.961  1.00  0.00    -0.206 F 
ATOM     88  C   UNL A   1      52.252  26.301  25.371  1.00  0.00     0.060 A 
BRANCH  88  89
ATOM     89  S   UNL A   1      53.884  25.733  24.849  1.00  0.00     0.124 S 
ATOM     90  O   UNL A   1      54.738  26.289  25.894  1.00  0.00    -0.237 OA
ATOM     91  O   UNL A   1      53.731  24.282  24.861  1.00  0.00    -0.237 OA
ATOM     92  O   UNL A   1      54.044  26.328  23.525  1.00  0.00    -0.744 OA
ENDBRANCH  88  89
ENDBRANCH  56  81
ENDBRANCH  30  31
ENDBRANCH  22  25
ENDBRANCH  20  21
ENDBRANCH  19  20
ENDBRANCH   1  19
TORSDOF 17
ENDMDL
