MODEL 1
REMARK VINA RESULT:     -11.5      0.000      0.000
REMARK SMILES O=C1C[N@@H+](Cc2ccc(C(=O)NCCCCNC(=O)c3ccc(-c4c5nc(c(-c6c(F)cc(S(=O)(=O)[O-])cc6F)c6ccc([nH]6)c(-c6c(F)cc(S(=O)(=O)[O-])cc6F)c6nc(c(-c7c(F)cc(S(=O)(=O)[O-])cc7F)c7ccc4[nH]7)C=C6)C=C5)cc3)cc2)CCN1
REMARK SMILES IDX 15 1 14 2 13 3 12 4 10 5 11 6 9 8 6 9 7 10 87 11 8 12 86 13
REMARK SMILES IDX 5 14 4 15 1 16 2 17 3 18 90 19 89 20 88 22 16 24 17 25 18 26
REMARK SMILES IDX 19 28 20 29 21 30 85 31 22 32 84 33 23 34 24 35 25 36 78 37
REMARK SMILES IDX 26 38 83 39 77 40 79 41 27 42 82 43 76 44 75 45 28 47 62 48
REMARK SMILES IDX 41 49 61 50 42 51 45 52 60 53 80 54 43 55 44 56 59 58 81 59
REMARK SMILES IDX 46 60 29 61 30 62 39 63 31 64 32 65 38 66 40 67 33 68 34 69
REMARK SMILES IDX 35 70 36 71 37 72 63 73 64 74 73 75 65 76 66 77 72 78 74 79
REMARK SMILES IDX 67 80 68 81 69 82 70 83 71 84 47 85 48 86 57 87 49 88 50 89
REMARK SMILES IDX 56 90 58 91 51 92 52 93 53 94 54 95 55 96
REMARK H PARENT 12 7 90 21 4 23 17 27 79 46 45 57
REMARK Flexibility Score: inf
ROOT
ATOM      1  C   UNL A   1      33.773  27.846  25.305  1.00  0.00     0.023 C 
ENDROOT
BRANCH   1   2
ATOM      2  C   UNL A   1      33.268  29.073  24.544  1.00  0.00     0.023 C 
BRANCH   2   3
ATOM      3  C   UNL A   1      33.283  28.921  23.022  1.00  0.00     0.116 C 
BRANCH   3   4
ATOM      4  N   UNL A   1      31.960  29.131  22.461  1.00  0.00    -0.352 N 
ATOM      5  C   UNL A   1      30.886  28.281  22.368  1.00  0.00     0.251 C 
ATOM      6  O   UNL A   1      29.821  28.694  21.917  1.00  0.00    -0.269 OA
ATOM      7  H   UNL A   1      31.809  30.028  22.084  1.00  0.00     0.163 HD
BRANCH   5   8
ATOM      8  C   UNL A   1      30.968  26.894  22.882  1.00  0.00     0.039 A 
ATOM      9  C   UNL A   1      31.314  24.397  24.105  1.00  0.00     0.006 A 
ATOM     10  C   UNL A   1      30.477  25.359  24.686  1.00  0.00     0.010 A 
ATOM     11  C   UNL A   1      31.865  24.650  22.841  1.00  0.00     0.010 A 
ATOM     12  C   UNL A   1      30.307  26.604  24.078  1.00  0.00     0.014 A 
ATOM     13  C   UNL A   1      31.682  25.889  22.228  1.00  0.00     0.014 A 
BRANCH   9  14
ATOM     14  C   UNL A   1      31.656  23.124  24.838  1.00  0.00     0.299 C 
BRANCH  14  15
ATOM     15  N   UNL A   1      32.724  22.299  24.269  1.00  0.00    -0.322 N 
ATOM     16  O   UNL A   1      32.074  18.836  25.234  1.00  0.00    -0.269 OA
ATOM     17  C   UNL A   1      32.663  19.912  25.135  1.00  0.00     0.275 C 
ATOM     18  C   UNL A   1      32.364  20.896  24.004  1.00  0.00     0.363 C 
ATOM     19  N   UNL A   1      33.700  20.195  25.980  1.00  0.00    -0.346 N 
ATOM     20  C   UNL A   1      34.321  21.495  26.079  1.00  0.00     0.177 C 
ATOM     21  H   UNL A   1      34.043  19.472  26.554  1.00  0.00     0.163 HD
ATOM     22  C   UNL A   1      34.052  22.416  24.878  1.00  0.00     0.284 C 
ATOM     23  H   UNL A   1      32.825  22.750  23.361  1.00  0.00     0.348 HD
ENDBRANCH  14  15
ENDBRANCH   9  14
ENDBRANCH   5   8
ENDBRANCH   3   4
ENDBRANCH   2   3
ENDBRANCH   1   2
BRANCH   1  24
ATOM     24  C   UNL A   1      34.021  28.074  26.790  1.00  0.00     0.116 C 
BRANCH  24  25
ATOM     25  N   UNL A   1      33.668  29.416  27.224  1.00  0.00    -0.352 N 
ATOM     26  C   UNL A   1      34.430  30.322  27.924  1.00  0.00     0.251 C 
ATOM     27  H   UNL A   1      32.762  29.716  26.984  1.00  0.00     0.163 HD
ATOM     28  O   UNL A   1      33.925  31.362  28.325  1.00  0.00    -0.269 OA
BRANCH  26  29
ATOM     29  C   UNL A   1      35.849  30.015  28.210  1.00  0.00     0.039 A 
ATOM     30  C   UNL A   1      36.201  29.580  29.489  1.00  0.00     0.014 A 
ATOM     31  C   UNL A   1      36.826  30.149  27.220  1.00  0.00     0.014 A 
ATOM     32  C   UNL A   1      37.527  29.237  29.762  1.00  0.00     0.010 A 
ATOM     33  C   UNL A   1      38.128  29.728  27.468  1.00  0.00     0.010 A 
ATOM     34  C   UNL A   1      38.498  29.287  28.747  1.00  0.00    -0.014 A 
BRANCH  34  35
ATOM     35  C   UNL A   1      39.914  28.927  29.014  1.00  0.00     0.031 A 
ATOM     36  C   UNL A   1      40.844  29.954  29.606  1.00  0.00     0.074 A 
ATOM     37  C   UNL A   1      40.376  27.707  28.679  1.00  0.00     0.049 A 
ATOM     38  N   UNL A   1      42.126  29.865  29.854  1.00  0.00    -0.248 NA
ATOM     39  C   UNL A   1      40.262  31.267  29.934  1.00  0.00     0.031 C 
ATOM     40  C   UNL A   1      39.586  26.643  28.056  1.00  0.00     0.029 A 
ATOM     41  N   UNL A   1      41.627  27.157  28.806  1.00  0.00    -0.354 N 
ATOM     42  C   UNL A   1      42.503  31.109  30.348  1.00  0.00     0.074 A 
ATOM     43  C   UNL A   1      41.331  31.955  30.306  1.00  0.00     0.031 C 
ATOM     44  C   UNL A   1      40.363  25.563  27.879  1.00  0.00     0.029 A 
ATOM     45  C   UNL A   1      41.715  25.867  28.339  1.00  0.00     0.049 A 
ATOM     46  H   UNL A   1      42.390  27.641  29.197  1.00  0.00     0.167 HD
ATOM     47  C   UNL A   1      43.708  31.502  30.822  1.00  0.00     0.037 A 
ATOM     48  C   UNL A   1      42.767  25.027  28.286  1.00  0.00     0.037 A 
ATOM     49  C   UNL A   1      44.862  30.645  30.890  1.00  0.00     0.049 A 
ATOM     50  C   UNL A   1      44.097  25.484  28.824  1.00  0.00     0.074 A 
ATOM     51  C   UNL A   1      46.116  30.928  31.401  1.00  0.00     0.029 A 
ATOM     52  N   UNL A   1      44.903  29.335  30.434  1.00  0.00    -0.354 N 
ATOM     53  N   UNL A   1      44.421  26.644  29.344  1.00  0.00    -0.248 NA
ATOM     54  C   UNL A   1      45.201  24.516  28.781  1.00  0.00     0.031 C 
ATOM     55  C   UNL A   1      46.928  29.805  31.214  1.00  0.00     0.029 A 
ATOM     56  C   UNL A   1      46.164  28.802  30.639  1.00  0.00     0.049 A 
ATOM     57  H   UNL A   1      44.146  28.856  30.026  1.00  0.00     0.167 HD
ATOM     58  C   UNL A   1      45.755  26.532  29.723  1.00  0.00     0.074 A 
ATOM     59  C   UNL A   1      46.173  25.189  29.379  1.00  0.00     0.031 C 
ATOM     60  C   UNL A   1      46.560  27.455  30.307  1.00  0.00     0.037 A 
BRANCH  47  61
ATOM     61  C   UNL A   1      43.837  32.920  31.312  1.00  0.00     0.058 A 
ATOM     62  C   UNL A   1      44.095  33.984  30.433  1.00  0.00     0.135 A 
ATOM     63  C   UNL A   1      43.672  33.224  32.674  1.00  0.00     0.135 A 
ATOM     64  F   UNL A   1      44.280  33.752  29.123  1.00  0.00    -0.206 F 
ATOM     65  C   UNL A   1      44.219  35.293  30.890  1.00  0.00     0.059 A 
ATOM     66  C   UNL A   1      43.759  34.530  33.147  1.00  0.00     0.059 A 
ATOM     67  F   UNL A   1      43.425  32.246  33.559  1.00  0.00    -0.206 F 
ATOM     68  C   UNL A   1      44.048  35.556  32.249  1.00  0.00     0.060 A 
BRANCH  68  69
ATOM     69  S   UNL A   1      44.205  37.260  32.822  1.00  0.00     0.124 S 
ATOM     70  O   UNL A   1      43.021  37.393  33.665  1.00  0.00    -0.237 OA
ATOM     71  O   UNL A   1      45.484  37.235  33.526  1.00  0.00    -0.237 OA
ATOM     72  O   UNL A   1      44.187  38.037  31.587  1.00  0.00    -0.744 OA
ENDBRANCH  68  69
ENDBRANCH  47  61
BRANCH  48  73
ATOM     73  C   UNL A   1      42.600  23.657  27.728  1.00  0.00     0.058 A 
ATOM     74  C   UNL A   1      42.684  23.424  26.346  1.00  0.00     0.135 A 
ATOM     75  C   UNL A   1      42.359  22.553  28.561  1.00  0.00     0.135 A 
ATOM     76  F   UNL A   1      42.906  24.447  25.507  1.00  0.00    -0.206 F 
ATOM     77  C   UNL A   1      42.512  22.154  25.808  1.00  0.00     0.059 A 
ATOM     78  C   UNL A   1      42.213  21.268  28.048  1.00  0.00     0.059 A 
ATOM     79  F   UNL A   1      42.288  22.717  29.891  1.00  0.00    -0.206 F 
ATOM     80  C   UNL A   1      42.279  21.080  26.668  1.00  0.00     0.060 A 
BRANCH  80  81
ATOM     81  S   UNL A   1      42.099  19.428  25.961  1.00  0.00     0.124 S 
ATOM     82  O   UNL A   1      42.937  19.523  24.772  1.00  0.00    -0.237 OA
ATOM     83  O   UNL A   1      42.606  18.579  27.035  1.00  0.00    -0.237 OA
ATOM     84  O   UNL A   1      40.664  19.323  25.714  1.00  0.00    -0.744 OA
ENDBRANCH  80  81
ENDBRANCH  48  73
BRANCH  60  85
ATOM     85  C   UNL A   1      47.959  27.032  30.665  1.00  0.00     0.058 A 
ATOM     86  C   UNL A   1      49.026  27.151  29.763  1.00  0.00     0.135 A 
ATOM     87  C   UNL A   1      48.240  26.552  31.955  1.00  0.00     0.135 A 
ATOM     88  F   UNL A   1      48.810  27.600  28.516  1.00  0.00    -0.206 F 
ATOM     89  C   UNL A   1      50.320  26.781  30.116  1.00  0.00     0.059 A 
ATOM     90  C   UNL A   1      49.531  26.207  32.340  1.00  0.00     0.059 A 
ATOM     91  F   UNL A   1      47.258  26.431  32.863  1.00  0.00    -0.206 F 
ATOM     92  C   UNL A   1      50.562  26.312  31.409  1.00  0.00     0.060 A 
BRANCH  92  93
ATOM     93  S   UNL A   1      52.251  25.866  31.865  1.00  0.00     0.124 S 
ATOM     94  O   UNL A   1      52.480  26.727  33.022  1.00  0.00    -0.237 OA
ATOM     95  O   UNL A   1      52.131  24.440  32.151  1.00  0.00    -0.237 OA
ATOM     96  O   UNL A   1      53.024  26.197  30.672  1.00  0.00    -0.744 OA
ENDBRANCH  92  93
ENDBRANCH  60  85
ENDBRANCH  34  35
ENDBRANCH  26  29
ENDBRANCH  24  25
ENDBRANCH   1  24
TORSDOF 16
ENDMDL
MODEL 2
REMARK VINA RESULT:     -11.3      1.449      3.860
REMARK SMILES O=C1C[N@@H+](Cc2ccc(C(=O)NCCCCNC(=O)c3ccc(-c4c5nc(c(-c6c(F)cc(S(=O)(=O)[O-])cc6F)c6ccc([nH]6)c(-c6c(F)cc(S(=O)(=O)[O-])cc6F)c6nc(c(-c7c(F)cc(S(=O)(=O)[O-])cc7F)c7ccc4[nH]7)C=C6)C=C5)cc3)cc2)CCN1
REMARK SMILES IDX 15 1 14 2 13 3 12 4 10 5 11 6 9 8 6 9 7 10 87 11 8 12 86 13
REMARK SMILES IDX 5 14 4 15 1 16 2 17 3 18 90 19 89 20 88 22 16 24 17 25 18 26
REMARK SMILES IDX 19 28 20 29 21 30 85 31 22 32 84 33 23 34 24 35 25 36 78 37
REMARK SMILES IDX 26 38 83 39 77 40 79 41 27 42 82 43 76 44 75 45 28 47 62 48
REMARK SMILES IDX 41 49 61 50 42 51 45 52 60 53 80 54 43 55 44 56 59 58 81 59
REMARK SMILES IDX 46 60 29 61 30 62 39 63 31 64 32 65 38 66 40 67 33 68 34 69
REMARK SMILES IDX 35 70 36 71 37 72 63 73 64 74 73 75 65 76 66 77 72 78 74 79
REMARK SMILES IDX 67 80 68 81 69 82 70 83 71 84 47 85 48 86 57 87 49 88 50 89
REMARK SMILES IDX 56 90 58 91 51 92 52 93 53 94 54 95 55 96
REMARK H PARENT 12 7 90 21 4 23 17 27 79 46 45 57
REMARK Flexibility Score: inf
ROOT
ATOM      1  C   UNL A   1      32.919  27.170  26.040  1.00  0.00     0.023 C 
ENDROOT
BRANCH   1   2
ATOM      2  C   UNL A   1      33.005  25.666  26.304  1.00  0.00     0.023 C 
BRANCH   2   3
ATOM      3  C   UNL A   1      31.650  24.967  26.423  1.00  0.00     0.116 C 
BRANCH   3   4
ATOM      4  N   UNL A   1      31.465  23.998  25.357  1.00  0.00    -0.352 N 
ATOM      5  C   UNL A   1      31.033  24.167  24.065  1.00  0.00     0.251 C 
ATOM      6  O   UNL A   1      31.023  23.209  23.297  1.00  0.00    -0.269 OA
ATOM      7  H   UNL A   1      31.683  23.070  25.601  1.00  0.00     0.163 HD
BRANCH   5   8
ATOM      8  C   UNL A   1      30.657  25.508  23.558  1.00  0.00     0.039 A 
ATOM      9  C   UNL A   1      30.208  28.162  22.782  1.00  0.00     0.006 A 
ATOM     10  C   UNL A   1      31.304  27.453  22.274  1.00  0.00     0.010 A 
ATOM     11  C   UNL A   1      29.268  27.485  23.573  1.00  0.00     0.010 A 
ATOM     12  C   UNL A   1      31.530  26.132  22.663  1.00  0.00     0.014 A 
ATOM     13  C   UNL A   1      29.488  26.161  23.949  1.00  0.00     0.014 A 
BRANCH   9  14
ATOM     14  C   UNL A   1      30.053  29.640  22.522  1.00  0.00     0.299 C 
BRANCH  14  15
ATOM     15  N   UNL A   1      28.749  30.233  22.828  1.00  0.00    -0.322 N 
ATOM     16  O   UNL A   1      27.502  31.793  19.770  1.00  0.00    -0.269 OA
ATOM     17  C   UNL A   1      27.884  31.688  20.935  1.00  0.00     0.275 C 
ATOM     18  C   UNL A   1      27.829  30.356  21.686  1.00  0.00     0.363 C 
ATOM     19  N   UNL A   1      28.254  32.806  21.629  1.00  0.00    -0.346 N 
ATOM     20  C   UNL A   1      28.898  32.770  22.921  1.00  0.00     0.177 C 
ATOM     21  H   UNL A   1      28.070  33.686  21.226  1.00  0.00     0.163 HD
ATOM     22  C   UNL A   1      28.745  31.435  23.666  1.00  0.00     0.284 C 
ATOM     23  H   UNL A   1      28.367  29.505  23.432  1.00  0.00     0.348 HD
ENDBRANCH  14  15
ENDBRANCH   9  14
ENDBRANCH   5   8
ENDBRANCH   3   4
ENDBRANCH   2   3
ENDBRANCH   1   2
BRANCH   1  24
ATOM     24  C   UNL A   1      34.101  27.979  26.557  1.00  0.00     0.116 C 
BRANCH  24  25
ATOM     25  N   UNL A   1      33.721  29.301  27.027  1.00  0.00    -0.352 N 
ATOM     26  C   UNL A   1      34.454  30.192  27.775  1.00  0.00     0.251 C 
ATOM     27  H   UNL A   1      32.817  29.598  26.776  1.00  0.00     0.163 HD
ATOM     28  O   UNL A   1      33.926  31.211  28.199  1.00  0.00    -0.269 OA
BRANCH  26  29
ATOM     29  C   UNL A   1      35.870  29.893  28.084  1.00  0.00     0.039 A 
ATOM     30  C   UNL A   1      36.196  29.402  29.351  1.00  0.00     0.014 A 
ATOM     31  C   UNL A   1      36.870  30.089  27.128  1.00  0.00     0.014 A 
ATOM     32  C   UNL A   1      37.520  29.067  29.643  1.00  0.00     0.010 A 
ATOM     33  C   UNL A   1      38.172  29.676  27.391  1.00  0.00     0.010 A 
ATOM     34  C   UNL A   1      38.515  29.180  28.657  1.00  0.00    -0.014 A 
BRANCH  34  35
ATOM     35  C   UNL A   1      39.930  28.829  28.944  1.00  0.00     0.031 A 
ATOM     36  C   UNL A   1      40.844  29.862  29.550  1.00  0.00     0.074 A 
ATOM     37  C   UNL A   1      40.405  27.612  28.616  1.00  0.00     0.049 A 
ATOM     38  N   UNL A   1      42.123  29.781  29.817  1.00  0.00    -0.248 NA
ATOM     39  C   UNL A   1      40.250  31.171  29.870  1.00  0.00     0.031 C 
ATOM     40  C   UNL A   1      39.630  26.544  27.982  1.00  0.00     0.029 A 
ATOM     41  N   UNL A   1      41.657  27.070  28.762  1.00  0.00    -0.354 N 
ATOM     42  C   UNL A   1      42.485  31.027  30.316  1.00  0.00     0.074 A 
ATOM     43  C   UNL A   1      41.309  31.865  30.257  1.00  0.00     0.031 C 
ATOM     44  C   UNL A   1      40.417  25.468  27.816  1.00  0.00     0.029 A 
ATOM     45  C   UNL A   1      41.760  25.781  28.296  1.00  0.00     0.049 A 
ATOM     46  H   UNL A   1      42.412  27.559  29.164  1.00  0.00     0.167 HD
ATOM     47  C   UNL A   1      43.681  31.428  30.808  1.00  0.00     0.037 A 
ATOM     48  C   UNL A   1      42.818  24.947  28.258  1.00  0.00     0.037 A 
ATOM     49  C   UNL A   1      44.839  30.579  30.893  1.00  0.00     0.049 A 
ATOM     50  C   UNL A   1      44.137  25.413  28.816  1.00  0.00     0.074 A 
ATOM     51  C   UNL A   1      46.084  30.870  31.422  1.00  0.00     0.029 A 
ATOM     52  N   UNL A   1      44.894  29.269  30.438  1.00  0.00    -0.354 N 
ATOM     53  N   UNL A   1      44.446  26.575  29.340  1.00  0.00    -0.248 NA
ATOM     54  C   UNL A   1      45.248  24.452  28.789  1.00  0.00     0.031 C 
ATOM     55  C   UNL A   1      46.905  29.752  31.247  1.00  0.00     0.029 A 
ATOM     56  C   UNL A   1      46.157  28.744  30.661  1.00  0.00     0.049 A 
ATOM     57  H   UNL A   1      44.147  28.785  30.018  1.00  0.00     0.167 HD
ATOM     58  C   UNL A   1      45.775  26.472  29.739  1.00  0.00     0.074 A 
ATOM     59  C   UNL A   1      46.207  25.132  29.401  1.00  0.00     0.031 C 
ATOM     60  C   UNL A   1      46.565  27.400  30.334  1.00  0.00     0.037 A 
BRANCH  47  61
ATOM     61  C   UNL A   1      43.793  32.847  31.300  1.00  0.00     0.058 A 
ATOM     62  C   UNL A   1      44.047  33.914  30.424  1.00  0.00     0.135 A 
ATOM     63  C   UNL A   1      43.617  33.148  32.661  1.00  0.00     0.135 A 
ATOM     64  F   UNL A   1      44.242  33.684  29.115  1.00  0.00    -0.206 F 
ATOM     65  C   UNL A   1      44.155  35.224  30.882  1.00  0.00     0.059 A 
ATOM     66  C   UNL A   1      43.688  34.454  33.137  1.00  0.00     0.059 A 
ATOM     67  F   UNL A   1      43.373  32.167  33.544  1.00  0.00    -0.206 F 
ATOM     68  C   UNL A   1      43.974  35.483  32.241  1.00  0.00     0.060 A 
BRANCH  68  69
ATOM     69  S   UNL A   1      44.111  37.188  32.816  1.00  0.00     0.124 S 
ATOM     70  O   UNL A   1      44.071  37.924  31.557  1.00  0.00    -0.237 OA
ATOM     71  O   UNL A   1      42.934  37.326  33.668  1.00  0.00    -0.237 OA
ATOM     72  O   UNL A   1      45.393  37.209  33.514  1.00  0.00    -0.744 OA
ENDBRANCH  68  69
ENDBRANCH  47  61
BRANCH  48  73
ATOM     73  C   UNL A   1      42.668  23.577  27.698  1.00  0.00     0.058 A 
ATOM     74  C   UNL A   1      42.830  23.336  26.324  1.00  0.00     0.135 A 
ATOM     75  C   UNL A   1      42.366  22.480  28.520  1.00  0.00     0.135 A 
ATOM     76  F   UNL A   1      43.114  24.352  25.495  1.00  0.00    -0.206 F 
ATOM     77  C   UNL A   1      42.675  22.065  25.783  1.00  0.00     0.059 A 
ATOM     78  C   UNL A   1      42.235  21.194  28.005  1.00  0.00     0.059 A 
ATOM     79  F   UNL A   1      42.219  22.652  29.843  1.00  0.00    -0.206 F 
ATOM     80  C   UNL A   1      42.379  20.998  26.633  1.00  0.00     0.060 A 
BRANCH  80  81
ATOM     81  S   UNL A   1      42.222  19.344  25.924  1.00  0.00     0.124 S 
ATOM     82  O   UNL A   1      42.980  19.481  24.686  1.00  0.00    -0.237 OA
ATOM     83  O   UNL A   1      42.829  18.510  26.957  1.00  0.00    -0.237 OA
ATOM     84  O   UNL A   1      40.779  19.183  25.766  1.00  0.00    -0.744 OA
ENDBRANCH  80  81
ENDBRANCH  48  73
BRANCH  60  85
ATOM     85  C   UNL A   1      47.961  26.986  30.713  1.00  0.00     0.058 A 
ATOM     86  C   UNL A   1      49.055  27.190  29.860  1.00  0.00     0.135 A 
ATOM     87  C   UNL A   1      48.211  26.425  31.977  1.00  0.00     0.135 A 
ATOM     88  F   UNL A   1      48.871  27.719  28.639  1.00  0.00    -0.206 F 
ATOM     89  C   UNL A   1      50.346  26.828  30.233  1.00  0.00     0.059 A 
ATOM     90  C   UNL A   1      49.497  26.084  32.384  1.00  0.00     0.059 A 
ATOM     91  F   UNL A   1      47.202  26.220  32.839  1.00  0.00    -0.206 F 
ATOM     92  C   UNL A   1      50.556  26.277  31.499  1.00  0.00     0.060 A 
BRANCH  92  93
ATOM     93  S   UNL A   1      52.239  25.839  31.984  1.00  0.00     0.124 S 
ATOM     94  O   UNL A   1      52.458  26.730  33.120  1.00  0.00    -0.237 OA
ATOM     95  O   UNL A   1      52.113  24.422  32.306  1.00  0.00    -0.237 OA
ATOM     96  O   UNL A   1      53.025  26.139  30.791  1.00  0.00    -0.744 OA
ENDBRANCH  92  93
ENDBRANCH  60  85
ENDBRANCH  34  35
ENDBRANCH  26  29
ENDBRANCH  24  25
ENDBRANCH   1  24
TORSDOF 16
ENDMDL
MODEL 3
REMARK VINA RESULT:     -11.1      2.632      3.202
REMARK SMILES O=C1C[N@@H+](Cc2ccc(C(=O)NCCCCNC(=O)c3ccc(-c4c5nc(c(-c6c(F)cc(S(=O)(=O)[O-])cc6F)c6ccc([nH]6)c(-c6c(F)cc(S(=O)(=O)[O-])cc6F)c6nc(c(-c7c(F)cc(S(=O)(=O)[O-])cc7F)c7ccc4[nH]7)C=C6)C=C5)cc3)cc2)CCN1
REMARK SMILES IDX 15 1 14 2 13 3 12 4 10 5 11 6 9 8 6 9 7 10 87 11 8 12 86 13
REMARK SMILES IDX 5 14 4 15 1 16 2 17 3 18 90 19 89 20 88 22 16 24 17 25 18 26
REMARK SMILES IDX 19 28 20 29 21 30 85 31 22 32 84 33 23 34 24 35 25 36 78 37
REMARK SMILES IDX 26 38 83 39 77 40 79 41 27 42 82 43 76 44 75 45 28 47 62 48
REMARK SMILES IDX 41 49 61 50 42 51 45 52 60 53 80 54 43 55 44 56 59 58 81 59
REMARK SMILES IDX 46 60 29 61 30 62 39 63 31 64 32 65 38 66 40 67 33 68 34 69
REMARK SMILES IDX 35 70 36 71 37 72 63 73 64 74 73 75 65 76 66 77 72 78 74 79
REMARK SMILES IDX 67 80 68 81 69 82 70 83 71 84 47 85 48 86 57 87 49 88 50 89
REMARK SMILES IDX 56 90 58 91 51 92 52 93 53 94 54 95 55 96
REMARK H PARENT 12 7 90 21 4 23 17 27 79 46 45 57
REMARK Flexibility Score: inf
ROOT
ATOM      1  C   UNL A   1      33.994  27.766  24.846  1.00  0.00     0.023 C 
ENDROOT
BRANCH   1   2
ATOM      2  C   UNL A   1      33.687  28.892  23.857  1.00  0.00     0.023 C 
BRANCH   2   3
ATOM      3  C   UNL A   1      33.295  28.414  22.458  1.00  0.00     0.116 C 
BRANCH   3   4
ATOM      4  N   UNL A   1      31.917  28.757  22.154  1.00  0.00    -0.352 N 
ATOM      5  C   UNL A   1      30.755  28.065  22.389  1.00  0.00     0.251 C 
ATOM      6  O   UNL A   1      29.675  28.581  22.114  1.00  0.00    -0.269 OA
ATOM      7  H   UNL A   1      31.797  29.625  21.706  1.00  0.00     0.163 HD
BRANCH   5   8
ATOM      8  C   UNL A   1      30.779  26.737  23.046  1.00  0.00     0.039 A 
ATOM      9  C   UNL A   1      31.081  24.348  24.478  1.00  0.00     0.006 A 
ATOM     10  C   UNL A   1      30.516  25.474  25.092  1.00  0.00     0.010 A 
ATOM     11  C   UNL A   1      31.366  24.393  23.106  1.00  0.00     0.010 A 
ATOM     12  C   UNL A   1      30.368  26.665  24.379  1.00  0.00     0.014 A 
ATOM     13  C   UNL A   1      31.204  25.580  22.392  1.00  0.00     0.014 A 
BRANCH   9  14
ATOM     14  C   UNL A   1      31.419  23.116  25.280  1.00  0.00     0.299 C 
BRANCH  14  15
ATOM     15  N   UNL A   1      32.699  22.467  24.988  1.00  0.00    -0.322 N 
ATOM     16  O   UNL A   1      32.152  18.856  25.096  1.00  0.00    -0.269 OA
ATOM     17  C   UNL A   1      32.619  19.959  25.382  1.00  0.00     0.275 C 
ATOM     18  C   UNL A   1      32.603  21.124  24.391  1.00  0.00     0.363 C 
ATOM     19  N   UNL A   1      33.281  20.126  26.565  1.00  0.00    -0.346 N 
ATOM     20  C   UNL A   1      33.688  21.413  27.080  1.00  0.00     0.177 C 
ATOM     21  H   UNL A   1      33.494  19.325  27.097  1.00  0.00     0.163 HD
ATOM     22  C   UNL A   1      33.730  22.530  26.027  1.00  0.00     0.284 C 
ATOM     23  H   UNL A   1      33.043  23.087  24.255  1.00  0.00     0.348 HD
ENDBRANCH  14  15
ENDBRANCH   9  14
ENDBRANCH   5   8
ENDBRANCH   3   4
ENDBRANCH   2   3
ENDBRANCH   1   2
BRANCH   1  24
ATOM     24  C   UNL A   1      34.103  28.206  26.300  1.00  0.00     0.116 C 
BRANCH  24  25
ATOM     25  N   UNL A   1      33.718  29.593  26.503  1.00  0.00    -0.352 N 
ATOM     26  C   UNL A   1      34.305  30.540  27.308  1.00  0.00     0.251 C 
ATOM     27  H   UNL A   1      32.930  29.894  25.996  1.00  0.00     0.163 HD
ATOM     28  O   UNL A   1      33.767  31.627  27.463  1.00  0.00    -0.269 OA
BRANCH  26  29
ATOM     29  C   UNL A   1      35.573  30.222  28.003  1.00  0.00     0.039 A 
ATOM     30  C   UNL A   1      35.521  29.689  29.292  1.00  0.00     0.014 A 
ATOM     31  C   UNL A   1      36.806  30.442  27.383  1.00  0.00     0.014 A 
ATOM     32  C   UNL A   1      36.705  29.335  29.943  1.00  0.00     0.010 A 
ATOM     33  C   UNL A   1      37.977  30.013  27.997  1.00  0.00     0.010 A 
ATOM     34  C   UNL A   1      37.942  29.473  29.291  1.00  0.00    -0.014 A 
BRANCH  34  35
ATOM     35  C   UNL A   1      39.215  29.105  29.963  1.00  0.00     0.031 A 
ATOM     36  C   UNL A   1      39.655  29.860  31.190  1.00  0.00     0.074 A 
ATOM     37  C   UNL A   1      39.995  28.135  29.447  1.00  0.00     0.049 A 
ATOM     38  N   UNL A   1      40.758  29.741  31.884  1.00  0.00    -0.248 NA
ATOM     39  C   UNL A   1      38.749  30.911  31.684  1.00  0.00     0.031 C 
ATOM     40  C   UNL A   1      39.701  27.365  28.237  1.00  0.00     0.029 A 
ATOM     41  N   UNL A   1      41.203  27.639  29.869  1.00  0.00    -0.354 N 
ATOM     42  C   UNL A   1      40.684  30.708  32.880  1.00  0.00     0.074 A 
ATOM     43  C   UNL A   1      39.461  31.447  32.664  1.00  0.00     0.031 C 
ATOM     44  C   UNL A   1      40.687  26.478  28.029  1.00  0.00     0.029 A 
ATOM     45  C   UNL A   1      41.701  26.639  29.066  1.00  0.00     0.049 A 
ATOM     46  H   UNL A   1      41.668  27.966  30.672  1.00  0.00     0.167 HD
ATOM     47  C   UNL A   1      41.542  30.940  33.901  1.00  0.00     0.037 A 
ATOM     48  C   UNL A   1      42.848  25.937  29.155  1.00  0.00     0.037 A 
ATOM     49  C   UNL A   1      42.742  30.179  34.129  1.00  0.00     0.049 A 
ATOM     50  C   UNL A   1      43.785  26.209  30.303  1.00  0.00     0.074 A 
ATOM     51  C   UNL A   1      43.654  30.298  35.163  1.00  0.00     0.029 A 
ATOM     52  N   UNL A   1      43.198  29.155  33.310  1.00  0.00    -0.354 N 
ATOM     53  N   UNL A   1      43.671  27.087  31.271  1.00  0.00    -0.248 NA
ATOM     54  C   UNL A   1      45.001  25.387  30.378  1.00  0.00     0.031 C 
ATOM     55  C   UNL A   1      44.684  29.376  34.946  1.00  0.00     0.029 A 
ATOM     56  C   UNL A   1      44.385  28.644  33.808  1.00  0.00     0.049 A 
ATOM     57  H   UNL A   1      42.744  28.840  32.496  1.00  0.00     0.167 HD
ATOM     58  C   UNL A   1      44.779  26.897  32.089  1.00  0.00     0.074 A 
ATOM     59  C   UNL A   1      45.547  25.818  31.506  1.00  0.00     0.031 C 
ATOM     60  C   UNL A   1      45.128  27.555  33.224  1.00  0.00     0.037 A 
BRANCH  47  61
ATOM     61  C   UNL A   1      41.209  32.057  34.854  1.00  0.00     0.058 A 
ATOM     62  C   UNL A   1      41.693  33.361  34.660  1.00  0.00     0.135 A 
ATOM     63  C   UNL A   1      40.371  31.829  35.958  1.00  0.00     0.135 A 
ATOM     64  F   UNL A   1      42.512  33.634  33.632  1.00  0.00    -0.206 F 
ATOM     65  C   UNL A   1      41.387  34.390  35.545  1.00  0.00     0.059 A 
ATOM     66  C   UNL A   1      40.026  32.851  36.838  1.00  0.00     0.059 A 
ATOM     67  F   UNL A   1      39.881  30.602  36.193  1.00  0.00    -0.206 F 
ATOM     68  C   UNL A   1      40.551  34.125  36.631  1.00  0.00     0.060 A 
BRANCH  68  69
ATOM     69  S   UNL A   1      40.160  35.474  37.765  1.00  0.00     0.124 S 
ATOM     70  O   UNL A   1      38.986  34.946  38.451  1.00  0.00    -0.237 OA
ATOM     71  O   UNL A   1      41.375  35.568  38.568  1.00  0.00    -0.237 OA
ATOM     72  O   UNL A   1      39.911  36.604  36.876  1.00  0.00    -0.744 OA
ENDBRANCH  68  69
ENDBRANCH  47  61
BRANCH  48  73
ATOM     73  C   UNL A   1      43.161  24.889  28.146  1.00  0.00     0.058 A 
ATOM     74  C   UNL A   1      43.801  25.215  26.940  1.00  0.00     0.135 A 
ATOM     75  C   UNL A   1      42.833  23.542  28.366  1.00  0.00     0.135 A 
ATOM     76  F   UNL A   1      44.129  26.490  26.680  1.00  0.00    -0.206 F 
ATOM     77  C   UNL A   1      44.084  24.251  25.980  1.00  0.00     0.059 A 
ATOM     78  C   UNL A   1      43.133  22.554  27.432  1.00  0.00     0.059 A 
ATOM     79  F   UNL A   1      42.238  23.173  29.511  1.00  0.00    -0.206 F 
ATOM     80  C   UNL A   1      43.748  22.921  26.236  1.00  0.00     0.060 A 
BRANCH  80  81
ATOM     81  S   UNL A   1      44.157  21.670  24.999  1.00  0.00     0.124 S 
ATOM     82  O   UNL A   1      43.967  22.411  23.758  1.00  0.00    -0.237 OA
ATOM     83  O   UNL A   1      45.537  21.341  25.343  1.00  0.00    -0.237 OA
ATOM     84  O   UNL A   1      43.185  20.612  25.258  1.00  0.00    -0.744 OA
ENDBRANCH  80  81
ENDBRANCH  48  73
BRANCH  60  85
ATOM     85  C   UNL A   1      46.365  27.091  33.945  1.00  0.00     0.058 A 
ATOM     86  C   UNL A   1      46.321  26.095  34.931  1.00  0.00     0.135 A 
ATOM     87  C   UNL A   1      47.621  27.617  33.599  1.00  0.00     0.135 A 
ATOM     88  F   UNL A   1      45.145  25.562  35.302  1.00  0.00    -0.206 F 
ATOM     89  C   UNL A   1      47.475  25.656  35.571  1.00  0.00     0.059 A 
ATOM     90  C   UNL A   1      48.791  27.171  34.203  1.00  0.00     0.059 A 
ATOM     91  F   UNL A   1      47.721  28.564  32.652  1.00  0.00    -0.206 F 
ATOM     92  C   UNL A   1      48.707  26.199  35.198  1.00  0.00     0.060 A 
BRANCH  92  93
ATOM     93  S   UNL A   1      50.201  25.598  36.014  1.00  0.00     0.124 S 
ATOM     94  O   UNL A   1      50.076  26.202  37.337  1.00  0.00    -0.237 OA
ATOM     95  O   UNL A   1      50.026  24.150  35.959  1.00  0.00    -0.237 OA
ATOM     96  O   UNL A   1      51.278  26.125  35.182  1.00  0.00    -0.744 OA
ENDBRANCH  92  93
ENDBRANCH  60  85
ENDBRANCH  34  35
ENDBRANCH  26  29
ENDBRANCH  24  25
ENDBRANCH   1  24
TORSDOF 16
ENDMDL
