MODEL 1
REMARK VINA RESULT:     -12.6      0.000      0.000
REMARK SMILES COc1ccccc1C(=O)Nc1sc2c(c1C(=O)NCCCCNC(=O)c1ccc(-c3c4nc(c(-c5c(F)cc(S(=O)(=O)[O-])cc5F)c5ccc([nH]5)c(-c5c(F)cc(S(=O)(=O)[O-])cc5F)c5nc(c(-c6c(F)cc(S(=O)(=O)[O-])cc6F)c6ccc3[nH]6)C=C5)C=C4)cc1)CCCC2
REMARK SMILES IDX 21 1 20 2 19 3 17 4 18 5 16 7 12 8 13 9 14 10 15 11 96 12
REMARK SMILES IDX 93 13 95 14 94 15 11 16 9 17 10 18 8 20 3 21 4 22 5 23 7 24
REMARK SMILES IDX 6 25 2 26 1 27 22 28 23 29 24 30 25 31 26 33 27 34 28 35
REMARK SMILES IDX 92 36 29 37 91 38 30 39 31 40 32 41 85 42 33 43 90 44 84 45
REMARK SMILES IDX 86 46 34 47 89 48 83 49 82 50 35 52 69 53 48 54 68 55 49 56
REMARK SMILES IDX 52 57 67 58 87 59 50 60 51 61 66 63 88 64 53 65 36 66 37 67
REMARK SMILES IDX 46 68 38 69 39 70 45 71 47 72 40 73 41 74 42 75 43 76 44 77
REMARK SMILES IDX 70 78 71 79 80 80 72 81 73 82 79 83 81 84 74 85 75 86 76 87
REMARK SMILES IDX 77 88 78 89 54 90 55 91 64 92 56 93 57 94 63 95 65 96 58 97
REMARK SMILES IDX 59 98 60 99 61 100 62 101
REMARK H PARENT 19 6 11 19 24 32 86 51 52 62
REMARK Flexibility Score: inf
ROOT
ATOM      1  C   UNL A   1      33.456  29.148  27.255  1.00  0.00     0.023 C 
ENDROOT
BRANCH   1   2
ATOM      2  C   UNL A   1      32.757  29.965  26.170  1.00  0.00     0.116 C 
BRANCH   2   3
ATOM      3  N   UNL A   1      33.407  29.738  24.906  1.00  0.00    -0.352 N 
ATOM      4  C   UNL A   1      33.002  29.196  23.719  1.00  0.00     0.254 C 
ATOM      5  O   UNL A   1      33.890  29.157  22.858  1.00  0.00    -0.269 OA
ATOM      6  H   UNL A   1      34.346  30.036  24.895  1.00  0.00     0.163 HD
BRANCH   4   7
ATOM      7  C   UNL A   1      31.626  28.781  23.373  1.00  0.00     0.078 A 
ATOM      8  C   UNL A   1      31.483  27.509  22.814  1.00  0.00     0.109 A 
ATOM      9  S   UNL A   1      29.886  26.957  22.738  1.00  0.00    -0.122 S 
ATOM     10  C   UNL A   1      29.311  28.522  23.020  1.00  0.00     0.011 A 
ATOM     11  C   UNL A   1      30.305  29.408  23.417  1.00  0.00    -0.019 A 
ATOM     12  C   UNL A   1      27.852  28.832  22.870  1.00  0.00     0.047 C 
ATOM     13  C   UNL A   1      29.917  30.814  23.778  1.00  0.00     0.037 C 
ATOM     14  C   UNL A   1      27.646  30.343  22.755  1.00  0.00     0.006 C 
ATOM     15  C   UNL A   1      28.404  31.058  23.873  1.00  0.00     0.005 C 
BRANCH   8  16
ATOM     16  N   UNL A   1      32.505  26.668  22.430  1.00  0.00    -0.313 N 
ATOM     17  C   UNL A   1      33.002  25.545  23.051  1.00  0.00     0.260 C 
ATOM     18  O   UNL A   1      33.996  25.000  22.557  1.00  0.00    -0.269 OA
ATOM     19  H   UNL A   1      32.946  26.906  21.583  1.00  0.00     0.171 HD
BRANCH  17  20
ATOM     20  C   UNL A   1      32.383  24.882  24.236  1.00  0.00     0.082 A 
ATOM     21  C   UNL A   1      31.632  23.695  24.238  1.00  0.00     0.131 A 
ATOM     22  C   UNL A   1      31.042  23.237  25.424  1.00  0.00     0.047 A 
ATOM     23  C   UNL A   1      31.286  23.885  26.633  1.00  0.00     0.004 A 
ATOM     24  C   UNL A   1      32.651  25.499  25.473  1.00  0.00     0.018 A 
ATOM     25  C   UNL A   1      32.116  25.001  26.662  1.00  0.00     0.001 A 
BRANCH  21  26
ATOM     26  O   UNL A   1      31.323  22.953  23.129  1.00  0.00    -0.496 OA
ATOM     27  C   UNL A   1      32.241  21.889  22.906  1.00  0.00     0.278 C 
ENDBRANCH  21  26
ENDBRANCH  17  20
ENDBRANCH   8  16
ENDBRANCH   4   7
ENDBRANCH   2   3
ENDBRANCH   1   2
BRANCH   1  28
ATOM     28  C   UNL A   1      34.980  29.156  27.174  1.00  0.00     0.023 C 
BRANCH  28  29
ATOM     29  C   UNL A   1      35.630  30.317  27.911  1.00  0.00     0.116 C 
BRANCH  29  30
ATOM     30  N   UNL A   1      35.504  30.224  29.360  1.00  0.00    -0.352 N 
ATOM     31  C   UNL A   1      36.476  29.953  30.292  1.00  0.00     0.251 C 
ATOM     32  H   UNL A   1      34.599  30.374  29.720  1.00  0.00     0.163 HD
ATOM     33  O   UNL A   1      36.175  29.819  31.474  1.00  0.00    -0.269 OA
BRANCH  31  34
ATOM     34  C   UNL A   1      37.872  29.776  29.845  1.00  0.00     0.039 A 
ATOM     35  C   UNL A   1      38.830  29.371  30.776  1.00  0.00     0.014 A 
ATOM     36  C   UNL A   1      38.217  29.948  28.502  1.00  0.00     0.014 A 
ATOM     37  C   UNL A   1      40.122  29.072  30.342  1.00  0.00     0.010 A 
ATOM     38  C   UNL A   1      39.475  29.558  28.059  1.00  0.00     0.010 A 
ATOM     39  C   UNL A   1      40.442  29.124  28.975  1.00  0.00    -0.014 A 
BRANCH  39  40
ATOM     40  C   UNL A   1      41.790  28.734  28.492  1.00  0.00     0.031 A 
ATOM     41  C   UNL A   1      42.895  29.752  28.439  1.00  0.00     0.074 A 
ATOM     42  C   UNL A   1      42.001  27.475  28.062  1.00  0.00     0.049 A 
ATOM     43  N   UNL A   1      44.137  29.601  28.057  1.00  0.00    -0.248 NA
ATOM     44  C   UNL A   1      42.552  31.127  28.836  1.00  0.00     0.031 C 
ATOM     45  C   UNL A   1      40.989  26.417  28.005  1.00  0.00     0.029 A 
ATOM     46  N   UNL A   1      43.141  26.869  27.601  1.00  0.00    -0.354 N 
ATOM     47  C   UNL A   1      44.719  30.859  28.163  1.00  0.00     0.074 A 
ATOM     48  C   UNL A   1      43.676  31.774  28.571  1.00  0.00     0.031 C 
ATOM     49  C   UNL A   1      41.567  25.279  27.587  1.00  0.00     0.029 A 
ATOM     50  C   UNL A   1      42.978  25.533  27.318  1.00  0.00     0.049 A 
ATOM     51  H   UNL A   1      43.995  27.344  27.482  1.00  0.00     0.167 HD
ATOM     52  C   UNL A   1      46.013  31.216  27.974  1.00  0.00     0.037 A 
ATOM     53  C   UNL A   1      43.873  24.613  26.911  1.00  0.00     0.037 A 
ATOM     54  C   UNL A   1      47.048  30.296  27.584  1.00  0.00     0.049 A 
ATOM     55  C   UNL A   1      45.306  25.026  26.718  1.00  0.00     0.074 A 
ATOM     56  C   UNL A   1      48.398  30.540  27.401  1.00  0.00     0.029 A 
ATOM     57  N   UNL A   1      46.847  28.949  27.317  1.00  0.00    -0.354 N 
ATOM     58  N   UNL A   1      45.854  26.206  26.881  1.00  0.00    -0.248 NA
ATOM     59  C   UNL A   1      46.244  23.977  26.297  1.00  0.00     0.031 C 
ATOM     60  C   UNL A   1      49.007  29.347  26.993  1.00  0.00     0.029 A 
ATOM     61  C   UNL A   1      48.045  28.350  26.962  1.00  0.00     0.049 A 
ATOM     62  H   UNL A   1      45.980  28.485  27.371  1.00  0.00     0.167 HD
ATOM     63  C   UNL A   1      47.208  26.036  26.615  1.00  0.00     0.074 A 
ATOM     64  C   UNL A   1      47.394  24.637  26.288  1.00  0.00     0.031 C 
ATOM     65  C   UNL A   1      48.208  26.954  26.641  1.00  0.00     0.037 A 
BRANCH  52  66
ATOM     66  C   UNL A   1      46.363  32.662  28.198  1.00  0.00     0.058 A 
ATOM     67  C   UNL A   1      46.250  33.612  27.168  1.00  0.00     0.135 A 
ATOM     68  C   UNL A   1      46.843  33.101  29.442  1.00  0.00     0.135 A 
ATOM     69  F   UNL A   1      45.814  33.244  25.953  1.00  0.00    -0.206 F 
ATOM     70  C   UNL A   1      46.652  34.932  27.347  1.00  0.00     0.059 A 
ATOM     71  C   UNL A   1      47.221  34.425  29.651  1.00  0.00     0.059 A 
ATOM     72  F   UNL A   1      46.970  32.238  30.461  1.00  0.00    -0.206 F 
ATOM     73  C   UNL A   1      47.146  35.326  28.590  1.00  0.00     0.060 A 
BRANCH  73  74
ATOM     74  S   UNL A   1      47.705  37.030  28.796  1.00  0.00     0.124 S 
ATOM     75  O   UNL A   1      47.933  37.087  30.236  1.00  0.00    -0.237 OA
ATOM     76  O   UNL A   1      48.903  37.072  27.963  1.00  0.00    -0.237 OA
ATOM     77  O   UNL A   1      46.578  37.817  28.307  1.00  0.00    -0.744 OA
ENDBRANCH  73  74
ENDBRANCH  52  66
BRANCH  53  78
ATOM     78  C   UNL A   1      43.453  23.198  26.735  1.00  0.00     0.058 A 
ATOM     79  C   UNL A   1      43.396  22.625  25.455  1.00  0.00     0.135 A 
ATOM     80  C   UNL A   1      43.130  22.384  27.831  1.00  0.00     0.135 A 
ATOM     81  F   UNL A   1      43.693  23.366  24.376  1.00  0.00    -0.206 F 
ATOM     82  C   UNL A   1      43.025  21.299  25.265  1.00  0.00     0.059 A 
ATOM     83  C   UNL A   1      42.776  21.048  27.669  1.00  0.00     0.059 A 
ATOM     84  F   UNL A   1      43.186  22.880  29.076  1.00  0.00    -0.206 F 
ATOM     85  C   UNL A   1      42.721  20.516  26.380  1.00  0.00     0.060 A 
BRANCH  85  86
ATOM     86  S   UNL A   1      42.301  18.777  26.125  1.00  0.00     0.124 S 
ATOM     87  O   UNL A   1      40.896  18.867  25.745  1.00  0.00    -0.237 OA
ATOM     88  O   UNL A   1      43.228  18.391  25.066  1.00  0.00    -0.237 OA
ATOM     89  O   UNL A   1      42.567  18.176  27.429  1.00  0.00    -0.744 OA
ENDBRANCH  85  86
ENDBRANCH  53  78
BRANCH  65  90
ATOM     90  C   UNL A   1      49.595  26.458  26.343  1.00  0.00     0.058 A 
ATOM     91  C   UNL A   1      50.395  25.860  27.329  1.00  0.00     0.135 A 
ATOM     92  C   UNL A   1      50.124  26.570  25.047  1.00  0.00     0.135 A 
ATOM     93  F   UNL A   1      49.937  25.733  28.585  1.00  0.00    -0.206 F 
ATOM     94  C   UNL A   1      51.687  25.425  27.051  1.00  0.00     0.059 A 
ATOM     95  C   UNL A   1      51.404  26.117  24.740  1.00  0.00     0.059 A 
ATOM     96  F   UNL A   1      49.396  27.122  24.063  1.00  0.00    -0.206 F 
ATOM     97  C   UNL A   1      52.184  25.565  25.754  1.00  0.00     0.060 A 
BRANCH  97  98
ATOM     98  S   UNL A   1      53.862  24.998  25.403  1.00  0.00     0.124 S 
ATOM     99  O   UNL A   1      53.648  23.571  25.184  1.00  0.00    -0.237 OA
ATOM    100  O   UNL A   1      54.214  25.775  24.219  1.00  0.00    -0.237 OA
ATOM    101  O   UNL A   1      54.597  25.346  26.614  1.00  0.00    -0.744 OA
ENDBRANCH  97  98
ENDBRANCH  65  90
ENDBRANCH  39  40
ENDBRANCH  31  34
ENDBRANCH  29  30
ENDBRANCH  28  29
ENDBRANCH   1  28
TORSDOF 17
ENDMDL
MODEL 2
REMARK VINA RESULT:     -12.5      2.882      3.636
REMARK SMILES COc1ccccc1C(=O)Nc1sc2c(c1C(=O)NCCCCNC(=O)c1ccc(-c3c4nc(c(-c5c(F)cc(S(=O)(=O)[O-])cc5F)c5ccc([nH]5)c(-c5c(F)cc(S(=O)(=O)[O-])cc5F)c5nc(c(-c6c(F)cc(S(=O)(=O)[O-])cc6F)c6ccc3[nH]6)C=C5)C=C4)cc1)CCCC2
REMARK SMILES IDX 21 1 20 2 19 3 17 4 18 5 16 7 12 8 13 9 14 10 15 11 96 12
REMARK SMILES IDX 93 13 95 14 94 15 11 16 9 17 10 18 8 20 3 21 4 22 5 23 7 24
REMARK SMILES IDX 6 25 2 26 1 27 22 28 23 29 24 30 25 31 26 33 27 34 28 35
REMARK SMILES IDX 92 36 29 37 91 38 30 39 31 40 32 41 85 42 33 43 90 44 84 45
REMARK SMILES IDX 86 46 34 47 89 48 83 49 82 50 35 52 69 53 48 54 68 55 49 56
REMARK SMILES IDX 52 57 67 58 87 59 50 60 51 61 66 63 88 64 53 65 36 66 37 67
REMARK SMILES IDX 46 68 38 69 39 70 45 71 47 72 40 73 41 74 42 75 43 76 44 77
REMARK SMILES IDX 70 78 71 79 80 80 72 81 73 82 79 83 81 84 74 85 75 86 76 87
REMARK SMILES IDX 77 88 78 89 54 90 55 91 64 92 56 93 57 94 63 95 65 96 58 97
REMARK SMILES IDX 59 98 60 99 61 100 62 101
REMARK H PARENT 19 6 11 19 24 32 86 51 52 62
REMARK Flexibility Score: inf
ROOT
ATOM      1  C   UNL A   1      34.096  27.780  24.747  1.00  0.00     0.023 C 
ENDROOT
BRANCH   1   2
ATOM      2  C   UNL A   1      34.144  28.584  23.448  1.00  0.00     0.116 C 
BRANCH   2   3
ATOM      3  N   UNL A   1      34.051  27.687  22.327  1.00  0.00    -0.352 N 
ATOM      4  C   UNL A   1      33.068  26.867  21.852  1.00  0.00     0.254 C 
ATOM      5  O   UNL A   1      33.395  26.223  20.848  1.00  0.00    -0.269 OA
ATOM      6  H   UNL A   1      34.874  27.659  21.785  1.00  0.00     0.163 HD
BRANCH   4   7
ATOM      7  C   UNL A   1      31.681  26.782  22.357  1.00  0.00     0.078 A 
ATOM      8  C   UNL A   1      31.147  25.500  22.496  1.00  0.00     0.109 A 
ATOM      9  S   UNL A   1      29.700  25.438  23.371  1.00  0.00    -0.122 S 
ATOM     10  C   UNL A   1      29.509  27.111  23.210  1.00  0.00     0.011 A 
ATOM     11  C   UNL A   1      30.643  27.748  22.721  1.00  0.00    -0.019 A 
ATOM     12  C   UNL A   1      28.223  27.768  23.611  1.00  0.00     0.047 C 
ATOM     13  C   UNL A   1      30.636  29.245  22.606  1.00  0.00     0.037 C 
ATOM     14  C   UNL A   1      28.132  29.163  22.992  1.00  0.00     0.006 C 
ATOM     15  C   UNL A   1      29.426  29.934  23.253  1.00  0.00     0.005 C 
BRANCH   8  16
ATOM     16  N   UNL A   1      31.733  24.323  22.081  1.00  0.00    -0.313 N 
ATOM     17  C   UNL A   1      32.709  23.565  22.685  1.00  0.00     0.260 C 
ATOM     18  O   UNL A   1      33.147  22.586  22.069  1.00  0.00    -0.269 OA
ATOM     19  H   UNL A   1      31.403  23.973  21.223  1.00  0.00     0.171 HD
BRANCH  17  20
ATOM     20  C   UNL A   1      33.227  23.786  24.067  1.00  0.00     0.082 A 
ATOM     21  C   UNL A   1      32.515  23.626  25.267  1.00  0.00     0.131 A 
ATOM     22  C   UNL A   1      33.116  23.952  26.490  1.00  0.00     0.047 A 
ATOM     23  C   UNL A   1      34.456  24.327  26.544  1.00  0.00     0.004 A 
ATOM     24  C   UNL A   1      34.592  24.126  24.145  1.00  0.00     0.018 A 
ATOM     25  C   UNL A   1      35.204  24.386  25.373  1.00  0.00     0.001 A 
BRANCH  21  26
ATOM     26  O   UNL A   1      31.200  23.255  25.362  1.00  0.00    -0.496 OA
ATOM     27  C   UNL A   1      30.813  22.940  26.694  1.00  0.00     0.278 C 
ENDBRANCH  21  26
ENDBRANCH  17  20
ENDBRANCH   8  16
ENDBRANCH   4   7
ENDBRANCH   2   3
ENDBRANCH   1   2
BRANCH   1  28
ATOM     28  C   UNL A   1      33.044  28.249  25.748  1.00  0.00     0.023 C 
BRANCH  28  29
ATOM     29  C   UNL A   1      33.582  28.451  27.157  1.00  0.00     0.116 C 
BRANCH  29  30
ATOM     30  N   UNL A   1      33.484  29.830  27.619  1.00  0.00    -0.352 N 
ATOM     31  C   UNL A   1      34.451  30.610  28.204  1.00  0.00     0.251 C 
ATOM     32  H   UNL A   1      32.606  30.260  27.495  1.00  0.00     0.163 HD
ATOM     33  O   UNL A   1      34.169  31.730  28.619  1.00  0.00    -0.269 OA
BRANCH  31  34
ATOM     34  C   UNL A   1      35.813  30.066  28.369  1.00  0.00     0.039 A 
ATOM     35  C   UNL A   1      36.692  30.112  27.286  1.00  0.00     0.014 A 
ATOM     36  C   UNL A   1      36.237  29.572  29.605  1.00  0.00     0.014 A 
ATOM     37  C   UNL A   1      38.020  29.726  27.466  1.00  0.00     0.010 A 
ATOM     38  C   UNL A   1      37.580  29.278  29.805  1.00  0.00     0.010 A 
ATOM     39  C   UNL A   1      38.483  29.344  28.736  1.00  0.00    -0.014 A 
BRANCH  39  40
ATOM     40  C   UNL A   1      39.911  29.005  28.958  1.00  0.00     0.031 A 
ATOM     41  C   UNL A   1      40.837  30.011  29.582  1.00  0.00     0.074 A 
ATOM     42  C   UNL A   1      40.378  27.807  28.555  1.00  0.00     0.049 A 
ATOM     43  N   UNL A   1      42.109  29.898  29.863  1.00  0.00    -0.248 NA
ATOM     44  C   UNL A   1      40.267  31.329  29.904  1.00  0.00     0.031 C 
ATOM     45  C   UNL A   1      39.590  26.774  27.878  1.00  0.00     0.029 A 
ATOM     46  N   UNL A   1      41.626  27.252  28.665  1.00  0.00    -0.354 N 
ATOM     47  C   UNL A   1      42.490  31.127  30.389  1.00  0.00     0.074 A 
ATOM     48  C   UNL A   1      41.335  31.994  30.315  1.00  0.00     0.031 C 
ATOM     49  C   UNL A   1      40.360  25.691  27.683  1.00  0.00     0.029 A 
ATOM     50  C   UNL A   1      41.700  25.963  28.192  1.00  0.00     0.049 A 
ATOM     51  H   UNL A   1      42.398  27.730  29.047  1.00  0.00     0.167 HD
ATOM     52  C   UNL A   1      43.683  31.493  30.918  1.00  0.00     0.037 A 
ATOM     53  C   UNL A   1      42.727  25.092  28.190  1.00  0.00     0.037 A 
ATOM     54  C   UNL A   1      44.823  30.618  31.002  1.00  0.00     0.049 A 
ATOM     55  C   UNL A   1      44.039  25.513  28.793  1.00  0.00     0.074 A 
ATOM     56  C   UNL A   1      46.067  30.871  31.553  1.00  0.00     0.029 A 
ATOM     57  N   UNL A   1      44.857  29.317  30.521  1.00  0.00    -0.354 N 
ATOM     58  N   UNL A   1      44.367  26.659  29.341  1.00  0.00    -0.248 NA
ATOM     59  C   UNL A   1      45.118  24.516  28.787  1.00  0.00     0.031 C 
ATOM     60  C   UNL A   1      46.863  29.732  31.376  1.00  0.00     0.029 A 
ATOM     61  C   UNL A   1      46.102  28.756  30.753  1.00  0.00     0.049 A 
ATOM     62  H   UNL A   1      44.105  28.859  30.079  1.00  0.00     0.167 HD
ATOM     63  C   UNL A   1      45.679  26.511  29.775  1.00  0.00     0.074 A 
ATOM     64  C   UNL A   1      46.079  25.161  29.433  1.00  0.00     0.031 C 
ATOM     65  C   UNL A   1      46.480  27.409  30.404  1.00  0.00     0.037 A 
BRANCH  52  66
ATOM     66  C   UNL A   1      43.794  32.896  31.447  1.00  0.00     0.058 A 
ATOM     67  C   UNL A   1      44.266  33.949  30.644  1.00  0.00     0.135 A 
ATOM     68  C   UNL A   1      43.455  33.192  32.777  1.00  0.00     0.135 A 
ATOM     69  F   UNL A   1      44.622  33.719  29.370  1.00  0.00    -0.206 F 
ATOM     70  C   UNL A   1      44.449  35.229  31.155  1.00  0.00     0.059 A 
ATOM     71  C   UNL A   1      43.602  34.474  33.300  1.00  0.00     0.059 A 
ATOM     72  F   UNL A   1      42.998  32.227  33.590  1.00  0.00    -0.206 F 
ATOM     73  C   UNL A   1      44.124  35.480  32.488  1.00  0.00     0.060 A 
BRANCH  73  74
ATOM     74  S   UNL A   1      44.408  37.135  33.149  1.00  0.00     0.124 S 
ATOM     75  O   UNL A   1      44.293  37.950  31.945  1.00  0.00    -0.237 OA
ATOM     76  O   UNL A   1      43.323  37.278  34.116  1.00  0.00    -0.237 OA
ATOM     77  O   UNL A   1      45.747  37.045  33.723  1.00  0.00    -0.744 OA
ENDBRANCH  73  74
ENDBRANCH  52  66
BRANCH  53  78
ATOM     78  C   UNL A   1      42.530  23.714  27.669  1.00  0.00     0.058 A 
ATOM     79  C   UNL A   1      42.543  23.466  26.289  1.00  0.00     0.135 A 
ATOM     80  C   UNL A   1      42.355  22.621  28.530  1.00  0.00     0.135 A 
ATOM     81  F   UNL A   1      42.704  24.482  25.427  1.00  0.00    -0.206 F 
ATOM     82  C   UNL A   1      42.380  22.184  25.777  1.00  0.00     0.059 A 
ATOM     83  C   UNL A   1      42.212  21.325  28.043  1.00  0.00     0.059 A 
ATOM     84  F   UNL A   1      42.353  22.804  29.859  1.00  0.00    -0.206 F 
ATOM     85  C   UNL A   1      42.219  21.118  26.663  1.00  0.00     0.060 A 
BRANCH  85  86
ATOM     86  S   UNL A   1      42.072  19.448  25.988  1.00  0.00     0.124 S 
ATOM     87  O   UNL A   1      42.934  19.529  24.814  1.00  0.00    -0.237 OA
ATOM     88  O   UNL A   1      42.566  18.628  27.090  1.00  0.00    -0.237 OA
ATOM     89  O   UNL A   1      40.643  19.322  25.717  1.00  0.00    -0.744 OA
ENDBRANCH  85  86
ENDBRANCH  53  78
BRANCH  65  90
ATOM     90  C   UNL A   1      47.854  26.941  30.792  1.00  0.00     0.058 A 
ATOM     91  C   UNL A   1      48.091  26.258  31.995  1.00  0.00     0.135 A 
ATOM     92  C   UNL A   1      48.946  27.167  29.938  1.00  0.00     0.135 A 
ATOM     93  F   UNL A   1      47.082  26.021  32.847  1.00  0.00    -0.206 F 
ATOM     94  C   UNL A   1      49.371  25.850  32.358  1.00  0.00     0.059 A 
ATOM     95  C   UNL A   1      50.230  26.743  30.268  1.00  0.00     0.059 A 
ATOM     96  F   UNL A   1      48.772  27.803  28.769  1.00  0.00    -0.206 F 
ATOM     97  C   UNL A   1      50.435  26.103  31.489  1.00  0.00     0.060 A 
BRANCH  97  98
ATOM     98  S   UNL A   1      52.091  25.569  31.968  1.00  0.00     0.124 S 
ATOM     99  O   UNL A   1      52.856  25.872  30.763  1.00  0.00    -0.237 OA
ATOM    100  O   UNL A   1      52.371  26.413  33.125  1.00  0.00    -0.237 OA
ATOM    101  O   UNL A   1      51.917  24.150  32.263  1.00  0.00    -0.744 OA
ENDBRANCH  97  98
ENDBRANCH  65  90
ENDBRANCH  39  40
ENDBRANCH  31  34
ENDBRANCH  29  30
ENDBRANCH  28  29
ENDBRANCH   1  28
TORSDOF 17
ENDMDL
MODEL 3
REMARK VINA RESULT:     -12.5      0.544      8.071
REMARK SMILES COc1ccccc1C(=O)Nc1sc2c(c1C(=O)NCCCCNC(=O)c1ccc(-c3c4nc(c(-c5c(F)cc(S(=O)(=O)[O-])cc5F)c5ccc([nH]5)c(-c5c(F)cc(S(=O)(=O)[O-])cc5F)c5nc(c(-c6c(F)cc(S(=O)(=O)[O-])cc6F)c6ccc3[nH]6)C=C5)C=C4)cc1)CCCC2
REMARK SMILES IDX 21 1 20 2 19 3 17 4 18 5 16 7 12 8 13 9 14 10 15 11 96 12
REMARK SMILES IDX 93 13 95 14 94 15 11 16 9 17 10 18 8 20 3 21 4 22 5 23 7 24
REMARK SMILES IDX 6 25 2 26 1 27 22 28 23 29 24 30 25 31 26 33 27 34 28 35
REMARK SMILES IDX 92 36 29 37 91 38 30 39 31 40 32 41 85 42 33 43 90 44 84 45
REMARK SMILES IDX 86 46 34 47 89 48 83 49 82 50 35 52 69 53 48 54 68 55 49 56
REMARK SMILES IDX 52 57 67 58 87 59 50 60 51 61 66 63 88 64 53 65 36 66 37 67
REMARK SMILES IDX 46 68 38 69 39 70 45 71 47 72 40 73 41 74 42 75 43 76 44 77
REMARK SMILES IDX 70 78 71 79 80 80 72 81 73 82 79 83 81 84 74 85 75 86 76 87
REMARK SMILES IDX 77 88 78 89 54 90 55 91 64 92 56 93 57 94 63 95 65 96 58 97
REMARK SMILES IDX 59 98 60 99 61 100 62 101
REMARK H PARENT 19 6 11 19 24 32 86 51 52 62
REMARK Flexibility Score: inf
ROOT
ATOM      1  C   UNL A   1      33.172  29.308  27.253  1.00  0.00     0.023 C 
ENDROOT
BRANCH   1   2
ATOM      2  C   UNL A   1      32.601  30.159  26.120  1.00  0.00     0.116 C 
BRANCH   2   3
ATOM      3  N   UNL A   1      33.289  29.847  24.895  1.00  0.00    -0.352 N 
ATOM      4  C   UNL A   1      32.924  29.210  23.743  1.00  0.00     0.254 C 
ATOM      5  O   UNL A   1      33.835  29.121  22.910  1.00  0.00    -0.269 OA
ATOM      6  H   UNL A   1      34.223  30.160  24.885  1.00  0.00     0.163 HD
BRANCH   4   7
ATOM      7  C   UNL A   1      31.565  28.745  23.393  1.00  0.00     0.078 A 
ATOM      8  C   UNL A   1      31.465  27.458  22.863  1.00  0.00     0.109 A 
ATOM      9  S   UNL A   1      29.886  26.857  22.785  1.00  0.00    -0.122 S 
ATOM     10  C   UNL A   1      29.261  28.410  23.027  1.00  0.00     0.011 A 
ATOM     11  C   UNL A   1      30.225  29.334  23.411  1.00  0.00    -0.019 A 
ATOM     12  C   UNL A   1      27.796  28.672  22.856  1.00  0.00     0.047 C 
ATOM     13  C   UNL A   1      29.792  30.735  23.738  1.00  0.00     0.037 C 
ATOM     14  C   UNL A   1      27.545  30.173  22.705  1.00  0.00     0.006 C 
ATOM     15  C   UNL A   1      28.271  30.936  23.814  1.00  0.00     0.005 C 
BRANCH   8  16
ATOM     16  N   UNL A   1      32.515  26.639  22.506  1.00  0.00    -0.313 N 
ATOM     17  C   UNL A   1      33.013  25.521  23.135  1.00  0.00     0.260 C 
ATOM     18  O   UNL A   1      34.033  25.000  22.671  1.00  0.00    -0.269 OA
ATOM     19  H   UNL A   1      32.979  26.893  21.676  1.00  0.00     0.171 HD
BRANCH  17  20
ATOM     20  C   UNL A   1      32.368  24.838  24.294  1.00  0.00     0.082 A 
ATOM     21  C   UNL A   1      31.581  23.674  24.252  1.00  0.00     0.131 A 
ATOM     22  C   UNL A   1      30.972  23.195  25.419  1.00  0.00     0.047 A 
ATOM     23  C   UNL A   1      31.230  23.793  26.651  1.00  0.00     0.004 A 
ATOM     24  C   UNL A   1      32.649  25.403  25.553  1.00  0.00     0.018 A 
ATOM     25  C   UNL A   1      32.092  24.881  26.722  1.00  0.00     0.001 A 
BRANCH  21  26
ATOM     26  O   UNL A   1      31.256  22.981  23.117  1.00  0.00    -0.496 OA
ATOM     27  C   UNL A   1      32.168  21.925  22.837  1.00  0.00     0.278 C 
ENDBRANCH  21  26
ENDBRANCH  17  20
ENDBRANCH   8  16
ENDBRANCH   4   7
ENDBRANCH   2   3
ENDBRANCH   1   2
BRANCH   1  28
ATOM     28  C   UNL A   1      34.556  28.728  26.978  1.00  0.00     0.023 C 
BRANCH  28  29
ATOM     29  C   UNL A   1      35.691  29.507  27.626  1.00  0.00     0.116 C 
BRANCH  29  30
ATOM     30  N   UNL A   1      35.495  29.730  29.053  1.00  0.00    -0.352 N 
ATOM     31  C   UNL A   1      36.439  29.786  30.051  1.00  0.00     0.251 C 
ATOM     32  H   UNL A   1      34.562  29.856  29.342  1.00  0.00     0.163 HD
ATOM     33  O   UNL A   1      36.088  29.890  31.223  1.00  0.00    -0.269 OA
BRANCH  31  34
ATOM     34  C   UNL A   1      37.867  29.669  29.699  1.00  0.00     0.039 A 
ATOM     35  C   UNL A   1      38.775  29.292  30.689  1.00  0.00     0.014 A 
ATOM     36  C   UNL A   1      38.295  29.871  28.384  1.00  0.00     0.014 A 
ATOM     37  C   UNL A   1      40.104  29.048  30.342  1.00  0.00     0.010 A 
ATOM     38  C   UNL A   1      39.595  29.536  28.025  1.00  0.00     0.010 A 
ATOM     39  C   UNL A   1      40.514  29.129  29.001  1.00  0.00    -0.014 A 
BRANCH  39  40
ATOM     40  C   UNL A   1      41.906  28.798  28.607  1.00  0.00     0.031 A 
ATOM     41  C   UNL A   1      42.254  27.402  28.172  1.00  0.00     0.074 A 
ATOM     42  C   UNL A   1      42.861  29.746  28.686  1.00  0.00     0.049 A 
ATOM     43  N   UNL A   1      43.408  26.922  27.784  1.00  0.00    -0.248 NA
ATOM     44  C   UNL A   1      41.172  26.406  28.207  1.00  0.00     0.031 C 
ATOM     45  C   UNL A   1      42.657  31.118  29.156  1.00  0.00     0.029 A 
ATOM     46  N   UNL A   1      44.192  29.701  28.362  1.00  0.00    -0.354 N 
ATOM     47  C   UNL A   1      43.190  25.573  27.535  1.00  0.00     0.074 A 
ATOM     48  C   UNL A   1      41.816  25.294  27.890  1.00  0.00     0.031 C 
ATOM     49  C   UNL A   1      43.809  31.798  29.039  1.00  0.00     0.029 A 
ATOM     50  C   UNL A   1      44.837  30.906  28.515  1.00  0.00     0.049 A 
ATOM     51  H   UNL A   1      44.645  28.884  28.049  1.00  0.00     0.167 HD
ATOM     52  C   UNL A   1      44.046  24.654  27.024  1.00  0.00     0.037 A 
ATOM     53  C   UNL A   1      46.108  31.255  28.241  1.00  0.00     0.037 A 
ATOM     54  C   UNL A   1      45.407  24.943  26.658  1.00  0.00     0.049 A 
ATOM     55  C   UNL A   1      47.038  30.224  27.663  1.00  0.00     0.074 A 
ATOM     56  C   UNL A   1      46.350  24.100  26.096  1.00  0.00     0.029 A 
ATOM     57  N   UNL A   1      46.021  26.178  26.818  1.00  0.00    -0.354 N 
ATOM     58  N   UNL A   1      46.801  28.966  27.377  1.00  0.00    -0.248 NA
ATOM     59  C   UNL A   1      48.406  30.665  27.361  1.00  0.00     0.031 C 
ATOM     60  C   UNL A   1      47.543  24.817  25.947  1.00  0.00     0.029 A 
ATOM     61  C   UNL A   1      47.333  26.117  26.376  1.00  0.00     0.049 A 
ATOM     62  H   UNL A   1      45.589  26.979  27.192  1.00  0.00     0.167 HD
ATOM     63  C   UNL A   1      47.980  28.473  26.829  1.00  0.00     0.074 A 
ATOM     64  C   UNL A   1      48.924  29.572  26.818  1.00  0.00     0.031 C 
ATOM     65  C   UNL A   1      48.256  27.224  26.373  1.00  0.00     0.037 A 
BRANCH  52  66
ATOM     66  C   UNL A   1      43.515  23.259  26.830  1.00  0.00     0.058 A 
ATOM     67  C   UNL A   1      43.278  22.406  27.922  1.00  0.00     0.135 A 
ATOM     68  C   UNL A   1      43.266  22.757  25.543  1.00  0.00     0.135 A 
ATOM     69  F   UNL A   1      43.516  22.828  29.174  1.00  0.00    -0.206 F 
ATOM     70  C   UNL A   1      42.868  21.089  27.741  1.00  0.00     0.059 A 
ATOM     71  C   UNL A   1      42.825  21.452  25.342  1.00  0.00     0.059 A 
ATOM     72  F   UNL A   1      43.473  23.528  24.464  1.00  0.00    -0.206 F 
ATOM     73  C   UNL A   1      42.654  20.618  26.446  1.00  0.00     0.060 A 
BRANCH  73  74
ATOM     74  S   UNL A   1      42.164  18.895  26.224  1.00  0.00     0.124 S 
ATOM     75  O   UNL A   1      43.100  18.460  25.192  1.00  0.00    -0.237 OA
ATOM     76  O   UNL A   1      42.380  18.332  27.554  1.00  0.00    -0.237 OA
ATOM     77  O   UNL A   1      40.769  18.991  25.807  1.00  0.00    -0.744 OA
ENDBRANCH  73  74
ENDBRANCH  52  66
BRANCH  53  78
ATOM     78  C   UNL A   1      46.549  32.661  28.438  1.00  0.00     0.058 A 
ATOM     79  C   UNL A   1      46.415  33.601  27.406  1.00  0.00     0.135 A 
ATOM     80  C   UNL A   1      47.082  33.100  29.659  1.00  0.00     0.135 A 
ATOM     81  F   UNL A   1      45.914  33.227  26.219  1.00  0.00    -0.206 F 
ATOM     82  C   UNL A   1      46.803  34.926  27.572  1.00  0.00     0.059 A 
ATOM     83  C   UNL A   1      47.456  34.426  29.857  1.00  0.00     0.059 A 
ATOM     84  F   UNL A   1      47.213  32.243  30.683  1.00  0.00    -0.206 F 
ATOM     85  C   UNL A   1      47.319  35.330  28.804  1.00  0.00     0.060 A 
BRANCH  85  86
ATOM     86  S   UNL A   1      47.759  37.068  29.028  1.00  0.00     0.124 S 
ATOM     87  O   UNL A   1      48.201  37.434  27.687  1.00  0.00    -0.237 OA
ATOM     88  O   UNL A   1      46.494  37.650  29.467  1.00  0.00    -0.237 OA
ATOM     89  O   UNL A   1      48.803  37.019  30.047  1.00  0.00    -0.744 OA
ENDBRANCH  85  86
ENDBRANCH  53  78
BRANCH  65  90
ATOM     90  C   UNL A   1      49.624  26.999  25.792  1.00  0.00     0.058 A 
ATOM     91  C   UNL A   1      50.702  26.570  26.581  1.00  0.00     0.135 A 
ATOM     92  C   UNL A   1      49.853  27.203  24.421  1.00  0.00     0.135 A 
ATOM     93  F   UNL A   1      50.536  26.365  27.897  1.00  0.00    -0.206 F 
ATOM     94  C   UNL A   1      51.971  26.388  26.040  1.00  0.00     0.059 A 
ATOM     95  C   UNL A   1      51.107  27.000  23.854  1.00  0.00     0.059 A 
ATOM     96  F   UNL A   1      48.852  27.600  23.619  1.00  0.00    -0.206 F 
ATOM     97  C   UNL A   1      52.164  26.612  24.676  1.00  0.00     0.060 A 
BRANCH  97  98
ATOM     98  S   UNL A   1      53.813  26.372  23.982  1.00  0.00     0.124 S 
ATOM     99  O   UNL A   1      53.513  26.209  22.564  1.00  0.00    -0.237 OA
ATOM    100  O   UNL A   1      54.491  27.611  24.348  1.00  0.00    -0.237 OA
ATOM    101  O   UNL A   1      54.297  25.176  24.665  1.00  0.00    -0.744 OA
ENDBRANCH  97  98
ENDBRANCH  65  90
ENDBRANCH  39  40
ENDBRANCH  31  34
ENDBRANCH  29  30
ENDBRANCH  28  29
ENDBRANCH   1  28
TORSDOF 17
ENDMDL
