MODEL 1
REMARK VINA RESULT:     -11.0      0.000      0.000
REMARK SMILES O=C(NCCCCNC(=O)c1ccc(C(F)(F)F)nc1NC[C@@H]1CCOC1)c1ccc(-c2c3nc(c(-c4c(F)cc(S(=O)(=O)[O-])cc4F)c4ccc([nH]4)c(-c4c(F)cc(S(=O)(=O)[O-])cc4F)c4nc(c(-c5c(F)cc(S(=O)(=O)[O-])cc5F)c5ccc2[nH]5)C=C4)C=C3)cc1
REMARK SMILES IDX 5 1 4 2 3 3 1 4 2 5 28 7 29 8 93 9 30 10 92 11 31 12 32 13
REMARK SMILES IDX 33 14 86 15 34 16 91 17 85 18 87 19 35 20 90 21 84 22 83 23
REMARK SMILES IDX 36 25 70 26 49 27 69 28 50 29 53 30 68 31 88 32 51 33 52 34
REMARK SMILES IDX 67 36 89 37 54 38 37 39 38 40 47 41 39 42 40 43 46 44 48 45
REMARK SMILES IDX 41 46 42 47 43 48 44 49 45 50 71 51 72 52 81 53 73 54 74 55
REMARK SMILES IDX 80 56 82 57 75 58 76 59 77 60 78 61 79 62 55 63 56 64 65 65
REMARK SMILES IDX 57 66 58 67 64 68 66 69 59 70 60 71 61 72 62 73 63 74 6 75
REMARK SMILES IDX 7 76 8 77 9 78 10 80 11 81 12 82 20 83 13 84 19 85 14 86
REMARK SMILES IDX 21 87 22 89 23 90 24 91 27 92 25 93 26 94 15 95 16 96 17 97
REMARK SMILES IDX 18 98
REMARK H PARENT 3 6 87 24 53 35 8 79 21 88
REMARK Flexibility Score: inf
ROOT
ATOM      1  C   UNL A   1      33.202  28.429  25.472  1.00  0.00     0.023 C 
ENDROOT
BRANCH   1   2
ATOM      2  C   UNL A   1      34.228  28.688  26.568  1.00  0.00     0.116 C 
BRANCH   2   3
ATOM      3  N   UNL A   1      33.967  29.917  27.299  1.00  0.00    -0.352 N 
ATOM      4  O   UNL A   1      34.343  31.528  28.828  1.00  0.00    -0.269 OA
ATOM      5  C   UNL A   1      34.784  30.584  28.177  1.00  0.00     0.251 C 
ATOM      6  H   UNL A   1      33.086  30.326  27.143  1.00  0.00     0.163 HD
BRANCH   5   7
ATOM      7  C   UNL A   1      36.188  30.149  28.350  1.00  0.00     0.039 A 
ATOM      8  C   UNL A   1      37.111  30.297  27.311  1.00  0.00     0.014 A 
ATOM      9  C   UNL A   1      36.585  29.601  29.571  1.00  0.00     0.014 A 
ATOM     10  C   UNL A   1      38.402  29.801  27.455  1.00  0.00     0.010 A 
ATOM     11  C   UNL A   1      37.904  29.170  29.742  1.00  0.00     0.010 A 
ATOM     12  C   UNL A   1      38.818  29.258  28.682  1.00  0.00    -0.014 A 
BRANCH  12  13
ATOM     13  C   UNL A   1      40.246  28.906  28.875  1.00  0.00     0.031 A 
ATOM     14  C   UNL A   1      40.782  27.559  28.480  1.00  0.00     0.074 A 
ATOM     15  C   UNL A   1      41.054  29.824  29.443  1.00  0.00     0.049 A 
ATOM     16  N   UNL A   1      41.992  27.086  28.624  1.00  0.00    -0.248 NA
ATOM     17  C   UNL A   1      39.842  26.619  27.848  1.00  0.00     0.031 C 
ATOM     18  C   UNL A   1      40.628  31.154  29.892  1.00  0.00     0.029 A 
ATOM     19  N   UNL A   1      42.389  29.786  29.750  1.00  0.00    -0.354 N 
ATOM     20  C   UNL A   1      41.959  25.789  28.127  1.00  0.00     0.074 A 
ATOM     21  C   UNL A   1      40.605  25.543  27.681  1.00  0.00     0.031 C 
ATOM     22  C   UNL A   1      41.680  31.807  30.404  1.00  0.00     0.029 A 
ATOM     23  C   UNL A   1      42.839  30.923  30.378  1.00  0.00     0.049 A 
ATOM     24  H   UNL A   1      42.969  29.018  29.542  1.00  0.00     0.167 HD
ATOM     25  C   UNL A   1      42.973  24.893  28.053  1.00  0.00     0.037 A 
ATOM     26  C   UNL A   1      44.041  31.212  30.912  1.00  0.00     0.037 A 
ATOM     27  C   UNL A   1      44.323  25.166  28.475  1.00  0.00     0.049 A 
ATOM     28  C   UNL A   1      45.135  30.188  30.835  1.00  0.00     0.074 A 
ATOM     29  C   UNL A   1      45.441  24.358  28.348  1.00  0.00     0.029 A 
ATOM     30  N   UNL A   1      44.738  26.321  29.119  1.00  0.00    -0.354 N 
ATOM     31  N   UNL A   1      45.106  28.998  30.285  1.00  0.00    -0.248 NA
ATOM     32  C   UNL A   1      46.417  30.534  31.461  1.00  0.00     0.031 C 
ATOM     33  C   UNL A   1      46.519  25.002  28.965  1.00  0.00     0.029 A 
ATOM     34  C   UNL A   1      46.083  26.229  29.437  1.00  0.00     0.049 A 
ATOM     35  H   UNL A   1      44.161  27.093  29.321  1.00  0.00     0.167 HD
ATOM     36  C   UNL A   1      46.366  28.454  30.496  1.00  0.00     0.074 A 
ATOM     37  C   UNL A   1      47.142  29.455  31.200  1.00  0.00     0.031 C 
ATOM     38  C   UNL A   1      46.836  27.232  30.147  1.00  0.00     0.037 A 
BRANCH  25  39
ATOM     39  C   UNL A   1      42.680  23.522  27.511  1.00  0.00     0.058 A 
ATOM     40  C   UNL A   1      42.773  23.233  26.141  1.00  0.00     0.135 A 
ATOM     41  C   UNL A   1      42.413  22.458  28.388  1.00  0.00     0.135 A 
ATOM     42  F   UNL A   1      43.016  24.214  25.258  1.00  0.00    -0.206 F 
ATOM     43  C   UNL A   1      42.612  21.936  25.660  1.00  0.00     0.059 A 
ATOM     44  C   UNL A   1      42.267  21.151  27.932  1.00  0.00     0.059 A 
ATOM     45  F   UNL A   1      42.313  22.682  29.708  1.00  0.00    -0.206 F 
ATOM     46  C   UNL A   1      42.366  20.901  26.564  1.00  0.00     0.060 A 
BRANCH  46  47
ATOM     47  S   UNL A   1      42.208  19.218  25.928  1.00  0.00     0.124 S 
ATOM     48  O   UNL A   1      42.673  18.433  27.067  1.00  0.00    -0.237 OA
ATOM     49  O   UNL A   1      40.781  19.127  25.637  1.00  0.00    -0.237 OA
ATOM     50  O   UNL A   1      43.085  19.210  24.761  1.00  0.00    -0.744 OA
ENDBRANCH  46  47
ENDBRANCH  25  39
BRANCH  26  51
ATOM     51  C   UNL A   1      44.247  32.505  31.612  1.00  0.00     0.058 A 
ATOM     52  C   UNL A   1      43.989  32.640  32.983  1.00  0.00     0.135 A 
ATOM     53  C   UNL A   1      44.718  33.633  30.920  1.00  0.00     0.135 A 
ATOM     54  F   UNL A   1      43.536  31.592  33.687  1.00  0.00    -0.206 F 
ATOM     55  C   UNL A   1      44.168  33.854  33.640  1.00  0.00     0.059 A 
ATOM     56  C   UNL A   1      44.931  34.848  31.559  1.00  0.00     0.059 A 
ATOM     57  F   UNL A   1      45.000  33.550  29.610  1.00  0.00    -0.206 F 
ATOM     58  C   UNL A   1      44.637  34.952  32.918  1.00  0.00     0.060 A 
BRANCH  58  59
ATOM     59  S   UNL A   1      44.894  36.517  33.781  1.00  0.00     0.124 S 
ATOM     60  O   UNL A   1      46.313  36.750  33.544  1.00  0.00    -0.237 OA
ATOM     61  O   UNL A   1      43.974  37.411  33.082  1.00  0.00    -0.237 OA
ATOM     62  O   UNL A   1      44.523  36.205  35.157  1.00  0.00    -0.744 OA
ENDBRANCH  58  59
ENDBRANCH  26  51
BRANCH  38  63
ATOM     63  C   UNL A   1      48.252  26.909  30.524  1.00  0.00     0.058 A 
ATOM     64  C   UNL A   1      49.328  27.305  29.714  1.00  0.00     0.135 A 
ATOM     65  C   UNL A   1      48.541  26.250  31.729  1.00  0.00     0.135 A 
ATOM     66  F   UNL A   1      49.102  27.925  28.546  1.00  0.00    -0.206 F 
ATOM     67  C   UNL A   1      50.644  27.050  30.083  1.00  0.00     0.059 A 
ATOM     68  C   UNL A   1      49.851  26.007  32.129  1.00  0.00     0.059 A 
ATOM     69  F   UNL A   1      47.546  25.856  32.540  1.00  0.00    -0.206 F 
ATOM     70  C   UNL A   1      50.895  26.405  31.295  1.00  0.00     0.060 A 
BRANCH  70  71
ATOM     71  S   UNL A   1      52.610  26.128  31.787  1.00  0.00     0.124 S 
ATOM     72  O   UNL A   1      52.832  27.236  32.711  1.00  0.00    -0.237 OA
ATOM     73  O   UNL A   1      52.552  24.800  32.391  1.00  0.00    -0.237 OA
ATOM     74  O   UNL A   1      53.342  26.206  30.527  1.00  0.00    -0.744 OA
ENDBRANCH  70  71
ENDBRANCH  38  63
ENDBRANCH  12  13
ENDBRANCH   5   7
ENDBRANCH   2   3
ENDBRANCH   1   2
BRANCH   1  75
ATOM     75  C   UNL A   1      33.785  28.122  24.093  1.00  0.00     0.023 C 
BRANCH  75  76
ATOM     76  C   UNL A   1      32.855  28.411  22.917  1.00  0.00     0.116 C 
BRANCH  76  77
ATOM     77  N   UNL A   1      33.041  27.467  21.826  1.00  0.00    -0.352 N 
ATOM     78  C   UNL A   1      32.943  26.100  21.835  1.00  0.00     0.255 C 
ATOM     79  H   UNL A   1      33.270  27.868  20.957  1.00  0.00     0.163 HD
ATOM     80  O   UNL A   1      33.347  25.450  20.875  1.00  0.00    -0.269 OA
BRANCH  78  81
ATOM     81  C   UNL A   1      32.354  25.405  22.995  1.00  0.00     0.082 A 
ATOM     82  C   UNL A   1      30.983  25.530  23.247  1.00  0.00     0.020 A 
ATOM     83  C   UNL A   1      33.130  24.556  23.791  1.00  0.00     0.139 A 
ATOM     84  C   UNL A   1      30.429  24.887  24.345  1.00  0.00     0.034 A 
ATOM     85  N   UNL A   1      32.582  23.942  24.866  1.00  0.00    -0.226 NA
ATOM     86  C   UNL A   1      31.257  24.115  25.154  1.00  0.00     0.146 A 
BRANCH  83  87
ATOM     87  N   UNL A   1      34.477  24.355  23.536  1.00  0.00    -0.369 N 
ATOM     88  H   UNL A   1      35.100  25.115  23.599  1.00  0.00     0.162 HD
BRANCH  87  89
ATOM     89  C   UNL A   1      34.987  23.046  23.176  1.00  0.00     0.120 C 
BRANCH  89  90
ATOM     90  C   UNL A   1      36.199  22.590  24.019  1.00  0.00     0.036 C 
ATOM     91  C   UNL A   1      36.041  21.349  24.878  1.00  0.00     0.036 C 
ATOM     92  C   UNL A   1      36.531  23.619  25.098  1.00  0.00     0.165 C 
ATOM     93  C   UNL A   1      35.374  21.879  26.125  1.00  0.00     0.160 C 
ATOM     94  O   UNL A   1      35.843  23.225  26.295  1.00  0.00    -0.381 OA
ENDBRANCH  89  90
ENDBRANCH  87  89
ENDBRANCH  83  87
BRANCH  86  95
ATOM     95  C   UNL A   1      30.686  23.429  26.387  1.00  0.00     0.433 C 
ATOM     96  F   UNL A   1      31.585  23.313  27.405  1.00  0.00    -0.165 F 
ATOM     97  F   UNL A   1      29.601  24.069  26.910  1.00  0.00    -0.165 F 
ATOM     98  F   UNL A   1      30.259  22.152  26.137  1.00  0.00    -0.165 F 
ENDBRANCH  86  95
ENDBRANCH  78  81
ENDBRANCH  76  77
ENDBRANCH  75  76
ENDBRANCH   1  75
TORSDOF 18
ENDMDL
MODEL 2
REMARK VINA RESULT:     -10.9      3.240      9.136
REMARK SMILES O=C(NCCCCNC(=O)c1ccc(C(F)(F)F)nc1NC[C@@H]1CCOC1)c1ccc(-c2c3nc(c(-c4c(F)cc(S(=O)(=O)[O-])cc4F)c4ccc([nH]4)c(-c4c(F)cc(S(=O)(=O)[O-])cc4F)c4nc(c(-c5c(F)cc(S(=O)(=O)[O-])cc5F)c5ccc2[nH]5)C=C4)C=C3)cc1
REMARK SMILES IDX 5 1 4 2 3 3 1 4 2 5 28 7 29 8 93 9 30 10 92 11 31 12 32 13
REMARK SMILES IDX 33 14 86 15 34 16 91 17 85 18 87 19 35 20 90 21 84 22 83 23
REMARK SMILES IDX 36 25 70 26 49 27 69 28 50 29 53 30 68 31 88 32 51 33 52 34
REMARK SMILES IDX 67 36 89 37 54 38 37 39 38 40 47 41 39 42 40 43 46 44 48 45
REMARK SMILES IDX 41 46 42 47 43 48 44 49 45 50 71 51 72 52 81 53 73 54 74 55
REMARK SMILES IDX 80 56 82 57 75 58 76 59 77 60 78 61 79 62 55 63 56 64 65 65
REMARK SMILES IDX 57 66 58 67 64 68 66 69 59 70 60 71 61 72 62 73 63 74 6 75
REMARK SMILES IDX 7 76 8 77 9 78 10 80 11 81 12 82 20 83 13 84 19 85 14 86
REMARK SMILES IDX 21 87 22 89 23 90 24 91 27 92 25 93 26 94 15 95 16 96 17 97
REMARK SMILES IDX 18 98
REMARK H PARENT 3 6 87 24 53 35 8 79 21 88
REMARK Flexibility Score: inf
ROOT
ATOM      1  C   UNL A   1      34.644  30.047  27.311  1.00  0.00     0.023 C 
ENDROOT
BRANCH   1   2
ATOM      2  C   UNL A   1      35.576  29.531  28.399  1.00  0.00     0.116 C 
BRANCH   2   3
ATOM      3  N   UNL A   1      35.544  30.353  29.598  1.00  0.00    -0.352 N 
ATOM      4  O   UNL A   1      36.347  31.272  31.491  1.00  0.00    -0.269 OA
ATOM      5  C   UNL A   1      36.580  30.696  30.432  1.00  0.00     0.251 C 
ATOM      6  H   UNL A   1      34.663  30.712  29.845  1.00  0.00     0.163 HD
BRANCH   5   7
ATOM      7  C   UNL A   1      37.969  30.351  30.057  1.00  0.00     0.039 A 
ATOM      8  C   UNL A   1      38.899  29.984  31.034  1.00  0.00     0.014 A 
ATOM      9  C   UNL A   1      38.338  30.380  28.710  1.00  0.00     0.014 A 
ATOM     10  C   UNL A   1      40.223  29.751  30.677  1.00  0.00     0.010 A 
ATOM     11  C   UNL A   1      39.651  30.073  28.344  1.00  0.00     0.010 A 
ATOM     12  C   UNL A   1      40.605  29.766  29.326  1.00  0.00    -0.014 A 
BRANCH  12  13
ATOM     13  C   UNL A   1      41.974  29.335  28.951  1.00  0.00     0.031 A 
ATOM     14  C   UNL A   1      43.113  30.311  28.885  1.00  0.00     0.074 A 
ATOM     15  C   UNL A   1      42.166  28.035  28.644  1.00  0.00     0.049 A 
ATOM     16  N   UNL A   1      44.354  30.097  28.533  1.00  0.00    -0.248 NA
ATOM     17  C   UNL A   1      42.827  31.707  29.254  1.00  0.00     0.031 C 
ATOM     18  C   UNL A   1      41.120  27.007  28.648  1.00  0.00     0.029 A 
ATOM     19  N   UNL A   1      43.293  27.356  28.262  1.00  0.00    -0.354 N 
ATOM     20  C   UNL A   1      44.993  31.329  28.611  1.00  0.00     0.074 A 
ATOM     21  C   UNL A   1      44.001  32.291  29.040  1.00  0.00     0.031 C 
ATOM     22  C   UNL A   1      41.655  25.829  28.298  1.00  0.00     0.029 A 
ATOM     23  C   UNL A   1      43.065  26.028  27.986  1.00  0.00     0.049 A 
ATOM     24  H   UNL A   1      44.180  27.777  28.192  1.00  0.00     0.167 HD
ATOM     25  C   UNL A   1      46.290  31.619  28.349  1.00  0.00     0.037 A 
ATOM     26  C   UNL A   1      43.886  25.081  27.496  1.00  0.00     0.037 A 
ATOM     27  C   UNL A   1      47.271  30.641  27.952  1.00  0.00     0.049 A 
ATOM     28  C   UNL A   1      45.311  25.442  27.193  1.00  0.00     0.074 A 
ATOM     29  C   UNL A   1      48.631  30.820  27.761  1.00  0.00     0.029 A 
ATOM     30  N   UNL A   1      47.001  29.311  27.668  1.00  0.00    -0.354 N 
ATOM     31  N   UNL A   1      45.917  26.593  27.355  1.00  0.00    -0.248 NA
ATOM     32  C   UNL A   1      46.160  24.385  26.629  1.00  0.00     0.031 C 
ATOM     33  C   UNL A   1      49.172  29.612  27.308  1.00  0.00     0.029 A 
ATOM     34  C   UNL A   1      48.157  28.670  27.259  1.00  0.00     0.049 A 
ATOM     35  H   UNL A   1      46.115  28.886  27.745  1.00  0.00     0.167 HD
ATOM     36  C   UNL A   1      47.219  26.399  26.914  1.00  0.00     0.074 A 
ATOM     37  C   UNL A   1      47.321  25.013  26.505  1.00  0.00     0.031 C 
ATOM     38  C   UNL A   1      48.237  27.291  26.846  1.00  0.00     0.037 A 
BRANCH  25  39
ATOM     39  C   UNL A   1      46.743  33.047  28.464  1.00  0.00     0.058 A 
ATOM     40  C   UNL A   1      47.286  33.558  29.652  1.00  0.00     0.135 A 
ATOM     41  C   UNL A   1      46.736  33.883  27.334  1.00  0.00     0.135 A 
ATOM     42  F   UNL A   1      47.307  32.806  30.764  1.00  0.00    -0.206 F 
ATOM     43  C   UNL A   1      47.808  34.847  29.717  1.00  0.00     0.059 A 
ATOM     44  C   UNL A   1      47.269  35.168  27.371  1.00  0.00     0.059 A 
ATOM     45  F   UNL A   1      46.227  33.442  26.173  1.00  0.00    -0.206 F 
ATOM     46  C   UNL A   1      47.800  35.642  28.569  1.00  0.00     0.060 A 
BRANCH  46  47
ATOM     47  S   UNL A   1      48.526  37.295  28.657  1.00  0.00     0.124 S 
ATOM     48  O   UNL A   1      49.951  36.984  28.705  1.00  0.00    -0.237 OA
ATOM     49  O   UNL A   1      48.053  37.909  27.421  1.00  0.00    -0.237 OA
ATOM     50  O   UNL A   1      47.963  37.849  29.884  1.00  0.00    -0.744 OA
ENDBRANCH  46  47
ENDBRANCH  25  39
BRANCH  26  51
ATOM     51  C   UNL A   1      43.361  23.721  27.213  1.00  0.00     0.058 A 
ATOM     52  C   UNL A   1      43.187  22.780  28.237  1.00  0.00     0.135 A 
ATOM     53  C   UNL A   1      43.016  23.340  25.906  1.00  0.00     0.135 A 
ATOM     54  F   UNL A   1      43.505  23.097  29.500  1.00  0.00    -0.206 F 
ATOM     55  C   UNL A   1      42.709  21.500  27.973  1.00  0.00     0.059 A 
ATOM     56  C   UNL A   1      42.510  22.077  25.622  1.00  0.00     0.059 A 
ATOM     57  F   UNL A   1      43.145  24.212  24.893  1.00  0.00    -0.206 F 
ATOM     58  C   UNL A   1      42.376  21.158  26.661  1.00  0.00     0.060 A 
BRANCH  58  59
ATOM     59  S   UNL A   1      41.730  19.505  26.328  1.00  0.00     0.124 S 
ATOM     60  O   UNL A   1      40.296  19.760  26.271  1.00  0.00    -0.237 OA
ATOM     61  O   UNL A   1      42.371  19.171  25.060  1.00  0.00    -0.237 OA
ATOM     62  O   UNL A   1      42.190  18.729  27.476  1.00  0.00    -0.744 OA
ENDBRANCH  58  59
ENDBRANCH  26  51
BRANCH  38  63
ATOM     63  C   UNL A   1      49.547  26.796  26.306  1.00  0.00     0.058 A 
ATOM     64  C   UNL A   1      49.871  26.932  24.947  1.00  0.00     0.135 A 
ATOM     65  C   UNL A   1      50.510  26.236  27.161  1.00  0.00     0.135 A 
ATOM     66  F   UNL A   1      48.979  27.448  24.089  1.00  0.00    -0.206 F 
ATOM     67  C   UNL A   1      51.102  26.518  24.452  1.00  0.00     0.059 A 
ATOM     68  C   UNL A   1      51.757  25.839  26.691  1.00  0.00     0.059 A 
ATOM     69  F   UNL A   1      50.249  26.091  28.470  1.00  0.00    -0.206 F 
ATOM     70  C   UNL A   1      52.041  25.977  25.332  1.00  0.00     0.060 A 
BRANCH  70  71
ATOM     71  S   UNL A   1      53.655  25.495  24.685  1.00  0.00     0.124 S 
ATOM     72  O   UNL A   1      53.618  26.070  23.344  1.00  0.00    -0.237 OA
ATOM     73  O   UNL A   1      54.573  26.133  25.624  1.00  0.00    -0.237 OA
ATOM     74  O   UNL A   1      53.622  24.037  24.743  1.00  0.00    -0.744 OA
ENDBRANCH  70  71
ENDBRANCH  38  63
ENDBRANCH  12  13
ENDBRANCH   5   7
ENDBRANCH   2   3
ENDBRANCH   1   2
BRANCH   1  75
ATOM     75  C   UNL A   1      33.740  28.993  26.672  1.00  0.00     0.023 C 
BRANCH  75  76
ATOM     76  C   UNL A   1      32.802  29.515  25.586  1.00  0.00     0.116 C 
BRANCH  76  77
ATOM     77  N   UNL A   1      33.465  29.627  24.296  1.00  0.00    -0.352 N 
ATOM     78  C   UNL A   1      33.684  28.663  23.346  1.00  0.00     0.255 C 
ATOM     79  H   UNL A   1      33.806  30.523  24.074  1.00  0.00     0.163 HD
ATOM     80  O   UNL A   1      34.452  28.884  22.415  1.00  0.00    -0.269 OA
BRANCH  78  81
ATOM     81  C   UNL A   1      32.999  27.360  23.438  1.00  0.00     0.082 A 
ATOM     82  C   UNL A   1      33.614  26.307  24.126  1.00  0.00     0.020 A 
ATOM     83  C   UNL A   1      31.710  27.191  22.922  1.00  0.00     0.139 A 
ATOM     84  C   UNL A   1      32.977  25.077  24.203  1.00  0.00     0.034 A 
ATOM     85  N   UNL A   1      31.102  25.983  22.993  1.00  0.00    -0.226 NA
ATOM     86  C   UNL A   1      31.728  24.935  23.606  1.00  0.00     0.146 A 
BRANCH  83  87
ATOM     87  N   UNL A   1      31.041  28.227  22.291  1.00  0.00    -0.369 N 
ATOM     88  H   UNL A   1      31.222  28.410  21.340  1.00  0.00     0.162 HD
BRANCH  87  89
ATOM     89  C   UNL A   1      30.080  29.047  23.002  1.00  0.00     0.120 C 
BRANCH  89  90
ATOM     90  C   UNL A   1      28.886  29.509  22.138  1.00  0.00     0.036 C 
ATOM     91  C   UNL A   1      28.713  30.999  21.903  1.00  0.00     0.036 C 
ATOM     92  C   UNL A   1      27.559  29.194  22.826  1.00  0.00     0.165 C 
ATOM     93  C   UNL A   1      27.990  31.459  23.147  1.00  0.00     0.160 C 
ATOM     94  O   UNL A   1      27.173  30.358  23.572  1.00  0.00    -0.381 OA
ENDBRANCH  89  90
ENDBRANCH  87  89
ENDBRANCH  83  87
BRANCH  86  95
ATOM     95  C   UNL A   1      31.022  23.586  23.641  1.00  0.00     0.433 C 
ATOM     96  F   UNL A   1      29.870  23.562  22.911  1.00  0.00    -0.165 F 
ATOM     97  F   UNL A   1      31.789  22.560  23.173  1.00  0.00    -0.165 F 
ATOM     98  F   UNL A   1      30.655  23.209  24.905  1.00  0.00    -0.165 F 
ENDBRANCH  86  95
ENDBRANCH  78  81
ENDBRANCH  76  77
ENDBRANCH  75  76
ENDBRANCH   1  75
TORSDOF 18
ENDMDL
MODEL 3
REMARK VINA RESULT:     -10.9      4.934     10.262
REMARK SMILES O=C(NCCCCNC(=O)c1ccc(C(F)(F)F)nc1NC[C@@H]1CCOC1)c1ccc(-c2c3nc(c(-c4c(F)cc(S(=O)(=O)[O-])cc4F)c4ccc([nH]4)c(-c4c(F)cc(S(=O)(=O)[O-])cc4F)c4nc(c(-c5c(F)cc(S(=O)(=O)[O-])cc5F)c5ccc2[nH]5)C=C4)C=C3)cc1
REMARK SMILES IDX 5 1 4 2 3 3 1 4 2 5 28 7 29 8 93 9 30 10 92 11 31 12 32 13
REMARK SMILES IDX 33 14 86 15 34 16 91 17 85 18 87 19 35 20 90 21 84 22 83 23
REMARK SMILES IDX 36 25 70 26 49 27 69 28 50 29 53 30 68 31 88 32 51 33 52 34
REMARK SMILES IDX 67 36 89 37 54 38 37 39 38 40 47 41 39 42 40 43 46 44 48 45
REMARK SMILES IDX 41 46 42 47 43 48 44 49 45 50 71 51 72 52 81 53 73 54 74 55
REMARK SMILES IDX 80 56 82 57 75 58 76 59 77 60 78 61 79 62 55 63 56 64 65 65
REMARK SMILES IDX 57 66 58 67 64 68 66 69 59 70 60 71 61 72 62 73 63 74 6 75
REMARK SMILES IDX 7 76 8 77 9 78 10 80 11 81 12 82 20 83 13 84 19 85 14 86
REMARK SMILES IDX 21 87 22 89 23 90 24 91 27 92 25 93 26 94 15 95 16 96 17 97
REMARK SMILES IDX 18 98
REMARK H PARENT 3 6 87 24 53 35 8 79 21 88
REMARK Flexibility Score: inf
ROOT
ATOM      1  C   UNL A   1      39.865  22.518  27.082  1.00  0.00     0.023 C 
ENDROOT
BRANCH   1   2
ATOM      2  C   UNL A   1      41.087  23.395  27.321  1.00  0.00     0.116 C 
BRANCH   2   3
ATOM      3  N   UNL A   1      41.412  24.225  26.173  1.00  0.00    -0.352 N 
ATOM      4  O   UNL A   1      41.563  26.129  24.980  1.00  0.00    -0.269 OA
ATOM      5  C   UNL A   1      41.414  25.594  26.075  1.00  0.00     0.251 C 
ATOM      6  H   UNL A   1      41.666  23.740  25.355  1.00  0.00     0.163 HD
BRANCH   5   7
ATOM      7  C   UNL A   1      41.215  26.417  27.289  1.00  0.00     0.039 A 
ATOM      8  C   UNL A   1      42.103  27.450  27.601  1.00  0.00     0.014 A 
ATOM      9  C   UNL A   1      40.118  26.159  28.113  1.00  0.00     0.014 A 
ATOM     10  C   UNL A   1      41.955  28.155  28.791  1.00  0.00     0.010 A 
ATOM     11  C   UNL A   1      39.927  26.918  29.272  1.00  0.00     0.010 A 
ATOM     12  C   UNL A   1      40.850  27.914  29.623  1.00  0.00    -0.014 A 
BRANCH  12  13
ATOM     13  C   UNL A   1      40.610  28.799  30.789  1.00  0.00     0.031 A 
ATOM     14  C   UNL A   1      39.521  29.834  30.777  1.00  0.00     0.074 A 
ATOM     15  C   UNL A   1      41.417  28.667  31.862  1.00  0.00     0.049 A 
ATOM     16  N   UNL A   1      39.215  30.709  31.698  1.00  0.00    -0.248 NA
ATOM     17  C   UNL A   1      38.670  29.902  29.578  1.00  0.00     0.031 C 
ATOM     18  C   UNL A   1      42.526  27.712  31.966  1.00  0.00     0.029 A 
ATOM     19  N   UNL A   1      41.444  29.334  33.058  1.00  0.00    -0.354 N 
ATOM     20  C   UNL A   1      38.156  31.450  31.187  1.00  0.00     0.074 A 
ATOM     21  C   UNL A   1      37.873  30.925  29.868  1.00  0.00     0.031 C 
ATOM     22  C   UNL A   1      43.115  27.846  33.162  1.00  0.00     0.029 A 
ATOM     23  C   UNL A   1      42.468  28.935  33.884  1.00  0.00     0.049 A 
ATOM     24  H   UNL A   1      40.794  30.030  33.303  1.00  0.00     0.167 HD
ATOM     25  C   UNL A   1      37.487  32.471  31.773  1.00  0.00     0.037 A 
ATOM     26  C   UNL A   1      42.872  29.416  35.075  1.00  0.00     0.037 A 
ATOM     27  C   UNL A   1      37.762  32.961  33.100  1.00  0.00     0.049 A 
ATOM     28  C   UNL A   1      42.124  30.565  35.685  1.00  0.00     0.074 A 
ATOM     29  C   UNL A   1      37.074  33.923  33.818  1.00  0.00     0.029 A 
ATOM     30  N   UNL A   1      38.816  32.543  33.900  1.00  0.00    -0.354 N 
ATOM     31  N   UNL A   1      41.072  31.195  35.222  1.00  0.00    -0.248 NA
ATOM     32  C   UNL A   1      42.621  31.077  36.968  1.00  0.00     0.031 C 
ATOM     33  C   UNL A   1      37.744  34.128  35.030  1.00  0.00     0.029 A 
ATOM     34  C   UNL A   1      38.823  33.261  35.084  1.00  0.00     0.049 A 
ATOM     35  H   UNL A   1      39.462  31.841  33.660  1.00  0.00     0.167 HD
ATOM     36  C   UNL A   1      40.780  32.179  36.158  1.00  0.00     0.074 A 
ATOM     37  C   UNL A   1      41.749  32.042  37.226  1.00  0.00     0.031 C 
ATOM     38  C   UNL A   1      39.802  33.117  36.131  1.00  0.00     0.037 A 
BRANCH  25  39
ATOM     39  C   UNL A   1      36.394  33.152  30.996  1.00  0.00     0.058 A 
ATOM     40  C   UNL A   1      35.040  32.981  31.319  1.00  0.00     0.135 A 
ATOM     41  C   UNL A   1      36.716  34.077  29.988  1.00  0.00     0.135 A 
ATOM     42  F   UNL A   1      34.676  32.103  32.267  1.00  0.00    -0.206 F 
ATOM     43  C   UNL A   1      34.042  33.703  30.670  1.00  0.00     0.059 A 
ATOM     44  C   UNL A   1      35.737  34.822  29.339  1.00  0.00     0.059 A 
ATOM     45  F   UNL A   1      37.997  34.276  29.641  1.00  0.00    -0.206 F 
ATOM     46  C   UNL A   1      34.401  34.626  29.686  1.00  0.00     0.060 A 
BRANCH  46  47
ATOM     47  S   UNL A   1      33.097  35.589  28.888  1.00  0.00     0.124 S 
ATOM     48  O   UNL A   1      33.874  36.610  28.194  1.00  0.00    -0.237 OA
ATOM     49  O   UNL A   1      32.453  34.595  28.035  1.00  0.00    -0.237 OA
ATOM     50  O   UNL A   1      32.292  36.067  30.007  1.00  0.00    -0.744 OA
ENDBRANCH  46  47
ENDBRANCH  25  39
BRANCH  26  51
ATOM     51  C   UNL A   1      44.075  28.846  35.734  1.00  0.00     0.058 A 
ATOM     52  C   UNL A   1      45.359  29.334  35.453  1.00  0.00     0.135 A 
ATOM     53  C   UNL A   1      43.959  27.803  36.667  1.00  0.00     0.135 A 
ATOM     54  F   UNL A   1      45.520  30.327  34.567  1.00  0.00    -0.206 F 
ATOM     55  C   UNL A   1      46.489  28.793  36.058  1.00  0.00     0.059 A 
ATOM     56  C   UNL A   1      45.070  27.265  37.305  1.00  0.00     0.059 A 
ATOM     57  F   UNL A   1      42.750  27.315  36.986  1.00  0.00    -0.206 F 
ATOM     58  C   UNL A   1      46.334  27.757  36.981  1.00  0.00     0.060 A 
BRANCH  58  59
ATOM     59  S   UNL A   1      47.802  27.077  37.783  1.00  0.00     0.124 S 
ATOM     60  O   UNL A   1      47.496  27.306  39.190  1.00  0.00    -0.237 OA
ATOM     61  O   UNL A   1      47.779  25.686  37.343  1.00  0.00    -0.237 OA
ATOM     62  O   UNL A   1      48.887  27.882  37.231  1.00  0.00    -0.744 OA
ENDBRANCH  58  59
ENDBRANCH  26  51
BRANCH  38  63
ATOM     63  C   UNL A   1      39.735  34.070  37.289  1.00  0.00     0.058 A 
ATOM     64  C   UNL A   1      40.396  35.308  37.249  1.00  0.00     0.135 A 
ATOM     65  C   UNL A   1      38.960  33.772  38.420  1.00  0.00     0.135 A 
ATOM     66  F   UNL A   1      41.161  35.633  36.196  1.00  0.00    -0.206 F 
ATOM     67  C   UNL A   1      40.297  36.215  38.299  1.00  0.00     0.059 A 
ATOM     68  C   UNL A   1      38.827  34.675  39.469  1.00  0.00     0.059 A 
ATOM     69  F   UNL A   1      38.304  32.603  38.501  1.00  0.00    -0.206 F 
ATOM     70  C   UNL A   1      39.507  35.891  39.403  1.00  0.00     0.060 A 
BRANCH  70  71
ATOM     71  S   UNL A   1      39.344  37.099  40.734  1.00  0.00     0.124 S 
ATOM     72  O   UNL A   1      38.868  36.264  41.832  1.00  0.00    -0.237 OA
ATOM     73  O   UNL A   1      40.707  37.605  40.866  1.00  0.00    -0.237 OA
ATOM     74  O   UNL A   1      38.375  38.056  40.208  1.00  0.00    -0.744 OA
ENDBRANCH  70  71
ENDBRANCH  38  63
ENDBRANCH  12  13
ENDBRANCH   5   7
ENDBRANCH   2   3
ENDBRANCH   1   2
BRANCH   1  75
ATOM     75  C   UNL A   1      38.664  23.228  26.457  1.00  0.00     0.023 C 
BRANCH  75  76
ATOM     76  C   UNL A   1      37.653  22.311  25.772  1.00  0.00     0.116 C 
BRANCH  76  77
ATOM     77  N   UNL A   1      37.532  22.594  24.350  1.00  0.00    -0.352 N 
ATOM     78  C   UNL A   1      36.423  22.948  23.627  1.00  0.00     0.255 C 
ATOM     79  H   UNL A   1      38.367  22.520  23.834  1.00  0.00     0.163 HD
ATOM     80  O   UNL A   1      36.462  22.933  22.400  1.00  0.00    -0.269 OA
BRANCH  78  81
ATOM     81  C   UNL A   1      35.182  23.346  24.316  1.00  0.00     0.082 A 
ATOM     82  C   UNL A   1      35.040  24.663  24.769  1.00  0.00     0.020 A 
ATOM     83  C   UNL A   1      34.116  22.450  24.446  1.00  0.00     0.139 A 
ATOM     84  C   UNL A   1      33.877  25.036  25.429  1.00  0.00     0.034 A 
ATOM     85  N   UNL A   1      32.991  22.821  25.101  1.00  0.00    -0.226 NA
ATOM     86  C   UNL A   1      32.875  24.087  25.602  1.00  0.00     0.146 A 
BRANCH  83  87
ATOM     87  N   UNL A   1      34.193  21.157  23.954  1.00  0.00    -0.369 N 
ATOM     88  H   UNL A   1      34.935  20.911  23.355  1.00  0.00     0.162 HD
BRANCH  87  89
ATOM     89  C   UNL A   1      33.201  20.158  24.303  1.00  0.00     0.120 C 
BRANCH  89  90
ATOM     90  C   UNL A   1      33.782  18.920  25.023  1.00  0.00     0.036 C 
ATOM     91  C   UNL A   1      34.390  17.822  24.170  1.00  0.00     0.036 C 
ATOM     92  C   UNL A   1      32.679  18.130  25.725  1.00  0.00     0.165 C 
ATOM     93  C   UNL A   1      33.187  17.012  23.748  1.00  0.00     0.160 C 
ATOM     94  O   UNL A   1      32.237  17.109  24.818  1.00  0.00    -0.381 OA
ENDBRANCH  89  90
ENDBRANCH  87  89
ENDBRANCH  83  87
BRANCH  86  95
ATOM     95  C   UNL A   1      31.605  24.456  26.357  1.00  0.00     0.433 C 
ATOM     96  F   UNL A   1      31.709  25.629  27.045  1.00  0.00    -0.165 F 
ATOM     97  F   UNL A   1      30.513  24.587  25.550  1.00  0.00    -0.165 F 
ATOM     98  F   UNL A   1      31.248  23.521  27.291  1.00  0.00    -0.165 F 
ENDBRANCH  86  95
ENDBRANCH  78  81
ENDBRANCH  76  77
ENDBRANCH  75  76
ENDBRANCH   1  75
TORSDOF 18
ENDMDL
