MODEL 1
REMARK VINA RESULT:     -13.0      0.000      0.000
REMARK SMILES C[C@H](NC(=O)c1c(C(=O)NCCCCNC(=O)c2ccc(-c3c4nc(c(-c5c(F)cc(S(=O)(=O)[O-])cc5F)c5ccc([nH]5)c(-c5c(F)cc(S(=O)(=O)[O-])cc5F)c5nc(c(-c6c(F)cc(S(=O)(=O)[O-])cc6F)c6ccc3[nH]6)C=C5)C=C4)cc2)cnn1C)[C@]12C[C@H]3C[C@H](C[C@H](C3)C1)C2
REMARK SMILES IDX 12 1 11 2 10 3 8 4 9 5 7 7 6 8 86 9 84 10 85 11 87 12 4 13
REMARK SMILES IDX 3 14 5 16 2 17 1 18 88 19 89 20 96 21 97 22 90 23 94 24
REMARK SMILES IDX 92 25 91 26 95 27 93 28 13 29 14 30 15 31 16 32 17 34 18 35
REMARK SMILES IDX 19 36 83 37 20 38 82 39 21 40 22 41 23 42 76 43 24 44 81 45
REMARK SMILES IDX 75 46 77 47 25 48 80 49 74 50 73 51 26 53 60 54 39 55 59 56
REMARK SMILES IDX 40 57 43 58 58 59 78 60 41 61 42 62 57 64 79 65 44 66 27 67
REMARK SMILES IDX 28 68 37 69 29 70 30 71 36 72 38 73 31 74 32 75 33 76 34 77
REMARK SMILES IDX 35 78 61 79 62 80 71 81 63 82 64 83 70 84 72 85 65 86 66 87
REMARK SMILES IDX 67 88 68 89 69 90 45 91 46 92 55 93 47 94 48 95 54 96 56 97
REMARK SMILES IDX 49 98 50 99 51 100 52 101 53 102
REMARK H PARENT 10 6 3 15 15 33 77 52 43 63
REMARK Flexibility Score: inf
ROOT
ATOM      1  C   UNL A   1      38.699  22.665  26.320  1.00  0.00     0.023 C 
ENDROOT
BRANCH   1   2
ATOM      2  C   UNL A   1      37.869  21.685  25.497  1.00  0.00     0.116 C 
BRANCH   2   3
ATOM      3  N   UNL A   1      37.446  22.337  24.279  1.00  0.00    -0.352 N 
ATOM      4  C   UNL A   1      36.256  22.805  23.804  1.00  0.00     0.255 C 
ATOM      5  O   UNL A   1      36.294  23.205  22.635  1.00  0.00    -0.269 OA
ATOM      6  H   UNL A   1      38.187  22.475  23.646  1.00  0.00     0.163 HD
BRANCH   4   7
ATOM      7  C   UNL A   1      35.024  22.955  24.567  1.00  0.00     0.090 A 
ATOM      8  C   UNL A   1      33.652  22.855  24.333  1.00  0.00     0.138 A 
ATOM      9  N   UNL A   1      33.066  22.937  25.581  1.00  0.00    -0.262 N 
ATOM     10  C   UNL A   1      35.090  23.299  25.950  1.00  0.00     0.149 A 
ATOM     11  N   UNL A   1      33.907  23.313  26.555  1.00  0.00    -0.180 NA
ATOM     12  C   UNL A   1      31.685  22.697  25.940  1.00  0.00     0.174 C 
BRANCH   8  13
ATOM     13  C   UNL A   1      32.860  22.572  23.176  1.00  0.00     0.270 C 
ATOM     14  N   UNL A   1      32.606  23.536  22.243  1.00  0.00    -0.348 N 
ATOM     15  H   UNL A   1      32.178  23.191  21.427  1.00  0.00     0.164 HD
ATOM     16  O   UNL A   1      32.318  21.476  23.011  1.00  0.00    -0.267 OA
BRANCH  14  17
ATOM     17  C   UNL A   1      32.843  24.988  22.216  1.00  0.00     0.085 C 
ATOM     18  C   UNL A   1      32.767  25.435  20.750  1.00  0.00     0.031 C 
BRANCH  17  19
ATOM     19  C   UNL A   1      31.824  25.777  23.135  1.00  0.00    -0.009 C 
ATOM     20  C   UNL A   1      30.559  24.931  23.482  1.00  0.00     0.012 C 
ATOM     21  C   UNL A   1      31.324  27.049  22.398  1.00  0.00     0.012 C 
ATOM     22  C   UNL A   1      32.465  26.225  24.483  1.00  0.00     0.012 C 
ATOM     23  C   UNL A   1      29.561  25.723  24.343  1.00  0.00    -0.010 C 
ATOM     24  C   UNL A   1      30.329  27.849  23.254  1.00  0.00    -0.010 C 
ATOM     25  C   UNL A   1      31.466  27.022  25.342  1.00  0.00    -0.010 C 
ATOM     26  C   UNL A   1      30.247  26.143  25.652  1.00  0.00     0.007 C 
ATOM     27  C   UNL A   1      29.111  26.971  23.574  1.00  0.00     0.007 C 
ATOM     28  C   UNL A   1      31.012  28.268  24.565  1.00  0.00     0.007 C 
ENDBRANCH  17  19
ENDBRANCH  14  17
ENDBRANCH   8  13
ENDBRANCH   4   7
ENDBRANCH   2   3
ENDBRANCH   1   2
BRANCH   1  29
ATOM     29  C   UNL A   1      40.006  22.094  26.870  1.00  0.00     0.023 C 
BRANCH  29  30
ATOM     30  C   UNL A   1      41.071  23.131  27.210  1.00  0.00     0.116 C 
BRANCH  30  31
ATOM     31  N   UNL A   1      41.458  23.957  26.078  1.00  0.00    -0.352 N 
ATOM     32  C   UNL A   1      41.651  25.317  26.029  1.00  0.00     0.251 C 
ATOM     33  H   UNL A   1      41.600  23.478  25.230  1.00  0.00     0.163 HD
ATOM     34  O   UNL A   1      41.884  25.866  24.957  1.00  0.00    -0.269 OA
BRANCH  32  35
ATOM     35  C   UNL A   1      41.532  26.113  27.269  1.00  0.00     0.039 A 
ATOM     36  C   UNL A   1      42.576  26.976  27.615  1.00  0.00     0.014 A 
ATOM     37  C   UNL A   1      40.386  26.036  28.064  1.00  0.00     0.014 A 
ATOM     38  C   UNL A   1      42.435  27.818  28.720  1.00  0.00     0.010 A 
ATOM     39  C   UNL A   1      40.218  26.925  29.119  1.00  0.00     0.010 A 
ATOM     40  C   UNL A   1      41.239  27.827  29.454  1.00  0.00    -0.014 A 
BRANCH  40  41
ATOM     41  C   UNL A   1      41.032  28.772  30.578  1.00  0.00     0.031 A 
ATOM     42  C   UNL A   1      41.883  28.671  31.812  1.00  0.00     0.074 A 
ATOM     43  C   UNL A   1      40.022  29.662  30.519  1.00  0.00     0.049 A 
ATOM     44  N   UNL A   1      41.789  29.332  32.936  1.00  0.00    -0.248 NA
ATOM     45  C   UNL A   1      42.958  27.667  31.794  1.00  0.00     0.031 C 
ATOM     46  C   UNL A   1      39.080  29.807  29.406  1.00  0.00     0.029 A 
ATOM     47  N   UNL A   1      39.613  30.608  31.423  1.00  0.00    -0.354 N 
ATOM     48  C   UNL A   1      42.760  28.795  33.772  1.00  0.00     0.074 A 
ATOM     49  C   UNL A   1      43.414  27.735  33.035  1.00  0.00     0.031 C 
ATOM     50  C   UNL A   1      38.221  30.801  29.684  1.00  0.00     0.029 A 
ATOM     51  C   UNL A   1      38.536  31.349  30.999  1.00  0.00     0.049 A 
ATOM     52  H   UNL A   1      40.049  30.744  32.295  1.00  0.00     0.167 HD
ATOM     53  C   UNL A   1      43.087  29.163  35.034  1.00  0.00     0.037 A 
ATOM     54  C   UNL A   1      37.883  32.361  31.600  1.00  0.00     0.037 A 
ATOM     55  C   UNL A   1      42.477  30.257  35.740  1.00  0.00     0.049 A 
ATOM     56  C   UNL A   1      38.344  32.830  32.950  1.00  0.00     0.074 A 
ATOM     57  C   UNL A   1      42.775  30.747  36.999  1.00  0.00     0.029 A 
ATOM     58  N   UNL A   1      41.457  31.048  35.233  1.00  0.00    -0.354 N 
ATOM     59  N   UNL A   1      39.290  32.335  33.713  1.00  0.00    -0.248 NA
ATOM     60  C   UNL A   1      37.661  34.001  33.516  1.00  0.00     0.031 C 
ATOM     61  C   UNL A   1      41.933  31.838  37.253  1.00  0.00     0.029 A 
ATOM     62  C   UNL A   1      41.124  32.033  36.146  1.00  0.00     0.049 A 
ATOM     63  H   UNL A   1      41.033  30.926  34.353  1.00  0.00     0.167 HD
ATOM     64  C   UNL A   1      39.329  33.146  34.840  1.00  0.00     0.074 A 
ATOM     65  C   UNL A   1      38.318  34.168  34.657  1.00  0.00     0.031 C 
ATOM     66  C   UNL A   1      40.127  33.050  35.932  1.00  0.00     0.037 A 
BRANCH  53  67
ATOM     67  C   UNL A   1      44.164  28.371  35.717  1.00  0.00     0.058 A 
ATOM     68  C   UNL A   1      45.520  28.706  35.577  1.00  0.00     0.135 A 
ATOM     69  C   UNL A   1      43.840  27.256  36.506  1.00  0.00     0.135 A 
ATOM     70  F   UNL A   1      45.882  29.750  34.816  1.00  0.00    -0.206 F 
ATOM     71  C   UNL A   1      46.521  27.940  36.164  1.00  0.00     0.059 A 
ATOM     72  C   UNL A   1      44.825  26.488  37.120  1.00  0.00     0.059 A 
ATOM     73  F   UNL A   1      42.558  26.892  36.669  1.00  0.00    -0.206 F 
ATOM     74  C   UNL A   1      46.164  26.825  36.924  1.00  0.00     0.060 A 
BRANCH  74  75
ATOM     75  S   UNL A   1      47.468  25.817  37.661  1.00  0.00     0.124 S 
ATOM     76  O   UNL A   1      47.423  26.258  39.051  1.00  0.00    -0.237 OA
ATOM     77  O   UNL A   1      47.000  24.457  37.412  1.00  0.00    -0.237 OA
ATOM     78  O   UNL A   1      48.658  26.212  36.913  1.00  0.00    -0.744 OA
ENDBRANCH  74  75
ENDBRANCH  53  67
BRANCH  54  79
ATOM     79  C   UNL A   1      36.764  33.036  30.900  1.00  0.00     0.058 A 
ATOM     80  C   UNL A   1      35.438  32.820  31.301  1.00  0.00     0.135 A 
ATOM     81  C   UNL A   1      36.995  33.925  29.840  1.00  0.00     0.135 A 
ATOM     82  F   UNL A   1      35.174  31.977  32.311  1.00  0.00    -0.206 F 
ATOM     83  C   UNL A   1      34.374  33.454  30.669  1.00  0.00     0.059 A 
ATOM     84  C   UNL A   1      35.947  34.582  29.202  1.00  0.00     0.059 A 
ATOM     85  F   UNL A   1      38.248  34.177  29.434  1.00  0.00    -0.206 F 
ATOM     86  C   UNL A   1      34.639  34.333  29.619  1.00  0.00     0.060 A 
BRANCH  86  87
ATOM     87  S   UNL A   1      33.260  35.202  28.840  1.00  0.00     0.124 S 
ATOM     88  O   UNL A   1      33.953  36.260  28.114  1.00  0.00    -0.237 OA
ATOM     89  O   UNL A   1      32.652  34.157  28.021  1.00  0.00    -0.237 OA
ATOM     90  O   UNL A   1      32.457  35.636  29.979  1.00  0.00    -0.744 OA
ENDBRANCH  86  87
ENDBRANCH  54  79
BRANCH  66  91
ATOM     91  C   UNL A   1      39.959  34.097  36.990  1.00  0.00     0.058 A 
ATOM     92  C   UNL A   1      40.732  35.267  36.991  1.00  0.00     0.135 A 
ATOM     93  C   UNL A   1      38.992  33.942  37.995  1.00  0.00     0.135 A 
ATOM     94  F   UNL A   1      41.674  35.454  36.053  1.00  0.00    -0.206 F 
ATOM     95  C   UNL A   1      40.564  36.245  37.963  1.00  0.00     0.059 A 
ATOM     96  C   UNL A   1      38.796  34.914  38.970  1.00  0.00     0.059 A 
ATOM     97  F   UNL A   1      38.225  32.841  38.031  1.00  0.00    -0.206 F 
ATOM     98  C   UNL A   1      39.596  36.057  38.952  1.00  0.00     0.060 A 
BRANCH  98  99
ATOM     99  S   UNL A   1      39.358  37.340  40.200  1.00  0.00     0.124 S 
ATOM    100  O   UNL A   1      40.717  37.848  40.360  1.00  0.00    -0.237 OA
ATOM    101  O   UNL A   1      38.415  38.247  39.553  1.00  0.00    -0.237 OA
ATOM    102  O   UNL A   1      38.823  36.603  41.341  1.00  0.00    -0.744 OA
ENDBRANCH  98  99
ENDBRANCH  66  91
ENDBRANCH  40  41
ENDBRANCH  32  35
ENDBRANCH  30  31
ENDBRANCH  29  30
ENDBRANCH   1  29
TORSDOF 17
ENDMDL
MODEL 2
REMARK VINA RESULT:     -12.6      1.882      3.538
REMARK SMILES C[C@H](NC(=O)c1c(C(=O)NCCCCNC(=O)c2ccc(-c3c4nc(c(-c5c(F)cc(S(=O)(=O)[O-])cc5F)c5ccc([nH]5)c(-c5c(F)cc(S(=O)(=O)[O-])cc5F)c5nc(c(-c6c(F)cc(S(=O)(=O)[O-])cc6F)c6ccc3[nH]6)C=C5)C=C4)cc2)cnn1C)[C@]12C[C@H]3C[C@H](C[C@H](C3)C1)C2
REMARK SMILES IDX 12 1 11 2 10 3 8 4 9 5 7 7 6 8 86 9 84 10 85 11 87 12 4 13
REMARK SMILES IDX 3 14 5 16 2 17 1 18 88 19 89 20 96 21 97 22 90 23 94 24
REMARK SMILES IDX 92 25 91 26 95 27 93 28 13 29 14 30 15 31 16 32 17 34 18 35
REMARK SMILES IDX 19 36 83 37 20 38 82 39 21 40 22 41 23 42 76 43 24 44 81 45
REMARK SMILES IDX 75 46 77 47 25 48 80 49 74 50 73 51 26 53 60 54 39 55 59 56
REMARK SMILES IDX 40 57 43 58 58 59 78 60 41 61 42 62 57 64 79 65 44 66 27 67
REMARK SMILES IDX 28 68 37 69 29 70 30 71 36 72 38 73 31 74 32 75 33 76 34 77
REMARK SMILES IDX 35 78 61 79 62 80 71 81 63 82 64 83 70 84 72 85 65 86 66 87
REMARK SMILES IDX 67 88 68 89 69 90 45 91 46 92 55 93 47 94 48 95 54 96 56 97
REMARK SMILES IDX 49 98 50 99 51 100 52 101 53 102
REMARK H PARENT 10 6 3 15 15 33 77 52 43 63
REMARK Flexibility Score: inf
ROOT
ATOM      1  C   UNL A   1      38.423  23.979  26.176  1.00  0.00     0.023 C 
ENDROOT
BRANCH   1   2
ATOM      2  C   UNL A   1      37.184  23.484  25.435  1.00  0.00     0.116 C 
BRANCH   2   3
ATOM      3  N   UNL A   1      36.177  23.113  26.402  1.00  0.00    -0.352 N 
ATOM      4  C   UNL A   1      34.861  23.421  26.585  1.00  0.00     0.255 C 
ATOM      5  O   UNL A   1      34.371  22.973  27.627  1.00  0.00    -0.269 OA
ATOM      6  H   UNL A   1      36.520  22.495  27.088  1.00  0.00     0.163 HD
BRANCH   4   7
ATOM      7  C   UNL A   1      34.002  24.120  25.638  1.00  0.00     0.090 A 
ATOM      8  C   UNL A   1      33.541  23.929  24.335  1.00  0.00     0.138 A 
ATOM      9  N   UNL A   1      32.589  24.910  24.142  1.00  0.00    -0.262 N 
ATOM     10  C   UNL A   1      33.400  25.357  26.014  1.00  0.00     0.149 A 
ATOM     11  N   UNL A   1      32.567  25.846  25.102  1.00  0.00    -0.180 NA
ATOM     12  C   UNL A   1      31.660  25.053  23.042  1.00  0.00     0.174 C 
BRANCH   8  13
ATOM     13  C   UNL A   1      33.759  22.922  23.342  1.00  0.00     0.270 C 
ATOM     14  N   UNL A   1      33.501  21.607  23.603  1.00  0.00    -0.348 N 
ATOM     15  H   UNL A   1      33.548  21.031  22.807  1.00  0.00     0.164 HD
ATOM     16  O   UNL A   1      34.253  23.189  22.243  1.00  0.00    -0.267 OA
BRANCH  14  17
ATOM     17  C   UNL A   1      33.166  20.881  24.838  1.00  0.00     0.085 C 
ATOM     18  C   UNL A   1      31.748  21.303  25.245  1.00  0.00     0.031 C 
BRANCH  17  19
ATOM     19  C   UNL A   1      33.296  19.313  24.663  1.00  0.00    -0.009 C 
ATOM     20  C   UNL A   1      32.738  18.529  25.892  1.00  0.00     0.012 C 
ATOM     21  C   UNL A   1      34.792  18.920  24.524  1.00  0.00     0.012 C 
ATOM     22  C   UNL A   1      32.544  18.793  23.402  1.00  0.00     0.012 C 
ATOM     23  C   UNL A   1      32.905  17.010  25.725  1.00  0.00    -0.010 C 
ATOM     24  C   UNL A   1      34.968  17.402  24.352  1.00  0.00    -0.010 C 
ATOM     25  C   UNL A   1      32.717  17.272  23.233  1.00  0.00    -0.010 C 
ATOM     26  C   UNL A   1      32.151  16.556  24.466  1.00  0.00     0.007 C 
ATOM     27  C   UNL A   1      34.395  16.681  25.580  1.00  0.00     0.007 C 
ATOM     28  C   UNL A   1      34.212  16.946  23.095  1.00  0.00     0.007 C 
ENDBRANCH  17  19
ENDBRANCH  14  17
ENDBRANCH   8  13
ENDBRANCH   4   7
ENDBRANCH   2   3
ENDBRANCH   1   2
BRANCH   1  29
ATOM     29  C   UNL A   1      39.290  22.877  26.785  1.00  0.00     0.023 C 
BRANCH  29  30
ATOM     30  C   UNL A   1      40.734  23.274  27.069  1.00  0.00     0.116 C 
BRANCH  30  31
ATOM     31  N   UNL A   1      41.348  24.035  25.992  1.00  0.00    -0.352 N 
ATOM     32  C   UNL A   1      41.755  25.347  25.987  1.00  0.00     0.251 C 
ATOM     33  H   UNL A   1      41.492  23.543  25.152  1.00  0.00     0.163 HD
ATOM     34  O   UNL A   1      42.169  25.858  24.951  1.00  0.00    -0.269 OA
BRANCH  32  35
ATOM     35  C   UNL A   1      41.648  26.147  27.226  1.00  0.00     0.039 A 
ATOM     36  C   UNL A   1      42.609  27.130  27.475  1.00  0.00     0.014 A 
ATOM     37  C   UNL A   1      40.589  25.951  28.116  1.00  0.00     0.014 A 
ATOM     38  C   UNL A   1      42.464  27.970  28.581  1.00  0.00     0.010 A 
ATOM     39  C   UNL A   1      40.407  26.834  29.175  1.00  0.00     0.010 A 
ATOM     40  C   UNL A   1      41.340  27.854  29.415  1.00  0.00    -0.014 A 
BRANCH  40  41
ATOM     41  C   UNL A   1      41.118  28.788  30.544  1.00  0.00     0.031 A 
ATOM     42  C   UNL A   1      41.975  28.697  31.775  1.00  0.00     0.074 A 
ATOM     43  C   UNL A   1      40.091  29.659  30.494  1.00  0.00     0.049 A 
ATOM     44  N   UNL A   1      41.872  29.350  32.903  1.00  0.00    -0.248 NA
ATOM     45  C   UNL A   1      43.070  27.714  31.747  1.00  0.00     0.031 C 
ATOM     46  C   UNL A   1      39.142  29.792  29.385  1.00  0.00     0.029 A 
ATOM     47  N   UNL A   1      39.667  30.592  31.405  1.00  0.00    -0.354 N 
ATOM     48  C   UNL A   1      42.857  28.828  33.733  1.00  0.00     0.074 A 
ATOM     49  C   UNL A   1      43.529  27.785  32.988  1.00  0.00     0.031 C 
ATOM     50  C   UNL A   1      38.265  30.767  29.671  1.00  0.00     0.029 A 
ATOM     51  C   UNL A   1      38.574  31.313  30.989  1.00  0.00     0.049 A 
ATOM     52  H   UNL A   1      40.104  30.731  32.276  1.00  0.00     0.167 HD
ATOM     53  C   UNL A   1      43.182  29.194  34.996  1.00  0.00     0.037 A 
ATOM     54  C   UNL A   1      37.904  32.310  31.598  1.00  0.00     0.037 A 
ATOM     55  C   UNL A   1      42.552  30.273  35.709  1.00  0.00     0.049 A 
ATOM     56  C   UNL A   1      38.360  32.780  32.949  1.00  0.00     0.074 A 
ATOM     57  C   UNL A   1      42.845  30.762  36.970  1.00  0.00     0.029 A 
ATOM     58  N   UNL A   1      41.516  31.046  35.210  1.00  0.00    -0.354 N 
ATOM     59  N   UNL A   1      39.318  32.299  33.706  1.00  0.00    -0.248 NA
ATOM     60  C   UNL A   1      37.657  33.934  33.523  1.00  0.00     0.031 C 
ATOM     61  C   UNL A   1      41.984  31.834  37.234  1.00  0.00     0.029 A 
ATOM     62  C   UNL A   1      41.166  32.020  36.130  1.00  0.00     0.049 A 
ATOM     63  H   UNL A   1      41.091  30.921  34.332  1.00  0.00     0.167 HD
ATOM     64  C   UNL A   1      39.345  33.104  34.837  1.00  0.00     0.074 A 
ATOM     65  C   UNL A   1      38.314  34.108  34.662  1.00  0.00     0.031 C 
ATOM     66  C   UNL A   1      40.149  33.018  35.925  1.00  0.00     0.037 A 
BRANCH  53  67
ATOM     67  C   UNL A   1      44.275  28.419  35.670  1.00  0.00     0.058 A 
ATOM     68  C   UNL A   1      43.993  27.307  36.478  1.00  0.00     0.135 A 
ATOM     69  C   UNL A   1      45.618  28.799  35.520  1.00  0.00     0.135 A 
ATOM     70  F   UNL A   1      42.723  26.917  36.669  1.00  0.00    -0.206 F 
ATOM     71  C   UNL A   1      45.001  26.622  37.148  1.00  0.00     0.059 A 
ATOM     72  C   UNL A   1      46.645  28.115  36.165  1.00  0.00     0.059 A 
ATOM     73  F   UNL A   1      45.941  29.858  34.760  1.00  0.00    -0.206 F 
ATOM     74  C   UNL A   1      46.323  27.041  36.994  1.00  0.00     0.060 A 
BRANCH  74  75
ATOM     75  S   UNL A   1      47.626  26.166  37.887  1.00  0.00     0.124 S 
ATOM     76  O   UNL A   1      47.387  24.789  37.471  1.00  0.00    -0.237 OA
ATOM     77  O   UNL A   1      48.841  26.783  37.367  1.00  0.00    -0.237 OA
ATOM     78  O   UNL A   1      47.328  26.462  39.285  1.00  0.00    -0.744 OA
ENDBRANCH  74  75
ENDBRANCH  53  67
BRANCH  54  79
ATOM     79  C   UNL A   1      36.769  32.967  30.904  1.00  0.00     0.058 A 
ATOM     80  C   UNL A   1      35.447  32.692  31.284  1.00  0.00     0.135 A 
ATOM     81  C   UNL A   1      36.980  33.894  29.875  1.00  0.00     0.135 A 
ATOM     82  F   UNL A   1      35.202  31.810  32.265  1.00  0.00    -0.206 F 
ATOM     83  C   UNL A   1      34.368  33.308  30.659  1.00  0.00     0.059 A 
ATOM     84  C   UNL A   1      35.917  34.534  29.245  1.00  0.00     0.059 A 
ATOM     85  F   UNL A   1      38.228  34.202  29.492  1.00  0.00    -0.206 F 
ATOM     86  C   UNL A   1      34.614  34.227  29.639  1.00  0.00     0.060 A 
BRANCH  86  87
ATOM     87  S   UNL A   1      33.214  35.072  28.870  1.00  0.00     0.124 S 
ATOM     88  O   UNL A   1      32.707  34.040  27.972  1.00  0.00    -0.237 OA
ATOM     89  O   UNL A   1      32.370  35.390  30.018  1.00  0.00    -0.237 OA
ATOM     90  O   UNL A   1      33.836  36.224  28.226  1.00  0.00    -0.744 OA
ENDBRANCH  86  87
ENDBRANCH  54  79
BRANCH  66  91
ATOM     91  C   UNL A   1      39.964  34.056  36.990  1.00  0.00     0.058 A 
ATOM     92  C   UNL A   1      40.568  35.318  36.894  1.00  0.00     0.135 A 
ATOM     93  C   UNL A   1      39.148  33.795  38.101  1.00  0.00     0.135 A 
ATOM     94  F   UNL A   1      41.362  35.609  35.851  1.00  0.00    -0.206 F 
ATOM     95  C   UNL A   1      40.383  36.286  37.874  1.00  0.00     0.059 A 
ATOM     96  C   UNL A   1      38.937  34.753  39.087  1.00  0.00     0.059 A 
ATOM     97  F   UNL A   1      38.546  32.603  38.233  1.00  0.00    -0.206 F 
ATOM     98  C   UNL A   1      39.569  35.991  38.970  1.00  0.00     0.060 A 
BRANCH  98  99
ATOM     99  S   UNL A   1      39.306  37.258  40.230  1.00  0.00     0.124 S 
ATOM    100  O   UNL A   1      40.676  37.645  40.546  1.00  0.00    -0.237 OA
ATOM    101  O   UNL A   1      38.513  38.257  39.519  1.00  0.00    -0.237 OA
ATOM    102  O   UNL A   1      38.594  36.539  41.283  1.00  0.00    -0.744 OA
ENDBRANCH  98  99
ENDBRANCH  66  91
ENDBRANCH  40  41
ENDBRANCH  32  35
ENDBRANCH  30  31
ENDBRANCH  29  30
ENDBRANCH   1  29
TORSDOF 17
ENDMDL
MODEL 3
REMARK VINA RESULT:     -12.5      1.177      2.298
REMARK SMILES C[C@H](NC(=O)c1c(C(=O)NCCCCNC(=O)c2ccc(-c3c4nc(c(-c5c(F)cc(S(=O)(=O)[O-])cc5F)c5ccc([nH]5)c(-c5c(F)cc(S(=O)(=O)[O-])cc5F)c5nc(c(-c6c(F)cc(S(=O)(=O)[O-])cc6F)c6ccc3[nH]6)C=C5)C=C4)cc2)cnn1C)[C@]12C[C@H]3C[C@H](C[C@H](C3)C1)C2
REMARK SMILES IDX 12 1 11 2 10 3 8 4 9 5 7 7 6 8 86 9 84 10 85 11 87 12 4 13
REMARK SMILES IDX 3 14 5 16 2 17 1 18 88 19 89 20 96 21 97 22 90 23 94 24
REMARK SMILES IDX 92 25 91 26 95 27 93 28 13 29 14 30 15 31 16 32 17 34 18 35
REMARK SMILES IDX 19 36 83 37 20 38 82 39 21 40 22 41 23 42 76 43 24 44 81 45
REMARK SMILES IDX 75 46 77 47 25 48 80 49 74 50 73 51 26 53 60 54 39 55 59 56
REMARK SMILES IDX 40 57 43 58 58 59 78 60 41 61 42 62 57 64 79 65 44 66 27 67
REMARK SMILES IDX 28 68 37 69 29 70 30 71 36 72 38 73 31 74 32 75 33 76 34 77
REMARK SMILES IDX 35 78 61 79 62 80 71 81 63 82 64 83 70 84 72 85 65 86 66 87
REMARK SMILES IDX 67 88 68 89 69 90 45 91 46 92 55 93 47 94 48 95 54 96 56 97
REMARK SMILES IDX 49 98 50 99 51 100 52 101 53 102
REMARK H PARENT 10 6 3 15 15 33 77 52 43 63
REMARK Flexibility Score: inf
ROOT
ATOM      1  C   UNL A   1      38.210  23.839  26.179  1.00  0.00     0.023 C 
ENDROOT
BRANCH   1   2
ATOM      2  C   UNL A   1      36.887  23.322  25.620  1.00  0.00     0.116 C 
BRANCH   2   3
ATOM      3  N   UNL A   1      35.973  23.094  26.714  1.00  0.00    -0.352 N 
ATOM      4  C   UNL A   1      34.776  22.454  26.849  1.00  0.00     0.255 C 
ATOM      5  O   UNL A   1      34.247  22.586  27.958  1.00  0.00    -0.269 OA
ATOM      6  H   UNL A   1      36.287  23.492  27.559  1.00  0.00     0.163 HD
BRANCH   4   7
ATOM      7  C   UNL A   1      34.150  21.584  25.862  1.00  0.00     0.090 A 
ATOM      8  C   UNL A   1      32.932  21.507  25.186  1.00  0.00     0.138 A 
ATOM      9  N   UNL A   1      33.107  20.516  24.239  1.00  0.00    -0.262 N 
ATOM     10  C   UNL A   1      34.868  20.457  25.362  1.00  0.00     0.149 A 
ATOM     11  N   UNL A   1      34.228  19.799  24.401  1.00  0.00    -0.180 NA
ATOM     12  C   UNL A   1      32.232  20.159  23.144  1.00  0.00     0.174 C 
BRANCH   8  13
ATOM     13  C   UNL A   1      31.731  22.285  25.210  1.00  0.00     0.270 C 
ATOM     14  N   UNL A   1      31.679  23.517  24.624  1.00  0.00    -0.348 N 
ATOM     15  H   UNL A   1      30.770  23.891  24.577  1.00  0.00     0.164 HD
ATOM     16  O   UNL A   1      30.726  21.909  25.819  1.00  0.00    -0.267 OA
BRANCH  14  17
ATOM     17  C   UNL A   1      32.710  24.396  24.051  1.00  0.00     0.085 C 
ATOM     18  C   UNL A   1      32.534  24.370  22.526  1.00  0.00     0.031 C 
BRANCH  17  19
ATOM     19  C   UNL A   1      32.637  25.864  24.636  1.00  0.00    -0.009 C 
ATOM     20  C   UNL A   1      32.853  26.953  23.539  1.00  0.00     0.012 C 
ATOM     21  C   UNL A   1      33.754  26.067  25.694  1.00  0.00     0.012 C 
ATOM     22  C   UNL A   1      31.269  26.163  25.320  1.00  0.00     0.012 C 
ATOM     23  C   UNL A   1      32.817  28.373  24.128  1.00  0.00    -0.010 C 
ATOM     24  C   UNL A   1      33.723  27.484  26.292  1.00  0.00    -0.010 C 
ATOM     25  C   UNL A   1      31.236  27.582  25.915  1.00  0.00    -0.010 C 
ATOM     26  C   UNL A   1      31.452  28.607  24.794  1.00  0.00     0.007 C 
ATOM     27  C   UNL A   1      33.930  28.513  25.173  1.00  0.00     0.007 C 
ATOM     28  C   UNL A   1      32.358  27.721  26.956  1.00  0.00     0.007 C 
ENDBRANCH  17  19
ENDBRANCH  14  17
ENDBRANCH   8  13
ENDBRANCH   4   7
ENDBRANCH   2   3
ENDBRANCH   1   2
BRANCH   1  29
ATOM     29  C   UNL A   1      39.197  22.750  26.600  1.00  0.00     0.023 C 
BRANCH  29  30
ATOM     30  C   UNL A   1      40.551  23.258  27.081  1.00  0.00     0.116 C 
BRANCH  30  31
ATOM     31  N   UNL A   1      41.304  23.962  26.055  1.00  0.00    -0.352 N 
ATOM     32  C   UNL A   1      41.818  25.236  26.085  1.00  0.00     0.251 C 
ATOM     33  H   UNL A   1      41.467  23.458  25.226  1.00  0.00     0.163 HD
ATOM     34  O   UNL A   1      42.348  25.708  25.083  1.00  0.00    -0.269 OA
BRANCH  32  35
ATOM     35  C   UNL A   1      41.688  26.044  27.315  1.00  0.00     0.039 A 
ATOM     36  C   UNL A   1      42.687  26.974  27.617  1.00  0.00     0.014 A 
ATOM     37  C   UNL A   1      40.573  25.911  28.147  1.00  0.00     0.014 A 
ATOM     38  C   UNL A   1      42.528  27.825  28.712  1.00  0.00     0.010 A 
ATOM     39  C   UNL A   1      40.383  26.806  29.194  1.00  0.00     0.010 A 
ATOM     40  C   UNL A   1      41.356  27.773  29.484  1.00  0.00    -0.014 A 
BRANCH  40  41
ATOM     41  C   UNL A   1      41.125  28.722  30.599  1.00  0.00     0.031 A 
ATOM     42  C   UNL A   1      41.964  28.640  31.843  1.00  0.00     0.074 A 
ATOM     43  C   UNL A   1      40.104  29.600  30.524  1.00  0.00     0.049 A 
ATOM     44  N   UNL A   1      41.850  29.307  32.961  1.00  0.00    -0.248 NA
ATOM     45  C   UNL A   1      43.052  27.650  31.842  1.00  0.00     0.031 C 
ATOM     46  C   UNL A   1      39.173  29.726  29.400  1.00  0.00     0.029 A 
ATOM     47  N   UNL A   1      39.674  30.546  31.418  1.00  0.00    -0.354 N 
ATOM     48  C   UNL A   1      42.819  28.788  33.811  1.00  0.00     0.074 A 
ATOM     49  C   UNL A   1      43.495  27.732  33.088  1.00  0.00     0.031 C 
ATOM     50  C   UNL A   1      38.298  30.710  29.662  1.00  0.00     0.029 A 
ATOM     51  C   UNL A   1      38.592  31.270  30.978  1.00  0.00     0.049 A 
ATOM     52  H   UNL A   1      40.100  30.692  32.293  1.00  0.00     0.167 HD
ATOM     53  C   UNL A   1      43.129  29.167  35.074  1.00  0.00     0.037 A 
ATOM     54  C   UNL A   1      37.921  32.278  31.566  1.00  0.00     0.037 A 
ATOM     55  C   UNL A   1      42.497  30.259  35.766  1.00  0.00     0.049 A 
ATOM     56  C   UNL A   1      38.361  32.761  32.917  1.00  0.00     0.074 A 
ATOM     57  C   UNL A   1      42.776  30.760  37.025  1.00  0.00     0.029 A 
ATOM     58  N   UNL A   1      41.473  31.033  35.243  1.00  0.00    -0.354 N 
ATOM     59  N   UNL A   1      39.306  32.283  33.693  1.00  0.00    -0.248 NA
ATOM     60  C   UNL A   1      37.658  33.927  33.468  1.00  0.00     0.031 C 
ATOM     61  C   UNL A   1      41.918  31.842  37.264  1.00  0.00     0.029 A 
ATOM     62  C   UNL A   1      41.118  32.019  36.147  1.00  0.00     0.049 A 
ATOM     63  H   UNL A   1      41.060  30.900  34.360  1.00  0.00     0.167 HD
ATOM     64  C   UNL A   1      39.322  33.101  34.815  1.00  0.00     0.074 A 
ATOM     65  C   UNL A   1      38.301  34.109  34.614  1.00  0.00     0.031 C 
ATOM     66  C   UNL A   1      40.110  33.023  35.916  1.00  0.00     0.037 A 
BRANCH  53  67
ATOM     67  C   UNL A   1      44.208  28.393  35.772  1.00  0.00     0.058 A 
ATOM     68  C   UNL A   1      43.908  27.279  36.572  1.00  0.00     0.135 A 
ATOM     69  C   UNL A   1      45.553  28.775  35.655  1.00  0.00     0.135 A 
ATOM     70  F   UNL A   1      42.635  26.887  36.733  1.00  0.00    -0.206 F 
ATOM     71  C   UNL A   1      44.901  26.594  37.265  1.00  0.00     0.059 A 
ATOM     72  C   UNL A   1      46.565  28.092  36.322  1.00  0.00     0.059 A 
ATOM     73  F   UNL A   1      45.892  29.835  34.904  1.00  0.00    -0.206 F 
ATOM     74  C   UNL A   1      46.226  27.015  37.142  1.00  0.00     0.060 A 
BRANCH  74  75
ATOM     75  S   UNL A   1      47.509  26.142  38.064  1.00  0.00     0.124 S 
ATOM     76  O   UNL A   1      47.737  24.980  37.212  1.00  0.00    -0.237 OA
ATOM     77  O   UNL A   1      48.593  27.117  38.108  1.00  0.00    -0.237 OA
ATOM     78  O   UNL A   1      46.868  25.866  39.347  1.00  0.00    -0.744 OA
ENDBRANCH  74  75
ENDBRANCH  53  67
BRANCH  54  79
ATOM     79  C   UNL A   1      36.801  32.935  30.849  1.00  0.00     0.058 A 
ATOM     80  C   UNL A   1      37.050  33.952  29.916  1.00  0.00     0.135 A 
ATOM     81  C   UNL A   1      35.470  32.545  31.059  1.00  0.00     0.135 A 
ATOM     82  F   UNL A   1      38.309  34.354  29.686  1.00  0.00    -0.206 F 
ATOM     83  C   UNL A   1      36.017  34.570  29.220  1.00  0.00     0.059 A 
ATOM     84  C   UNL A   1      34.421  33.139  30.364  1.00  0.00     0.059 A 
ATOM     85  F   UNL A   1      35.186  31.564  31.928  1.00  0.00    -0.206 F 
ATOM     86  C   UNL A   1      34.704  34.158  29.453  1.00  0.00     0.060 A 
BRANCH  86  87
ATOM     87  S   UNL A   1      33.370  34.920  28.504  1.00  0.00     0.124 S 
ATOM     88  O   UNL A   1      32.473  35.363  29.565  1.00  0.00    -0.237 OA
ATOM     89  O   UNL A   1      34.066  35.975  27.773  1.00  0.00    -0.237 OA
ATOM     90  O   UNL A   1      32.881  33.819  27.678  1.00  0.00    -0.744 OA
ENDBRANCH  86  87
ENDBRANCH  54  79
BRANCH  66  91
ATOM     91  C   UNL A   1      39.918  34.074  36.966  1.00  0.00     0.058 A 
ATOM     92  C   UNL A   1      38.972  33.919  37.990  1.00  0.00     0.135 A 
ATOM     93  C   UNL A   1      40.711  35.231  36.965  1.00  0.00     0.135 A 
ATOM     94  F   UNL A   1      38.187  32.831  38.025  1.00  0.00    -0.206 F 
ATOM     95  C   UNL A   1      38.805  34.887  38.973  1.00  0.00     0.059 A 
ATOM     96  C   UNL A   1      40.571  36.206  37.947  1.00  0.00     0.059 A 
ATOM     97  F   UNL A   1      41.633  35.419  36.008  1.00  0.00    -0.206 F 
ATOM     98  C   UNL A   1      39.608  36.030  38.940  1.00  0.00     0.060 A 
BRANCH  98  99
ATOM     99  S   UNL A   1      39.411  37.275  40.233  1.00  0.00     0.124 S 
ATOM    100  O   UNL A   1      40.788  37.716  40.427  1.00  0.00    -0.237 OA
ATOM    101  O   UNL A   1      38.517  38.246  39.610  1.00  0.00    -0.237 OA
ATOM    102  O   UNL A   1      38.829  36.520  41.339  1.00  0.00    -0.744 OA
ENDBRANCH  98  99
ENDBRANCH  66  91
ENDBRANCH  40  41
ENDBRANCH  32  35
ENDBRANCH  30  31
ENDBRANCH  29  30
ENDBRANCH   1  29
TORSDOF 17
ENDMDL
