MODEL 1
REMARK VINA RESULT:     -12.0      0.000      0.000
REMARK SMILES Cc1ccc(C(=O)N[C@@H](CC(=O)NCCCCNC(=O)c2ccc(-c3c4nc(c(-c5c(F)cc(S(=O)(=O)[O-])cc5F)c5ccc([nH]5)c(-c5c(F)cc(S(=O)(=O)[O-])cc5F)c5nc(c(-c6c(F)cc(S(=O)(=O)[O-])cc6F)c6ccc3[nH]6)C=C5)C=C4)cc2)c2cccs2)o1
REMARK SMILES IDX 15 1 14 2 13 3 11 4 12 5 10 7 9 8 8 9 6 10 7 11 5 13 1 14
REMARK SMILES IDX 2 15 3 16 92 17 4 18 87 19 88 20 91 21 89 22 90 23 16 24
REMARK SMILES IDX 17 25 18 26 19 27 20 29 21 30 22 31 86 32 23 33 85 34 24 35
REMARK SMILES IDX 25 36 26 37 79 38 27 39 84 40 78 41 80 42 28 43 83 44 77 45
REMARK SMILES IDX 76 46 29 48 63 49 42 50 62 51 43 52 46 53 61 54 81 55 44 56
REMARK SMILES IDX 45 57 60 59 82 60 47 61 30 62 31 63 40 64 32 65 33 66 39 67
REMARK SMILES IDX 41 68 34 69 35 70 36 71 37 72 38 73 64 74 65 75 74 76 66 77
REMARK SMILES IDX 67 78 73 79 75 80 68 81 69 82 70 83 71 84 72 85 48 86 49 87
REMARK SMILES IDX 58 88 50 89 51 90 57 91 59 92 52 93 53 94 54 95 55 96 56 97
REMARK H PARENT 13 6 8 12 18 28 80 47 46 58
REMARK Flexibility Score: inf
ROOT
ATOM      1  C   UNL A   1      33.601  30.279  26.922  1.00  0.00     0.023 C 
ENDROOT
BRANCH   1   2
ATOM      2  C   UNL A   1      32.603  29.931  25.819  1.00  0.00     0.116 C 
BRANCH   2   3
ATOM      3  N   UNL A   1      33.277  29.678  24.561  1.00  0.00    -0.356 N 
ATOM      4  C   UNL A   1      33.229  28.585  23.752  1.00  0.00     0.222 C 
ATOM      5  O   UNL A   1      33.900  28.591  22.719  1.00  0.00    -0.275 OA
ATOM      6  H   UNL A   1      33.857  30.407  24.243  1.00  0.00     0.163 HD
BRANCH   4   7
ATOM      7  C   UNL A   1      32.327  27.413  24.077  1.00  0.00     0.130 C 
BRANCH   7   8
ATOM      8  C   UNL A   1      31.259  27.034  23.045  1.00  0.00     0.132 C 
BRANCH   8   9
ATOM      9  N   UNL A   1      31.806  26.582  21.781  1.00  0.00    -0.341 N 
ATOM     10  C   UNL A   1      32.688  25.622  21.378  1.00  0.00     0.287 C 
ATOM     11  O   UNL A   1      33.124  25.775  20.233  1.00  0.00    -0.266 OA
ATOM     12  H   UNL A   1      31.452  27.098  21.020  1.00  0.00     0.164 HD
BRANCH  10  13
ATOM     13  C   UNL A   1      33.037  24.478  22.193  1.00  0.00     0.191 A 
ATOM     14  C   UNL A   1      35.952  22.954  23.617  1.00  0.00     0.087 C 
ATOM     15  C   UNL A   1      34.562  23.234  23.213  1.00  0.00     0.101 A 
ATOM     16  C   UNL A   1      33.381  22.535  23.293  1.00  0.00     0.046 A 
ATOM     17  O   UNL A   1      34.355  24.417  22.585  1.00  0.00    -0.456 OA
ATOM     18  C   UNL A   1      32.406  23.329  22.634  1.00  0.00     0.056 A 
ENDBRANCH  10  13
ENDBRANCH   8   9
BRANCH   8  19
ATOM     19  C   UNL A   1      30.230  28.103  22.756  1.00  0.00     0.027 A 
ATOM     20  C   UNL A   1      30.428  29.309  22.106  1.00  0.00     0.017 A 
ATOM     21  S   UNL A   1      28.600  27.965  23.294  1.00  0.00    -0.147 S 
ATOM     22  C   UNL A   1      29.258  30.124  22.091  1.00  0.00     0.012 A 
ATOM     23  C   UNL A   1      28.193  29.513  22.712  1.00  0.00     0.065 A 
ENDBRANCH   8  19
ENDBRANCH   7   8
ENDBRANCH   4   7
ENDBRANCH   2   3
ENDBRANCH   1   2
BRANCH   1  24
ATOM     24  C   UNL A   1      34.510  29.139  27.355  1.00  0.00     0.023 C 
BRANCH  24  25
ATOM     25  C   UNL A   1      35.772  29.590  28.062  1.00  0.00     0.116 C 
BRANCH  25  26
ATOM     26  N   UNL A   1      35.551  29.935  29.459  1.00  0.00    -0.352 N 
ATOM     27  C   UNL A   1      36.477  30.011  30.475  1.00  0.00     0.251 C 
ATOM     28  H   UNL A   1      34.620  30.141  29.710  1.00  0.00     0.163 HD
ATOM     29  O   UNL A   1      36.130  30.184  31.633  1.00  0.00    -0.269 OA
BRANCH  27  30
ATOM     30  C   UNL A   1      37.901  29.836  30.129  1.00  0.00     0.039 A 
ATOM     31  C   UNL A   1      38.753  29.223  31.047  1.00  0.00     0.014 A 
ATOM     32  C   UNL A   1      38.354  30.187  28.855  1.00  0.00     0.014 A 
ATOM     33  C   UNL A   1      40.050  28.894  30.655  1.00  0.00     0.010 A 
ATOM     34  C   UNL A   1      39.602  29.753  28.433  1.00  0.00     0.010 A 
ATOM     35  C   UNL A   1      40.469  29.117  29.332  1.00  0.00    -0.014 A 
BRANCH  35  36
ATOM     36  C   UNL A   1      41.819  28.715  28.868  1.00  0.00     0.031 A 
ATOM     37  C   UNL A   1      42.910  29.746  28.779  1.00  0.00     0.074 A 
ATOM     38  C   UNL A   1      42.040  27.448  28.462  1.00  0.00     0.049 A 
ATOM     39  N   UNL A   1      44.133  29.619  28.334  1.00  0.00    -0.248 NA
ATOM     40  C   UNL A   1      42.570  31.113  29.210  1.00  0.00     0.031 C 
ATOM     41  C   UNL A   1      41.041  26.377  28.443  1.00  0.00     0.029 A 
ATOM     42  N   UNL A   1      43.176  26.849  27.980  1.00  0.00    -0.354 N 
ATOM     43  C   UNL A   1      44.697  30.886  28.416  1.00  0.00     0.074 A 
ATOM     44  C   UNL A   1      43.662  31.783  28.881  1.00  0.00     0.031 C 
ATOM     45  C   UNL A   1      41.616  25.247  28.003  1.00  0.00     0.029 A 
ATOM     46  C   UNL A   1      43.011  25.520  27.670  1.00  0.00     0.049 A 
ATOM     47  H   UNL A   1      44.029  27.326  27.866  1.00  0.00     0.167 HD
ATOM     48  C   UNL A   1      45.970  31.265  28.161  1.00  0.00     0.037 A 
ATOM     49  C   UNL A   1      43.883  24.625  27.168  1.00  0.00     0.037 A 
ATOM     50  C   UNL A   1      46.998  30.357  27.723  1.00  0.00     0.049 A 
ATOM     51  C   UNL A   1      45.296  25.063  26.894  1.00  0.00     0.074 A 
ATOM     52  C   UNL A   1      48.336  30.619  27.494  1.00  0.00     0.029 A 
ATOM     53  N   UNL A   1      46.799  29.012  27.444  1.00  0.00    -0.354 N 
ATOM     54  N   UNL A   1      45.836  26.250  27.048  1.00  0.00    -0.248 NA
ATOM     55  C   UNL A   1      46.223  24.042  26.388  1.00  0.00     0.031 C 
ATOM     56  C   UNL A   1      48.935  29.445  27.025  1.00  0.00     0.029 A 
ATOM     57  C   UNL A   1      47.984  28.436  27.021  1.00  0.00     0.049 A 
ATOM     58  H   UNL A   1      45.940  28.538  27.535  1.00  0.00     0.167 HD
ATOM     59  C   UNL A   1      47.170  26.112  26.684  1.00  0.00     0.074 A 
ATOM     60  C   UNL A   1      47.358  24.724  26.313  1.00  0.00     0.031 C 
ATOM     61  C   UNL A   1      48.152  27.049  26.658  1.00  0.00     0.037 A 
BRANCH  48  62
ATOM     62  C   UNL A   1      46.315  32.718  28.351  1.00  0.00     0.058 A 
ATOM     63  C   UNL A   1      46.217  33.646  27.300  1.00  0.00     0.135 A 
ATOM     64  C   UNL A   1      46.747  33.192  29.600  1.00  0.00     0.135 A 
ATOM     65  F   UNL A   1      45.826  33.247  26.079  1.00  0.00    -0.206 F 
ATOM     66  C   UNL A   1      46.579  34.979  27.468  1.00  0.00     0.059 A 
ATOM     67  C   UNL A   1      47.079  34.529  29.800  1.00  0.00     0.059 A 
ATOM     68  F   UNL A   1      46.860  32.352  30.640  1.00  0.00    -0.206 F 
ATOM     69  C   UNL A   1      47.013  35.410  28.722  1.00  0.00     0.060 A 
BRANCH  69  70
ATOM     70  S   UNL A   1      47.491  37.139  28.919  1.00  0.00     0.124 S 
ATOM     71  O   UNL A   1      48.471  37.048  29.997  1.00  0.00    -0.237 OA
ATOM     72  O   UNL A   1      48.028  37.466  27.601  1.00  0.00    -0.237 OA
ATOM     73  O   UNL A   1      46.237  37.801  29.264  1.00  0.00    -0.744 OA
ENDBRANCH  69  70
ENDBRANCH  48  62
BRANCH  49  74
ATOM     74  C   UNL A   1      43.447  23.223  26.925  1.00  0.00     0.058 A 
ATOM     75  C   UNL A   1      43.273  22.735  25.621  1.00  0.00     0.135 A 
ATOM     76  C   UNL A   1      43.233  22.332  27.988  1.00  0.00     0.135 A 
ATOM     77  F   UNL A   1      43.460  23.548  24.571  1.00  0.00    -0.206 F 
ATOM     78  C   UNL A   1      42.896  21.418  25.379  1.00  0.00     0.059 A 
ATOM     79  C   UNL A   1      42.882  21.004  27.772  1.00  0.00     0.059 A 
ATOM     80  F   UNL A   1      43.402  22.743  29.255  1.00  0.00    -0.206 F 
ATOM     81  C   UNL A   1      42.710  20.557  26.462  1.00  0.00     0.060 A 
BRANCH  81  82
ATOM     82  S   UNL A   1      42.285  18.832  26.132  1.00  0.00     0.124 S 
ATOM     83  O   UNL A   1      42.483  18.223  27.441  1.00  0.00    -0.237 OA
ATOM     84  O   UNL A   1      40.902  18.940  25.679  1.00  0.00    -0.237 OA
ATOM     85  O   UNL A   1      43.245  18.442  25.102  1.00  0.00    -0.744 OA
ENDBRANCH  81  82
ENDBRANCH  49  74
BRANCH  61  86
ATOM     86  C   UNL A   1      49.528  26.601  26.249  1.00  0.00     0.058 A 
ATOM     87  C   UNL A   1      50.018  26.807  24.950  1.00  0.00     0.135 A 
ATOM     88  C   UNL A   1      50.389  26.011  27.190  1.00  0.00     0.135 A 
ATOM     89  F   UNL A   1      49.235  27.360  24.011  1.00  0.00    -0.206 F 
ATOM     90  C   UNL A   1      51.306  26.423  24.591  1.00  0.00     0.059 A 
ATOM     91  C   UNL A   1      51.691  25.649  26.861  1.00  0.00     0.059 A 
ATOM     92  F   UNL A   1      49.975  25.803  28.450  1.00  0.00    -0.206 F 
ATOM     93  C   UNL A   1      52.136  25.849  25.556  1.00  0.00     0.060 A 
BRANCH  93  94
ATOM     94  S   UNL A   1      53.817  25.390  25.086  1.00  0.00     0.124 S 
ATOM     95  O   UNL A   1      53.859  25.814  23.690  1.00  0.00    -0.237 OA
ATOM     96  O   UNL A   1      54.626  26.177  26.012  1.00  0.00    -0.237 OA
ATOM     97  O   UNL A   1      53.851  23.946  25.304  1.00  0.00    -0.744 OA
ENDBRANCH  93  94
ENDBRANCH  61  86
ENDBRANCH  35  36
ENDBRANCH  27  30
ENDBRANCH  25  26
ENDBRANCH  24  25
ENDBRANCH   1  24
TORSDOF 18
ENDMDL
MODEL 2
REMARK VINA RESULT:     -11.9      3.229      4.187
REMARK SMILES Cc1ccc(C(=O)N[C@@H](CC(=O)NCCCCNC(=O)c2ccc(-c3c4nc(c(-c5c(F)cc(S(=O)(=O)[O-])cc5F)c5ccc([nH]5)c(-c5c(F)cc(S(=O)(=O)[O-])cc5F)c5nc(c(-c6c(F)cc(S(=O)(=O)[O-])cc6F)c6ccc3[nH]6)C=C5)C=C4)cc2)c2cccs2)o1
REMARK SMILES IDX 15 1 14 2 13 3 11 4 12 5 10 7 9 8 8 9 6 10 7 11 5 13 1 14
REMARK SMILES IDX 2 15 3 16 92 17 4 18 87 19 88 20 91 21 89 22 90 23 16 24
REMARK SMILES IDX 17 25 18 26 19 27 20 29 21 30 22 31 86 32 23 33 85 34 24 35
REMARK SMILES IDX 25 36 26 37 79 38 27 39 84 40 78 41 80 42 28 43 83 44 77 45
REMARK SMILES IDX 76 46 29 48 63 49 42 50 62 51 43 52 46 53 61 54 81 55 44 56
REMARK SMILES IDX 45 57 60 59 82 60 47 61 30 62 31 63 40 64 32 65 33 66 39 67
REMARK SMILES IDX 41 68 34 69 35 70 36 71 37 72 38 73 64 74 65 75 74 76 66 77
REMARK SMILES IDX 67 78 73 79 75 80 68 81 69 82 70 83 71 84 72 85 48 86 49 87
REMARK SMILES IDX 58 88 50 89 51 90 57 91 59 92 52 93 53 94 54 95 55 96 56 97
REMARK H PARENT 13 6 8 12 18 28 80 47 46 58
REMARK Flexibility Score: inf
ROOT
ATOM      1  C   UNL A   1      31.274  27.759  26.289  1.00  0.00     0.023 C 
ENDROOT
BRANCH   1   2
ATOM      2  C   UNL A   1      30.795  26.372  25.863  1.00  0.00     0.116 C 
BRANCH   2   3
ATOM      3  N   UNL A   1      31.255  25.351  26.784  1.00  0.00    -0.356 N 
ATOM      4  C   UNL A   1      31.366  24.007  26.609  1.00  0.00     0.222 C 
ATOM      5  O   UNL A   1      31.781  23.326  27.548  1.00  0.00    -0.275 OA
ATOM      6  H   UNL A   1      31.527  25.680  27.671  1.00  0.00     0.163 HD
BRANCH   4   7
ATOM      7  C   UNL A   1      31.048  23.366  25.274  1.00  0.00     0.130 C 
BRANCH   7   8
ATOM      8  C   UNL A   1      32.211  23.147  24.299  1.00  0.00     0.132 C 
BRANCH   8   9
ATOM      9  N   UNL A   1      33.364  22.507  24.904  1.00  0.00    -0.341 N 
ATOM     10  C   UNL A   1      33.780  21.225  25.114  1.00  0.00     0.287 C 
ATOM     11  O   UNL A   1      34.679  21.110  25.953  1.00  0.00    -0.266 OA
ATOM     12  H   UNL A   1      34.011  23.165  25.249  1.00  0.00     0.164 HD
BRANCH  10  13
ATOM     13  C   UNL A   1      33.262  20.096  24.372  1.00  0.00     0.191 A 
ATOM     14  C   UNL A   1      34.112  16.680  23.694  1.00  0.00     0.087 C 
ATOM     15  C   UNL A   1      33.436  17.990  23.701  1.00  0.00     0.101 A 
ATOM     16  C   UNL A   1      32.395  18.535  22.988  1.00  0.00     0.046 A 
ATOM     17  O   UNL A   1      33.939  18.911  24.558  1.00  0.00    -0.456 OA
ATOM     18  C   UNL A   1      32.288  19.885  23.413  1.00  0.00     0.056 A 
ENDBRANCH  10  13
ENDBRANCH   8   9
BRANCH   8  19
ATOM     19  C   UNL A   1      32.687  24.383  23.572  1.00  0.00     0.027 A 
ATOM     20  C   UNL A   1      33.873  25.068  23.762  1.00  0.00     0.017 A 
ATOM     21  S   UNL A   1      31.715  25.171  22.388  1.00  0.00    -0.147 S 
ATOM     22  C   UNL A   1      33.959  26.251  22.971  1.00  0.00     0.012 A 
ATOM     23  C   UNL A   1      32.845  26.429  22.184  1.00  0.00     0.065 A 
ENDBRANCH   8  19
ENDBRANCH   7   8
ENDBRANCH   4   7
ENDBRANCH   2   3
ENDBRANCH   1   2
BRANCH   1  24
ATOM     24  C   UNL A   1      32.744  28.044  26.027  1.00  0.00     0.023 C 
BRANCH  24  25
ATOM     25  C   UNL A   1      33.538  28.389  27.270  1.00  0.00     0.116 C 
BRANCH  25  26
ATOM     26  N   UNL A   1      33.470  29.803  27.616  1.00  0.00    -0.352 N 
ATOM     27  C   UNL A   1      34.460  30.597  28.149  1.00  0.00     0.251 C 
ATOM     28  H   UNL A   1      32.607  30.246  27.445  1.00  0.00     0.163 HD
ATOM     29  O   UNL A   1      34.223  31.738  28.514  1.00  0.00    -0.269 OA
BRANCH  27  30
ATOM     30  C   UNL A   1      35.807  30.016  28.306  1.00  0.00     0.039 A 
ATOM     31  C   UNL A   1      36.713  30.106  27.251  1.00  0.00     0.014 A 
ATOM     32  C   UNL A   1      36.192  29.481  29.538  1.00  0.00     0.014 A 
ATOM     33  C   UNL A   1      38.038  29.721  27.457  1.00  0.00     0.010 A 
ATOM     34  C   UNL A   1      37.532  29.211  29.774  1.00  0.00     0.010 A 
ATOM     35  C   UNL A   1      38.466  29.314  28.732  1.00  0.00    -0.014 A 
BRANCH  35  36
ATOM     36  C   UNL A   1      39.882  28.965  28.999  1.00  0.00     0.031 A 
ATOM     37  C   UNL A   1      40.805  30.002  29.579  1.00  0.00     0.074 A 
ATOM     38  C   UNL A   1      40.351  27.748  28.656  1.00  0.00     0.049 A 
ATOM     39  N   UNL A   1      42.088  29.924  29.821  1.00  0.00    -0.248 NA
ATOM     40  C   UNL A   1      40.216  31.315  29.891  1.00  0.00     0.031 C 
ATOM     41  C   UNL A   1      39.565  26.683  28.028  1.00  0.00     0.029 A 
ATOM     42  N   UNL A   1      41.604  27.205  28.779  1.00  0.00    -0.354 N 
ATOM     43  C   UNL A   1      42.458  31.177  30.294  1.00  0.00     0.074 A 
ATOM     44  C   UNL A   1      41.284  32.018  30.235  1.00  0.00     0.031 C 
ATOM     45  C   UNL A   1      40.346  25.606  27.850  1.00  0.00     0.029 A 
ATOM     46  C   UNL A   1      41.696  25.915  28.311  1.00  0.00     0.049 A 
ATOM     47  H   UNL A   1      42.367  27.692  29.165  1.00  0.00     0.167 HD
ATOM     48  C   UNL A   1      43.658  31.582  30.769  1.00  0.00     0.037 A 
ATOM     49  C   UNL A   1      42.751  25.079  28.256  1.00  0.00     0.037 A 
ATOM     50  C   UNL A   1      44.813  30.727  30.847  1.00  0.00     0.049 A 
ATOM     51  C   UNL A   1      44.077  25.546  28.792  1.00  0.00     0.074 A 
ATOM     52  C   UNL A   1      46.062  31.014  31.367  1.00  0.00     0.029 A 
ATOM     53  N   UNL A   1      44.861  29.418  30.388  1.00  0.00    -0.354 N 
ATOM     54  N   UNL A   1      44.393  26.711  29.308  1.00  0.00    -0.248 NA
ATOM     55  C   UNL A   1      45.187  24.585  28.750  1.00  0.00     0.031 C 
ATOM     56  C   UNL A   1      46.881  29.896  31.173  1.00  0.00     0.029 A 
ATOM     57  C   UNL A   1      46.125  28.892  30.588  1.00  0.00     0.049 A 
ATOM     58  H   UNL A   1      44.106  28.936  29.979  1.00  0.00     0.167 HD
ATOM     59  C   UNL A   1      45.731  26.615  29.675  1.00  0.00     0.074 A 
ATOM     60  C   UNL A   1      46.159  25.273  29.333  1.00  0.00     0.031 C 
ATOM     61  C   UNL A   1      46.532  27.550  30.244  1.00  0.00     0.037 A 
BRANCH  48  62
ATOM     62  C   UNL A   1      43.775  33.008  31.237  1.00  0.00     0.058 A 
ATOM     63  C   UNL A   1      44.161  34.044  30.370  1.00  0.00     0.135 A 
ATOM     64  C   UNL A   1      43.495  33.346  32.571  1.00  0.00     0.135 A 
ATOM     65  F   UNL A   1      44.458  33.777  29.087  1.00  0.00    -0.206 F 
ATOM     66  C   UNL A   1      44.311  35.352  30.817  1.00  0.00     0.059 A 
ATOM     67  C   UNL A   1      43.603  34.655  33.032  1.00  0.00     0.059 A 
ATOM     68  F   UNL A   1      43.122  32.399  33.446  1.00  0.00    -0.206 F 
ATOM     69  C   UNL A   1      44.033  35.648  32.152  1.00  0.00     0.060 A 
BRANCH  69  70
ATOM     70  S   UNL A   1      44.245  37.348  32.719  1.00  0.00     0.124 S 
ATOM     71  O   UNL A   1      45.566  37.285  33.337  1.00  0.00    -0.237 OA
ATOM     72  O   UNL A   1      44.164  38.105  31.473  1.00  0.00    -0.237 OA
ATOM     73  O   UNL A   1      43.129  37.541  33.640  1.00  0.00    -0.744 OA
ENDBRANCH  69  70
ENDBRANCH  48  62
BRANCH  49  74
ATOM     74  C   UNL A   1      42.580  23.710  27.700  1.00  0.00     0.058 A 
ATOM     75  C   UNL A   1      42.635  23.478  26.317  1.00  0.00     0.135 A 
ATOM     76  C   UNL A   1      42.399  22.599  28.539  1.00  0.00     0.135 A 
ATOM     77  F   UNL A   1      42.801  24.506  25.472  1.00  0.00    -0.206 F 
ATOM     78  C   UNL A   1      42.508  22.199  25.786  1.00  0.00     0.059 A 
ATOM     79  C   UNL A   1      42.296  21.307  28.034  1.00  0.00     0.059 A 
ATOM     80  F   UNL A   1      42.356  22.763  29.871  1.00  0.00    -0.206 F 
ATOM     81  C   UNL A   1      42.346  21.117  26.654  1.00  0.00     0.060 A 
BRANCH  81  82
ATOM     82  S   UNL A   1      42.249  19.454  25.955  1.00  0.00     0.124 S 
ATOM     83  O   UNL A   1      40.833  19.353  25.630  1.00  0.00    -0.237 OA
ATOM     84  O   UNL A   1      43.162  19.547  24.819  1.00  0.00    -0.237 OA
ATOM     85  O   UNL A   1      42.709  18.603  27.050  1.00  0.00    -0.744 OA
ENDBRANCH  81  82
ENDBRANCH  49  74
BRANCH  61  86
ATOM     86  C   UNL A   1      47.945  27.150  30.567  1.00  0.00     0.058 A 
ATOM     87  C   UNL A   1      49.000  27.361  29.665  1.00  0.00     0.135 A 
ATOM     88  C   UNL A   1      48.256  26.602  31.823  1.00  0.00     0.135 A 
ATOM     89  F   UNL A   1      48.757  27.876  28.449  1.00  0.00    -0.206 F 
ATOM     90  C   UNL A   1      50.310  27.022  29.987  1.00  0.00     0.059 A 
ATOM     91  C   UNL A   1      49.563  26.285  32.178  1.00  0.00     0.059 A 
ATOM     92  F   UNL A   1      47.287  26.390  32.728  1.00  0.00    -0.206 F 
ATOM     93  C   UNL A   1      50.581  26.489  31.249  1.00  0.00     0.060 A 
BRANCH  93  94
ATOM     94  S   UNL A   1      52.290  26.089  31.667  1.00  0.00     0.124 S 
ATOM     95  O   UNL A   1      52.171  24.698  32.094  1.00  0.00    -0.237 OA
ATOM     96  O   UNL A   1      52.981  26.305  30.400  1.00  0.00    -0.237 OA
ATOM     97  O   UNL A   1      52.616  27.044  32.723  1.00  0.00    -0.744 OA
ENDBRANCH  93  94
ENDBRANCH  61  86
ENDBRANCH  35  36
ENDBRANCH  27  30
ENDBRANCH  25  26
ENDBRANCH  24  25
ENDBRANCH   1  24
TORSDOF 18
ENDMDL
MODEL 3
REMARK VINA RESULT:     -11.8      1.383      3.210
REMARK SMILES Cc1ccc(C(=O)N[C@@H](CC(=O)NCCCCNC(=O)c2ccc(-c3c4nc(c(-c5c(F)cc(S(=O)(=O)[O-])cc5F)c5ccc([nH]5)c(-c5c(F)cc(S(=O)(=O)[O-])cc5F)c5nc(c(-c6c(F)cc(S(=O)(=O)[O-])cc6F)c6ccc3[nH]6)C=C5)C=C4)cc2)c2cccs2)o1
REMARK SMILES IDX 15 1 14 2 13 3 11 4 12 5 10 7 9 8 8 9 6 10 7 11 5 13 1 14
REMARK SMILES IDX 2 15 3 16 92 17 4 18 87 19 88 20 91 21 89 22 90 23 16 24
REMARK SMILES IDX 17 25 18 26 19 27 20 29 21 30 22 31 86 32 23 33 85 34 24 35
REMARK SMILES IDX 25 36 26 37 79 38 27 39 84 40 78 41 80 42 28 43 83 44 77 45
REMARK SMILES IDX 76 46 29 48 63 49 42 50 62 51 43 52 46 53 61 54 81 55 44 56
REMARK SMILES IDX 45 57 60 59 82 60 47 61 30 62 31 63 40 64 32 65 33 66 39 67
REMARK SMILES IDX 41 68 34 69 35 70 36 71 37 72 38 73 64 74 65 75 74 76 66 77
REMARK SMILES IDX 67 78 73 79 75 80 68 81 69 82 70 83 71 84 72 85 48 86 49 87
REMARK SMILES IDX 58 88 50 89 51 90 57 91 59 92 52 93 53 94 54 95 55 96 56 97
REMARK H PARENT 13 6 8 12 18 28 80 47 46 58
REMARK Flexibility Score: inf
ROOT
ATOM      1  C   UNL A   1      33.315  30.170  27.551  1.00  0.00     0.023 C 
ENDROOT
BRANCH   1   2
ATOM      2  C   UNL A   1      32.212  30.391  26.517  1.00  0.00     0.116 C 
BRANCH   2   3
ATOM      3  N   UNL A   1      32.678  30.087  25.178  1.00  0.00    -0.356 N 
ATOM      4  C   UNL A   1      32.119  29.301  24.219  1.00  0.00     0.222 C 
ATOM      5  O   UNL A   1      32.705  29.184  23.142  1.00  0.00    -0.275 OA
ATOM      6  H   UNL A   1      33.529  30.514  24.925  1.00  0.00     0.163 HD
BRANCH   4   7
ATOM      7  C   UNL A   1      30.777  28.635  24.442  1.00  0.00     0.130 C 
BRANCH   7   8
ATOM      8  C   UNL A   1      30.163  27.867  23.266  1.00  0.00     0.132 C 
BRANCH   8   9
ATOM      9  N   UNL A   1      28.716  27.932  23.220  1.00  0.00    -0.341 N 
ATOM     10  C   UNL A   1      27.781  28.900  22.993  1.00  0.00     0.287 C 
ATOM     11  O   UNL A   1      26.639  28.607  23.361  1.00  0.00    -0.266 OA
ATOM     12  H   UNL A   1      28.302  27.057  23.398  1.00  0.00     0.164 HD
BRANCH  10  13
ATOM     13  C   UNL A   1      28.082  30.144  22.317  1.00  0.00     0.191 A 
ATOM     14  C   UNL A   1      29.011  33.511  23.125  1.00  0.00     0.087 C 
ATOM     15  C   UNL A   1      28.633  32.290  22.389  1.00  0.00     0.101 A 
ATOM     16  C   UNL A   1      28.310  32.021  21.081  1.00  0.00     0.046 A 
ATOM     17  O   UNL A   1      28.532  31.160  23.129  1.00  0.00    -0.456 OA
ATOM     18  C   UNL A   1      27.950  30.649  21.036  1.00  0.00     0.056 A 
ENDBRANCH  10  13
ENDBRANCH   8   9
BRANCH   8  19
ATOM     19  C   UNL A   1      30.572  26.416  23.157  1.00  0.00     0.027 A 
ATOM     20  C   UNL A   1      29.900  25.312  23.651  1.00  0.00     0.017 A 
ATOM     21  S   UNL A   1      32.051  25.942  22.413  1.00  0.00    -0.147 S 
ATOM     22  C   UNL A   1      30.618  24.097  23.454  1.00  0.00     0.012 A 
ATOM     23  C   UNL A   1      31.810  24.301  22.799  1.00  0.00     0.065 A 
ENDBRANCH   8  19
ENDBRANCH   7   8
ENDBRANCH   4   7
ENDBRANCH   2   3
ENDBRANCH   1   2
BRANCH   1  24
ATOM     24  C   UNL A   1      34.435  29.241  27.114  1.00  0.00     0.023 C 
BRANCH  24  25
ATOM     25  C   UNL A   1      35.711  29.391  27.916  1.00  0.00     0.116 C 
BRANCH  25  26
ATOM     26  N   UNL A   1      35.496  29.996  29.223  1.00  0.00    -0.352 N 
ATOM     27  C   UNL A   1      36.431  30.294  30.188  1.00  0.00     0.251 C 
ATOM     28  H   UNL A   1      34.563  30.222  29.444  1.00  0.00     0.163 HD
ATOM     29  O   UNL A   1      36.092  30.681  31.296  1.00  0.00    -0.269 OA
BRANCH  27  30
ATOM     30  C   UNL A   1      37.856  30.094  29.859  1.00  0.00     0.039 A 
ATOM     31  C   UNL A   1      38.721  29.618  30.844  1.00  0.00     0.014 A 
ATOM     32  C   UNL A   1      38.297  30.279  28.547  1.00  0.00     0.014 A 
ATOM     33  C   UNL A   1      40.020  29.258  30.491  1.00  0.00     0.010 A 
ATOM     34  C   UNL A   1      39.549  29.810  28.178  1.00  0.00     0.010 A 
ATOM     35  C   UNL A   1      40.429  29.309  29.148  1.00  0.00    -0.014 A 
BRANCH  35  36
ATOM     36  C   UNL A   1      41.782  28.867  28.732  1.00  0.00     0.031 A 
ATOM     37  C   UNL A   1      42.898  29.872  28.648  1.00  0.00     0.074 A 
ATOM     38  C   UNL A   1      41.986  27.587  28.363  1.00  0.00     0.049 A 
ATOM     39  N   UNL A   1      44.129  29.709  28.240  1.00  0.00    -0.248 NA
ATOM     40  C   UNL A   1      42.576  31.257  29.036  1.00  0.00     0.031 C 
ATOM     41  C   UNL A   1      40.965  26.536  28.342  1.00  0.00     0.029 A 
ATOM     42  N   UNL A   1      43.122  26.951  27.928  1.00  0.00    -0.354 N 
ATOM     43  C   UNL A   1      44.719  30.965  28.307  1.00  0.00     0.074 A 
ATOM     44  C   UNL A   1      43.692  31.895  28.720  1.00  0.00     0.031 C 
ATOM     45  C   UNL A   1      41.527  25.384  27.946  1.00  0.00     0.029 A 
ATOM     46  C   UNL A   1      42.936  25.619  27.646  1.00  0.00     0.049 A 
ATOM     47  H   UNL A   1      43.989  27.407  27.826  1.00  0.00     0.167 HD
ATOM     48  C   UNL A   1      46.007  31.310  28.078  1.00  0.00     0.037 A 
ATOM     49  C   UNL A   1      43.802  24.693  27.190  1.00  0.00     0.037 A 
ATOM     50  C   UNL A   1      47.026  30.370  27.692  1.00  0.00     0.049 A 
ATOM     51  C   UNL A   1      45.232  25.094  26.946  1.00  0.00     0.074 A 
ATOM     52  C   UNL A   1      48.375  30.597  27.494  1.00  0.00     0.029 A 
ATOM     53  N   UNL A   1      46.805  29.023  27.441  1.00  0.00    -0.354 N 
ATOM     54  N   UNL A   1      45.793  26.272  27.086  1.00  0.00    -0.248 NA
ATOM     55  C   UNL A   1      46.149  24.041  26.492  1.00  0.00     0.031 C 
ATOM     56  C   UNL A   1      48.961  29.400  27.071  1.00  0.00     0.029 A 
ATOM     57  C   UNL A   1      47.988  28.412  27.065  1.00  0.00     0.049 A 
ATOM     58  H   UNL A   1      45.934  28.569  27.519  1.00  0.00     0.167 HD
ATOM     59  C   UNL A   1      47.133  26.098  26.762  1.00  0.00     0.074 A 
ATOM     60  C   UNL A   1      47.300  24.696  26.431  1.00  0.00     0.031 C 
ATOM     61  C   UNL A   1      48.135  27.012  26.742  1.00  0.00     0.037 A 
BRANCH  48  62
ATOM     62  C   UNL A   1      46.377  32.760  28.242  1.00  0.00     0.058 A 
ATOM     63  C   UNL A   1      46.842  33.272  29.466  1.00  0.00     0.135 A 
ATOM     64  C   UNL A   1      46.268  33.651  27.163  1.00  0.00     0.135 A 
ATOM     65  F   UNL A   1      46.951  32.470  30.537  1.00  0.00    -0.206 F 
ATOM     66  C   UNL A   1      47.140  34.621  29.625  1.00  0.00     0.059 A 
ATOM     67  C   UNL A   1      46.595  34.998  27.290  1.00  0.00     0.059 A 
ATOM     68  F   UNL A   1      45.828  33.219  25.971  1.00  0.00    -0.206 F 
ATOM     69  C   UNL A   1      47.010  35.477  28.532  1.00  0.00     0.060 A 
BRANCH  69  70
ATOM     70  S   UNL A   1      47.389  37.227  28.759  1.00  0.00     0.124 S 
ATOM     71  O   UNL A   1      47.301  37.357  30.211  1.00  0.00    -0.237 OA
ATOM     72  O   UNL A   1      48.731  37.332  28.194  1.00  0.00    -0.237 OA
ATOM     73  O   UNL A   1      46.339  37.904  28.004  1.00  0.00    -0.744 OA
ENDBRANCH  69  70
ENDBRANCH  48  62
BRANCH  49  74
ATOM     74  C   UNL A   1      43.343  23.295  26.970  1.00  0.00     0.058 A 
ATOM     75  C   UNL A   1      43.156  22.790  25.675  1.00  0.00     0.135 A 
ATOM     76  C   UNL A   1      43.118  22.423  28.047  1.00  0.00     0.135 A 
ATOM     77  F   UNL A   1      43.352  23.585  24.611  1.00  0.00    -0.206 F 
ATOM     78  C   UNL A   1      42.757  21.477  25.453  1.00  0.00     0.059 A 
ATOM     79  C   UNL A   1      42.744  21.098  27.852  1.00  0.00     0.059 A 
ATOM     80  F   UNL A   1      43.298  22.851  29.307  1.00  0.00    -0.206 F 
ATOM     81  C   UNL A   1      42.560  20.635  26.550  1.00  0.00     0.060 A 
BRANCH  81  82
ATOM     82  S   UNL A   1      42.106  18.913  26.246  1.00  0.00     0.124 S 
ATOM     83  O   UNL A   1      42.304  18.319  27.562  1.00  0.00    -0.237 OA
ATOM     84  O   UNL A   1      40.721  19.036  25.802  1.00  0.00    -0.237 OA
ATOM     85  O   UNL A   1      43.052  18.493  25.215  1.00  0.00    -0.744 OA
ENDBRANCH  81  82
ENDBRANCH  49  74
BRANCH  61  86
ATOM     86  C   UNL A   1      49.512  26.524  26.383  1.00  0.00     0.058 A 
ATOM     87  C   UNL A   1      50.038  26.677  25.090  1.00  0.00     0.135 A 
ATOM     88  C   UNL A   1      50.339  25.952  27.364  1.00  0.00     0.135 A 
ATOM     89  F   UNL A   1      49.288  27.212  24.114  1.00  0.00    -0.206 F 
ATOM     90  C   UNL A   1      51.326  26.257  24.776  1.00  0.00     0.059 A 
ATOM     91  C   UNL A   1      51.641  25.555  27.080  1.00  0.00     0.059 A 
ATOM     92  F   UNL A   1      49.890  25.794  28.619  1.00  0.00    -0.206 F 
ATOM     93  C   UNL A   1      52.122  25.701  25.781  1.00  0.00     0.060 A 
BRANCH  93  94
ATOM     94  S   UNL A   1      53.804  25.195  25.369  1.00  0.00     0.124 S 
ATOM     95  O   UNL A   1      54.575  25.848  26.423  1.00  0.00    -0.237 OA
ATOM     96  O   UNL A   1      53.722  23.740  25.452  1.00  0.00    -0.237 OA
ATOM     97  O   UNL A   1      54.002  25.730  24.024  1.00  0.00    -0.744 OA
ENDBRANCH  93  94
ENDBRANCH  61  86
ENDBRANCH  35  36
ENDBRANCH  27  30
ENDBRANCH  25  26
ENDBRANCH  24  25
ENDBRANCH   1  24
TORSDOF 18
ENDMDL
