MODEL 1
REMARK VINA RESULT:     -11.8      0.000      0.000
REMARK SMILES C[C@@H](C(=O)NCCCCNC(=O)c1ccc(-c2c3nc(c(-c4c(F)cc(S(=O)(=O)[O-])cc4F)c4ccc([nH]4)c(-c4c(F)cc(S(=O)(=O)[O-])cc4F)c4nc(c(-c5c(F)cc(S(=O)(=O)[O-])cc5F)c5ccc2[nH]5)C=C4)C=C3)cc1)c1ccc(-c2cccc(OC(=O)NCCC3CCCCC3)c2)c(F)c1
REMARK SMILES IDX 3 1 4 2 5 3 2 5 1 6 79 7 80 8 103 9 81 10 101 11 82 12
REMARK SMILES IDX 102 13 83 14 84 15 100 16 85 17 87 18 86 19 88 20 89 21
REMARK SMILES IDX 90 22 91 23 92 25 93 26 94 27 95 28 99 29 96 30 98 31 97 32
REMARK SMILES IDX 6 33 7 34 8 35 9 36 10 37 11 38 12 40 13 41 14 42 78 43
REMARK SMILES IDX 15 44 77 45 16 46 17 47 18 48 71 49 19 50 76 51 70 52 72 53
REMARK SMILES IDX 20 54 75 55 69 56 68 57 21 59 55 60 34 61 54 62 35 63 38 64
REMARK SMILES IDX 53 65 73 66 36 67 37 68 52 70 74 71 39 72 22 73 23 74 32 75
REMARK SMILES IDX 24 76 25 77 31 78 33 79 26 80 27 81 28 82 29 83 30 84 56 85
REMARK SMILES IDX 57 86 66 87 58 88 59 89 65 90 67 91 60 92 61 93 62 94 63 95
REMARK SMILES IDX 64 96 40 97 41 98 50 99 42 100 43 101 49 102 51 103 44 104
REMARK SMILES IDX 45 105 46 106 47 107 48 108
REMARK H PARENT 5 4 91 24 10 39 72 58 38 69
REMARK Flexibility Score: inf
ROOT
ATOM      1  C   UNL A   1      42.179  22.387  26.196  1.00  0.00     0.227 C 
ATOM      2  O   UNL A   1      42.116  21.931  25.053  1.00  0.00    -0.274 OA
ATOM      3  N   UNL A   1      43.341  23.016  26.543  1.00  0.00    -0.356 N 
ATOM      4  H   UNL A   1      43.946  23.224  25.796  1.00  0.00     0.163 HD
ENDROOT
BRANCH   1   5
ATOM      5  C   UNL A   1      41.013  22.321  27.203  1.00  0.00     0.105 C 
ATOM      6  C   UNL A   1      41.110  21.034  28.034  1.00  0.00     0.023 C 
BRANCH   5   7
ATOM      7  C   UNL A   1      39.638  22.482  26.546  1.00  0.00    -0.033 A 
ATOM      8  C   UNL A   1      38.965  23.718  26.565  1.00  0.00     0.005 A 
ATOM      9  C   UNL A   1      38.984  21.401  25.938  1.00  0.00     0.044 A 
ATOM     10  C   UNL A   1      37.717  23.878  25.949  1.00  0.00     0.012 A 
ATOM     11  C   UNL A   1      37.745  21.563  25.337  1.00  0.00     0.131 A 
ATOM     12  C   UNL A   1      37.085  22.797  25.325  1.00  0.00     0.018 A 
ATOM     13  F   UNL A   1      37.177  20.482  24.777  1.00  0.00    -0.206 F 
BRANCH  12  14
ATOM     14  C   UNL A   1      35.738  22.904  24.765  1.00  0.00    -0.012 A 
ATOM     15  C   UNL A   1      34.889  21.800  24.615  1.00  0.00     0.009 A 
ATOM     16  C   UNL A   1      35.272  24.170  24.380  1.00  0.00     0.056 A 
ATOM     17  C   UNL A   1      33.600  21.968  24.102  1.00  0.00     0.004 A 
ATOM     18  C   UNL A   1      34.001  24.337  23.850  1.00  0.00     0.133 A 
ATOM     19  C   UNL A   1      33.154  23.237  23.720  1.00  0.00     0.047 A 
BRANCH  18  20
ATOM     20  O   UNL A   1      33.487  25.585  23.420  1.00  0.00    -0.410 OA
BRANCH  20  21
ATOM     21  C   UNL A   1      33.482  26.020  22.096  1.00  0.00     0.412 C 
ATOM     22  O   UNL A   1      33.505  25.325  21.085  1.00  0.00    -0.224 OA
ATOM     23  N   UNL A   1      33.418  27.373  21.959  1.00  0.00    -0.321 N 
ATOM     24  H   UNL A   1      33.365  27.712  21.036  1.00  0.00     0.167 HD
BRANCH  23  25
ATOM     25  C   UNL A   1      33.420  28.372  23.000  1.00  0.00     0.119 C 
BRANCH  25  26
ATOM     26  C   UNL A   1      32.025  28.969  23.191  1.00  0.00     0.025 C 
BRANCH  26  27
ATOM     27  C   UNL A   1      31.171  28.264  24.269  1.00  0.00    -0.009 C 
ATOM     28  C   UNL A   1      30.319  27.129  23.678  1.00  0.00     0.003 C 
ATOM     29  C   UNL A   1      32.079  27.737  25.392  1.00  0.00     0.003 C 
ATOM     30  C   UNL A   1      29.546  26.368  24.753  1.00  0.00     0.000 C 
ATOM     31  C   UNL A   1      31.283  26.994  26.462  1.00  0.00     0.000 C 
ATOM     32  C   UNL A   1      30.465  25.859  25.857  1.00  0.00     0.000 C 
ENDBRANCH  26  27
ENDBRANCH  25  26
ENDBRANCH  23  25
ENDBRANCH  20  21
ENDBRANCH  18  20
ENDBRANCH  12  14
ENDBRANCH   5   7
ENDBRANCH   1   5
BRANCH   3  33
ATOM     33  C   UNL A   1      43.811  23.423  27.852  1.00  0.00     0.116 C 
BRANCH  33  34
ATOM     34  C   UNL A   1      44.896  24.497  27.723  1.00  0.00     0.023 C 
BRANCH  34  35
ATOM     35  C   UNL A   1      45.409  24.708  26.301  1.00  0.00     0.023 C 
BRANCH  35  36
ATOM     36  C   UNL A   1      44.934  25.994  25.649  1.00  0.00     0.116 C 
BRANCH  36  37
ATOM     37  N   UNL A   1      43.632  25.850  25.010  1.00  0.00    -0.352 N 
ATOM     38  C   UNL A   1      42.404  26.221  25.507  1.00  0.00     0.251 C 
ATOM     39  H   UNL A   1      43.632  25.439  24.115  1.00  0.00     0.163 HD
ATOM     40  O   UNL A   1      41.371  25.909  24.928  1.00  0.00    -0.269 OA
BRANCH  38  41
ATOM     41  C   UNL A   1      42.368  26.974  26.775  1.00  0.00     0.039 A 
ATOM     42  C   UNL A   1      42.951  28.241  26.835  1.00  0.00     0.014 A 
ATOM     43  C   UNL A   1      41.655  26.459  27.860  1.00  0.00     0.014 A 
ATOM     44  C   UNL A   1      42.753  29.030  27.969  1.00  0.00     0.010 A 
ATOM     45  C   UNL A   1      41.386  27.280  28.946  1.00  0.00     0.010 A 
ATOM     46  C   UNL A   1      41.933  28.572  29.012  1.00  0.00    -0.014 A 
BRANCH  46  47
ATOM     47  C   UNL A   1      41.622  29.408  30.199  1.00  0.00     0.031 A 
ATOM     48  C   UNL A   1      42.413  29.216  31.462  1.00  0.00     0.074 A 
ATOM     49  C   UNL A   1      40.561  30.239  30.181  1.00  0.00     0.049 A 
ATOM     50  N   UNL A   1      42.200  29.704  32.655  1.00  0.00    -0.248 NA
ATOM     51  C   UNL A   1      43.577  28.321  31.376  1.00  0.00     0.031 C 
ATOM     52  C   UNL A   1      39.690  30.476  29.029  1.00  0.00     0.029 A 
ATOM     53  N   UNL A   1      40.015  31.012  31.176  1.00  0.00    -0.354 N 
ATOM     54  C   UNL A   1      43.180  29.149  33.469  1.00  0.00     0.074 A 
ATOM     55  C   UNL A   1      43.954  28.248  32.643  1.00  0.00     0.031 C 
ATOM     56  C   UNL A   1      38.720  31.334  29.383  1.00  0.00     0.029 A 
ATOM     57  C   UNL A   1      38.868  31.669  30.796  1.00  0.00     0.049 A 
ATOM     58  H   UNL A   1      40.408  31.089  32.075  1.00  0.00     0.167 HD
ATOM     59  C   UNL A   1      43.422  29.382  34.781  1.00  0.00     0.037 A 
ATOM     60  C   UNL A   1      38.015  32.430  31.510  1.00  0.00     0.037 A 
ATOM     61  C   UNL A   1      42.653  30.293  35.585  1.00  0.00     0.049 A 
ATOM     62  C   UNL A   1      38.298  32.680  32.966  1.00  0.00     0.074 A 
ATOM     63  C   UNL A   1      42.855  30.654  36.905  1.00  0.00     0.029 A 
ATOM     64  N   UNL A   1      41.526  30.979  35.151  1.00  0.00    -0.354 N 
ATOM     65  N   UNL A   1      39.268  32.201  33.709  1.00  0.00    -0.248 NA
ATOM     66  C   UNL A   1      37.379  33.575  33.681  1.00  0.00     0.031 C 
ATOM     67  C   UNL A   1      41.816  31.510  37.286  1.00  0.00     0.029 A 
ATOM     68  C   UNL A   1      41.006  31.740  36.184  1.00  0.00     0.049 A 
ATOM     69  H   UNL A   1      41.153  30.931  34.241  1.00  0.00     0.167 HD
ATOM     70  C   UNL A   1      39.095  32.762  34.970  1.00  0.00     0.074 A 
ATOM     71  C   UNL A   1      37.926  33.614  34.890  1.00  0.00     0.031 C 
ATOM     72  C   UNL A   1      39.845  32.593  36.088  1.00  0.00     0.037 A 
BRANCH  59  73
ATOM     73  C   UNL A   1      44.547  28.613  35.422  1.00  0.00     0.058 A 
ATOM     74  C   UNL A   1      44.342  27.371  36.044  1.00  0.00     0.135 A 
ATOM     75  C   UNL A   1      45.850  29.136  35.428  1.00  0.00     0.135 A 
ATOM     76  F   UNL A   1      43.116  26.825  36.080  1.00  0.00    -0.206 F 
ATOM     77  C   UNL A   1      45.372  26.707  36.704  1.00  0.00     0.059 A 
ATOM     78  C   UNL A   1      46.905  28.472  36.048  1.00  0.00     0.059 A 
ATOM     79  F   UNL A   1      46.109  30.317  34.843  1.00  0.00    -0.206 F 
ATOM     80  C   UNL A   1      46.648  27.271  36.708  1.00  0.00     0.060 A 
BRANCH  80  81
ATOM     81  S   UNL A   1      47.962  26.424  37.607  1.00  0.00     0.124 S 
ATOM     82  O   UNL A   1      47.589  25.025  37.414  1.00  0.00    -0.237 OA
ATOM     83  O   UNL A   1      49.160  26.862  36.899  1.00  0.00    -0.237 OA
ATOM     84  O   UNL A   1      47.822  26.927  38.970  1.00  0.00    -0.744 OA
ENDBRANCH  80  81
ENDBRANCH  59  73
BRANCH  60  85
ATOM     85  C   UNL A   1      36.825  33.014  30.836  1.00  0.00     0.058 A 
ATOM     86  C   UNL A   1      35.538  32.514  31.079  1.00  0.00     0.135 A 
ATOM     87  C   UNL A   1      36.944  34.133  29.997  1.00  0.00     0.135 A 
ATOM     88  F   UNL A   1      35.374  31.440  31.866  1.00  0.00    -0.206 F 
ATOM     89  C   UNL A   1      34.410  33.107  30.522  1.00  0.00     0.059 A 
ATOM     90  C   UNL A   1      35.829  34.759  29.448  1.00  0.00     0.059 A 
ATOM     91  F   UNL A   1      38.153  34.659  29.745  1.00  0.00    -0.206 F 
ATOM     92  C   UNL A   1      34.564  34.238  29.719  1.00  0.00     0.060 A 
BRANCH  92  93
ATOM     93  S   UNL A   1      33.084  35.061  29.091  1.00  0.00     0.124 S 
ATOM     94  O   UNL A   1      32.273  35.173  30.297  1.00  0.00    -0.237 OA
ATOM     95  O   UNL A   1      33.630  36.311  28.569  1.00  0.00    -0.237 OA
ATOM     96  O   UNL A   1      32.587  34.134  28.079  1.00  0.00    -0.744 OA
ENDBRANCH  92  93
ENDBRANCH  60  85
BRANCH  72  97
ATOM     97  C   UNL A   1      39.468  33.378  37.315  1.00  0.00     0.058 A 
ATOM     98  C   UNL A   1      38.652  32.841  38.322  1.00  0.00     0.135 A 
ATOM     99  C   UNL A   1      40.016  34.655  37.526  1.00  0.00     0.135 A 
ATOM    100  F   UNL A   1      38.096  31.630  38.168  1.00  0.00    -0.206 F 
ATOM    101  C   UNL A   1      38.389  33.544  39.494  1.00  0.00     0.059 A 
ATOM    102  C   UNL A   1      39.790  35.363  38.701  1.00  0.00     0.059 A 
ATOM    103  F   UNL A   1      40.809  35.212  36.597  1.00  0.00    -0.206 F 
ATOM    104  C   UNL A   1      38.971  34.801  39.679  1.00  0.00     0.060 A 
BRANCH 104 105
ATOM    105  S   UNL A   1      38.679  35.672  41.234  1.00  0.00     0.124 S 
ATOM    106  O   UNL A   1      39.723  35.112  42.085  1.00  0.00    -0.237 OA
ATOM    107  O   UNL A   1      38.854  37.068  40.847  1.00  0.00    -0.237 OA
ATOM    108  O   UNL A   1      37.314  35.292  41.585  1.00  0.00    -0.744 OA
ENDBRANCH 104 105
ENDBRANCH  72  97
ENDBRANCH  46  47
ENDBRANCH  38  41
ENDBRANCH  36  37
ENDBRANCH  35  36
ENDBRANCH  34  35
ENDBRANCH  33  34
ENDBRANCH   3  33
TORSDOF 21
ENDMDL
MODEL 2
REMARK VINA RESULT:     -11.7      5.655     12.139
REMARK SMILES C[C@@H](C(=O)NCCCCNC(=O)c1ccc(-c2c3nc(c(-c4c(F)cc(S(=O)(=O)[O-])cc4F)c4ccc([nH]4)c(-c4c(F)cc(S(=O)(=O)[O-])cc4F)c4nc(c(-c5c(F)cc(S(=O)(=O)[O-])cc5F)c5ccc2[nH]5)C=C4)C=C3)cc1)c1ccc(-c2cccc(OC(=O)NCCC3CCCCC3)c2)c(F)c1
REMARK SMILES IDX 3 1 4 2 5 3 2 5 1 6 79 7 80 8 103 9 81 10 101 11 82 12
REMARK SMILES IDX 102 13 83 14 84 15 100 16 85 17 87 18 86 19 88 20 89 21
REMARK SMILES IDX 90 22 91 23 92 25 93 26 94 27 95 28 99 29 96 30 98 31 97 32
REMARK SMILES IDX 6 33 7 34 8 35 9 36 10 37 11 38 12 40 13 41 14 42 78 43
REMARK SMILES IDX 15 44 77 45 16 46 17 47 18 48 71 49 19 50 76 51 70 52 72 53
REMARK SMILES IDX 20 54 75 55 69 56 68 57 21 59 55 60 34 61 54 62 35 63 38 64
REMARK SMILES IDX 53 65 73 66 36 67 37 68 52 70 74 71 39 72 22 73 23 74 32 75
REMARK SMILES IDX 24 76 25 77 31 78 33 79 26 80 27 81 28 82 29 83 30 84 56 85
REMARK SMILES IDX 57 86 66 87 58 88 59 89 65 90 67 91 60 92 61 93 62 94 63 95
REMARK SMILES IDX 64 96 40 97 41 98 50 99 42 100 43 101 49 102 51 103 44 104
REMARK SMILES IDX 45 105 46 106 47 107 48 108
REMARK H PARENT 5 4 91 24 10 39 72 58 38 69
REMARK Flexibility Score: inf
ROOT
ATOM      1  C   UNL A   1      34.460  33.478  29.008  1.00  0.00     0.227 C 
ATOM      2  O   UNL A   1      34.055  34.229  28.119  1.00  0.00    -0.274 OA
ATOM      3  N   UNL A   1      34.022  33.734  30.276  1.00  0.00    -0.356 N 
ATOM      4  H   UNL A   1      33.271  34.368  30.341  1.00  0.00     0.163 HD
ENDROOT
BRANCH   1   5
ATOM      5  C   UNL A   1      35.375  32.265  28.746  1.00  0.00     0.105 C 
ATOM      6  C   UNL A   1      36.657  32.719  28.032  1.00  0.00     0.023 C 
BRANCH   5   7
ATOM      7  C   UNL A   1      34.670  31.127  27.998  1.00  0.00    -0.033 A 
ATOM      8  C   UNL A   1      35.367  29.964  27.624  1.00  0.00     0.005 A 
ATOM      9  C   UNL A   1      33.322  31.219  27.626  1.00  0.00     0.044 A 
ATOM     10  C   UNL A   1      34.725  28.911  26.959  1.00  0.00     0.012 A 
ATOM     11  C   UNL A   1      32.693  30.178  26.960  1.00  0.00     0.131 A 
ATOM     12  C   UNL A   1      33.372  29.005  26.614  1.00  0.00     0.018 A 
ATOM     13  F   UNL A   1      31.400  30.337  26.632  1.00  0.00    -0.206 F 
BRANCH  12  14
ATOM     14  C   UNL A   1      32.699  27.971  25.829  1.00  0.00    -0.012 A 
ATOM     15  C   UNL A   1      31.538  28.219  25.085  1.00  0.00     0.009 A 
ATOM     16  C   UNL A   1      33.252  26.682  25.806  1.00  0.00     0.056 A 
ATOM     17  C   UNL A   1      30.956  27.198  24.329  1.00  0.00     0.004 A 
ATOM     18  C   UNL A   1      32.664  25.661  25.072  1.00  0.00     0.133 A 
ATOM     19  C   UNL A   1      31.519  25.918  24.321  1.00  0.00     0.047 A 
BRANCH  18  20
ATOM     20  O   UNL A   1      33.162  24.335  25.033  1.00  0.00    -0.410 OA
BRANCH  20  21
ATOM     21  C   UNL A   1      33.681  23.722  23.894  1.00  0.00     0.412 C 
ATOM     22  O   UNL A   1      34.052  24.268  22.860  1.00  0.00    -0.224 OA
ATOM     23  N   UNL A   1      33.793  22.370  23.997  1.00  0.00    -0.321 N 
ATOM     24  H   UNL A   1      34.201  21.910  23.228  1.00  0.00     0.167 HD
BRANCH  23  25
ATOM     25  C   UNL A   1      33.387  21.525  25.095  1.00  0.00     0.119 C 
BRANCH  25  26
ATOM     26  C   UNL A   1      32.540  20.352  24.601  1.00  0.00     0.025 C 
BRANCH  26  27
ATOM     27  C   UNL A   1      33.259  18.985  24.635  1.00  0.00    -0.009 C 
ATOM     28  C   UNL A   1      32.664  18.047  25.698  1.00  0.00     0.003 C 
ATOM     29  C   UNL A   1      33.208  18.335  23.243  1.00  0.00     0.003 C 
ATOM     30  C   UNL A   1      33.307  16.663  25.670  1.00  0.00     0.000 C 
ATOM     31  C   UNL A   1      33.870  16.959  23.236  1.00  0.00     0.000 C 
ATOM     32  C   UNL A   1      33.249  16.039  24.280  1.00  0.00     0.000 C 
ENDBRANCH  26  27
ENDBRANCH  25  26
ENDBRANCH  23  25
ENDBRANCH  20  21
ENDBRANCH  18  20
ENDBRANCH  12  14
ENDBRANCH   5   7
ENDBRANCH   1   5
BRANCH   3  33
ATOM     33  C   UNL A   1      34.499  33.209  31.539  1.00  0.00     0.116 C 
BRANCH  33  34
ATOM     34  C   UNL A   1      35.574  34.126  32.131  1.00  0.00     0.023 C 
BRANCH  34  35
ATOM     35  C   UNL A   1      37.003  33.760  31.737  1.00  0.00     0.023 C 
BRANCH  35  36
ATOM     36  C   UNL A   1      37.675  32.771  32.672  1.00  0.00     0.116 C 
BRANCH  36  37
ATOM     37  N   UNL A   1      36.990  31.485  32.713  1.00  0.00    -0.352 N 
ATOM     38  C   UNL A   1      37.369  30.310  32.106  1.00  0.00     0.251 C 
ATOM     39  H   UNL A   1      36.157  31.454  33.238  1.00  0.00     0.163 HD
ATOM     40  O   UNL A   1      36.624  29.337  32.100  1.00  0.00    -0.269 OA
BRANCH  38  41
ATOM     41  C   UNL A   1      38.681  30.268  31.435  1.00  0.00     0.039 A 
ATOM     42  C   UNL A   1      39.802  29.844  32.150  1.00  0.00     0.014 A 
ATOM     43  C   UNL A   1      38.763  30.542  30.068  1.00  0.00     0.014 A 
ATOM     44  C   UNL A   1      41.001  29.621  31.471  1.00  0.00     0.010 A 
ATOM     45  C   UNL A   1      39.930  30.235  29.382  1.00  0.00     0.010 A 
ATOM     46  C   UNL A   1      41.060  29.773  30.076  1.00  0.00    -0.014 A 
BRANCH  46  47
ATOM     47  C   UNL A   1      42.287  29.466  29.298  1.00  0.00     0.031 A 
ATOM     48  C   UNL A   1      42.465  28.092  28.717  1.00  0.00     0.074 A 
ATOM     49  C   UNL A   1      43.284  30.370  29.224  1.00  0.00     0.049 A 
ATOM     50  N   UNL A   1      43.520  27.557  28.162  1.00  0.00    -0.248 NA
ATOM     51  C   UNL A   1      41.309  27.187  28.811  1.00  0.00     0.031 C 
ATOM     52  C   UNL A   1      43.247  31.720  29.787  1.00  0.00     0.029 A 
ATOM     53  N   UNL A   1      44.537  30.274  28.671  1.00  0.00    -0.354 N 
ATOM     54  C   UNL A   1      43.169  26.245  27.874  1.00  0.00     0.074 A 
ATOM     55  C   UNL A   1      41.821  26.051  28.363  1.00  0.00     0.031 C 
ATOM     56  C   UNL A   1      44.422  32.325  29.552  1.00  0.00     0.029 A 
ATOM     57  C   UNL A   1      45.312  31.392  28.868  1.00  0.00     0.049 A 
ATOM     58  H   UNL A   1      44.850  29.480  28.180  1.00  0.00     0.167 HD
ATOM     59  C   UNL A   1      43.897  25.292  27.244  1.00  0.00     0.037 A 
ATOM     60  C   UNL A   1      46.603  31.630  28.561  1.00  0.00     0.037 A 
ATOM     61  C   UNL A   1      45.231  25.505  26.748  1.00  0.00     0.049 A 
ATOM     62  C   UNL A   1      47.400  30.563  27.861  1.00  0.00     0.074 A 
ATOM     63  C   UNL A   1      46.032  24.631  26.037  1.00  0.00     0.029 A 
ATOM     64  N   UNL A   1      45.967  26.670  26.924  1.00  0.00    -0.354 N 
ATOM     65  N   UNL A   1      47.034  29.347  27.534  1.00  0.00    -0.248 NA
ATOM     66  C   UNL A   1      48.779  30.899  27.483  1.00  0.00     0.031 C 
ATOM     67  C   UNL A   1      47.273  25.245  25.835  1.00  0.00     0.029 A 
ATOM     68  C   UNL A   1      47.222  26.528  26.359  1.00  0.00     0.049 A 
ATOM     69  H   UNL A   1      45.642  27.478  27.384  1.00  0.00     0.167 HD
ATOM     70  C   UNL A   1      48.126  28.782  26.882  1.00  0.00     0.074 A 
ATOM     71  C   UNL A   1      49.166  29.790  26.865  1.00  0.00     0.031 C 
ATOM     72  C   UNL A   1      48.248  27.544  26.339  1.00  0.00     0.037 A 
BRANCH  59  73
ATOM     73  C   UNL A   1      43.268  23.933  27.086  1.00  0.00     0.058 A 
ATOM     74  C   UNL A   1      43.367  22.946  28.080  1.00  0.00     0.135 A 
ATOM     75  C   UNL A   1      42.569  23.607  25.913  1.00  0.00     0.135 A 
ATOM     76  F   UNL A   1      44.033  23.196  29.220  1.00  0.00    -0.206 F 
ATOM     77  C   UNL A   1      42.852  21.667  27.892  1.00  0.00     0.059 A 
ATOM     78  C   UNL A   1      42.012  22.347  25.718  1.00  0.00     0.059 A 
ATOM     79  F   UNL A   1      42.435  24.512  24.930  1.00  0.00    -0.206 F 
ATOM     80  C   UNL A   1      42.184  21.375  26.702  1.00  0.00     0.060 A 
BRANCH  80  81
ATOM     81  S   UNL A   1      41.563  19.700  26.452  1.00  0.00     0.124 S 
ATOM     82  O   UNL A   1      41.883  19.078  27.734  1.00  0.00    -0.237 OA
ATOM     83  O   UNL A   1      40.145  19.926  26.195  1.00  0.00    -0.237 OA
ATOM     84  O   UNL A   1      42.336  19.217  25.311  1.00  0.00    -0.744 OA
ENDBRANCH  80  81
ENDBRANCH  59  73
BRANCH  60  85
ATOM     85  C   UNL A   1      47.202  32.946  28.910  1.00  0.00     0.058 A 
ATOM     86  C   UNL A   1      47.115  34.035  28.032  1.00  0.00     0.135 A 
ATOM     87  C   UNL A   1      47.804  33.160  30.160  1.00  0.00     0.135 A 
ATOM     88  F   UNL A   1      46.557  33.878  26.822  1.00  0.00    -0.206 F 
ATOM     89  C   UNL A   1      47.594  35.293  28.383  1.00  0.00     0.059 A 
ATOM     90  C   UNL A   1      48.268  34.415  30.544  1.00  0.00     0.059 A 
ATOM     91  F   UNL A   1      47.898  32.153  31.043  1.00  0.00    -0.206 F 
ATOM     92  C   UNL A   1      48.156  35.477  29.647  1.00  0.00     0.060 A 
BRANCH  92  93
ATOM     93  S   UNL A   1      48.676  37.138  30.130  1.00  0.00     0.124 S 
ATOM     94  O   UNL A   1      47.519  37.934  29.739  1.00  0.00    -0.237 OA
ATOM     95  O   UNL A   1      48.890  36.983  31.566  1.00  0.00    -0.237 OA
ATOM     96  O   UNL A   1      49.887  37.353  29.344  1.00  0.00    -0.744 OA
ENDBRANCH  92  93
ENDBRANCH  60  85
BRANCH  72  97
ATOM     97  C   UNL A   1      49.532  27.210  25.629  1.00  0.00     0.058 A 
ATOM     98  C   UNL A   1      49.702  27.428  24.254  1.00  0.00     0.135 A 
ATOM     99  C   UNL A   1      50.640  26.756  26.364  1.00  0.00     0.135 A 
ATOM    100  F   UNL A   1      48.674  27.853  23.504  1.00  0.00    -0.206 F 
ATOM    101  C   UNL A   1      50.926  27.203  23.630  1.00  0.00     0.059 A 
ATOM    102  C   UNL A   1      51.880  26.552  25.766  1.00  0.00     0.059 A 
ATOM    103  F   UNL A   1      50.534  26.539  27.684  1.00  0.00    -0.206 F 
ATOM    104  C   UNL A   1      52.012  26.774  24.398  1.00  0.00     0.060 A 
BRANCH 104 105
ATOM    105  S   UNL A   1      53.611  26.554  23.588  1.00  0.00     0.124 S 
ATOM    106  O   UNL A   1      54.286  25.648  24.511  1.00  0.00    -0.237 OA
ATOM    107  O   UNL A   1      53.232  25.982  22.300  1.00  0.00    -0.237 OA
ATOM    108  O   UNL A   1      54.153  27.908  23.530  1.00  0.00    -0.744 OA
ENDBRANCH 104 105
ENDBRANCH  72  97
ENDBRANCH  46  47
ENDBRANCH  38  41
ENDBRANCH  36  37
ENDBRANCH  35  36
ENDBRANCH  34  35
ENDBRANCH  33  34
ENDBRANCH   3  33
TORSDOF 21
ENDMDL
MODEL 3
REMARK VINA RESULT:     -11.4      5.505     12.240
REMARK SMILES C[C@@H](C(=O)NCCCCNC(=O)c1ccc(-c2c3nc(c(-c4c(F)cc(S(=O)(=O)[O-])cc4F)c4ccc([nH]4)c(-c4c(F)cc(S(=O)(=O)[O-])cc4F)c4nc(c(-c5c(F)cc(S(=O)(=O)[O-])cc5F)c5ccc2[nH]5)C=C4)C=C3)cc1)c1ccc(-c2cccc(OC(=O)NCCC3CCCCC3)c2)c(F)c1
REMARK SMILES IDX 3 1 4 2 5 3 2 5 1 6 79 7 80 8 103 9 81 10 101 11 82 12
REMARK SMILES IDX 102 13 83 14 84 15 100 16 85 17 87 18 86 19 88 20 89 21
REMARK SMILES IDX 90 22 91 23 92 25 93 26 94 27 95 28 99 29 96 30 98 31 97 32
REMARK SMILES IDX 6 33 7 34 8 35 9 36 10 37 11 38 12 40 13 41 14 42 78 43
REMARK SMILES IDX 15 44 77 45 16 46 17 47 18 48 71 49 19 50 76 51 70 52 72 53
REMARK SMILES IDX 20 54 75 55 69 56 68 57 21 59 55 60 34 61 54 62 35 63 38 64
REMARK SMILES IDX 53 65 73 66 36 67 37 68 52 70 74 71 39 72 22 73 23 74 32 75
REMARK SMILES IDX 24 76 25 77 31 78 33 79 26 80 27 81 28 82 29 83 30 84 56 85
REMARK SMILES IDX 57 86 66 87 58 88 59 89 65 90 67 91 60 92 61 93 62 94 63 95
REMARK SMILES IDX 64 96 40 97 41 98 50 99 42 100 43 101 49 102 51 103 44 104
REMARK SMILES IDX 45 105 46 106 47 107 48 108
REMARK H PARENT 5 4 91 24 10 39 72 58 38 69
REMARK Flexibility Score: inf
ROOT
ATOM      1  C   UNL A   1      34.186  34.689  30.348  1.00  0.00     0.227 C 
ATOM      2  O   UNL A   1      33.029  34.996  30.636  1.00  0.00    -0.274 OA
ATOM      3  N   UNL A   1      35.062  34.546  31.386  1.00  0.00    -0.356 N 
ATOM      4  H   UNL A   1      34.652  34.507  32.280  1.00  0.00     0.163 HD
ENDROOT
BRANCH   1   5
ATOM      5  C   UNL A   1      34.659  34.416  28.906  1.00  0.00     0.105 C 
ATOM      6  C   UNL A   1      34.385  35.643  28.023  1.00  0.00     0.023 C 
BRANCH   5   7
ATOM      7  C   UNL A   1      34.071  33.132  28.309  1.00  0.00    -0.033 A 
ATOM      8  C   UNL A   1      34.809  31.934  28.296  1.00  0.00     0.005 A 
ATOM      9  C   UNL A   1      32.798  33.112  27.724  1.00  0.00     0.044 A 
ATOM     10  C   UNL A   1      34.270  30.752  27.771  1.00  0.00     0.012 A 
ATOM     11  C   UNL A   1      32.273  31.941  27.198  1.00  0.00     0.131 A 
ATOM     12  C   UNL A   1      32.989  30.740  27.210  1.00  0.00     0.018 A 
ATOM     13  F   UNL A   1      31.047  31.997  26.650  1.00  0.00    -0.206 F 
BRANCH  12  14
ATOM     14  C   UNL A   1      32.439  29.550  26.561  1.00  0.00    -0.012 A 
ATOM     15  C   UNL A   1      31.772  28.541  27.268  1.00  0.00     0.009 A 
ATOM     16  C   UNL A   1      32.568  29.426  25.170  1.00  0.00     0.056 A 
ATOM     17  C   UNL A   1      31.240  27.440  26.590  1.00  0.00     0.004 A 
ATOM     18  C   UNL A   1      32.059  28.324  24.497  1.00  0.00     0.133 A 
ATOM     19  C   UNL A   1      31.382  27.332  25.203  1.00  0.00     0.047 A 
BRANCH  18  20
ATOM     20  O   UNL A   1      32.183  28.133  23.099  1.00  0.00    -0.410 OA
BRANCH  20  21
ATOM     21  C   UNL A   1      31.141  27.736  22.263  1.00  0.00     0.412 C 
ATOM     22  O   UNL A   1      30.062  28.297  22.102  1.00  0.00    -0.224 OA
ATOM     23  N   UNL A   1      31.406  26.609  21.546  1.00  0.00    -0.321 N 
ATOM     24  H   UNL A   1      30.709  26.328  20.910  1.00  0.00     0.167 HD
BRANCH  23  25
ATOM     25  C   UNL A   1      32.582  25.774  21.605  1.00  0.00     0.119 C 
BRANCH  25  26
ATOM     26  C   UNL A   1      32.288  24.461  22.331  1.00  0.00     0.025 C 
BRANCH  26  27
ATOM     27  C   UNL A   1      32.682  24.455  23.825  1.00  0.00    -0.009 C 
ATOM     28  C   UNL A   1      32.741  23.030  24.400  1.00  0.00     0.003 C 
ATOM     29  C   UNL A   1      34.026  25.176  24.013  1.00  0.00     0.003 C 
ATOM     30  C   UNL A   1      33.222  23.012  25.848  1.00  0.00     0.000 C 
ATOM     31  C   UNL A   1      34.480  25.158  25.470  1.00  0.00     0.000 C 
ATOM     32  C   UNL A   1      34.554  23.735  26.011  1.00  0.00     0.000 C 
ENDBRANCH  26  27
ENDBRANCH  25  26
ENDBRANCH  23  25
ENDBRANCH  20  21
ENDBRANCH  18  20
ENDBRANCH  12  14
ENDBRANCH   5   7
ENDBRANCH   1   5
BRANCH   3  33
ATOM     33  C   UNL A   1      36.507  34.443  31.365  1.00  0.00     0.116 C 
BRANCH  33  34
ATOM     34  C   UNL A   1      36.958  33.090  31.925  1.00  0.00     0.023 C 
BRANCH  34  35
ATOM     35  C   UNL A   1      36.044  31.921  31.566  1.00  0.00     0.023 C 
BRANCH  35  36
ATOM     36  C   UNL A   1      36.578  30.561  31.976  1.00  0.00     0.116 C 
BRANCH  36  37
ATOM     37  N   UNL A   1      37.180  30.572  33.303  1.00  0.00    -0.352 N 
ATOM     38  C   UNL A   1      38.441  30.153  33.660  1.00  0.00     0.251 C 
ATOM     39  H   UNL A   1      36.617  30.922  34.032  1.00  0.00     0.163 HD
ATOM     40  O   UNL A   1      38.770  30.081  34.837  1.00  0.00    -0.269 OA
BRANCH  38  41
ATOM     41  C   UNL A   1      39.371  29.761  32.584  1.00  0.00     0.039 A 
ATOM     42  C   UNL A   1      39.375  30.479  31.387  1.00  0.00     0.014 A 
ATOM     43  C   UNL A   1      40.310  28.754  32.820  1.00  0.00     0.014 A 
ATOM     44  C   UNL A   1      40.377  30.235  30.448  1.00  0.00     0.010 A 
ATOM     45  C   UNL A   1      41.355  28.577  31.925  1.00  0.00     0.010 A 
ATOM     46  C   UNL A   1      41.399  29.314  30.730  1.00  0.00    -0.014 A 
BRANCH  46  47
ATOM     47  C   UNL A   1      42.533  29.082  29.801  1.00  0.00     0.031 A 
ATOM     48  C   UNL A   1      42.655  27.756  29.105  1.00  0.00     0.074 A 
ATOM     49  C   UNL A   1      43.509  30.004  29.683  1.00  0.00     0.049 A 
ATOM     50  N   UNL A   1      43.646  27.278  28.400  1.00  0.00    -0.248 NA
ATOM     51  C   UNL A   1      41.523  26.828  29.260  1.00  0.00     0.031 C 
ATOM     52  C   UNL A   1      43.525  31.310  30.343  1.00  0.00     0.029 A 
ATOM     53  N   UNL A   1      44.693  29.967  28.989  1.00  0.00    -0.354 N 
ATOM     54  C   UNL A   1      43.274  25.985  28.056  1.00  0.00     0.074 A 
ATOM     55  C   UNL A   1      41.991  25.736  28.676  1.00  0.00     0.031 C 
ATOM     56  C   UNL A   1      44.662  31.948  30.024  1.00  0.00     0.029 A 
ATOM     57  C   UNL A   1      45.478  31.080  29.180  1.00  0.00     0.049 A 
ATOM     58  H   UNL A   1      44.955  29.215  28.410  1.00  0.00     0.167 HD
ATOM     59  C   UNL A   1      43.935  25.091  27.282  1.00  0.00     0.037 A 
ATOM     60  C   UNL A   1      46.725  31.359  28.751  1.00  0.00     0.037 A 
ATOM     61  C   UNL A   1      45.203  25.359  26.659  1.00  0.00     0.049 A 
ATOM     62  C   UNL A   1      47.446  30.357  27.891  1.00  0.00     0.074 A 
ATOM     63  C   UNL A   1      45.927  24.551  25.802  1.00  0.00     0.029 A 
ATOM     64  N   UNL A   1      45.946  26.519  26.837  1.00  0.00    -0.354 N 
ATOM     65  N   UNL A   1      47.055  29.162  27.518  1.00  0.00    -0.248 NA
ATOM     66  C   UNL A   1      48.771  30.740  27.388  1.00  0.00     0.031 C 
ATOM     67  C   UNL A   1      47.133  25.196  25.509  1.00  0.00     0.029 A 
ATOM     68  C   UNL A   1      47.131  26.438  26.128  1.00  0.00     0.049 A 
ATOM     69  H   UNL A   1      45.669  27.288  27.388  1.00  0.00     0.167 HD
ATOM     70  C   UNL A   1      48.071  28.662  26.710  1.00  0.00     0.074 A 
ATOM     71  C   UNL A   1      49.096  29.685  26.651  1.00  0.00     0.031 C 
ATOM     72  C   UNL A   1      48.141  27.468  26.069  1.00  0.00     0.037 A 
BRANCH  59  73
ATOM     73  C   UNL A   1      43.302  23.737  27.097  1.00  0.00     0.058 A 
ATOM     74  C   UNL A   1      43.443  22.711  28.046  1.00  0.00     0.135 A 
ATOM     75  C   UNL A   1      42.555  23.456  25.941  1.00  0.00     0.135 A 
ATOM     76  F   UNL A   1      44.156  22.918  29.165  1.00  0.00    -0.206 F 
ATOM     77  C   UNL A   1      42.924  21.439  27.828  1.00  0.00     0.059 A 
ATOM     78  C   UNL A   1      41.992  22.202  25.719  1.00  0.00     0.059 A 
ATOM     79  F   UNL A   1      42.379  24.399  25.002  1.00  0.00    -0.206 F 
ATOM     80  C   UNL A   1      42.207  21.192  26.656  1.00  0.00     0.060 A 
BRANCH  80  81
ATOM     81  S   UNL A   1      41.580  19.527  26.365  1.00  0.00     0.124 S 
ATOM     82  O   UNL A   1      41.893  18.874  27.633  1.00  0.00    -0.237 OA
ATOM     83  O   UNL A   1      40.163  19.766  26.110  1.00  0.00    -0.237 OA
ATOM     84  O   UNL A   1      42.353  19.067  25.215  1.00  0.00    -0.744 OA
ENDBRANCH  80  81
ENDBRANCH  59  73
BRANCH  60  85
ATOM     85  C   UNL A   1      47.348  32.655  29.126  1.00  0.00     0.058 A 
ATOM     86  C   UNL A   1      47.074  33.826  28.404  1.00  0.00     0.135 A 
ATOM     87  C   UNL A   1      48.170  32.764  30.260  1.00  0.00     0.135 A 
ATOM     88  F   UNL A   1      46.303  33.772  27.308  1.00  0.00    -0.206 F 
ATOM     89  C   UNL A   1      47.582  35.059  28.797  1.00  0.00     0.059 A 
ATOM     90  C   UNL A   1      48.670  33.990  30.687  1.00  0.00     0.059 A 
ATOM     91  F   UNL A   1      48.451  31.675  30.993  1.00  0.00    -0.206 F 
ATOM     92  C   UNL A   1      48.368  35.134  29.949  1.00  0.00     0.060 A 
BRANCH  92  93
ATOM     93  S   UNL A   1      48.932  36.757  30.507  1.00  0.00     0.124 S 
ATOM     94  O   UNL A   1      47.725  37.559  30.351  1.00  0.00    -0.237 OA
ATOM     95  O   UNL A   1      49.342  36.478  31.881  1.00  0.00    -0.237 OA
ATOM     96  O   UNL A   1      50.022  37.068  29.588  1.00  0.00    -0.744 OA
ENDBRANCH  92  93
ENDBRANCH  60  85
BRANCH  72  97
ATOM     97  C   UNL A   1      49.340  27.206  25.199  1.00  0.00     0.058 A 
ATOM     98  C   UNL A   1      49.328  27.450  23.817  1.00  0.00     0.135 A 
ATOM     99  C   UNL A   1      50.551  26.795  25.781  1.00  0.00     0.135 A 
ATOM    100  F   UNL A   1      48.195  27.836  23.209  1.00  0.00    -0.206 F 
ATOM    101  C   UNL A   1      50.473  27.292  23.042  1.00  0.00     0.059 A 
ATOM    102  C   UNL A   1      51.715  26.658  25.031  1.00  0.00     0.059 A 
ATOM    103  F   UNL A   1      50.620  26.555  27.100  1.00  0.00    -0.206 F 
ATOM    104  C   UNL A   1      51.664  26.905  23.661  1.00  0.00     0.060 A 
BRANCH 104 105
ATOM    105  S   UNL A   1      53.159  26.773  22.655  1.00  0.00     0.124 S 
ATOM    106  O   UNL A   1      53.455  28.175  22.382  1.00  0.00    -0.237 OA
ATOM    107  O   UNL A   1      54.082  26.092  23.558  1.00  0.00    -0.237 OA
ATOM    108  O   UNL A   1      52.726  25.987  21.503  1.00  0.00    -0.744 OA
ENDBRANCH 104 105
ENDBRANCH  72  97
ENDBRANCH  46  47
ENDBRANCH  38  41
ENDBRANCH  36  37
ENDBRANCH  35  36
ENDBRANCH  34  35
ENDBRANCH  33  34
ENDBRANCH   3  33
TORSDOF 21
ENDMDL
