MODEL 1
REMARK VINA RESULT:     -13.2      0.000      0.000
REMARK SMILES O=C(NCCCCNC(=O)[C@H]1[C@H](C(=O)NC2CC[NH+](Cc3ccccc3)CC2)[C@H]2C=C[C@@H]1C2)c1ccc(-c2c3nc(c(-c4c(F)cc(S(=O)(=O)[O-])cc4F)c4ccc([nH]4)c(-c4c(F)cc(S(=O)(=O)[O-])cc4F)c4nc(c(-c5c(F)cc(S(=O)(=O)[O-])cc5F)c5ccc2[nH]5)C=C4)C=C3)cc1
REMARK SMILES IDX 6 1 5 2 4 3 3 4 1 5 2 6 34 8 35 9 99 10 36 11 98 12 37 13
REMARK SMILES IDX 38 14 39 15 92 16 40 17 97 18 91 19 93 20 41 21 96 22 90 23
REMARK SMILES IDX 89 24 42 26 76 27 55 28 75 29 56 30 59 31 74 32 94 33 57 34
REMARK SMILES IDX 58 35 73 37 95 38 60 39 43 40 44 41 53 42 45 43 46 44 52 45
REMARK SMILES IDX 54 46 47 47 48 48 49 49 50 50 51 51 77 52 78 53 87 54 79 55
REMARK SMILES IDX 80 56 86 57 88 58 81 59 82 60 83 61 84 62 85 63 61 64 62 65
REMARK SMILES IDX 71 66 63 67 64 68 70 69 72 70 65 71 66 72 67 73 68 74 69 75
REMARK SMILES IDX 7 76 8 77 9 78 10 80 11 81 12 82 32 83 29 84 31 85 33 86
REMARK SMILES IDX 30 87 13 88 14 89 15 90 16 92 17 93 28 94 18 95 27 96 19 97
REMARK SMILES IDX 20 99 21 100 22 101 26 102 23 103 25 104 24 105
REMARK H PARENT 3 7 93 25 59 36 8 79 15 91 19 98
REMARK Flexibility Score: inf
ROOT
ATOM      1  C   UNL A   1      33.077  29.479  26.964  1.00  0.00     0.023 C 
ENDROOT
BRANCH   1   2
ATOM      2  C   UNL A   1      34.444  28.845  27.204  1.00  0.00     0.023 C 
BRANCH   2   3
ATOM      3  C   UNL A   1      35.543  29.777  27.703  1.00  0.00     0.116 C 
BRANCH   3   4
ATOM      4  N   UNL A   1      35.372  30.204  29.088  1.00  0.00    -0.352 N 
ATOM      5  O   UNL A   1      35.946  30.652  31.226  1.00  0.00    -0.269 OA
ATOM      6  C   UNL A   1      36.304  30.387  30.083  1.00  0.00     0.251 C 
ATOM      7  H   UNL A   1      34.442  30.391  29.353  1.00  0.00     0.163 HD
BRANCH   6   8
ATOM      8  C   UNL A   1      37.733  30.215  29.766  1.00  0.00     0.039 A 
ATOM      9  C   UNL A   1      38.170  30.337  28.448  1.00  0.00     0.014 A 
ATOM     10  C   UNL A   1      38.627  29.863  30.780  1.00  0.00     0.014 A 
ATOM     11  C   UNL A   1      39.439  29.895  28.110  1.00  0.00     0.010 A 
ATOM     12  C   UNL A   1      39.944  29.538  30.452  1.00  0.00     0.010 A 
ATOM     13  C   UNL A   1      40.347  29.502  29.108  1.00  0.00    -0.014 A 
BRANCH  13  14
ATOM     14  C   UNL A   1      41.723  29.113  28.711  1.00  0.00     0.031 A 
ATOM     15  C   UNL A   1      42.868  30.086  28.793  1.00  0.00     0.074 A 
ATOM     16  C   UNL A   1      41.935  27.842  28.316  1.00  0.00     0.049 A 
ATOM     17  N   UNL A   1      44.127  29.899  28.487  1.00  0.00    -0.248 NA
ATOM     18  C   UNL A   1      42.564  31.445  29.269  1.00  0.00     0.031 C 
ATOM     19  C   UNL A   1      40.893  26.817  28.198  1.00  0.00     0.029 A 
ATOM     20  N   UNL A   1      43.084  27.186  27.969  1.00  0.00    -0.354 N 
ATOM     21  C   UNL A   1      44.759  31.119  28.701  1.00  0.00     0.074 A 
ATOM     22  C   UNL A   1      43.741  32.045  29.150  1.00  0.00     0.031 C 
ATOM     23  C   UNL A   1      41.460  25.647  27.874  1.00  0.00     0.029 A 
ATOM     24  C   UNL A   1      42.888  25.858  27.673  1.00  0.00     0.049 A 
ATOM     25  H   UNL A   1      43.966  27.622  27.935  1.00  0.00     0.167 HD
ATOM     26  C   UNL A   1      46.069  31.431  28.538  1.00  0.00     0.037 A 
ATOM     27  C   UNL A   1      43.752  24.915  27.259  1.00  0.00     0.037 A 
ATOM     28  C   UNL A   1      47.072  30.488  28.110  1.00  0.00     0.049 A 
ATOM     29  C   UNL A   1      45.190  25.290  27.071  1.00  0.00     0.074 A 
ATOM     30  C   UNL A   1      48.431  30.692  27.942  1.00  0.00     0.029 A 
ATOM     31  N   UNL A   1      46.826  29.161  27.779  1.00  0.00    -0.354 N 
ATOM     32  N   UNL A   1      45.771  26.447  27.283  1.00  0.00    -0.248 NA
ATOM     33  C   UNL A   1      46.088  24.241  26.576  1.00  0.00     0.031 C 
ATOM     34  C   UNL A   1      48.999  29.504  27.469  1.00  0.00     0.029 A 
ATOM     35  C   UNL A   1      48.003  28.543  27.387  1.00  0.00     0.049 A 
ATOM     36  H   UNL A   1      45.945  28.725  27.817  1.00  0.00     0.167 HD
ATOM     37  C   UNL A   1      47.107  26.266  26.952  1.00  0.00     0.074 A 
ATOM     38  C   UNL A   1      47.250  24.880  26.548  1.00  0.00     0.031 C 
ATOM     39  C   UNL A   1      48.121  27.165  26.977  1.00  0.00     0.037 A 
BRANCH  26  40
ATOM     40  C   UNL A   1      46.487  32.855  28.792  1.00  0.00     0.058 A 
ATOM     41  C   UNL A   1      46.963  33.282  30.042  1.00  0.00     0.135 A 
ATOM     42  C   UNL A   1      46.439  33.804  27.756  1.00  0.00     0.135 A 
ATOM     43  F   UNL A   1      47.020  32.423  31.071  1.00  0.00    -0.206 F 
ATOM     44  C   UNL A   1      47.343  34.602  30.265  1.00  0.00     0.059 A 
ATOM     45  C   UNL A   1      46.837  35.124  27.950  1.00  0.00     0.059 A 
ATOM     46  F   UNL A   1      45.996  33.453  26.538  1.00  0.00    -0.206 F 
ATOM     47  C   UNL A   1      47.271  35.518  29.214  1.00  0.00     0.060 A 
BRANCH  47  48
ATOM     48  S   UNL A   1      47.750  37.232  29.524  1.00  0.00     0.124 S 
ATOM     49  O   UNL A   1      48.532  37.536  28.329  1.00  0.00    -0.237 OA
ATOM     50  O   UNL A   1      46.459  37.906  29.623  1.00  0.00    -0.237 OA
ATOM     51  O   UNL A   1      48.510  37.154  30.768  1.00  0.00    -0.744 OA
ENDBRANCH  47  48
ENDBRANCH  26  40
BRANCH  27  52
ATOM     52  C   UNL A   1      43.257  23.542  26.987  1.00  0.00     0.058 A 
ATOM     53  C   UNL A   1      43.026  23.104  25.677  1.00  0.00     0.135 A 
ATOM     54  C   UNL A   1      43.077  22.618  28.029  1.00  0.00     0.135 A 
ATOM     55  F   UNL A   1      43.184  23.952  24.648  1.00  0.00    -0.206 F 
ATOM     56  C   UNL A   1      42.636  21.797  25.406  1.00  0.00     0.059 A 
ATOM     57  C   UNL A   1      42.715  21.299  27.783  1.00  0.00     0.059 A 
ATOM     58  F   UNL A   1      43.307  22.985  29.301  1.00  0.00    -0.206 F 
ATOM     59  C   UNL A   1      42.491  20.900  26.467  1.00  0.00     0.060 A 
BRANCH  59  60
ATOM     60  S   UNL A   1      42.063  19.184  26.100  1.00  0.00     0.124 S 
ATOM     61  O   UNL A   1      42.858  18.933  24.904  1.00  0.00    -0.237 OA
ATOM     62  O   UNL A   1      42.496  18.494  27.311  1.00  0.00    -0.237 OA
ATOM     63  O   UNL A   1      40.617  19.234  25.902  1.00  0.00    -0.744 OA
ENDBRANCH  59  60
ENDBRANCH  27  52
BRANCH  39  64
ATOM     64  C   UNL A   1      49.478  26.665  26.569  1.00  0.00     0.058 A 
ATOM     65  C   UNL A   1      50.339  26.045  27.488  1.00  0.00     0.135 A 
ATOM     66  C   UNL A   1      49.909  26.785  25.239  1.00  0.00     0.135 A 
ATOM     67  F   UNL A   1      49.976  25.917  28.775  1.00  0.00    -0.206 F 
ATOM     68  C   UNL A   1      51.593  25.583  27.107  1.00  0.00     0.059 A 
ATOM     69  C   UNL A   1      51.150  26.307  24.830  1.00  0.00     0.059 A 
ATOM     70  F   UNL A   1      49.120  27.365  24.321  1.00  0.00    -0.206 F 
ATOM     71  C   UNL A   1      51.989  25.719  25.775  1.00  0.00     0.060 A 
BRANCH  71  72
ATOM     72  S   UNL A   1      53.611  25.093  25.286  1.00  0.00     0.124 S 
ATOM     73  O   UNL A   1      53.384  23.652  25.295  1.00  0.00    -0.237 OA
ATOM     74  O   UNL A   1      53.796  25.698  23.970  1.00  0.00    -0.237 OA
ATOM     75  O   UNL A   1      54.498  25.598  26.330  1.00  0.00    -0.744 OA
ENDBRANCH  71  72
ENDBRANCH  39  64
ENDBRANCH  13  14
ENDBRANCH   6   8
ENDBRANCH   3   4
ENDBRANCH   2   3
ENDBRANCH   1   2
BRANCH   1  76
ATOM     76  C   UNL A   1      32.739  29.811  25.520  1.00  0.00     0.116 C 
BRANCH  76  77
ATOM     77  N   UNL A   1      33.722  29.427  24.545  1.00  0.00    -0.356 N 
ATOM     78  C   UNL A   1      33.627  28.472  23.590  1.00  0.00     0.224 C 
ATOM     79  H   UNL A   1      34.574  29.920  24.576  1.00  0.00     0.163 HD
ATOM     80  O   UNL A   1      34.468  28.528  22.682  1.00  0.00    -0.275 OA
BRANCH  78  81
ATOM     81  C   UNL A   1      32.593  27.345  23.570  1.00  0.00     0.098 C 
ATOM     82  C   UNL A   1      31.753  27.104  24.834  1.00  0.00     0.098 C 
ATOM     83  C   UNL A   1      31.563  27.188  22.417  1.00  0.00     0.025 C 
ATOM     84  C   UNL A   1      30.354  26.768  24.262  1.00  0.00     0.025 C 
ATOM     85  C   UNL A   1      30.466  28.216  22.477  1.00  0.00    -0.027 C 
ATOM     86  C   UNL A   1      30.707  26.031  22.967  1.00  0.00     0.017 C 
ATOM     87  C   UNL A   1      29.771  28.001  23.605  1.00  0.00    -0.027 C 
BRANCH  82  88
ATOM     88  C   UNL A   1      32.222  26.028  25.809  1.00  0.00     0.224 C 
ATOM     89  O   UNL A   1      31.442  25.735  26.734  1.00  0.00    -0.275 OA
ATOM     90  N   UNL A   1      33.339  25.276  25.804  1.00  0.00    -0.353 N 
ATOM     91  H   UNL A   1      33.356  24.757  26.640  1.00  0.00     0.163 HD
BRANCH  90  92
ATOM     92  C   UNL A   1      34.561  24.922  25.023  1.00  0.00     0.093 C 
ATOM     93  C   UNL A   1      34.124  24.195  23.733  1.00  0.00     0.086 C 
ATOM     94  C   UNL A   1      35.588  23.967  25.634  1.00  0.00     0.086 C 
ATOM     95  C   UNL A   1      33.480  22.840  24.075  1.00  0.00     0.264 C 
ATOM     96  C   UNL A   1      34.905  22.680  26.084  1.00  0.00     0.264 C 
ATOM     97  N   UNL A   1      34.269  21.978  24.964  1.00  0.00    -0.331 N 
ATOM     98  H   UNL A   1      35.025  21.647  24.365  1.00  0.00     0.348 HD
BRANCH  97  99
ATOM     99  C   UNL A   1      33.513  20.796  25.452  1.00  0.00     0.299 C 
BRANCH  99 100
ATOM    100  C   UNL A   1      33.550  19.545  24.583  1.00  0.00     0.006 A 
ATOM    101  C   UNL A   1      34.610  18.629  24.675  1.00  0.00     0.009 A 
ATOM    102  C   UNL A   1      32.508  19.263  23.686  1.00  0.00     0.009 A 
ATOM    103  C   UNL A   1      34.606  17.453  23.919  1.00  0.00     0.001 A 
ATOM    104  C   UNL A   1      32.486  18.074  22.956  1.00  0.00     0.001 A 
ATOM    105  C   UNL A   1      33.536  17.167  23.072  1.00  0.00     0.000 A 
ENDBRANCH  99 100
ENDBRANCH  97  99
ENDBRANCH  90  92
ENDBRANCH  82  88
ENDBRANCH  78  81
ENDBRANCH  76  77
ENDBRANCH   1  76
TORSDOF 18
ENDMDL
MODEL 2
REMARK VINA RESULT:     -13.1      1.349      2.508
REMARK SMILES O=C(NCCCCNC(=O)[C@H]1[C@H](C(=O)NC2CC[NH+](Cc3ccccc3)CC2)[C@H]2C=C[C@@H]1C2)c1ccc(-c2c3nc(c(-c4c(F)cc(S(=O)(=O)[O-])cc4F)c4ccc([nH]4)c(-c4c(F)cc(S(=O)(=O)[O-])cc4F)c4nc(c(-c5c(F)cc(S(=O)(=O)[O-])cc5F)c5ccc2[nH]5)C=C4)C=C3)cc1
REMARK SMILES IDX 6 1 5 2 4 3 3 4 1 5 2 6 34 8 35 9 99 10 36 11 98 12 37 13
REMARK SMILES IDX 38 14 39 15 92 16 40 17 97 18 91 19 93 20 41 21 96 22 90 23
REMARK SMILES IDX 89 24 42 26 76 27 55 28 75 29 56 30 59 31 74 32 94 33 57 34
REMARK SMILES IDX 58 35 73 37 95 38 60 39 43 40 44 41 53 42 45 43 46 44 52 45
REMARK SMILES IDX 54 46 47 47 48 48 49 49 50 50 51 51 77 52 78 53 87 54 79 55
REMARK SMILES IDX 80 56 86 57 88 58 81 59 82 60 83 61 84 62 85 63 61 64 62 65
REMARK SMILES IDX 71 66 63 67 64 68 70 69 72 70 65 71 66 72 67 73 68 74 69 75
REMARK SMILES IDX 7 76 8 77 9 78 10 80 11 81 12 82 32 83 29 84 31 85 33 86
REMARK SMILES IDX 30 87 13 88 14 89 15 90 16 92 17 93 28 94 18 95 27 96 19 97
REMARK SMILES IDX 20 99 21 100 22 101 26 102 23 103 25 104 24 105
REMARK H PARENT 3 7 93 25 59 36 8 79 15 91 19 98
REMARK Flexibility Score: inf
ROOT
ATOM      1  C   UNL A   1      32.545  29.484  27.237  1.00  0.00     0.023 C 
ENDROOT
BRANCH   1   2
ATOM      2  C   UNL A   1      33.894  30.113  26.898  1.00  0.00     0.023 C 
BRANCH   2   3
ATOM      3  C   UNL A   1      35.087  29.633  27.717  1.00  0.00     0.116 C 
BRANCH   3   4
ATOM      4  N   UNL A   1      35.195  30.262  29.030  1.00  0.00    -0.352 N 
ATOM      5  O   UNL A   1      36.124  30.833  31.008  1.00  0.00    -0.269 OA
ATOM      6  C   UNL A   1      36.264  30.345  29.890  1.00  0.00     0.251 C 
ATOM      7  H   UNL A   1      34.371  30.697  29.350  1.00  0.00     0.163 HD
BRANCH   6   8
ATOM      8  C   UNL A   1      37.567  29.801  29.468  1.00  0.00     0.039 A 
ATOM      9  C   UNL A   1      38.370  29.133  30.390  1.00  0.00     0.014 A 
ATOM     10  C   UNL A   1      38.015  30.019  28.163  1.00  0.00     0.014 A 
ATOM     11  C   UNL A   1      39.697  28.884  30.079  1.00  0.00     0.010 A 
ATOM     12  C   UNL A   1      39.315  29.651  27.813  1.00  0.00     0.010 A 
ATOM     13  C   UNL A   1      40.184  29.126  28.783  1.00  0.00    -0.014 A 
BRANCH  13  14
ATOM     14  C   UNL A   1      41.589  28.768  28.467  1.00  0.00     0.031 A 
ATOM     15  C   UNL A   1      42.701  29.775  28.583  1.00  0.00     0.074 A 
ATOM     16  C   UNL A   1      41.855  27.495  28.114  1.00  0.00     0.049 A 
ATOM     17  N   UNL A   1      43.978  29.618  28.347  1.00  0.00    -0.248 NA
ATOM     18  C   UNL A   1      42.336  31.136  29.010  1.00  0.00     0.031 C 
ATOM     19  C   UNL A   1      40.850  26.438  27.969  1.00  0.00     0.029 A 
ATOM     20  N   UNL A   1      43.039  26.865  27.843  1.00  0.00    -0.354 N 
ATOM     21  C   UNL A   1      44.565  30.860  28.562  1.00  0.00     0.074 A 
ATOM     22  C   UNL A   1      43.501  31.766  28.935  1.00  0.00     0.031 C 
ATOM     23  C   UNL A   1      41.465  25.278  27.703  1.00  0.00     0.029 A 
ATOM     24  C   UNL A   1      42.894  25.525  27.570  1.00  0.00     0.049 A 
ATOM     25  H   UNL A   1      43.909  27.325  27.843  1.00  0.00     0.167 HD
ATOM     26  C   UNL A   1      45.872  31.205  28.459  1.00  0.00     0.037 A 
ATOM     27  C   UNL A   1      43.805  24.598  27.224  1.00  0.00     0.037 A 
ATOM     28  C   UNL A   1      46.922  30.282  28.105  1.00  0.00     0.049 A 
ATOM     29  C   UNL A   1      45.240  25.009  27.100  1.00  0.00     0.074 A 
ATOM     30  C   UNL A   1      48.282  30.521  28.002  1.00  0.00     0.029 A 
ATOM     31  N   UNL A   1      46.730  28.941  27.795  1.00  0.00    -0.354 N 
ATOM     32  N   UNL A   1      45.777  26.188  27.313  1.00  0.00    -0.248 NA
ATOM     33  C   UNL A   1      46.191  23.976  26.677  1.00  0.00     0.031 C 
ATOM     34  C   UNL A   1      48.905  29.339  27.588  1.00  0.00     0.029 A 
ATOM     35  C   UNL A   1      47.942  28.348  27.479  1.00  0.00     0.049 A 
ATOM     36  H   UNL A   1      45.861  28.481  27.799  1.00  0.00     0.167 HD
ATOM     37  C   UNL A   1      47.133  26.037  27.055  1.00  0.00     0.074 A 
ATOM     38  C   UNL A   1      47.334  24.647  26.693  1.00  0.00     0.031 C 
ATOM     39  C   UNL A   1      48.119  26.965  27.110  1.00  0.00     0.037 A 
BRANCH  26  40
ATOM     40  C   UNL A   1      46.238  32.646  28.698  1.00  0.00     0.058 A 
ATOM     41  C   UNL A   1      46.597  33.124  29.968  1.00  0.00     0.135 A 
ATOM     42  C   UNL A   1      46.258  33.560  27.630  1.00  0.00     0.135 A 
ATOM     43  F   UNL A   1      46.584  32.300  31.028  1.00  0.00    -0.206 F 
ATOM     44  C   UNL A   1      46.929  34.460  30.178  1.00  0.00     0.059 A 
ATOM     45  C   UNL A   1      46.610  34.895  27.812  1.00  0.00     0.059 A 
ATOM     46  F   UNL A   1      45.927  33.160  26.392  1.00  0.00    -0.206 F 
ATOM     47  C   UNL A   1      46.928  35.339  29.094  1.00  0.00     0.060 A 
BRANCH  47  48
ATOM     48  S   UNL A   1      47.342  37.074  29.385  1.00  0.00     0.124 S 
ATOM     49  O   UNL A   1      46.802  37.706  28.185  1.00  0.00    -0.237 OA
ATOM     50  O   UNL A   1      46.631  37.362  30.627  1.00  0.00    -0.237 OA
ATOM     51  O   UNL A   1      48.798  37.063  29.488  1.00  0.00    -0.744 OA
ENDBRANCH  47  48
ENDBRANCH  26  40
BRANCH  27  52
ATOM     52  C   UNL A   1      43.362  23.205  26.961  1.00  0.00     0.058 A 
ATOM     53  C   UNL A   1      43.264  22.714  25.653  1.00  0.00     0.135 A 
ATOM     54  C   UNL A   1      43.102  22.317  28.017  1.00  0.00     0.135 A 
ATOM     55  F   UNL A   1      43.502  23.526  24.611  1.00  0.00    -0.206 F 
ATOM     56  C   UNL A   1      42.924  21.389  25.399  1.00  0.00     0.059 A 
ATOM     57  C   UNL A   1      42.788  20.983  27.790  1.00  0.00     0.059 A 
ATOM     58  F   UNL A   1      43.204  22.736  29.289  1.00  0.00    -0.206 F 
ATOM     59  C   UNL A   1      42.696  20.530  26.475  1.00  0.00     0.060 A 
BRANCH  59  60
ATOM     60  S   UNL A   1      42.335  18.792  26.138  1.00  0.00     0.124 S 
ATOM     61  O   UNL A   1      40.973  18.871  25.625  1.00  0.00    -0.237 OA
ATOM     62  O   UNL A   1      43.366  18.448  25.163  1.00  0.00    -0.237 OA
ATOM     63  O   UNL A   1      42.485  18.159  27.445  1.00  0.00    -0.744 OA
ENDBRANCH  59  60
ENDBRANCH  27  52
BRANCH  39  64
ATOM     64  C   UNL A   1      49.509  26.495  26.784  1.00  0.00     0.058 A 
ATOM     65  C   UNL A   1      49.977  26.450  25.462  1.00  0.00     0.135 A 
ATOM     66  C   UNL A   1      50.388  26.112  27.809  1.00  0.00     0.135 A 
ATOM     67  F   UNL A   1      49.170  26.797  24.446  1.00  0.00    -0.206 F 
ATOM     68  C   UNL A   1      51.264  26.017  25.164  1.00  0.00     0.059 A 
ATOM     69  C   UNL A   1      51.687  25.699  27.536  1.00  0.00     0.059 A 
ATOM     70  F   UNL A   1      49.989  26.143  29.090  1.00  0.00    -0.206 F 
ATOM     71  C   UNL A   1      52.112  25.643  26.209  1.00  0.00     0.060 A 
BRANCH  71  72
ATOM     72  S   UNL A   1      53.789  25.105  25.812  1.00  0.00     0.124 S 
ATOM     73  O   UNL A   1      53.554  23.749  25.327  1.00  0.00    -0.237 OA
ATOM     74  O   UNL A   1      54.199  26.076  24.803  1.00  0.00    -0.237 OA
ATOM     75  O   UNL A   1      54.488  25.205  27.089  1.00  0.00    -0.744 OA
ENDBRANCH  71  72
ENDBRANCH  39  64
ENDBRANCH  13  14
ENDBRANCH   6   8
ENDBRANCH   3   4
ENDBRANCH   2   3
ENDBRANCH   1   2
BRANCH   1  76
ATOM     76  C   UNL A   1      32.540  27.977  27.428  1.00  0.00     0.116 C 
BRANCH  76  77
ATOM     77  N   UNL A   1      31.285  27.321  27.182  1.00  0.00    -0.356 N 
ATOM     78  C   UNL A   1      30.805  26.841  26.011  1.00  0.00     0.224 C 
ATOM     79  H   UNL A   1      30.699  27.207  27.966  1.00  0.00     0.163 HD
ATOM     80  O   UNL A   1      29.852  26.054  26.098  1.00  0.00    -0.275 OA
BRANCH  78  81
ATOM     81  C   UNL A   1      31.331  27.213  24.624  1.00  0.00     0.098 C 
ATOM     82  C   UNL A   1      30.699  26.535  23.399  1.00  0.00     0.098 C 
ATOM     83  C   UNL A   1      31.497  28.691  24.172  1.00  0.00     0.025 C 
ATOM     84  C   UNL A   1      30.639  27.681  22.360  1.00  0.00     0.025 C 
ATOM     85  C   UNL A   1      30.182  29.355  23.871  1.00  0.00    -0.027 C 
ATOM     86  C   UNL A   1      31.897  28.486  22.698  1.00  0.00     0.017 C 
ATOM     87  C   UNL A   1      29.640  28.723  22.818  1.00  0.00    -0.027 C 
BRANCH  82  88
ATOM     88  C   UNL A   1      31.396  25.306  22.823  1.00  0.00     0.224 C 
ATOM     89  O   UNL A   1      31.832  25.405  21.661  1.00  0.00    -0.275 OA
ATOM     90  N   UNL A   1      31.685  24.121  23.395  1.00  0.00    -0.353 N 
ATOM     91  H   UNL A   1      32.051  23.532  22.697  1.00  0.00     0.163 HD
BRANCH  90  92
ATOM     92  C   UNL A   1      31.668  23.355  24.676  1.00  0.00     0.093 C 
ATOM     93  C   UNL A   1      32.622  24.046  25.673  1.00  0.00     0.086 C 
ATOM     94  C   UNL A   1      32.144  21.901  24.684  1.00  0.00     0.086 C 
ATOM     95  C   UNL A   1      34.076  23.941  25.182  1.00  0.00     0.264 C 
ATOM     96  C   UNL A   1      33.538  21.803  24.073  1.00  0.00     0.264 C 
ATOM     97  N   UNL A   1      34.521  22.588  24.827  1.00  0.00    -0.331 N 
ATOM     98  H   UNL A   1      34.626  22.127  25.731  1.00  0.00     0.348 HD
BRANCH  97  99
ATOM     99  C   UNL A   1      35.839  22.568  24.142  1.00  0.00     0.299 C 
BRANCH  99 100
ATOM    100  C   UNL A   1      37.079  22.554  25.027  1.00  0.00     0.006 A 
ATOM    101  C   UNL A   1      37.844  21.388  25.185  1.00  0.00     0.009 A 
ATOM    102  C   UNL A   1      37.502  23.718  25.687  1.00  0.00     0.009 A 
ATOM    103  C   UNL A   1      39.014  21.399  25.950  1.00  0.00     0.001 A 
ATOM    104  C   UNL A   1      38.688  23.739  26.422  1.00  0.00     0.001 A 
ATOM    105  C   UNL A   1      39.445  22.579  26.554  1.00  0.00     0.000 A 
ENDBRANCH  99 100
ENDBRANCH  97  99
ENDBRANCH  90  92
ENDBRANCH  82  88
ENDBRANCH  78  81
ENDBRANCH  76  77
ENDBRANCH   1  76
TORSDOF 18
ENDMDL
MODEL 3
REMARK VINA RESULT:     -12.8      6.161     11.806
REMARK SMILES O=C(NCCCCNC(=O)[C@H]1[C@H](C(=O)NC2CC[NH+](Cc3ccccc3)CC2)[C@H]2C=C[C@@H]1C2)c1ccc(-c2c3nc(c(-c4c(F)cc(S(=O)(=O)[O-])cc4F)c4ccc([nH]4)c(-c4c(F)cc(S(=O)(=O)[O-])cc4F)c4nc(c(-c5c(F)cc(S(=O)(=O)[O-])cc5F)c5ccc2[nH]5)C=C4)C=C3)cc1
REMARK SMILES IDX 6 1 5 2 4 3 3 4 1 5 2 6 34 8 35 9 99 10 36 11 98 12 37 13
REMARK SMILES IDX 38 14 39 15 92 16 40 17 97 18 91 19 93 20 41 21 96 22 90 23
REMARK SMILES IDX 89 24 42 26 76 27 55 28 75 29 56 30 59 31 74 32 94 33 57 34
REMARK SMILES IDX 58 35 73 37 95 38 60 39 43 40 44 41 53 42 45 43 46 44 52 45
REMARK SMILES IDX 54 46 47 47 48 48 49 49 50 50 51 51 77 52 78 53 87 54 79 55
REMARK SMILES IDX 80 56 86 57 88 58 81 59 82 60 83 61 84 62 85 63 61 64 62 65
REMARK SMILES IDX 71 66 63 67 64 68 70 69 72 70 65 71 66 72 67 73 68 74 69 75
REMARK SMILES IDX 7 76 8 77 9 78 10 80 11 81 12 82 32 83 29 84 31 85 33 86
REMARK SMILES IDX 30 87 13 88 14 89 15 90 16 92 17 93 28 94 18 95 27 96 19 97
REMARK SMILES IDX 20 99 21 100 22 101 26 102 23 103 25 104 24 105
REMARK H PARENT 3 7 93 25 59 36 8 79 15 91 19 98
REMARK Flexibility Score: inf
ROOT
ATOM      1  C   UNL A   1      38.017  24.165  26.386  1.00  0.00     0.023 C 
ENDROOT
BRANCH   1   2
ATOM      2  C   UNL A   1      39.047  23.041  26.304  1.00  0.00     0.023 C 
BRANCH   2   3
ATOM      3  C   UNL A   1      40.428  23.348  26.873  1.00  0.00     0.116 C 
BRANCH   3   4
ATOM      4  N   UNL A   1      41.318  24.021  25.932  1.00  0.00    -0.352 N 
ATOM      5  O   UNL A   1      42.429  25.729  24.958  1.00  0.00    -0.269 OA
ATOM      6  C   UNL A   1      41.757  25.324  25.901  1.00  0.00     0.251 C 
ATOM      7  H   UNL A   1      41.659  23.452  25.204  1.00  0.00     0.163 HD
BRANCH   6   8
ATOM      8  C   UNL A   1      41.373  26.235  26.994  1.00  0.00     0.039 A 
ATOM      9  C   UNL A   1      41.788  27.564  26.965  1.00  0.00     0.014 A 
ATOM     10  C   UNL A   1      40.654  25.739  28.084  1.00  0.00     0.014 A 
ATOM     11  C   UNL A   1      41.680  28.334  28.113  1.00  0.00     0.010 A 
ATOM     12  C   UNL A   1      40.436  26.559  29.193  1.00  0.00     0.010 A 
ATOM     13  C   UNL A   1      40.992  27.847  29.237  1.00  0.00    -0.014 A 
BRANCH  13  14
ATOM     14  C   UNL A   1      40.827  28.733  30.416  1.00  0.00     0.031 A 
ATOM     15  C   UNL A   1      41.763  28.656  31.591  1.00  0.00     0.074 A 
ATOM     16  C   UNL A   1      39.839  29.648  30.389  1.00  0.00     0.049 A 
ATOM     17  N   UNL A   1      41.755  29.362  32.694  1.00  0.00    -0.248 NA
ATOM     18  C   UNL A   1      42.841  27.656  31.531  1.00  0.00     0.031 C 
ATOM     19  C   UNL A   1      38.872  29.806  29.297  1.00  0.00     0.029 A 
ATOM     20  N   UNL A   1      39.496  30.630  31.278  1.00  0.00    -0.354 N 
ATOM     21  C   UNL A   1      42.800  28.874  33.471  1.00  0.00     0.074 A 
ATOM     22  C   UNL A   1      43.413  27.800  32.720  1.00  0.00     0.031 C 
ATOM     23  C   UNL A   1      38.092  30.865  29.549  1.00  0.00     0.029 A 
ATOM     24  C   UNL A   1      38.441  31.405  30.856  1.00  0.00     0.049 A 
ATOM     25  H   UNL A   1      39.959  30.769  32.135  1.00  0.00     0.167 HD
ATOM     26  C   UNL A   1      43.206  29.288  34.696  1.00  0.00     0.037 A 
ATOM     27  C   UNL A   1      37.804  32.422  31.462  1.00  0.00     0.037 A 
ATOM     28  C   UNL A   1      42.594  30.375  35.421  1.00  0.00     0.049 A 
ATOM     29  C   UNL A   1      38.262  32.850  32.823  1.00  0.00     0.074 A 
ATOM     30  C   UNL A   1      42.947  30.895  36.654  1.00  0.00     0.029 A 
ATOM     31  N   UNL A   1      41.500  31.109  34.978  1.00  0.00    -0.354 N 
ATOM     32  N   UNL A   1      39.254  32.379  33.540  1.00  0.00    -0.248 NA
ATOM     33  C   UNL A   1      37.509  33.933  33.465  1.00  0.00     0.031 C 
ATOM     34  C   UNL A   1      42.041  31.912  36.977  1.00  0.00     0.029 A 
ATOM     35  C   UNL A   1      41.152  32.060  35.924  1.00  0.00     0.049 A 
ATOM     36  H   UNL A   1      41.040  30.972  34.119  1.00  0.00     0.167 HD
ATOM     37  C   UNL A   1      39.251  33.113  34.718  1.00  0.00     0.074 A 
ATOM     38  C   UNL A   1      38.170  34.074  34.605  1.00  0.00     0.031 C 
ATOM     39  C   UNL A   1      40.065  33.000  35.796  1.00  0.00     0.037 A 
BRANCH  26  40
ATOM     40  C   UNL A   1      44.342  28.546  35.347  1.00  0.00     0.058 A 
ATOM     41  C   UNL A   1      45.682  28.929  35.171  1.00  0.00     0.135 A 
ATOM     42  C   UNL A   1      44.086  27.448  36.186  1.00  0.00     0.135 A 
ATOM     43  F   UNL A   1      45.988  29.961  34.370  1.00  0.00    -0.206 F 
ATOM     44  C   UNL A   1      46.725  28.231  35.773  1.00  0.00     0.059 A 
ATOM     45  C   UNL A   1      45.111  26.751  36.819  1.00  0.00     0.059 A 
ATOM     46  F   UNL A   1      42.824  27.038  36.395  1.00  0.00    -0.206 F 
ATOM     47  C   UNL A   1      46.430  27.140  36.592  1.00  0.00     0.060 A 
BRANCH  47  48
ATOM     48  S   UNL A   1      47.796  26.234  37.353  1.00  0.00     0.124 S 
ATOM     49  O   UNL A   1      48.739  26.145  36.241  1.00  0.00    -0.237 OA
ATOM     50  O   UNL A   1      48.188  27.116  38.447  1.00  0.00    -0.237 OA
ATOM     51  O   UNL A   1      47.183  24.972  37.757  1.00  0.00    -0.744 OA
ENDBRANCH  47  48
ENDBRANCH  26  40
BRANCH  27  52
ATOM     52  C   UNL A   1      36.662  33.078  30.776  1.00  0.00     0.058 A 
ATOM     53  C   UNL A   1      35.343  32.842  31.184  1.00  0.00     0.135 A 
ATOM     54  C   UNL A   1      36.874  34.010  29.749  1.00  0.00     0.135 A 
ATOM     55  F   UNL A   1      35.090  31.958  32.162  1.00  0.00    -0.206 F 
ATOM     56  C   UNL A   1      34.271  33.508  30.599  1.00  0.00     0.059 A 
ATOM     57  C   UNL A   1      35.823  34.710  29.168  1.00  0.00     0.059 A 
ATOM     58  F   UNL A   1      38.123  34.286  29.338  1.00  0.00    -0.206 F 
ATOM     59  C   UNL A   1      34.524  34.447  29.597  1.00  0.00     0.060 A 
BRANCH  59  60
ATOM     60  S   UNL A   1      33.135  35.368  28.899  1.00  0.00     0.124 S 
ATOM     61  O   UNL A   1      32.416  35.768  30.102  1.00  0.00    -0.237 OA
ATOM     62  O   UNL A   1      33.810  36.439  28.172  1.00  0.00    -0.237 OA
ATOM     63  O   UNL A   1      32.465  34.378  28.061  1.00  0.00    -0.744 OA
ENDBRANCH  59  60
ENDBRANCH  27  52
BRANCH  39  64
ATOM     64  C   UNL A   1      39.822  33.954  36.931  1.00  0.00     0.058 A 
ATOM     65  C   UNL A   1      39.024  33.600  38.030  1.00  0.00     0.135 A 
ATOM     66  C   UNL A   1      40.416  35.226  36.930  1.00  0.00     0.135 A 
ATOM     67  F   UNL A   1      38.425  32.398  38.071  1.00  0.00    -0.206 F 
ATOM     68  C   UNL A   1      38.803  34.485  39.079  1.00  0.00     0.059 A 
ATOM     69  C   UNL A   1      40.228  36.117  37.981  1.00  0.00     0.059 A 
ATOM     70  F   UNL A   1      41.192  35.609  35.904  1.00  0.00    -0.206 F 
ATOM     71  C   UNL A   1      39.410  35.741  39.045  1.00  0.00     0.060 A 
BRANCH  71  72
ATOM     72  S   UNL A   1      39.135  36.873  40.424  1.00  0.00     0.124 S 
ATOM     73  O   UNL A   1      38.293  36.067  41.302  1.00  0.00    -0.237 OA
ATOM     74  O   UNL A   1      40.492  37.122  40.901  1.00  0.00    -0.237 OA
ATOM     75  O   UNL A   1      38.478  38.017  39.799  1.00  0.00    -0.744 OA
ENDBRANCH  71  72
ENDBRANCH  39  64
ENDBRANCH  13  14
ENDBRANCH   6   8
ENDBRANCH   3   4
ENDBRANCH   2   3
ENDBRANCH   1   2
BRANCH   1  76
ATOM     76  C   UNL A   1      36.600  23.803  25.972  1.00  0.00     0.116 C 
BRANCH  76  77
ATOM     77  N   UNL A   1      36.436  23.391  24.605  1.00  0.00    -0.356 N 
ATOM     78  C   UNL A   1      35.339  22.858  24.017  1.00  0.00     0.224 C 
ATOM     79  H   UNL A   1      37.220  23.511  24.023  1.00  0.00     0.163 HD
ATOM     80  O   UNL A   1      35.330  22.867  22.778  1.00  0.00    -0.275 OA
BRANCH  78  81
ATOM     81  C   UNL A   1      34.153  22.239  24.759  1.00  0.00     0.098 C 
ATOM     82  C   UNL A   1      32.823  22.084  24.005  1.00  0.00     0.098 C 
ATOM     83  C   UNL A   1      34.277  20.907  25.550  1.00  0.00     0.025 C 
ATOM     84  C   UNL A   1      32.300  20.715  24.503  1.00  0.00     0.025 C 
ATOM     85  C   UNL A   1      34.362  19.705  24.649  1.00  0.00    -0.027 C 
ATOM     86  C   UNL A   1      32.805  20.685  25.948  1.00  0.00     0.017 C 
ATOM     87  C   UNL A   1      33.201  19.614  23.983  1.00  0.00    -0.027 C 
BRANCH  82  88
ATOM     88  C   UNL A   1      31.770  23.173  24.184  1.00  0.00     0.224 C 
ATOM     89  O   UNL A   1      30.885  22.961  25.034  1.00  0.00    -0.275 OA
ATOM     90  N   UNL A   1      31.666  24.388  23.609  1.00  0.00    -0.353 N 
ATOM     91  H   UNL A   1      30.808  24.780  23.887  1.00  0.00     0.163 HD
BRANCH  90  92
ATOM     92  C   UNL A   1      32.348  25.370  22.715  1.00  0.00     0.093 C 
ATOM     93  C   UNL A   1      33.684  25.782  23.369  1.00  0.00     0.086 C 
ATOM     94  C   UNL A   1      31.671  26.710  22.423  1.00  0.00     0.086 C 
ATOM     95  C   UNL A   1      33.424  26.562  24.670  1.00  0.00     0.264 C 
ATOM     96  C   UNL A   1      31.305  27.408  23.729  1.00  0.00     0.264 C 
ATOM     97  N   UNL A   1      32.488  27.686  24.549  1.00  0.00    -0.331 N 
ATOM     98  H   UNL A   1      33.027  28.392  24.048  1.00  0.00     0.348 HD
BRANCH  97  99
ATOM     99  C   UNL A   1      32.089  28.256  25.862  1.00  0.00     0.299 C 
BRANCH  99 100
ATOM    100  C   UNL A   1      33.091  29.175  26.551  1.00  0.00     0.006 A 
ATOM    101  C   UNL A   1      32.744  30.488  26.908  1.00  0.00     0.009 A 
ATOM    102  C   UNL A   1      34.380  28.720  26.870  1.00  0.00     0.009 A 
ATOM    103  C   UNL A   1      33.649  31.304  27.594  1.00  0.00     0.001 A 
ATOM    104  C   UNL A   1      35.271  29.522  27.585  1.00  0.00     0.001 A 
ATOM    105  C   UNL A   1      34.905  30.815  27.948  1.00  0.00     0.000 A 
ENDBRANCH  99 100
ENDBRANCH  97  99
ENDBRANCH  90  92
ENDBRANCH  82  88
ENDBRANCH  78  81
ENDBRANCH  76  77
ENDBRANCH   1  76
TORSDOF 18
ENDMDL
