MODEL 1
REMARK VINA RESULT:     -12.7      0.000      0.000
REMARK SMILES Cc1c(C#N)c2ccccc2n1CC(=O)N1CC[C@H](O)C[C@@H]1C(=O)NCCCCNC(=O)c1ccc(-c2c3nc(c(-c4c(F)cc(S(=O)(=O)[O-])cc4F)c4ccc([nH]4)c(-c4c(F)cc(S(=O)(=O)[O-])cc4F)c4nc(c(-c5c(F)cc(S(=O)(=O)[O-])cc5F)c5ccc2[nH]5)C=C4)C=C3)cc1
REMARK SMILES IDX 27 1 26 2 25 3 23 4 24 5 22 7 16 8 17 9 18 10 21 11 19 12
REMARK SMILES IDX 14 13 15 14 13 15 12 16 1 17 2 18 3 19 6 20 11 21 7 22 10 23
REMARK SMILES IDX 8 24 9 25 4 26 5 27 20 28 28 30 29 31 30 32 31 33 32 35
REMARK SMILES IDX 33 36 34 37 98 38 35 39 97 40 36 41 37 42 38 43 91 44 39 45
REMARK SMILES IDX 96 46 90 47 92 48 40 49 95 50 89 51 88 52 41 54 75 55 54 56
REMARK SMILES IDX 74 57 55 58 58 59 73 60 93 61 56 62 57 63 72 65 94 66 59 67
REMARK SMILES IDX 42 68 43 69 52 70 44 71 45 72 51 73 53 74 46 75 47 76 48 77
REMARK SMILES IDX 49 78 50 79 76 80 77 81 86 82 78 83 79 84 85 85 87 86 80 87
REMARK SMILES IDX 81 88 82 89 83 90 84 91 60 92 61 93 70 94 62 95 63 96 69 97
REMARK SMILES IDX 71 98 64 99 65 100 66 101 67 102 68 103
REMARK H PARENT 25 6 20 29 30 34 92 53 58 64
REMARK Flexibility Score: inf
ROOT
ATOM      1  C   UNL A   1      37.809  22.748  25.059  1.00  0.00     0.023 C 
ENDROOT
BRANCH   1   2
ATOM      2  C   UNL A   1      37.032  23.698  25.970  1.00  0.00     0.116 C 
BRANCH   2   3
ATOM      3  N   UNL A   1      36.104  22.970  26.813  1.00  0.00    -0.354 N 
ATOM      4  C   UNL A   1      34.765  22.779  26.684  1.00  0.00     0.242 C 
ATOM      5  O   UNL A   1      34.206  22.129  27.575  1.00  0.00    -0.273 OA
ATOM      6  H   UNL A   1      36.508  22.547  27.606  1.00  0.00     0.163 HD
BRANCH   4   7
ATOM      7  C   UNL A   1      34.021  23.225  25.403  1.00  0.00     0.177 C 
ATOM      8  N   UNL A   1      32.577  23.420  25.634  1.00  0.00    -0.329 N 
ATOM      9  C   UNL A   1      31.801  22.203  25.889  1.00  0.00     0.123 C 
ATOM     10  C   UNL A   1      32.009  21.174  24.782  1.00  0.00     0.053 C 
ATOM     11  C   UNL A   1      34.266  22.212  24.282  1.00  0.00     0.067 C 
ATOM     12  C   UNL A   1      33.480  20.914  24.481  1.00  0.00     0.118 C 
BRANCH   8  13
ATOM     13  C   UNL A   1      32.051  24.687  25.417  1.00  0.00     0.243 C 
ATOM     14  O   UNL A   1      30.915  24.964  25.823  1.00  0.00    -0.273 OA
BRANCH  13  15
ATOM     15  C   UNL A   1      32.748  25.681  24.500  1.00  0.00     0.222 C 
BRANCH  15  16
ATOM     16  N   UNL A   1      32.298  27.064  24.550  1.00  0.00    -0.334 N 
ATOM     17  C   UNL A   1      30.511  26.854  22.760  1.00  0.00     0.066 C 
ATOM     18  C   UNL A   1      31.284  27.614  23.786  1.00  0.00     0.034 A 
ATOM     19  C   UNL A   1      31.095  28.909  24.243  1.00  0.00     0.080 A 
ATOM     20  C   UNL A   1      32.014  29.155  25.301  1.00  0.00     0.018 A 
ATOM     21  C   UNL A   1      32.780  27.997  25.457  1.00  0.00     0.050 A 
ATOM     22  C   UNL A   1      32.244  30.244  26.172  1.00  0.00     0.012 A 
ATOM     23  C   UNL A   1      33.776  27.897  26.446  1.00  0.00     0.027 A 
ATOM     24  C   UNL A   1      33.220  30.143  27.167  1.00  0.00     0.001 A 
ATOM     25  C   UNL A   1      33.978  28.984  27.298  1.00  0.00     0.002 A 
BRANCH  19  26
ATOM     26  C   UNL A   1      30.081  29.812  23.775  1.00  0.00     0.102 C 
ATOM     27  N   UNL A   1      29.274  30.535  23.378  1.00  0.00    -0.192 NA
ENDBRANCH  19  26
ENDBRANCH  15  16
ENDBRANCH  13  15
ENDBRANCH   8  13
BRANCH  12  28
ATOM     28  O   UNL A   1      34.066  20.094  25.487  1.00  0.00    -0.393 OA
ATOM     29  H   UNL A   1      34.423  19.290  25.080  1.00  0.00     0.210 HD
ENDBRANCH  12  28
ENDBRANCH   4   7
ENDBRANCH   2   3
ENDBRANCH   1   2
BRANCH   1  30
ATOM     30  C   UNL A   1      38.582  21.637  25.788  1.00  0.00     0.023 C 
BRANCH  30  31
ATOM     31  C   UNL A   1      39.842  22.099  26.519  1.00  0.00     0.116 C 
BRANCH  31  32
ATOM     32  N   UNL A   1      40.998  22.244  25.663  1.00  0.00    -0.352 N 
ATOM     33  C   UNL A   1      42.070  23.090  25.638  1.00  0.00     0.251 C 
ATOM     34  H   UNL A   1      41.017  21.583  24.933  1.00  0.00     0.163 HD
ATOM     35  O   UNL A   1      43.001  22.744  24.905  1.00  0.00    -0.269 OA
BRANCH  33  36
ATOM     36  C   UNL A   1      42.141  24.411  26.318  1.00  0.00     0.039 A 
ATOM     37  C   UNL A   1      42.881  24.717  27.459  1.00  0.00     0.014 A 
ATOM     38  C   UNL A   1      41.287  25.399  25.790  1.00  0.00     0.014 A 
ATOM     39  C   UNL A   1      42.630  25.901  28.153  1.00  0.00     0.010 A 
ATOM     40  C   UNL A   1      41.054  26.590  26.461  1.00  0.00     0.010 A 
ATOM     41  C   UNL A   1      41.659  26.801  27.691  1.00  0.00    -0.014 A 
BRANCH  41  42
ATOM     42  C   UNL A   1      41.461  28.072  28.389  1.00  0.00     0.031 A 
ATOM     43  C   UNL A   1      42.605  28.996  28.156  1.00  0.00     0.074 A 
ATOM     44  C   UNL A   1      40.342  28.410  29.078  1.00  0.00     0.049 A 
ATOM     45  N   UNL A   1      43.503  29.342  29.017  1.00  0.00    -0.248 NA
ATOM     46  C   UNL A   1      42.945  29.378  26.772  1.00  0.00     0.031 C 
ATOM     47  C   UNL A   1      39.100  27.649  29.231  1.00  0.00     0.029 A 
ATOM     48  N   UNL A   1      40.059  29.565  29.767  1.00  0.00    -0.354 N 
ATOM     49  C   UNL A   1      44.357  30.215  28.350  1.00  0.00     0.074 A 
ATOM     50  C   UNL A   1      44.100  30.024  26.950  1.00  0.00     0.031 C 
ATOM     51  C   UNL A   1      38.132  28.441  29.755  1.00  0.00     0.029 A 
ATOM     52  C   UNL A   1      38.702  29.728  30.107  1.00  0.00     0.049 A 
ATOM     53  H   UNL A   1      40.749  30.225  30.004  1.00  0.00     0.167 HD
ATOM     54  C   UNL A   1      44.986  31.208  29.038  1.00  0.00     0.037 A 
ATOM     55  C   UNL A   1      38.111  30.838  30.647  1.00  0.00     0.037 A 
ATOM     56  C   UNL A   1      45.001  30.900  30.449  1.00  0.00     0.049 A 
ATOM     57  C   UNL A   1      39.201  31.601  31.318  1.00  0.00     0.074 A 
ATOM     58  C   UNL A   1      45.522  29.872  31.210  1.00  0.00     0.029 A 
ATOM     59  N   UNL A   1      44.046  31.506  31.231  1.00  0.00    -0.354 N 
ATOM     60  N   UNL A   1      39.842  31.145  32.362  1.00  0.00    -0.248 NA
ATOM     61  C   UNL A   1      39.921  32.562  30.498  1.00  0.00     0.031 C 
ATOM     62  C   UNL A   1      44.532  29.609  32.199  1.00  0.00     0.029 A 
ATOM     63  C   UNL A   1      43.518  30.559  32.069  1.00  0.00     0.049 A 
ATOM     64  H   UNL A   1      43.786  32.455  31.196  1.00  0.00     0.167 HD
ATOM     65  C   UNL A   1      41.177  31.395  32.081  1.00  0.00     0.074 A 
ATOM     66  C   UNL A   1      41.160  32.290  30.920  1.00  0.00     0.031 C 
ATOM     67  C   UNL A   1      42.173  30.619  32.600  1.00  0.00     0.037 A 
BRANCH  54  68
ATOM     68  C   UNL A   1      45.176  32.620  28.521  1.00  0.00     0.058 A 
ATOM     69  C   UNL A   1      46.480  33.164  28.520  1.00  0.00     0.135 A 
ATOM     70  C   UNL A   1      44.135  33.554  28.323  1.00  0.00     0.135 A 
ATOM     71  F   UNL A   1      47.554  32.375  28.681  1.00  0.00    -0.206 F 
ATOM     72  C   UNL A   1      46.721  34.536  28.441  1.00  0.00     0.059 A 
ATOM     73  C   UNL A   1      44.357  34.922  28.198  1.00  0.00     0.059 A 
ATOM     74  F   UNL A   1      42.844  33.209  28.316  1.00  0.00    -0.206 F 
ATOM     75  C   UNL A   1      45.649  35.408  28.297  1.00  0.00     0.060 A 
BRANCH  75  76
ATOM     76  S   UNL A   1      45.958  37.179  28.267  1.00  0.00     0.124 S 
ATOM     77  O   UNL A   1      45.420  37.549  26.963  1.00  0.00    -0.237 OA
ATOM     78  O   UNL A   1      45.196  37.632  29.426  1.00  0.00    -0.237 OA
ATOM     79  O   UNL A   1      47.409  37.270  28.403  1.00  0.00    -0.744 OA
ENDBRANCH  75  76
ENDBRANCH  54  68
BRANCH  55  80
ATOM     80  C   UNL A   1      36.801  31.484  30.287  1.00  0.00     0.058 A 
ATOM     81  C   UNL A   1      35.987  32.139  31.243  1.00  0.00     0.135 A 
ATOM     82  C   UNL A   1      36.461  31.733  28.945  1.00  0.00     0.135 A 
ATOM     83  F   UNL A   1      36.224  31.979  32.555  1.00  0.00    -0.206 F 
ATOM     84  C   UNL A   1      34.953  33.027  30.886  1.00  0.00     0.059 A 
ATOM     85  C   UNL A   1      35.440  32.608  28.565  1.00  0.00     0.059 A 
ATOM     86  F   UNL A   1      37.175  31.196  27.945  1.00  0.00    -0.206 F 
ATOM     87  C   UNL A   1      34.706  33.277  29.537  1.00  0.00     0.060 A 
BRANCH  87  88
ATOM     88  S   UNL A   1      33.513  34.553  29.046  1.00  0.00     0.124 S 
ATOM     89  O   UNL A   1      34.377  35.582  28.477  1.00  0.00    -0.237 OA
ATOM     90  O   UNL A   1      32.665  33.840  28.097  1.00  0.00    -0.237 OA
ATOM     91  O   UNL A   1      32.864  34.914  30.304  1.00  0.00    -0.744 OA
ENDBRANCH  87  88
ENDBRANCH  55  80
BRANCH  67  92
ATOM     92  C   UNL A   1      41.844  29.606  33.669  1.00  0.00     0.058 A 
ATOM     93  C   UNL A   1      41.433  28.284  33.418  1.00  0.00     0.135 A 
ATOM     94  C   UNL A   1      42.201  29.923  34.988  1.00  0.00     0.135 A 
ATOM     95  F   UNL A   1      41.158  27.874  32.172  1.00  0.00    -0.206 F 
ATOM     96  C   UNL A   1      41.379  27.324  34.434  1.00  0.00     0.059 A 
ATOM     97  C   UNL A   1      42.185  28.977  36.009  1.00  0.00     0.059 A 
ATOM     98  F   UNL A   1      42.659  31.152  35.282  1.00  0.00    -0.206 F 
ATOM     99  C   UNL A   1      41.772  27.678  35.725  1.00  0.00     0.060 A 
BRANCH  99 100
ATOM    100  S   UNL A   1      41.811  26.415  37.019  1.00  0.00     0.124 S 
ATOM    101  O   UNL A   1      40.527  26.614  37.682  1.00  0.00    -0.237 OA
ATOM    102  O   UNL A   1      41.944  25.181  36.249  1.00  0.00    -0.237 OA
ATOM    103  O   UNL A   1      42.985  26.773  37.812  1.00  0.00    -0.744 OA
ENDBRANCH  99 100
ENDBRANCH  67  92
ENDBRANCH  41  42
ENDBRANCH  33  36
ENDBRANCH  31  32
ENDBRANCH  30  31
ENDBRANCH   1  30
TORSDOF 19
ENDMDL
MODEL 2
REMARK VINA RESULT:     -12.5      2.941      9.274
REMARK SMILES Cc1c(C#N)c2ccccc2n1CC(=O)N1CC[C@H](O)C[C@@H]1C(=O)NCCCCNC(=O)c1ccc(-c2c3nc(c(-c4c(F)cc(S(=O)(=O)[O-])cc4F)c4ccc([nH]4)c(-c4c(F)cc(S(=O)(=O)[O-])cc4F)c4nc(c(-c5c(F)cc(S(=O)(=O)[O-])cc5F)c5ccc2[nH]5)C=C4)C=C3)cc1
REMARK SMILES IDX 27 1 26 2 25 3 23 4 24 5 22 7 16 8 17 9 18 10 21 11 19 12
REMARK SMILES IDX 14 13 15 14 13 15 12 16 1 17 2 18 3 19 6 20 11 21 7 22 10 23
REMARK SMILES IDX 8 24 9 25 4 26 5 27 20 28 28 30 29 31 30 32 31 33 32 35
REMARK SMILES IDX 33 36 34 37 98 38 35 39 97 40 36 41 37 42 38 43 91 44 39 45
REMARK SMILES IDX 96 46 90 47 92 48 40 49 95 50 89 51 88 52 41 54 75 55 54 56
REMARK SMILES IDX 74 57 55 58 58 59 73 60 93 61 56 62 57 63 72 65 94 66 59 67
REMARK SMILES IDX 42 68 43 69 52 70 44 71 45 72 51 73 53 74 46 75 47 76 48 77
REMARK SMILES IDX 49 78 50 79 76 80 77 81 86 82 78 83 79 84 85 85 87 86 80 87
REMARK SMILES IDX 81 88 82 89 83 90 84 91 60 92 61 93 70 94 62 95 63 96 69 97
REMARK SMILES IDX 71 98 64 99 65 100 66 101 67 102 68 103
REMARK H PARENT 25 6 20 29 30 34 92 53 58 64
REMARK Flexibility Score: inf
ROOT
ATOM      1  C   UNL A   1      34.130  29.341  27.578  1.00  0.00     0.023 C 
ENDROOT
BRANCH   1   2
ATOM      2  C   UNL A   1      34.126  28.385  26.385  1.00  0.00     0.116 C 
BRANCH   2   3
ATOM      3  N   UNL A   1      32.851  28.415  25.695  1.00  0.00    -0.354 N 
ATOM      4  C   UNL A   1      32.289  27.512  24.850  1.00  0.00     0.242 C 
ATOM      5  O   UNL A   1      31.186  27.805  24.375  1.00  0.00    -0.273 OA
ATOM      6  H   UNL A   1      32.306  29.218  25.866  1.00  0.00     0.163 HD
BRANCH   4   7
ATOM      7  C   UNL A   1      32.938  26.125  24.627  1.00  0.00     0.177 C 
ATOM      8  N   UNL A   1      32.390  25.435  23.443  1.00  0.00    -0.329 N 
ATOM      9  C   UNL A   1      31.002  24.980  23.554  1.00  0.00     0.123 C 
ATOM     10  C   UNL A   1      30.806  24.109  24.792  1.00  0.00     0.053 C 
ATOM     11  C   UNL A   1      32.775  25.269  25.885  1.00  0.00     0.067 C 
ATOM     12  C   UNL A   1      31.347  24.751  26.063  1.00  0.00     0.118 C 
BRANCH   8  13
ATOM     13  C   UNL A   1      33.268  25.122  22.413  1.00  0.00     0.243 C 
ATOM     14  O   UNL A   1      33.703  26.016  21.676  1.00  0.00    -0.273 OA
BRANCH  13  15
ATOM     15  C   UNL A   1      33.540  23.676  22.025  1.00  0.00     0.222 C 
BRANCH  15  16
ATOM     16  N   UNL A   1      33.679  22.710  23.105  1.00  0.00    -0.334 N 
ATOM     17  C   UNL A   1      31.635  21.324  22.521  1.00  0.00     0.066 C 
ATOM     18  C   UNL A   1      32.842  21.636  23.343  1.00  0.00     0.034 A 
ATOM     19  C   UNL A   1      33.409  20.906  24.376  1.00  0.00     0.080 A 
ATOM     20  C   UNL A   1      34.612  21.552  24.780  1.00  0.00     0.018 A 
ATOM     21  C   UNL A   1      34.747  22.697  23.991  1.00  0.00     0.050 A 
ATOM     22  C   UNL A   1      35.624  21.250  25.718  1.00  0.00     0.012 A 
ATOM     23  C   UNL A   1      35.853  23.557  24.120  1.00  0.00     0.027 A 
ATOM     24  C   UNL A   1      36.734  22.091  25.837  1.00  0.00     0.001 A 
ATOM     25  C   UNL A   1      36.842  23.232  25.050  1.00  0.00     0.002 A 
BRANCH  19  26
ATOM     26  C   UNL A   1      32.903  19.664  24.888  1.00  0.00     0.102 C 
ATOM     27  N   UNL A   1      32.491  18.658  25.278  1.00  0.00    -0.192 NA
ENDBRANCH  19  26
ENDBRANCH  15  16
ENDBRANCH  13  15
ENDBRANCH   8  13
BRANCH  12  28
ATOM     28  O   UNL A   1      30.471  25.775  26.525  1.00  0.00    -0.393 OA
ATOM     29  H   UNL A   1      30.922  26.303  27.202  1.00  0.00     0.210 HD
ENDBRANCH  12  28
ENDBRANCH   4   7
ENDBRANCH   2   3
ENDBRANCH   1   2
BRANCH   1  30
ATOM     30  C   UNL A   1      33.759  30.796  27.244  1.00  0.00     0.023 C 
BRANCH  30  31
ATOM     31  C   UNL A   1      34.610  31.855  27.941  1.00  0.00     0.116 C 
BRANCH  31  32
ATOM     32  N   UNL A   1      34.280  32.050  29.335  1.00  0.00    -0.352 N 
ATOM     33  C   UNL A   1      34.985  31.983  30.504  1.00  0.00     0.251 C 
ATOM     34  H   UNL A   1      33.333  32.284  29.474  1.00  0.00     0.163 HD
ATOM     35  O   UNL A   1      34.425  32.472  31.489  1.00  0.00    -0.269 OA
BRANCH  33  36
ATOM     36  C   UNL A   1      36.283  31.281  30.688  1.00  0.00     0.039 A 
ATOM     37  C   UNL A   1      37.534  31.877  30.837  1.00  0.00     0.014 A 
ATOM     38  C   UNL A   1      36.218  29.876  30.598  1.00  0.00     0.014 A 
ATOM     39  C   UNL A   1      38.691  31.108  30.708  1.00  0.00     0.010 A 
ATOM     40  C   UNL A   1      37.365  29.103  30.497  1.00  0.00     0.010 A 
ATOM     41  C   UNL A   1      38.601  29.731  30.460  1.00  0.00    -0.014 A 
BRANCH  41  42
ATOM     42  C   UNL A   1      39.822  28.926  30.402  1.00  0.00     0.031 A 
ATOM     43  C   UNL A   1      40.442  28.792  31.749  1.00  0.00     0.074 A 
ATOM     44  C   UNL A   1      40.283  28.299  29.291  1.00  0.00     0.049 A 
ATOM     45  N   UNL A   1      41.535  29.349  32.153  1.00  0.00    -0.248 NA
ATOM     46  C   UNL A   1      39.652  28.195  32.843  1.00  0.00     0.031 C 
ATOM     47  C   UNL A   1      39.669  28.227  27.963  1.00  0.00     0.029 A 
ATOM     48  N   UNL A   1      41.410  27.529  29.129  1.00  0.00    -0.354 N 
ATOM     49  C   UNL A   1      41.713  28.933  33.469  1.00  0.00     0.074 A 
ATOM     50  C   UNL A   1      40.440  28.423  33.897  1.00  0.00     0.031 C 
ATOM     51  C   UNL A   1      40.294  27.286  27.213  1.00  0.00     0.029 A 
ATOM     52  C   UNL A   1      41.439  26.773  27.941  1.00  0.00     0.049 A 
ATOM     53  H   UNL A   1      42.140  27.510  29.789  1.00  0.00     0.167 HD
ATOM     54  C   UNL A   1      42.970  28.795  33.974  1.00  0.00     0.037 A 
ATOM     55  C   UNL A   1      42.350  25.811  27.594  1.00  0.00     0.037 A 
ATOM     56  C   UNL A   1      43.910  29.545  33.174  1.00  0.00     0.049 A 
ATOM     57  C   UNL A   1      43.575  26.095  28.391  1.00  0.00     0.074 A 
ATOM     58  C   UNL A   1      44.054  30.879  32.846  1.00  0.00     0.029 A 
ATOM     59  N   UNL A   1      44.636  28.843  32.240  1.00  0.00    -0.354 N 
ATOM     60  N   UNL A   1      44.295  27.173  28.218  1.00  0.00    -0.248 NA
ATOM     61  C   UNL A   1      43.651  25.484  29.708  1.00  0.00     0.031 C 
ATOM     62  C   UNL A   1      44.442  30.880  31.476  1.00  0.00     0.029 A 
ATOM     63  C   UNL A   1      44.630  29.559  31.071  1.00  0.00     0.049 A 
ATOM     64  H   UNL A   1      45.082  27.978  32.385  1.00  0.00     0.167 HD
ATOM     65  C   UNL A   1      44.542  27.631  29.503  1.00  0.00     0.074 A 
ATOM     66  C   UNL A   1      44.131  26.533  30.383  1.00  0.00     0.031 C 
ATOM     67  C   UNL A   1      44.754  28.955  29.762  1.00  0.00     0.037 A 
BRANCH  54  68
ATOM     68  C   UNL A   1      43.410  27.661  34.878  1.00  0.00     0.058 A 
ATOM     69  C   UNL A   1      43.966  27.983  36.136  1.00  0.00     0.135 A 
ATOM     70  C   UNL A   1      43.597  26.324  34.463  1.00  0.00     0.135 A 
ATOM     71  F   UNL A   1      43.839  29.217  36.648  1.00  0.00    -0.206 F 
ATOM     72  C   UNL A   1      44.740  27.082  36.868  1.00  0.00     0.059 A 
ATOM     73  C   UNL A   1      44.329  25.397  35.199  1.00  0.00     0.059 A 
ATOM     74  F   UNL A   1      43.151  25.859  33.292  1.00  0.00    -0.206 F 
ATOM     75  C   UNL A   1      44.929  25.795  36.381  1.00  0.00     0.060 A 
BRANCH  75  76
ATOM     76  S   UNL A   1      45.986  24.660  37.291  1.00  0.00     0.124 S 
ATOM     77  O   UNL A   1      45.117  24.274  38.397  1.00  0.00    -0.237 OA
ATOM     78  O   UNL A   1      46.244  23.630  36.290  1.00  0.00    -0.237 OA
ATOM     79  O   UNL A   1      47.137  25.483  37.648  1.00  0.00    -0.744 OA
ENDBRANCH  75  76
ENDBRANCH  54  68
BRANCH  55  80
ATOM     80  C   UNL A   1      42.112  24.467  26.962  1.00  0.00     0.058 A 
ATOM     81  C   UNL A   1      43.092  23.810  26.179  1.00  0.00     0.135 A 
ATOM     82  C   UNL A   1      41.028  23.662  27.358  1.00  0.00     0.135 A 
ATOM     83  F   UNL A   1      44.175  24.479  25.752  1.00  0.00    -0.206 F 
ATOM     84  C   UNL A   1      43.029  22.436  25.870  1.00  0.00     0.059 A 
ATOM     85  C   UNL A   1      40.942  22.299  27.063  1.00  0.00     0.059 A 
ATOM     86  F   UNL A   1      40.050  24.158  28.127  1.00  0.00    -0.206 F 
ATOM     87  C   UNL A   1      41.957  21.681  26.344  1.00  0.00     0.060 A 
BRANCH  87  88
ATOM     88  S   UNL A   1      41.940  19.879  26.126  1.00  0.00     0.124 S 
ATOM     89  O   UNL A   1      40.564  19.632  25.707  1.00  0.00    -0.237 OA
ATOM     90  O   UNL A   1      42.961  19.678  25.104  1.00  0.00    -0.237 OA
ATOM     91  O   UNL A   1      42.285  19.373  27.453  1.00  0.00    -0.744 OA
ENDBRANCH  87  88
ENDBRANCH  55  80
BRANCH  67  92
ATOM     92  C   UNL A   1      44.941  29.914  28.612  1.00  0.00     0.058 A 
ATOM     93  C   UNL A   1      43.895  30.441  27.833  1.00  0.00     0.135 A 
ATOM     94  C   UNL A   1      46.205  30.503  28.465  1.00  0.00     0.135 A 
ATOM     95  F   UNL A   1      42.638  29.996  27.975  1.00  0.00    -0.206 F 
ATOM     96  C   UNL A   1      44.099  31.505  26.948  1.00  0.00     0.059 A 
ATOM     97  C   UNL A   1      46.426  31.583  27.614  1.00  0.00     0.059 A 
ATOM     98  F   UNL A   1      47.232  30.085  29.223  1.00  0.00    -0.206 F 
ATOM     99  C   UNL A   1      45.368  32.079  26.857  1.00  0.00     0.060 A 
BRANCH  99 100
ATOM    100  S   UNL A   1      45.615  33.524  25.799  1.00  0.00     0.124 S 
ATOM    101  O   UNL A   1      45.069  34.601  26.616  1.00  0.00    -0.237 OA
ATOM    102  O   UNL A   1      47.064  33.537  25.615  1.00  0.00    -0.237 OA
ATOM    103  O   UNL A   1      44.848  33.203  24.597  1.00  0.00    -0.744 OA
ENDBRANCH  99 100
ENDBRANCH  67  92
ENDBRANCH  41  42
ENDBRANCH  33  36
ENDBRANCH  31  32
ENDBRANCH  30  31
ENDBRANCH   1  30
TORSDOF 19
ENDMDL
MODEL 3
REMARK VINA RESULT:     -12.5      1.364      2.032
REMARK SMILES Cc1c(C#N)c2ccccc2n1CC(=O)N1CC[C@H](O)C[C@@H]1C(=O)NCCCCNC(=O)c1ccc(-c2c3nc(c(-c4c(F)cc(S(=O)(=O)[O-])cc4F)c4ccc([nH]4)c(-c4c(F)cc(S(=O)(=O)[O-])cc4F)c4nc(c(-c5c(F)cc(S(=O)(=O)[O-])cc5F)c5ccc2[nH]5)C=C4)C=C3)cc1
REMARK SMILES IDX 27 1 26 2 25 3 23 4 24 5 22 7 16 8 17 9 18 10 21 11 19 12
REMARK SMILES IDX 14 13 15 14 13 15 12 16 1 17 2 18 3 19 6 20 11 21 7 22 10 23
REMARK SMILES IDX 8 24 9 25 4 26 5 27 20 28 28 30 29 31 30 32 31 33 32 35
REMARK SMILES IDX 33 36 34 37 98 38 35 39 97 40 36 41 37 42 38 43 91 44 39 45
REMARK SMILES IDX 96 46 90 47 92 48 40 49 95 50 89 51 88 52 41 54 75 55 54 56
REMARK SMILES IDX 74 57 55 58 58 59 73 60 93 61 56 62 57 63 72 65 94 66 59 67
REMARK SMILES IDX 42 68 43 69 52 70 44 71 45 72 51 73 53 74 46 75 47 76 48 77
REMARK SMILES IDX 49 78 50 79 76 80 77 81 86 82 78 83 79 84 85 85 87 86 80 87
REMARK SMILES IDX 81 88 82 89 83 90 84 91 60 92 61 93 70 94 62 95 63 96 69 97
REMARK SMILES IDX 71 98 64 99 65 100 66 101 67 102 68 103
REMARK H PARENT 25 6 20 29 30 34 92 53 58 64
REMARK Flexibility Score: inf
ROOT
ATOM      1  C   UNL A   1      36.385  20.342  24.928  1.00  0.00     0.023 C 
ENDROOT
BRANCH   1   2
ATOM      2  C   UNL A   1      34.919  20.768  24.998  1.00  0.00     0.116 C 
BRANCH   2   3
ATOM      3  N   UNL A   1      34.700  21.714  26.075  1.00  0.00    -0.354 N 
ATOM      4  C   UNL A   1      33.858  22.777  26.153  1.00  0.00     0.242 C 
ATOM      5  O   UNL A   1      33.893  23.441  27.195  1.00  0.00    -0.273 OA
ATOM      6  H   UNL A   1      35.249  21.561  26.879  1.00  0.00     0.163 HD
BRANCH   4   7
ATOM      7  C   UNL A   1      32.806  23.036  25.048  1.00  0.00     0.177 C 
ATOM      8  N   UNL A   1      32.492  24.470  24.901  1.00  0.00    -0.329 N 
ATOM      9  C   UNL A   1      31.756  25.081  26.010  1.00  0.00     0.123 C 
ATOM     10  C   UNL A   1      30.478  24.305  26.317  1.00  0.00     0.053 C 
ATOM     11  C   UNL A   1      31.542  22.224  25.336  1.00  0.00     0.067 C 
ATOM     12  C   UNL A   1      30.716  22.809  26.484  1.00  0.00     0.118 C 
BRANCH   8  13
ATOM     13  C   UNL A   1      32.754  25.068  23.674  1.00  0.00     0.243 C 
ATOM     14  O   UNL A   1      32.553  24.443  22.625  1.00  0.00    -0.273 OA
BRANCH  13  15
ATOM     15  C   UNL A   1      33.490  26.397  23.589  1.00  0.00     0.222 C 
BRANCH  15  16
ATOM     16  N   UNL A   1      32.748  27.595  23.950  1.00  0.00    -0.334 N 
ATOM     17  C   UNL A   1      30.996  27.415  22.123  1.00  0.00     0.066 C 
ATOM     18  C   UNL A   1      31.615  28.069  23.314  1.00  0.00     0.034 A 
ATOM     19  C   UNL A   1      31.160  29.148  24.056  1.00  0.00     0.080 A 
ATOM     20  C   UNL A   1      32.034  29.339  25.162  1.00  0.00     0.018 A 
ATOM     21  C   UNL A   1      33.041  28.375  25.061  1.00  0.00     0.050 A 
ATOM     22  C   UNL A   1      32.046  30.219  26.268  1.00  0.00     0.012 A 
ATOM     23  C   UNL A   1      34.065  28.272  26.020  1.00  0.00     0.027 A 
ATOM     24  C   UNL A   1      33.051  30.109  27.233  1.00  0.00     0.001 A 
ATOM     25  C   UNL A   1      34.049  29.149  27.106  1.00  0.00     0.002 A 
BRANCH  19  26
ATOM     26  C   UNL A   1      29.957  29.886  23.791  1.00  0.00     0.102 C 
ATOM     27  N   UNL A   1      28.999  30.487  23.557  1.00  0.00    -0.192 NA
ENDBRANCH  19  26
ENDBRANCH  15  16
ENDBRANCH  13  15
ENDBRANCH   8  13
BRANCH  12  28
ATOM     28  O   UNL A   1      31.306  22.529  27.750  1.00  0.00    -0.393 OA
ATOM     29  H   UNL A   1      32.271  22.503  27.658  1.00  0.00     0.210 HD
ENDBRANCH  12  28
ENDBRANCH   4   7
ENDBRANCH   2   3
ENDBRANCH   1   2
BRANCH   1  30
ATOM     30  C   UNL A   1      37.391  21.497  24.795  1.00  0.00     0.023 C 
BRANCH  30  31
ATOM     31  C   UNL A   1      38.297  21.707  26.007  1.00  0.00     0.116 C 
BRANCH  31  32
ATOM     32  N   UNL A   1      39.698  21.845  25.677  1.00  0.00    -0.352 N 
ATOM     33  C   UNL A   1      40.720  22.622  26.146  1.00  0.00     0.251 C 
ATOM     34  H   UNL A   1      39.979  21.244  24.949  1.00  0.00     0.163 HD
ATOM     35  O   UNL A   1      41.852  22.276  25.795  1.00  0.00    -0.269 OA
BRANCH  33  36
ATOM     36  C   UNL A   1      40.559  23.878  26.925  1.00  0.00     0.039 A 
ATOM     37  C   UNL A   1      39.650  24.903  26.667  1.00  0.00     0.014 A 
ATOM     38  C   UNL A   1      41.501  24.064  27.957  1.00  0.00     0.014 A 
ATOM     39  C   UNL A   1      39.803  26.142  27.291  1.00  0.00     0.010 A 
ATOM     40  C   UNL A   1      41.639  25.285  28.600  1.00  0.00     0.010 A 
ATOM     41  C   UNL A   1      40.848  26.351  28.201  1.00  0.00    -0.014 A 
BRANCH  41  42
ATOM     42  C   UNL A   1      40.950  27.632  28.903  1.00  0.00     0.031 A 
ATOM     43  C   UNL A   1      42.023  28.482  28.318  1.00  0.00     0.074 A 
ATOM     44  C   UNL A   1      40.116  28.040  29.892  1.00  0.00     0.049 A 
ATOM     45  N   UNL A   1      43.160  28.768  28.860  1.00  0.00    -0.248 NA
ATOM     46  C   UNL A   1      41.950  28.842  26.889  1.00  0.00     0.031 C 
ATOM     47  C   UNL A   1      38.935  27.359  30.429  1.00  0.00     0.029 A 
ATOM     48  N   UNL A   1      40.126  29.210  30.613  1.00  0.00    -0.354 N 
ATOM     49  C   UNL A   1      43.822  29.586  27.949  1.00  0.00     0.074 A 
ATOM     50  C   UNL A   1      43.142  29.414  26.696  1.00  0.00     0.031 C 
ATOM     51  C   UNL A   1      38.222  28.211  31.207  1.00  0.00     0.029 A 
ATOM     52  C   UNL A   1      38.949  29.459  31.346  1.00  0.00     0.049 A 
ATOM     53  H   UNL A   1      40.895  29.824  30.619  1.00  0.00     0.167 HD
ATOM     54  C   UNL A   1      44.690  30.536  28.396  1.00  0.00     0.037 A 
ATOM     55  C   UNL A   1      38.619  30.604  32.019  1.00  0.00     0.037 A 
ATOM     56  C   UNL A   1      45.114  30.226  29.742  1.00  0.00     0.049 A 
ATOM     57  C   UNL A   1      39.905  31.295  32.314  1.00  0.00     0.074 A 
ATOM     58  C   UNL A   1      45.778  29.166  30.327  1.00  0.00     0.029 A 
ATOM     59  N   UNL A   1      44.480  30.891  30.765  1.00  0.00    -0.354 N 
ATOM     60  N   UNL A   1      40.804  30.797  33.123  1.00  0.00    -0.248 NA
ATOM     61  C   UNL A   1      40.401  32.209  31.297  1.00  0.00     0.031 C 
ATOM     62  C   UNL A   1      45.120  28.966  31.575  1.00  0.00     0.029 A 
ATOM     63  C   UNL A   1      44.175  29.978  31.741  1.00  0.00     0.049 A 
ATOM     64  H   UNL A   1      44.281  31.854  30.793  1.00  0.00     0.167 HD
ATOM     65  C   UNL A   1      42.004  30.962  32.447  1.00  0.00     0.074 A 
ATOM     66  C   UNL A   1      41.690  31.858  31.329  1.00  0.00     0.031 C 
ATOM     67  C   UNL A   1      43.061  30.124  32.653  1.00  0.00     0.037 A 
BRANCH  54  68
ATOM     68  C   UNL A   1      44.801  31.934  27.820  1.00  0.00     0.058 A 
ATOM     69  C   UNL A   1      45.994  32.294  27.155  1.00  0.00     0.135 A 
ATOM     70  C   UNL A   1      43.946  33.011  28.146  1.00  0.00     0.135 A 
ATOM     71  F   UNL A   1      46.878  31.358  26.777  1.00  0.00    -0.206 F 
ATOM     72  C   UNL A   1      46.359  33.621  26.934  1.00  0.00     0.059 A 
ATOM     73  C   UNL A   1      44.272  34.340  27.895  1.00  0.00     0.059 A 
ATOM     74  F   UNL A   1      42.788  32.847  28.793  1.00  0.00    -0.206 F 
ATOM     75  C   UNL A   1      45.497  34.639  27.324  1.00  0.00     0.060 A 
BRANCH  75  76
ATOM     76  S   UNL A   1      46.003  36.350  27.102  1.00  0.00     0.124 S 
ATOM     77  O   UNL A   1      46.944  36.236  25.994  1.00  0.00    -0.237 OA
ATOM     78  O   UNL A   1      44.731  36.997  26.798  1.00  0.00    -0.237 OA
ATOM     79  O   UNL A   1      46.585  36.699  28.394  1.00  0.00    -0.744 OA
ENDBRANCH  75  76
ENDBRANCH  54  68
BRANCH  55  80
ATOM     80  C   UNL A   1      37.303  31.332  32.062  1.00  0.00     0.058 A 
ATOM     81  C   UNL A   1      36.748  31.831  33.265  1.00  0.00     0.135 A 
ATOM     82  C   UNL A   1      36.706  31.816  30.884  1.00  0.00     0.135 A 
ATOM     83  F   UNL A   1      37.245  31.443  34.450  1.00  0.00    -0.206 F 
ATOM     84  C   UNL A   1      35.717  32.792  33.289  1.00  0.00     0.059 A 
ATOM     85  C   UNL A   1      35.682  32.767  30.882  1.00  0.00     0.059 A 
ATOM     86  F   UNL A   1      37.161  31.443  29.680  1.00  0.00    -0.206 F 
ATOM     87  C   UNL A   1      35.209  33.276  32.085  1.00  0.00     0.060 A 
BRANCH  87  88
ATOM     88  S   UNL A   1      34.017  34.645  32.079  1.00  0.00     0.124 S 
ATOM     89  O   UNL A   1      34.814  35.750  32.602  1.00  0.00    -0.237 OA
ATOM     90  O   UNL A   1      33.653  34.735  30.670  1.00  0.00    -0.237 OA
ATOM     91  O   UNL A   1      32.954  34.173  32.963  1.00  0.00    -0.744 OA
ENDBRANCH  87  88
ENDBRANCH  55  80
BRANCH  67  92
ATOM     92  C   UNL A   1      43.011  29.133  33.790  1.00  0.00     0.058 A 
ATOM     93  C   UNL A   1      43.193  29.463  35.146  1.00  0.00     0.135 A 
ATOM     94  C   UNL A   1      42.516  27.852  33.506  1.00  0.00     0.135 A 
ATOM     95  F   UNL A   1      43.579  30.694  35.509  1.00  0.00    -0.206 F 
ATOM     96  C   UNL A   1      42.894  28.558  36.170  1.00  0.00     0.059 A 
ATOM     97  C   UNL A   1      42.183  26.946  34.510  1.00  0.00     0.059 A 
ATOM     98  F   UNL A   1      42.265  27.496  32.235  1.00  0.00    -0.206 F 
ATOM     99  C   UNL A   1      42.376  27.305  35.841  1.00  0.00     0.060 A 
BRANCH  99 100
ATOM    100  S   UNL A   1      41.885  26.173  37.162  1.00  0.00     0.124 S 
ATOM    101  O   UNL A   1      42.978  26.321  38.117  1.00  0.00    -0.237 OA
ATOM    102  O   UNL A   1      40.597  26.718  37.582  1.00  0.00    -0.237 OA
ATOM    103  O   UNL A   1      41.813  24.876  36.493  1.00  0.00    -0.744 OA
ENDBRANCH  99 100
ENDBRANCH  67  92
ENDBRANCH  41  42
ENDBRANCH  33  36
ENDBRANCH  31  32
ENDBRANCH  30  31
ENDBRANCH   1  30
TORSDOF 19
ENDMDL
