MODEL 1
REMARK VINA RESULT:     -10.4      0.000      0.000
REMARK SMILES CC[C@](C)([NH3+])C(=O)N1CC[NH+]([C@H](C)C(=O)NCCCCNC(=O)c2ccc(-c3c4nc(c(-c5c(F)cc(S(=O)(=O)[O-])cc5F)c5ccc([nH]5)c(-c5c(F)cc(S(=O)(=O)[O-])cc5F)c5nc(c(-c6c(F)cc(S(=O)(=O)[O-])cc6F)c6ccc3[nH]6)C=C5)C=C4)cc2)CC1
REMARK SMILES IDX 18 1 17 2 16 3 14 4 15 5 12 7 13 8 11 9 6 10 7 11 8 12 9 13
REMARK SMILES IDX 91 14 10 15 90 16 3 18 4 19 2 20 1 21 5 22 19 26 20 27 21 28
REMARK SMILES IDX 22 29 23 31 24 32 25 33 89 34 26 35 88 36 27 37 28 38 29 39
REMARK SMILES IDX 82 40 30 41 87 42 81 43 83 44 31 45 86 46 80 47 79 48 32 50
REMARK SMILES IDX 66 51 45 52 65 53 46 54 49 55 64 56 84 57 47 58 48 59 63 61
REMARK SMILES IDX 85 62 50 63 33 64 34 65 43 66 35 67 36 68 42 69 44 70 37 71
REMARK SMILES IDX 38 72 39 73 40 74 41 75 67 76 68 77 77 78 69 79 70 80 76 81
REMARK SMILES IDX 78 82 71 83 72 84 73 85 74 86 75 87 51 88 52 89 61 90 53 91
REMARK SMILES IDX 54 92 60 93 62 94 55 95 56 96 57 97 58 98 59 99
REMARK H PARENT 16 6 11 17 5 23 5 24 5 25 21 30 83 49 49 60
REMARK Flexibility Score: inf
ROOT
ATOM      1  C   UNL A   1      35.591  22.208  26.462  1.00  0.00     0.023 C 
ENDROOT
BRANCH   1   2
ATOM      2  C   UNL A   1      35.173  21.186  25.415  1.00  0.00     0.116 C 
BRANCH   2   3
ATOM      3  N   UNL A   1      33.815  20.703  25.565  1.00  0.00    -0.351 N 
ATOM      4  C   UNL A   1      32.672  21.058  24.904  1.00  0.00     0.278 C 
ATOM      5  O   UNL A   1      31.693  20.318  25.055  1.00  0.00    -0.268 OA
ATOM      6  H   UNL A   1      33.697  20.008  26.252  1.00  0.00     0.163 HD
BRANCH   4   7
ATOM      7  C   UNL A   1      32.562  22.336  24.032  1.00  0.00     0.271 C 
ATOM      8  C   UNL A   1      32.470  22.029  22.531  1.00  0.00     0.086 C 
BRANCH   7   9
ATOM      9  N   UNL A   1      31.672  23.393  24.592  1.00  0.00    -0.322 N 
ATOM     10  C   UNL A   1      31.252  27.401  24.573  1.00  0.00     0.283 C 
ATOM     11  O   UNL A   1      30.554  27.901  23.676  1.00  0.00    -0.268 OA
ATOM     12  N   UNL A   1      30.911  26.147  25.062  1.00  0.00    -0.326 N 
ATOM     13  C   UNL A   1      30.041  25.304  24.243  1.00  0.00     0.181 C 
ATOM     14  C   UNL A   1      31.480  25.370  26.160  1.00  0.00     0.181 C 
ATOM     15  C   UNL A   1      30.916  24.197  23.612  1.00  0.00     0.284 C 
ATOM     16  C   UNL A   1      32.360  24.235  25.598  1.00  0.00     0.284 C 
ATOM     17  H   UNL A   1      30.945  22.859  25.069  1.00  0.00     0.348 HD
BRANCH  10  18
ATOM     18  C   UNL A   1      32.596  28.135  24.944  1.00  0.00     0.171 C 
ATOM     19  C   UNL A   1      33.761  27.385  24.267  1.00  0.00     0.090 C 
BRANCH  18  20
ATOM     20  C   UNL A   1      32.730  28.167  26.494  1.00  0.00     0.075 C 
ATOM     21  C   UNL A   1      31.877  29.204  27.218  1.00  0.00     0.011 C 
ENDBRANCH  18  20
BRANCH  18  22
ATOM     22  N   UNL A   1      32.662  29.528  24.439  1.00  0.00    -0.345 N 
ATOM     23  H   UNL A   1      33.587  29.914  24.628  1.00  0.00     0.345 HD
ATOM     24  H   UNL A   1      31.954  30.093  24.909  1.00  0.00     0.345 HD
ATOM     25  H   UNL A   1      32.490  29.535  23.434  1.00  0.00     0.345 HD
ENDBRANCH  18  22
ENDBRANCH  10  18
ENDBRANCH   7   9
ENDBRANCH   4   7
ENDBRANCH   2   3
ENDBRANCH   1   2
BRANCH   1  26
ATOM     26  C   UNL A   1      35.903  23.603  25.926  1.00  0.00     0.023 C 
BRANCH  26  27
ATOM     27  C   UNL A   1      37.187  23.737  25.112  1.00  0.00     0.116 C 
BRANCH  27  28
ATOM     28  N   UNL A   1      38.235  22.807  25.513  1.00  0.00    -0.352 N 
ATOM     29  C   UNL A   1      39.340  23.029  26.305  1.00  0.00     0.251 C 
ATOM     30  H   UNL A   1      38.140  21.890  25.169  1.00  0.00     0.163 HD
ATOM     31  O   UNL A   1      40.173  22.146  26.463  1.00  0.00    -0.269 OA
BRANCH  29  32
ATOM     32  C   UNL A   1      39.535  24.359  26.919  1.00  0.00     0.039 A 
ATOM     33  C   UNL A   1      39.051  24.582  28.211  1.00  0.00     0.014 A 
ATOM     34  C   UNL A   1      40.249  25.355  26.249  1.00  0.00     0.014 A 
ATOM     35  C   UNL A   1      39.372  25.771  28.869  1.00  0.00     0.010 A 
ATOM     36  C   UNL A   1      40.631  26.504  26.934  1.00  0.00     0.010 A 
ATOM     37  C   UNL A   1      40.208  26.718  28.256  1.00  0.00    -0.014 A 
BRANCH  37  38
ATOM     38  C   UNL A   1      40.670  27.931  28.978  1.00  0.00     0.031 A 
ATOM     39  C   UNL A   1      42.041  27.960  29.594  1.00  0.00     0.074 A 
ATOM     40  C   UNL A   1      39.825  28.965  29.157  1.00  0.00     0.049 A 
ATOM     41  N   UNL A   1      42.582  28.870  30.362  1.00  0.00    -0.248 NA
ATOM     42  C   UNL A   1      42.906  26.796  29.339  1.00  0.00     0.031 C 
ATOM     43  C   UNL A   1      38.450  29.036  28.654  1.00  0.00     0.029 A 
ATOM     44  N   UNL A   1      39.991  30.153  29.825  1.00  0.00    -0.354 N 
ATOM     45  C   UNL A   1      43.837  28.379  30.701  1.00  0.00     0.074 A 
ATOM     46  C   UNL A   1      43.958  27.071  30.095  1.00  0.00     0.031 C 
ATOM     47  C   UNL A   1      37.908  30.212  29.014  1.00  0.00     0.029 A 
ATOM     48  C   UNL A   1      38.880  30.963  29.803  1.00  0.00     0.049 A 
ATOM     49  H   UNL A   1      40.829  30.402  30.279  1.00  0.00     0.167 HD
ATOM     50  C   UNL A   1      44.809  28.973  31.434  1.00  0.00     0.037 A 
ATOM     51  C   UNL A   1      38.665  32.170  30.360  1.00  0.00     0.037 A 
ATOM     52  C   UNL A   1      44.700  30.290  32.002  1.00  0.00     0.049 A 
ATOM     53  C   UNL A   1      39.768  32.821  31.149  1.00  0.00     0.074 A 
ATOM     54  C   UNL A   1      45.649  31.004  32.711  1.00  0.00     0.029 A 
ATOM     55  N   UNL A   1      43.573  31.095  31.919  1.00  0.00    -0.354 N 
ATOM     56  N   UNL A   1      40.968  32.363  31.419  1.00  0.00    -0.248 NA
ATOM     57  C   UNL A   1      39.493  34.153  31.705  1.00  0.00     0.031 C 
ATOM     58  C   UNL A   1      45.088  32.231  33.081  1.00  0.00     0.029 A 
ATOM     59  C   UNL A   1      43.801  32.296  32.570  1.00  0.00     0.049 A 
ATOM     60  H   UNL A   1      42.735  30.850  31.465  1.00  0.00     0.167 HD
ATOM     61  C   UNL A   1      41.599  33.361  32.151  1.00  0.00     0.074 A 
ATOM     62  C   UNL A   1      40.652  34.450  32.277  1.00  0.00     0.031 C 
ATOM     63  C   UNL A   1      42.851  33.375  32.671  1.00  0.00     0.037 A 
BRANCH  50  64
ATOM     64  C   UNL A   1      46.080  28.200  31.650  1.00  0.00     0.058 A 
ATOM     65  C   UNL A   1      46.272  27.407  32.792  1.00  0.00     0.135 A 
ATOM     66  C   UNL A   1      47.113  28.241  30.699  1.00  0.00     0.135 A 
ATOM     67  F   UNL A   1      45.323  27.347  33.740  1.00  0.00    -0.206 F 
ATOM     68  C   UNL A   1      47.456  26.710  33.003  1.00  0.00     0.059 A 
ATOM     69  C   UNL A   1      48.296  27.529  30.876  1.00  0.00     0.059 A 
ATOM     70  F   UNL A   1      46.981  28.983  29.588  1.00  0.00    -0.206 F 
ATOM     71  C   UNL A   1      48.465  26.781  32.042  1.00  0.00     0.060 A 
BRANCH  71  72
ATOM     72  S   UNL A   1      49.999  25.876  32.332  1.00  0.00     0.124 S 
ATOM     73  O   UNL A   1      49.492  24.592  32.806  1.00  0.00    -0.237 OA
ATOM     74  O   UNL A   1      50.613  25.864  31.008  1.00  0.00    -0.237 OA
ATOM     75  O   UNL A   1      50.688  26.688  33.330  1.00  0.00    -0.744 OA
ENDBRANCH  71  72
ENDBRANCH  50  64
BRANCH  51  76
ATOM     76  C   UNL A   1      37.362  32.857  30.167  1.00  0.00     0.058 A 
ATOM     77  C   UNL A   1      37.140  33.673  29.047  1.00  0.00     0.135 A 
ATOM     78  C   UNL A   1      36.309  32.704  31.083  1.00  0.00     0.135 A 
ATOM     79  F   UNL A   1      38.119  33.853  28.147  1.00  0.00    -0.206 F 
ATOM     80  C   UNL A   1      35.928  34.325  28.848  1.00  0.00     0.059 A 
ATOM     81  C   UNL A   1      35.080  33.330  30.894  1.00  0.00     0.059 A 
ATOM     82  F   UNL A   1      36.465  31.921  32.161  1.00  0.00    -0.206 F 
ATOM     83  C   UNL A   1      34.902  34.146  29.776  1.00  0.00     0.060 A 
BRANCH  83  84
ATOM     84  S   UNL A   1      33.315  34.955  29.483  1.00  0.00     0.124 S 
ATOM     85  O   UNL A   1      33.737  36.284  29.057  1.00  0.00    -0.237 OA
ATOM     86  O   UNL A   1      32.724  34.110  28.449  1.00  0.00    -0.237 OA
ATOM     87  O   UNL A   1      32.659  34.886  30.786  1.00  0.00    -0.744 OA
ENDBRANCH  83  84
ENDBRANCH  51  76
BRANCH  63  88
ATOM     88  C   UNL A   1      43.288  34.620  33.389  1.00  0.00     0.058 A 
ATOM     89  C   UNL A   1      43.934  35.668  32.718  1.00  0.00     0.135 A 
ATOM     90  C   UNL A   1      43.000  34.788  34.754  1.00  0.00     0.135 A 
ATOM     91  F   UNL A   1      44.236  35.552  31.415  1.00  0.00    -0.206 F 
ATOM     92  C   UNL A   1      44.293  36.839  33.379  1.00  0.00     0.059 A 
ATOM     93  C   UNL A   1      43.331  35.958  35.429  1.00  0.00     0.059 A 
ATOM     94  F   UNL A   1      42.377  33.816  35.438  1.00  0.00    -0.206 F 
ATOM     95  C   UNL A   1      43.986  36.975  34.734  1.00  0.00     0.060 A 
BRANCH  95  96
ATOM     96  S   UNL A   1      44.415  38.516  35.572  1.00  0.00     0.124 S 
ATOM     97  O   UNL A   1      43.717  39.500  34.751  1.00  0.00    -0.237 OA
ATOM     98  O   UNL A   1      43.873  38.308  36.910  1.00  0.00    -0.237 OA
ATOM     99  O   UNL A   1      45.872  38.549  35.492  1.00  0.00    -0.744 OA
ENDBRANCH  95  96
ENDBRANCH  63  88
ENDBRANCH  37  38
ENDBRANCH  29  32
ENDBRANCH  27  28
ENDBRANCH  26  27
ENDBRANCH   1  26
TORSDOF 18
ENDMDL
MODEL 2
REMARK VINA RESULT:     -10.3      4.410     10.417
REMARK SMILES CC[C@](C)([NH3+])C(=O)N1CC[NH+]([C@H](C)C(=O)NCCCCNC(=O)c2ccc(-c3c4nc(c(-c5c(F)cc(S(=O)(=O)[O-])cc5F)c5ccc([nH]5)c(-c5c(F)cc(S(=O)(=O)[O-])cc5F)c5nc(c(-c6c(F)cc(S(=O)(=O)[O-])cc6F)c6ccc3[nH]6)C=C5)C=C4)cc2)CC1
REMARK SMILES IDX 18 1 17 2 16 3 14 4 15 5 12 7 13 8 11 9 6 10 7 11 8 12 9 13
REMARK SMILES IDX 91 14 10 15 90 16 3 18 4 19 2 20 1 21 5 22 19 26 20 27 21 28
REMARK SMILES IDX 22 29 23 31 24 32 25 33 89 34 26 35 88 36 27 37 28 38 29 39
REMARK SMILES IDX 82 40 30 41 87 42 81 43 83 44 31 45 86 46 80 47 79 48 32 50
REMARK SMILES IDX 66 51 45 52 65 53 46 54 49 55 64 56 84 57 47 58 48 59 63 61
REMARK SMILES IDX 85 62 50 63 33 64 34 65 43 66 35 67 36 68 42 69 44 70 37 71
REMARK SMILES IDX 38 72 39 73 40 74 41 75 67 76 68 77 77 78 69 79 70 80 76 81
REMARK SMILES IDX 78 82 71 83 72 84 73 85 74 86 75 87 51 88 52 89 61 90 53 91
REMARK SMILES IDX 54 92 60 93 62 94 55 95 56 96 57 97 58 98 59 99
REMARK H PARENT 16 6 11 17 5 23 5 24 5 25 21 30 83 49 49 60
REMARK Flexibility Score: inf
ROOT
ATOM      1  C   UNL A   1      33.023  29.274  26.620  1.00  0.00     0.023 C 
ENDROOT
BRANCH   1   2
ATOM      2  C   UNL A   1      33.319  27.839  26.210  1.00  0.00     0.116 C 
BRANCH   2   3
ATOM      3  N   UNL A   1      33.647  27.676  24.807  1.00  0.00    -0.351 N 
ATOM      4  C   UNL A   1      33.230  26.738  23.904  1.00  0.00     0.278 C 
ATOM      5  O   UNL A   1      33.468  26.972  22.714  1.00  0.00    -0.268 OA
ATOM      6  H   UNL A   1      34.269  28.350  24.448  1.00  0.00     0.163 HD
BRANCH   4   7
ATOM      7  C   UNL A   1      32.526  25.421  24.319  1.00  0.00     0.271 C 
ATOM      8  C   UNL A   1      31.771  24.756  23.160  1.00  0.00     0.086 C 
BRANCH   7   9
ATOM      9  N   UNL A   1      33.324  24.552  25.232  1.00  0.00    -0.322 N 
ATOM     10  C   UNL A   1      34.781  20.801  25.430  1.00  0.00     0.283 C 
ATOM     11  O   UNL A   1      35.911  20.598  24.959  1.00  0.00    -0.268 OA
ATOM     12  N   UNL A   1      34.513  22.032  26.015  1.00  0.00    -0.326 N 
ATOM     13  C   UNL A   1      35.390  23.154  25.684  1.00  0.00     0.181 C 
ATOM     14  C   UNL A   1      33.328  22.507  26.722  1.00  0.00     0.181 C 
ATOM     15  C   UNL A   1      34.624  24.081  24.715  1.00  0.00     0.284 C 
ATOM     16  C   UNL A   1      32.518  23.453  25.812  1.00  0.00     0.284 C 
ATOM     17  H   UNL A   1      33.586  25.186  25.988  1.00  0.00     0.348 HD
BRANCH  10  18
ATOM     18  C   UNL A   1      33.668  19.721  25.144  1.00  0.00     0.171 C 
ATOM     19  C   UNL A   1      34.355  18.447  24.613  1.00  0.00     0.090 C 
BRANCH  18  20
ATOM     20  C   UNL A   1      32.653  20.317  24.126  1.00  0.00     0.075 C 
ATOM     21  C   UNL A   1      32.153  19.365  23.044  1.00  0.00     0.011 C 
ENDBRANCH  18  20
BRANCH  18  22
ATOM     22  N   UNL A   1      32.926  19.307  26.359  1.00  0.00    -0.345 N 
ATOM     23  H   UNL A   1      33.457  19.573  27.189  1.00  0.00     0.345 HD
ATOM     24  H   UNL A   1      32.795  18.295  26.349  1.00  0.00     0.345 HD
ATOM     25  H   UNL A   1      32.016  19.767  26.376  1.00  0.00     0.345 HD
ENDBRANCH  18  22
ENDBRANCH  10  18
ENDBRANCH   7   9
ENDBRANCH   4   7
ENDBRANCH   2   3
ENDBRANCH   1   2
BRANCH   1  26
ATOM     26  C   UNL A   1      34.247  30.127  26.943  1.00  0.00     0.023 C 
BRANCH  26  27
ATOM     27  C   UNL A   1      35.143  29.616  28.067  1.00  0.00     0.116 C 
BRANCH  27  28
ATOM     28  N   UNL A   1      35.336  30.576  29.146  1.00  0.00    -0.352 N 
ATOM     29  C   UNL A   1      36.473  30.854  29.871  1.00  0.00     0.251 C 
ATOM     30  H   UNL A   1      34.540  31.101  29.391  1.00  0.00     0.163 HD
ATOM     31  O   UNL A   1      36.428  31.636  30.813  1.00  0.00    -0.269 OA
BRANCH  29  32
ATOM     32  C   UNL A   1      37.735  30.162  29.534  1.00  0.00     0.039 A 
ATOM     33  C   UNL A   1      38.102  30.048  28.191  1.00  0.00     0.014 A 
ATOM     34  C   UNL A   1      38.578  29.690  30.541  1.00  0.00     0.014 A 
ATOM     35  C   UNL A   1      39.365  29.549  27.864  1.00  0.00     0.010 A 
ATOM     36  C   UNL A   1      39.863  29.267  30.217  1.00  0.00     0.010 A 
ATOM     37  C   UNL A   1      40.275  29.205  28.876  1.00  0.00    -0.014 A 
BRANCH  37  38
ATOM     38  C   UNL A   1      41.667  28.794  28.563  1.00  0.00     0.031 A 
ATOM     39  C   UNL A   1      42.763  29.822  28.530  1.00  0.00     0.074 A 
ATOM     40  C   UNL A   1      41.926  27.516  28.219  1.00  0.00     0.049 A 
ATOM     41  N   UNL A   1      44.011  29.687  28.164  1.00  0.00    -0.248 NA
ATOM     42  C   UNL A   1      42.399  31.190  28.933  1.00  0.00     0.031 C 
ATOM     43  C   UNL A   1      40.938  26.435  28.160  1.00  0.00     0.029 A 
ATOM     44  N   UNL A   1      43.098  26.911  27.838  1.00  0.00    -0.354 N 
ATOM     45  C   UNL A   1      44.574  30.954  28.267  1.00  0.00     0.074 A 
ATOM     46  C   UNL A   1      43.519  31.851  28.685  1.00  0.00     0.031 C 
ATOM     47  C   UNL A   1      41.550  25.298  27.788  1.00  0.00     0.029 A 
ATOM     48  C   UNL A   1      42.963  25.574  27.545  1.00  0.00     0.049 A 
ATOM     49  H   UNL A   1      43.957  27.389  27.780  1.00  0.00     0.167 HD
ATOM     50  C   UNL A   1      45.857  31.331  28.054  1.00  0.00     0.037 A 
ATOM     51  C   UNL A   1      43.871  24.674  27.121  1.00  0.00     0.037 A 
ATOM     52  C   UNL A   1      46.911  30.427  27.676  1.00  0.00     0.049 A 
ATOM     53  C   UNL A   1      45.295  25.111  26.915  1.00  0.00     0.074 A 
ATOM     54  C   UNL A   1      48.255  30.700  27.492  1.00  0.00     0.029 A 
ATOM     55  N   UNL A   1      46.740  29.072  27.432  1.00  0.00    -0.354 N 
ATOM     56  N   UNL A   1      45.821  26.304  27.065  1.00  0.00    -0.248 NA
ATOM     57  C   UNL A   1      46.252  24.081  26.487  1.00  0.00     0.031 C 
ATOM     58  C   UNL A   1      48.893  29.515  27.111  1.00  0.00     0.029 A 
ATOM     59  C   UNL A   1      47.953  28.496  27.092  1.00  0.00     0.049 A 
ATOM     60  H   UNL A   1      45.884  28.591  27.491  1.00  0.00     0.167 HD
ATOM     61  C   UNL A   1      47.173  26.163  26.777  1.00  0.00     0.074 A 
ATOM     62  C   UNL A   1      47.387  24.767  26.450  1.00  0.00     0.031 C 
ATOM     63  C   UNL A   1      48.150  27.102  26.785  1.00  0.00     0.037 A 
BRANCH  50  64
ATOM     64  C   UNL A   1      46.189  32.785  28.237  1.00  0.00     0.058 A 
ATOM     65  C   UNL A   1      46.612  33.291  29.477  1.00  0.00     0.135 A 
ATOM     66  C   UNL A   1      46.096  33.682  27.160  1.00  0.00     0.135 A 
ATOM     67  F   UNL A   1      46.702  32.479  30.543  1.00  0.00    -0.206 F 
ATOM     68  C   UNL A   1      46.898  34.640  29.652  1.00  0.00     0.059 A 
ATOM     69  C   UNL A   1      46.403  35.031  27.306  1.00  0.00     0.059 A 
ATOM     70  F   UNL A   1      45.696  33.250  25.953  1.00  0.00    -0.206 F 
ATOM     71  C   UNL A   1      46.786  35.504  28.562  1.00  0.00     0.060 A 
BRANCH  71  72
ATOM     72  S   UNL A   1      47.154  37.254  28.806  1.00  0.00     0.124 S 
ATOM     73  O   UNL A   1      46.338  37.561  29.976  1.00  0.00    -0.237 OA
ATOM     74  O   UNL A   1      48.596  37.245  29.024  1.00  0.00    -0.237 OA
ATOM     75  O   UNL A   1      46.717  37.869  27.556  1.00  0.00    -0.744 OA
ENDBRANCH  71  72
ENDBRANCH  50  64
BRANCH  51  76
ATOM     76  C   UNL A   1      43.468  23.262  26.893  1.00  0.00     0.058 A 
ATOM     77  C   UNL A   1      43.170  22.418  27.974  1.00  0.00     0.135 A 
ATOM     78  C   UNL A   1      43.359  22.730  25.599  1.00  0.00     0.135 A 
ATOM     79  F   UNL A   1      43.265  22.880  29.230  1.00  0.00    -0.206 F 
ATOM     80  C   UNL A   1      42.791  21.093  27.782  1.00  0.00     0.059 A 
ATOM     81  C   UNL A   1      42.962  21.414  25.381  1.00  0.00     0.059 A 
ATOM     82  F   UNL A   1      43.617  23.502  24.531  1.00  0.00    -0.206 F 
ATOM     83  C   UNL A   1      42.689  20.600  26.481  1.00  0.00     0.060 A 
BRANCH  83  84
ATOM     84  S   UNL A   1      42.147  18.895  26.239  1.00  0.00     0.124 S 
ATOM     85  O   UNL A   1      42.286  18.349  27.584  1.00  0.00    -0.237 OA
ATOM     86  O   UNL A   1      40.780  19.070  25.759  1.00  0.00    -0.237 OA
ATOM     87  O   UNL A   1      43.089  18.382  25.247  1.00  0.00    -0.744 OA
ENDBRANCH  83  84
ENDBRANCH  51  76
BRANCH  63  88
ATOM     88  C   UNL A   1      49.547  26.651  26.470  1.00  0.00     0.058 A 
ATOM     89  C   UNL A   1      50.052  26.678  25.163  1.00  0.00     0.135 A 
ATOM     90  C   UNL A   1      50.409  26.244  27.503  1.00  0.00     0.135 A 
ATOM     91  F   UNL A   1      49.265  27.053  24.142  1.00  0.00    -0.206 F 
ATOM     92  C   UNL A   1      51.363  26.305  24.884  1.00  0.00     0.059 A 
ATOM     93  C   UNL A   1      51.729  25.887  27.250  1.00  0.00     0.059 A 
ATOM     94  F   UNL A   1      49.974  26.208  28.771  1.00  0.00    -0.206 F 
ATOM     95  C   UNL A   1      52.194  25.912  25.935  1.00  0.00     0.060 A 
BRANCH  95  96
ATOM     96  S   UNL A   1      53.907  25.472  25.570  1.00  0.00     0.124 S 
ATOM     97  O   UNL A   1      53.733  24.370  24.630  1.00  0.00    -0.237 OA
ATOM     98  O   UNL A   1      54.436  26.709  25.004  1.00  0.00    -0.237 OA
ATOM     99  O   UNL A   1      54.449  25.107  26.875  1.00  0.00    -0.744 OA
ENDBRANCH  95  96
ENDBRANCH  63  88
ENDBRANCH  37  38
ENDBRANCH  29  32
ENDBRANCH  27  28
ENDBRANCH  26  27
ENDBRANCH   1  26
TORSDOF 18
ENDMDL
MODEL 3
REMARK VINA RESULT:     -10.2      3.583      8.252
REMARK SMILES CC[C@](C)([NH3+])C(=O)N1CC[NH+]([C@H](C)C(=O)NCCCCNC(=O)c2ccc(-c3c4nc(c(-c5c(F)cc(S(=O)(=O)[O-])cc5F)c5ccc([nH]5)c(-c5c(F)cc(S(=O)(=O)[O-])cc5F)c5nc(c(-c6c(F)cc(S(=O)(=O)[O-])cc6F)c6ccc3[nH]6)C=C5)C=C4)cc2)CC1
REMARK SMILES IDX 18 1 17 2 16 3 14 4 15 5 12 7 13 8 11 9 6 10 7 11 8 12 9 13
REMARK SMILES IDX 91 14 10 15 90 16 3 18 4 19 2 20 1 21 5 22 19 26 20 27 21 28
REMARK SMILES IDX 22 29 23 31 24 32 25 33 89 34 26 35 88 36 27 37 28 38 29 39
REMARK SMILES IDX 82 40 30 41 87 42 81 43 83 44 31 45 86 46 80 47 79 48 32 50
REMARK SMILES IDX 66 51 45 52 65 53 46 54 49 55 64 56 84 57 47 58 48 59 63 61
REMARK SMILES IDX 85 62 50 63 33 64 34 65 43 66 35 67 36 68 42 69 44 70 37 71
REMARK SMILES IDX 38 72 39 73 40 74 41 75 67 76 68 77 77 78 69 79 70 80 76 81
REMARK SMILES IDX 78 82 71 83 72 84 73 85 74 86 75 87 51 88 52 89 61 90 53 91
REMARK SMILES IDX 54 92 60 93 62 94 55 95 56 96 57 97 58 98 59 99
REMARK H PARENT 16 6 11 17 5 23 5 24 5 25 21 30 83 49 49 60
REMARK Flexibility Score: inf
ROOT
ATOM      1  C   UNL A   1      32.315  30.161  25.899  1.00  0.00     0.023 C 
ENDROOT
BRANCH   1   2
ATOM      2  C   UNL A   1      33.321  29.030  25.739  1.00  0.00     0.116 C 
BRANCH   2   3
ATOM      3  N   UNL A   1      33.886  28.920  24.409  1.00  0.00    -0.351 N 
ATOM      4  C   UNL A   1      33.551  28.093  23.372  1.00  0.00     0.278 C 
ATOM      5  O   UNL A   1      34.029  28.372  22.266  1.00  0.00    -0.268 OA
ATOM      6  H   UNL A   1      34.628  29.539  24.223  1.00  0.00     0.163 HD
BRANCH   4   7
ATOM      7  C   UNL A   1      32.653  26.842  23.545  1.00  0.00     0.271 C 
ATOM      8  C   UNL A   1      31.199  27.086  23.119  1.00  0.00     0.086 C 
BRANCH   7   9
ATOM      9  N   UNL A   1      33.298  25.557  23.149  1.00  0.00    -0.322 N 
ATOM     10  C   UNL A   1      33.542  21.723  24.365  1.00  0.00     0.283 C 
ATOM     11  O   UNL A   1      32.694  20.927  23.930  1.00  0.00    -0.268 OA
ATOM     12  N   UNL A   1      33.958  22.766  23.548  1.00  0.00    -0.326 N 
ATOM     13  C   UNL A   1      33.106  23.135  22.419  1.00  0.00     0.181 C 
ATOM     14  C   UNL A   1      34.992  23.777  23.755  1.00  0.00     0.181 C 
ATOM     15  C   UNL A   1      32.388  24.454  22.782  1.00  0.00     0.284 C 
ATOM     16  C   UNL A   1      34.340  25.128  24.111  1.00  0.00     0.284 C 
ATOM     17  H   UNL A   1      33.757  25.787  22.267  1.00  0.00     0.348 HD
BRANCH  10  18
ATOM     18  C   UNL A   1      33.929  21.612  25.889  1.00  0.00     0.171 C 
ATOM     19  C   UNL A   1      33.349  22.836  26.626  1.00  0.00     0.090 C 
BRANCH  18  20
ATOM     20  C   UNL A   1      35.479  21.531  26.000  1.00  0.00     0.075 C 
ATOM     21  C   UNL A   1      36.165  20.532  25.073  1.00  0.00     0.011 C 
ENDBRANCH  18  20
BRANCH  18  22
ATOM     22  N   UNL A   1      33.348  20.422  26.557  1.00  0.00    -0.345 N 
ATOM     23  H   UNL A   1      33.355  19.633  25.911  1.00  0.00     0.345 HD
ATOM     24  H   UNL A   1      32.388  20.625  26.837  1.00  0.00     0.345 HD
ATOM     25  H   UNL A   1      33.902  20.191  27.381  1.00  0.00     0.345 HD
ENDBRANCH  18  22
ENDBRANCH  10  18
ENDBRANCH   7   9
ENDBRANCH   4   7
ENDBRANCH   2   3
ENDBRANCH   1   2
BRANCH   1  26
ATOM     26  C   UNL A   1      32.388  30.919  27.222  1.00  0.00     0.023 C 
BRANCH  26  27
ATOM     27  C   UNL A   1      33.442  32.019  27.307  1.00  0.00     0.116 C 
BRANCH  27  28
ATOM     28  N   UNL A   1      32.888  33.344  27.550  1.00  0.00    -0.352 N 
ATOM     29  C   UNL A   1      33.255  34.283  28.489  1.00  0.00     0.251 C 
ATOM     30  H   UNL A   1      32.145  33.607  26.960  1.00  0.00     0.163 HD
ATOM     31  O   UNL A   1      32.611  35.318  28.611  1.00  0.00    -0.269 OA
BRANCH  29  32
ATOM     32  C   UNL A   1      34.401  34.007  29.379  1.00  0.00     0.039 A 
ATOM     33  C   UNL A   1      34.176  33.324  30.577  1.00  0.00     0.014 A 
ATOM     34  C   UNL A   1      35.698  34.361  29.000  1.00  0.00     0.014 A 
ATOM     35  C   UNL A   1      35.263  32.908  31.346  1.00  0.00     0.010 A 
ATOM     36  C   UNL A   1      36.781  33.878  29.728  1.00  0.00     0.010 A 
ATOM     37  C   UNL A   1      36.575  33.135  30.901  1.00  0.00    -0.014 A 
BRANCH  37  38
ATOM     38  C   UNL A   1      37.750  32.593  31.632  1.00  0.00     0.031 A 
ATOM     39  C   UNL A   1      38.504  31.419  31.073  1.00  0.00     0.074 A 
ATOM     40  C   UNL A   1      38.078  33.098  32.838  1.00  0.00     0.049 A 
ATOM     41  N   UNL A   1      39.474  30.728  31.613  1.00  0.00    -0.248 NA
ATOM     42  C   UNL A   1      38.090  30.939  29.745  1.00  0.00     0.031 C 
ATOM     43  C   UNL A   1      37.390  34.203  33.513  1.00  0.00     0.029 A 
ATOM     44  N   UNL A   1      39.066  32.738  33.720  1.00  0.00    -0.354 N 
ATOM     45  C   UNL A   1      39.770  29.719  30.705  1.00  0.00     0.074 A 
ATOM     46  C   UNL A   1      38.844  29.859  29.602  1.00  0.00     0.031 C 
ATOM     47  C   UNL A   1      37.991  34.442  34.691  1.00  0.00     0.029 A 
ATOM     48  C   UNL A   1      39.080  33.487  34.874  1.00  0.00     0.049 A 
ATOM     49  H   UNL A   1      39.706  32.011  33.544  1.00  0.00     0.167 HD
ATOM     50  C   UNL A   1      40.738  28.774  30.773  1.00  0.00     0.037 A 
ATOM     51  C   UNL A   1      39.874  33.410  35.959  1.00  0.00     0.037 A 
ATOM     52  C   UNL A   1      41.681  28.663  31.854  1.00  0.00     0.049 A 
ATOM     53  C   UNL A   1      40.958  32.367  36.002  1.00  0.00     0.074 A 
ATOM     54  C   UNL A   1      42.735  27.777  31.989  1.00  0.00     0.029 A 
ATOM     55  N   UNL A   1      41.688  29.469  32.983  1.00  0.00    -0.354 N 
ATOM     56  N   UNL A   1      41.255  31.452  35.110  1.00  0.00    -0.248 NA
ATOM     57  C   UNL A   1      41.818  32.350  37.193  1.00  0.00     0.031 C 
ATOM     58  C   UNL A   1      43.364  28.030  33.213  1.00  0.00     0.029 A 
ATOM     59  C   UNL A   1      42.724  29.098  33.823  1.00  0.00     0.049 A 
ATOM     60  H   UNL A   1      41.050  30.198  33.160  1.00  0.00     0.167 HD
ATOM     61  C   UNL A   1      42.352  30.768  35.620  1.00  0.00     0.074 A 
ATOM     62  C   UNL A   1      42.671  31.380  36.894  1.00  0.00     0.031 C 
ATOM     63  C   UNL A   1      43.036  29.729  35.081  1.00  0.00     0.037 A 
BRANCH  50  64
ATOM     64  C   UNL A   1      40.827  27.794  29.637  1.00  0.00     0.058 A 
ATOM     65  C   UNL A   1      41.821  27.902  28.651  1.00  0.00     0.135 A 
ATOM     66  C   UNL A   1      39.919  26.727  29.540  1.00  0.00     0.135 A 
ATOM     67  F   UNL A   1      42.703  28.914  28.689  1.00  0.00    -0.206 F 
ATOM     68  C   UNL A   1      41.891  27.009  27.589  1.00  0.00     0.059 A 
ATOM     69  C   UNL A   1      39.987  25.804  28.499  1.00  0.00     0.059 A 
ATOM     70  F   UNL A   1      38.950  26.577  30.456  1.00  0.00    -0.206 F 
ATOM     71  C   UNL A   1      40.966  25.965  27.518  1.00  0.00     0.060 A 
BRANCH  71  72
ATOM     72  S   UNL A   1      41.065  24.817  26.130  1.00  0.00     0.124 S 
ATOM     73  O   UNL A   1      39.719  24.252  26.126  1.00  0.00    -0.237 OA
ATOM     74  O   UNL A   1      41.384  25.699  25.013  1.00  0.00    -0.237 OA
ATOM     75  O   UNL A   1      42.130  23.900  26.523  1.00  0.00    -0.744 OA
ENDBRANCH  71  72
ENDBRANCH  50  64
BRANCH  51  76
ATOM     76  C   UNL A   1      39.694  34.366  37.082  1.00  0.00     0.058 A 
ATOM     77  C   UNL A   1      39.005  33.987  38.244  1.00  0.00     0.135 A 
ATOM     78  C   UNL A   1      40.216  35.668  37.027  1.00  0.00     0.135 A 
ATOM     79  F   UNL A   1      38.484  32.754  38.340  1.00  0.00    -0.206 F 
ATOM     80  C   UNL A   1      38.826  34.866  39.306  1.00  0.00     0.059 A 
ATOM     81  C   UNL A   1      40.067  36.559  38.086  1.00  0.00     0.059 A 
ATOM     82  F   UNL A   1      40.898  36.073  35.945  1.00  0.00    -0.206 F 
ATOM     83  C   UNL A   1      39.362  36.151  39.218  1.00  0.00     0.060 A 
BRANCH  83  84
ATOM     84  S   UNL A   1      39.170  37.270  40.623  1.00  0.00     0.124 S 
ATOM     85  O   UNL A   1      38.564  36.391  41.617  1.00  0.00    -0.237 OA
ATOM     86  O   UNL A   1      40.547  37.677  40.884  1.00  0.00    -0.237 OA
ATOM     87  O   UNL A   1      38.304  38.321  40.096  1.00  0.00    -0.744 OA
ENDBRANCH  83  84
ENDBRANCH  51  76
BRANCH  63  88
ATOM     88  C   UNL A   1      44.221  29.210  35.843  1.00  0.00     0.058 A 
ATOM     89  C   UNL A   1      44.116  28.115  36.712  1.00  0.00     0.135 A 
ATOM     90  C   UNL A   1      45.491  29.780  35.651  1.00  0.00     0.135 A 
ATOM     91  F   UNL A   1      42.923  27.540  36.932  1.00  0.00    -0.206 F 
ATOM     92  C   UNL A   1      45.227  27.608  37.378  1.00  0.00     0.059 A 
ATOM     93  C   UNL A   1      46.618  29.277  36.290  1.00  0.00     0.059 A 
ATOM     94  F   UNL A   1      45.644  30.826  34.824  1.00  0.00    -0.206 F 
ATOM     95  C   UNL A   1      46.475  28.195  37.159  1.00  0.00     0.060 A 
BRANCH  95  96
ATOM     96  S   UNL A   1      47.919  27.503  37.993  1.00  0.00     0.124 S 
ATOM     97  O   UNL A   1      47.913  28.241  39.252  1.00  0.00    -0.237 OA
ATOM     98  O   UNL A   1      47.579  26.087  38.088  1.00  0.00    -0.237 OA
ATOM     99  O   UNL A   1      49.018  27.817  37.085  1.00  0.00    -0.744 OA
ENDBRANCH  95  96
ENDBRANCH  63  88
ENDBRANCH  37  38
ENDBRANCH  29  32
ENDBRANCH  27  28
ENDBRANCH  26  27
ENDBRANCH   1  26
TORSDOF 18
ENDMDL
