MODEL 1
REMARK VINA RESULT:     -13.9      0.000      0.000
REMARK SMILES Cc1cc(N2CC[NH+]([C@@H](C(=O)NCCCCNC(=O)c3ccc(-c4c5nc(c(-c6c(F)cc(S(=O)(=O)[O-])cc6F)c6ccc([nH]6)c(-c6c(F)cc(S(=O)(=O)[O-])cc6F)c6nc(c(-c7c(F)cc(S(=O)(=O)[O-])cc7F)c7ccc4[nH]7)C=C6)C=C5)cc3)c3c[nH]c4ccccc34)CC2)nc2ccccc12
REMARK SMILES IDX 15 1 14 2 13 3 12 4 10 5 11 6 9 8 8 9 5 10 6 11 96 12 7 13
REMARK SMILES IDX 95 14 4 16 1 17 2 18 3 19 103 20 98 21 102 22 97 23 99 24
REMARK SMILES IDX 101 25 100 26 86 27 87 28 94 29 88 30 89 31 93 32 90 34
REMARK SMILES IDX 92 35 91 36 16 37 17 38 18 39 19 41 20 42 21 43 85 44 22 45
REMARK SMILES IDX 84 46 23 47 24 48 25 49 78 50 26 51 83 52 77 53 79 54 27 55
REMARK SMILES IDX 82 56 76 57 75 58 28 60 62 61 41 62 61 63 42 64 45 65 60 66
REMARK SMILES IDX 80 67 43 68 44 69 59 71 81 72 46 73 29 74 30 75 39 76 31 77
REMARK SMILES IDX 32 78 38 79 40 80 33 81 34 82 35 83 36 84 37 85 63 86 64 87
REMARK SMILES IDX 73 88 65 89 66 90 72 91 74 92 67 93 68 94 69 95 70 96 71 97
REMARK SMILES IDX 47 98 48 99 57 100 49 101 50 102 56 103 58 104 51 105 52 106
REMARK SMILES IDX 53 107 54 108 55 109
REMARK H PARENT 12 7 8 15 88 33 17 40 79 59 45 70
REMARK Flexibility Score: inf
ROOT
ATOM      1  C   UNL A   1      37.284  23.331  25.999  1.00  0.00     0.023 C 
ENDROOT
BRANCH   1   2
ATOM      2  C   UNL A   1      36.407  23.795  24.828  1.00  0.00     0.023 C 
BRANCH   2   3
ATOM      3  C   UNL A   1      34.942  24.217  25.149  1.00  0.00     0.116 C 
BRANCH   3   4
ATOM      4  N   UNL A   1      34.197  24.949  24.110  1.00  0.00    -0.351 N 
ATOM      5  C   UNL A   1      32.937  25.485  23.914  1.00  0.00     0.283 C 
ATOM      6  O   UNL A   1      32.860  26.195  22.902  1.00  0.00    -0.268 OA
ATOM      7  H   UNL A   1      34.764  25.100  23.319  1.00  0.00     0.163 HD
BRANCH   5   8
ATOM      8  C   UNL A   1      31.724  25.322  24.890  1.00  0.00     0.307 C 
BRANCH   8   9
ATOM      9  N   UNL A   1      30.743  24.187  24.681  1.00  0.00    -0.318 N 
ATOM     10  N   UNL A   1      31.880  21.480  24.699  1.00  0.00    -0.345 N 
ATOM     11  C   UNL A   1      32.088  22.335  23.539  1.00  0.00     0.179 C 
ATOM     12  C   UNL A   1      31.666  22.203  25.951  1.00  0.00     0.179 C 
ATOM     13  C   UNL A   1      30.873  23.276  23.520  1.00  0.00     0.284 C 
ATOM     14  C   UNL A   1      30.576  23.296  25.825  1.00  0.00     0.284 C 
ATOM     15  H   UNL A   1      29.946  24.798  24.502  1.00  0.00     0.349 HD
BRANCH  10  16
ATOM     16  C   UNL A   1      32.699  20.374  24.883  1.00  0.00     0.129 A 
ATOM     17  C   UNL A   1      36.423  19.881  24.709  1.00  0.00     0.045 C 
ATOM     18  C   UNL A   1      34.964  19.556  24.834  1.00  0.00    -0.038 A 
ATOM     19  C   UNL A   1      34.065  20.612  24.828  1.00  0.00     0.051 A 
ATOM     20  C   UNL A   1      34.455  18.250  24.953  1.00  0.00     0.003 A 
ATOM     21  C   UNL A   1      33.047  18.091  24.996  1.00  0.00     0.073 A 
ATOM     22  C   UNL A   1      35.286  17.112  25.026  1.00  0.00     0.010 A 
ATOM     23  N   UNL A   1      32.191  19.133  24.970  1.00  0.00    -0.231 NA
ATOM     24  C   UNL A   1      32.535  16.800  25.048  1.00  0.00     0.029 A 
ATOM     25  C   UNL A   1      34.742  15.833  25.108  1.00  0.00     0.001 A 
ATOM     26  C   UNL A   1      33.363  15.675  25.102  1.00  0.00     0.002 A 
ENDBRANCH  10  16
ENDBRANCH   8   9
BRANCH   8  27
ATOM     27  C   UNL A   1      30.936  26.639  25.209  1.00  0.00     0.044 A 
ATOM     28  C   UNL A   1      30.071  27.233  24.283  1.00  0.00     0.094 A 
ATOM     29  C   UNL A   1      31.351  27.794  25.985  1.00  0.00     0.009 A 
ATOM     30  N   UNL A   1      30.831  28.332  23.899  1.00  0.00    -0.361 N 
ATOM     31  C   UNL A   1      31.478  28.808  25.021  1.00  0.00     0.046 A 
ATOM     32  C   UNL A   1      31.853  28.064  27.275  1.00  0.00     0.011 A 
ATOM     33  H   UNL A   1      30.896  28.703  22.990  1.00  0.00     0.166 HD
ATOM     34  C   UNL A   1      32.294  29.933  25.197  1.00  0.00     0.026 A 
ATOM     35  C   UNL A   1      32.534  29.271  27.514  1.00  0.00     0.001 A 
ATOM     36  C   UNL A   1      32.824  30.146  26.469  1.00  0.00     0.002 A 
ENDBRANCH   8  27
ENDBRANCH   5   8
ENDBRANCH   3   4
ENDBRANCH   2   3
ENDBRANCH   1   2
BRANCH   1  37
ATOM     37  C   UNL A   1      38.240  24.387  26.512  1.00  0.00     0.116 C 
BRANCH  37  38
ATOM     38  N   UNL A   1      39.612  24.134  26.095  1.00  0.00    -0.352 N 
ATOM     39  C   UNL A   1      40.766  24.783  26.479  1.00  0.00     0.251 C 
ATOM     40  H   UNL A   1      39.731  23.400  25.450  1.00  0.00     0.163 HD
ATOM     41  O   UNL A   1      41.812  24.563  25.889  1.00  0.00    -0.269 OA
BRANCH  39  42
ATOM     42  C   UNL A   1      40.720  25.763  27.592  1.00  0.00     0.039 A 
ATOM     43  C   UNL A   1      41.617  26.835  27.596  1.00  0.00     0.014 A 
ATOM     44  C   UNL A   1      39.792  25.626  28.627  1.00  0.00     0.014 A 
ATOM     45  C   UNL A   1      41.547  27.789  28.613  1.00  0.00     0.010 A 
ATOM     46  C   UNL A   1      39.648  26.633  29.569  1.00  0.00     0.010 A 
ATOM     47  C   UNL A   1      40.543  27.710  29.591  1.00  0.00    -0.014 A 
BRANCH  47  48
ATOM     48  C   UNL A   1      40.433  28.711  30.679  1.00  0.00     0.031 A 
ATOM     49  C   UNL A   1      41.309  28.577  31.899  1.00  0.00     0.074 A 
ATOM     50  C   UNL A   1      39.508  29.686  30.596  1.00  0.00     0.049 A 
ATOM     51  N   UNL A   1      41.312  29.290  32.994  1.00  0.00    -0.248 NA
ATOM     52  C   UNL A   1      42.283  27.472  31.907  1.00  0.00     0.031 C 
ATOM     53  C   UNL A   1      38.563  29.867  29.489  1.00  0.00     0.029 A 
ATOM     54  N   UNL A   1      39.198  30.704  31.461  1.00  0.00    -0.354 N 
ATOM     55  C   UNL A   1      42.266  28.708  33.821  1.00  0.00     0.074 A 
ATOM     56  C   UNL A   1      42.779  27.548  33.133  1.00  0.00     0.031 C 
ATOM     57  C   UNL A   1      37.801  30.945  29.731  1.00  0.00     0.029 A 
ATOM     58  C   UNL A   1      38.169  31.506  31.026  1.00  0.00     0.049 A 
ATOM     59  H   UNL A   1      39.668  30.847  32.314  1.00  0.00     0.167 HD
ATOM     60  C   UNL A   1      42.694  29.123  35.036  1.00  0.00     0.037 A 
ATOM     61  C   UNL A   1      37.583  32.566  31.616  1.00  0.00     0.037 A 
ATOM     62  C   UNL A   1      42.206  30.310  35.687  1.00  0.00     0.049 A 
ATOM     63  C   UNL A   1      38.096  33.020  32.958  1.00  0.00     0.074 A 
ATOM     64  C   UNL A   1      42.626  30.868  36.880  1.00  0.00     0.029 A 
ATOM     65  N   UNL A   1      41.194  31.121  35.196  1.00  0.00    -0.354 N 
ATOM     66  N   UNL A   1      39.056  32.504  33.690  1.00  0.00    -0.248 NA
ATOM     67  C   UNL A   1      37.456  34.200  33.551  1.00  0.00     0.031 C 
ATOM     68  C   UNL A   1      41.830  31.988  37.139  1.00  0.00     0.029 A 
ATOM     69  C   UNL A   1      40.958  32.163  36.074  1.00  0.00     0.049 A 
ATOM     70  H   UNL A   1      40.714  30.977  34.348  1.00  0.00     0.167 HD
ATOM     71  C   UNL A   1      39.155  33.317  34.814  1.00  0.00     0.074 A 
ATOM     72  C   UNL A   1      38.170  34.367  34.656  1.00  0.00     0.031 C 
ATOM     73  C   UNL A   1      39.983  33.206  35.882  1.00  0.00     0.037 A 
BRANCH  60  74
ATOM     74  C   UNL A   1      43.748  28.310  35.737  1.00  0.00     0.058 A 
ATOM     75  C   UNL A   1      43.415  27.268  36.616  1.00  0.00     0.135 A 
ATOM     76  C   UNL A   1      45.109  28.526  35.465  1.00  0.00     0.135 A 
ATOM     77  F   UNL A   1      42.132  27.030  36.930  1.00  0.00    -0.206 F 
ATOM     78  C   UNL A   1      44.393  26.474  37.207  1.00  0.00     0.059 A 
ATOM     79  C   UNL A   1      46.102  27.725  36.021  1.00  0.00     0.059 A 
ATOM     80  F   UNL A   1      45.485  29.514  34.638  1.00  0.00    -0.206 F 
ATOM     81  C   UNL A   1      45.733  26.702  36.895  1.00  0.00     0.060 A 
BRANCH  81  82
ATOM     82  S   UNL A   1      46.982  25.625  37.627  1.00  0.00     0.124 S 
ATOM     83  O   UNL A   1      48.021  25.642  36.600  1.00  0.00    -0.237 OA
ATOM     84  O   UNL A   1      47.306  26.324  38.866  1.00  0.00    -0.237 OA
ATOM     85  O   UNL A   1      46.284  24.353  37.789  1.00  0.00    -0.744 OA
ENDBRANCH  81  82
ENDBRANCH  60  74
BRANCH  61  86
ATOM     86  C   UNL A   1      36.459  33.277  30.947  1.00  0.00     0.058 A 
ATOM     87  C   UNL A   1      36.681  34.105  29.835  1.00  0.00     0.135 A 
ATOM     88  C   UNL A   1      35.140  33.158  31.415  1.00  0.00     0.135 A 
ATOM     89  F   UNL A   1      37.923  34.251  29.348  1.00  0.00    -0.206 F 
ATOM     90  C   UNL A   1      35.649  34.821  29.239  1.00  0.00     0.059 A 
ATOM     91  C   UNL A   1      34.086  33.838  30.814  1.00  0.00     0.059 A 
ATOM     92  F   UNL A   1      34.863  32.360  32.458  1.00  0.00    -0.206 F 
ATOM     93  C   UNL A   1      34.353  34.683  29.739  1.00  0.00     0.060 A 
BRANCH  93  94
ATOM     94  S   UNL A   1      33.017  35.609  28.952  1.00  0.00     0.124 S 
ATOM     95  O   UNL A   1      32.189  35.961  30.100  1.00  0.00    -0.237 OA
ATOM     96  O   UNL A   1      33.738  36.710  28.321  1.00  0.00    -0.237 OA
ATOM     97  O   UNL A   1      32.437  34.638  28.029  1.00  0.00    -0.744 OA
ENDBRANCH  93  94
ENDBRANCH  61  86
BRANCH  73  98
ATOM     98  C   UNL A   1      39.893  34.271  36.940  1.00  0.00     0.058 A 
ATOM     99  C   UNL A   1      40.523  35.515  36.792  1.00  0.00     0.135 A 
ATOM    100  C   UNL A   1      39.113  34.060  38.089  1.00  0.00     0.135 A 
ATOM    101  F   UNL A   1      41.283  35.765  35.714  1.00  0.00    -0.206 F 
ATOM    102  C   UNL A   1      40.406  36.505  37.761  1.00  0.00     0.059 A 
ATOM    103  C   UNL A   1      38.955  35.048  39.053  1.00  0.00     0.059 A 
ATOM    104  F   UNL A   1      38.478  32.891  38.272  1.00  0.00    -0.206 F 
ATOM    105  C   UNL A   1      39.616  36.263  38.886  1.00  0.00     0.060 A 
BRANCH 105 106
ATOM    106  S   UNL A   1      39.446  37.570  40.119  1.00  0.00     0.124 S 
ATOM    107  O   UNL A   1      39.034  36.812  41.296  1.00  0.00    -0.237 OA
ATOM    108  O   UNL A   1      40.793  38.131  40.165  1.00  0.00    -0.237 OA
ATOM    109  O   UNL A   1      38.427  38.446  39.549  1.00  0.00    -0.744 OA
ENDBRANCH 105 106
ENDBRANCH  73  98
ENDBRANCH  47  48
ENDBRANCH  39  42
ENDBRANCH  37  38
ENDBRANCH   1  37
TORSDOF 17
ENDMDL
MODEL 2
REMARK VINA RESULT:     -13.8      6.251     11.332
REMARK SMILES Cc1cc(N2CC[NH+]([C@@H](C(=O)NCCCCNC(=O)c3ccc(-c4c5nc(c(-c6c(F)cc(S(=O)(=O)[O-])cc6F)c6ccc([nH]6)c(-c6c(F)cc(S(=O)(=O)[O-])cc6F)c6nc(c(-c7c(F)cc(S(=O)(=O)[O-])cc7F)c7ccc4[nH]7)C=C6)C=C5)cc3)c3c[nH]c4ccccc34)CC2)nc2ccccc12
REMARK SMILES IDX 15 1 14 2 13 3 12 4 10 5 11 6 9 8 8 9 5 10 6 11 96 12 7 13
REMARK SMILES IDX 95 14 4 16 1 17 2 18 3 19 103 20 98 21 102 22 97 23 99 24
REMARK SMILES IDX 101 25 100 26 86 27 87 28 94 29 88 30 89 31 93 32 90 34
REMARK SMILES IDX 92 35 91 36 16 37 17 38 18 39 19 41 20 42 21 43 85 44 22 45
REMARK SMILES IDX 84 46 23 47 24 48 25 49 78 50 26 51 83 52 77 53 79 54 27 55
REMARK SMILES IDX 82 56 76 57 75 58 28 60 62 61 41 62 61 63 42 64 45 65 60 66
REMARK SMILES IDX 80 67 43 68 44 69 59 71 81 72 46 73 29 74 30 75 39 76 31 77
REMARK SMILES IDX 32 78 38 79 40 80 33 81 34 82 35 83 36 84 37 85 63 86 64 87
REMARK SMILES IDX 73 88 65 89 66 90 72 91 74 92 67 93 68 94 69 95 70 96 71 97
REMARK SMILES IDX 47 98 48 99 57 100 49 101 50 102 56 103 58 104 51 105 52 106
REMARK SMILES IDX 53 107 54 108 55 109
REMARK H PARENT 12 7 8 15 88 33 17 40 79 59 45 70
REMARK Flexibility Score: inf
ROOT
ATOM      1  C   UNL A   1      34.472  29.816  27.516  1.00  0.00     0.023 C 
ENDROOT
BRANCH   1   2
ATOM      2  C   UNL A   1      33.126  30.454  27.144  1.00  0.00     0.023 C 
BRANCH   2   3
ATOM      3  C   UNL A   1      32.325  29.814  25.971  1.00  0.00     0.116 C 
BRANCH   3   4
ATOM      4  N   UNL A   1      31.487  28.641  26.273  1.00  0.00    -0.351 N 
ATOM      5  C   UNL A   1      31.180  27.411  25.721  1.00  0.00     0.283 C 
ATOM      6  O   UNL A   1      30.538  26.678  26.486  1.00  0.00    -0.268 OA
ATOM      7  H   UNL A   1      31.000  28.773  27.118  1.00  0.00     0.163 HD
BRANCH   5   8
ATOM      8  C   UNL A   1      31.653  26.907  24.317  1.00  0.00     0.307 C 
BRANCH   8   9
ATOM      9  N   UNL A   1      33.131  26.706  24.053  1.00  0.00    -0.318 N 
ATOM     10  N   UNL A   1      34.149  23.978  24.433  1.00  0.00    -0.345 N 
ATOM     11  C   UNL A   1      33.837  24.793  25.598  1.00  0.00     0.179 C 
ATOM     12  C   UNL A   1      33.393  24.327  23.232  1.00  0.00     0.179 C 
ATOM     13  C   UNL A   1      34.038  26.243  25.129  1.00  0.00     0.284 C 
ATOM     14  C   UNL A   1      33.445  25.842  22.919  1.00  0.00     0.284 C 
ATOM     15  H   UNL A   1      33.323  27.695  23.896  1.00  0.00     0.349 HD
BRANCH  10  16
ATOM     16  C   UNL A   1      34.267  22.602  24.579  1.00  0.00     0.129 A 
ATOM     17  C   UNL A   1      37.218  20.310  25.006  1.00  0.00     0.045 C 
ATOM     18  C   UNL A   1      35.801  20.758  24.809  1.00  0.00    -0.038 A 
ATOM     19  C   UNL A   1      35.549  22.122  24.813  1.00  0.00     0.051 A 
ATOM     20  C   UNL A   1      34.716  19.882  24.619  1.00  0.00     0.003 A 
ATOM     21  C   UNL A   1      33.441  20.453  24.378  1.00  0.00     0.073 A 
ATOM     22  C   UNL A   1      34.855  18.479  24.653  1.00  0.00     0.010 A 
ATOM     23  N   UNL A   1      33.223  21.784  24.368  1.00  0.00    -0.231 NA
ATOM     24  C   UNL A   1      32.377  19.595  24.124  1.00  0.00     0.029 A 
ATOM     25  C   UNL A   1      33.763  17.646  24.425  1.00  0.00     0.001 A 
ATOM     26  C   UNL A   1      32.524  18.204  24.143  1.00  0.00     0.002 A 
ENDBRANCH  10  16
ENDBRANCH   8   9
BRANCH   8  27
ATOM     27  C   UNL A   1      31.000  27.628  23.087  1.00  0.00     0.044 A 
ATOM     28  C   UNL A   1      31.735  28.455  22.231  1.00  0.00     0.094 A 
ATOM     29  C   UNL A   1      29.672  28.201  22.957  1.00  0.00     0.009 A 
ATOM     30  N   UNL A   1      31.266  29.703  22.622  1.00  0.00    -0.361 N 
ATOM     31  C   UNL A   1      29.917  29.582  22.883  1.00  0.00     0.046 A 
ATOM     32  C   UNL A   1      28.333  27.791  23.126  1.00  0.00     0.011 A 
ATOM     33  H   UNL A   1      31.801  30.526  22.700  1.00  0.00     0.166 HD
ATOM     34  C   UNL A   1      28.962  30.549  23.230  1.00  0.00     0.026 A 
ATOM     35  C   UNL A   1      27.330  28.761  23.310  1.00  0.00     0.001 A 
ATOM     36  C   UNL A   1      27.657  30.108  23.447  1.00  0.00     0.002 A 
ENDBRANCH   8  27
ENDBRANCH   5   8
ENDBRANCH   3   4
ENDBRANCH   2   3
ENDBRANCH   1   2
BRANCH   1  37
ATOM     37  C   UNL A   1      35.499  30.800  28.034  1.00  0.00     0.116 C 
BRANCH  37  38
ATOM     38  N   UNL A   1      35.448  30.935  29.483  1.00  0.00    -0.352 N 
ATOM     39  C   UNL A   1      36.377  30.539  30.421  1.00  0.00     0.251 C 
ATOM     40  H   UNL A   1      34.640  31.368  29.841  1.00  0.00     0.163 HD
ATOM     41  O   UNL A   1      36.090  30.561  31.607  1.00  0.00    -0.269 OA
BRANCH  39  42
ATOM     42  C   UNL A   1      37.710  30.063  29.978  1.00  0.00     0.039 A 
ATOM     43  C   UNL A   1      38.030  30.095  28.617  1.00  0.00     0.014 A 
ATOM     44  C   UNL A   1      38.645  29.591  30.903  1.00  0.00     0.014 A 
ATOM     45  C   UNL A   1      39.301  29.697  28.198  1.00  0.00     0.010 A 
ATOM     46  C   UNL A   1      39.940  29.307  30.499  1.00  0.00     0.010 A 
ATOM     47  C   UNL A   1      40.275  29.327  29.139  1.00  0.00    -0.014 A 
BRANCH  47  48
ATOM     48  C   UNL A   1      41.637  28.910  28.729  1.00  0.00     0.031 A 
ATOM     49  C   UNL A   1      42.732  29.942  28.640  1.00  0.00     0.074 A 
ATOM     50  C   UNL A   1      41.863  27.630  28.376  1.00  0.00     0.049 A 
ATOM     51  N   UNL A   1      43.963  29.804  28.224  1.00  0.00    -0.248 NA
ATOM     52  C   UNL A   1      42.388  31.320  29.034  1.00  0.00     0.031 C 
ATOM     53  C   UNL A   1      40.857  26.563  28.362  1.00  0.00     0.029 A 
ATOM     54  N   UNL A   1      43.008  27.006  27.950  1.00  0.00    -0.354 N 
ATOM     55  C   UNL A   1      44.527  31.074  28.285  1.00  0.00     0.074 A 
ATOM     56  C   UNL A   1      43.492  31.981  28.719  1.00  0.00     0.031 C 
ATOM     57  C   UNL A   1      41.435  25.415  27.975  1.00  0.00     0.029 A 
ATOM     58  C   UNL A   1      42.839  25.671  27.670  1.00  0.00     0.049 A 
ATOM     59  H   UNL A   1      43.870  27.472  27.853  1.00  0.00     0.167 HD
ATOM     60  C   UNL A   1      45.804  31.442  28.028  1.00  0.00     0.037 A 
ATOM     61  C   UNL A   1      43.719  24.760  27.209  1.00  0.00     0.037 A 
ATOM     62  C   UNL A   1      46.835  30.517  27.644  1.00  0.00     0.049 A 
ATOM     63  C   UNL A   1      45.139  25.194  26.954  1.00  0.00     0.074 A 
ATOM     64  C   UNL A   1      48.179  30.767  27.437  1.00  0.00     0.029 A 
ATOM     65  N   UNL A   1      46.636  29.164  27.413  1.00  0.00    -0.354 N 
ATOM     66  N   UNL A   1      45.674  26.384  27.096  1.00  0.00    -0.248 NA
ATOM     67  C   UNL A   1      46.076  24.165  26.487  1.00  0.00     0.031 C 
ATOM     68  C   UNL A   1      48.784  29.575  27.028  1.00  0.00     0.029 A 
ATOM     69  C   UNL A   1      47.829  28.569  27.042  1.00  0.00     0.049 A 
ATOM     70  H   UNL A   1      45.774  28.695  27.500  1.00  0.00     0.167 HD
ATOM     71  C   UNL A   1      47.017  26.238  26.766  1.00  0.00     0.074 A 
ATOM     72  C   UNL A   1      47.214  24.842  26.435  1.00  0.00     0.031 C 
ATOM     73  C   UNL A   1      48.000  27.172  26.736  1.00  0.00     0.037 A 
BRANCH  60  74
ATOM     74  C   UNL A   1      46.167  32.896  28.169  1.00  0.00     0.058 A 
ATOM     75  C   UNL A   1      46.651  33.423  29.376  1.00  0.00     0.135 A 
ATOM     76  C   UNL A   1      46.104  33.754  27.060  1.00  0.00     0.135 A 
ATOM     77  F   UNL A   1      46.713  32.654  30.475  1.00  0.00    -0.206 F 
ATOM     78  C   UNL A   1      47.051  34.752  29.482  1.00  0.00     0.059 A 
ATOM     79  C   UNL A   1      46.527  35.078  27.134  1.00  0.00     0.059 A 
ATOM     80  F   UNL A   1      45.642  33.305  25.883  1.00  0.00    -0.206 F 
ATOM     81  C   UNL A   1      46.996  35.569  28.352  1.00  0.00     0.060 A 
BRANCH  81  82
ATOM     82  S   UNL A   1      47.574  37.272  28.495  1.00  0.00     0.124 S 
ATOM     83  O   UNL A   1      48.650  37.136  29.473  1.00  0.00    -0.237 OA
ATOM     84  O   UNL A   1      47.993  37.573  27.130  1.00  0.00    -0.237 OA
ATOM     85  O   UNL A   1      46.394  37.996  28.960  1.00  0.00    -0.744 OA
ENDBRANCH  81  82
ENDBRANCH  60  74
BRANCH  61  86
ATOM     86  C   UNL A   1      43.293  23.354  26.966  1.00  0.00     0.058 A 
ATOM     87  C   UNL A   1      43.202  22.430  28.019  1.00  0.00     0.135 A 
ATOM     88  C   UNL A   1      42.986  22.899  25.674  1.00  0.00     0.135 A 
ATOM     89  F   UNL A   1      43.482  22.815  29.273  1.00  0.00    -0.206 F 
ATOM     90  C   UNL A   1      42.863  21.099  27.797  1.00  0.00     0.059 A 
ATOM     91  C   UNL A   1      42.613  21.581  25.431  1.00  0.00     0.059 A 
ATOM     92  F   UNL A   1      43.031  23.743  24.632  1.00  0.00    -0.206 F 
ATOM     93  C   UNL A   1      42.574  20.684  26.496  1.00  0.00     0.060 A 
BRANCH  93  94
ATOM     94  S   UNL A   1      42.126  18.956  26.218  1.00  0.00     0.124 S 
ATOM     95  O   UNL A   1      43.110  18.556  25.218  1.00  0.00    -0.237 OA
ATOM     96  O   UNL A   1      42.294  18.379  27.548  1.00  0.00    -0.237 OA
ATOM     97  O   UNL A   1      40.746  19.041  25.749  1.00  0.00    -0.744 OA
ENDBRANCH  93  94
ENDBRANCH  61  86
BRANCH  73  98
ATOM     98  C   UNL A   1      49.384  26.707  26.378  1.00  0.00     0.058 A 
ATOM     99  C   UNL A   1      50.223  26.088  27.316  1.00  0.00     0.135 A 
ATOM    100  C   UNL A   1      49.852  26.832  25.058  1.00  0.00     0.135 A 
ATOM    101  F   UNL A   1      49.824  25.950  28.591  1.00  0.00    -0.206 F 
ATOM    102  C   UNL A   1      51.488  25.633  26.967  1.00  0.00     0.059 A 
ATOM    103  C   UNL A   1      51.099  26.354  24.679  1.00  0.00     0.059 A 
ATOM    104  F   UNL A   1      49.082  27.405  24.119  1.00  0.00    -0.206 F 
ATOM    105  C   UNL A   1      51.916  25.766  25.644  1.00  0.00     0.060 A 
BRANCH 105 106
ATOM    106  S   UNL A   1      53.548  25.140  25.197  1.00  0.00     0.124 S 
ATOM    107  O   UNL A   1      53.370  23.703  25.376  1.00  0.00    -0.237 OA
ATOM    108  O   UNL A   1      53.689  25.595  23.818  1.00  0.00    -0.237 OA
ATOM    109  O   UNL A   1      54.437  25.786  26.159  1.00  0.00    -0.744 OA
ENDBRANCH 105 106
ENDBRANCH  73  98
ENDBRANCH  47  48
ENDBRANCH  39  42
ENDBRANCH  37  38
ENDBRANCH   1  37
TORSDOF 17
ENDMDL
MODEL 3
REMARK VINA RESULT:     -13.6      2.180      8.220
REMARK SMILES Cc1cc(N2CC[NH+]([C@@H](C(=O)NCCCCNC(=O)c3ccc(-c4c5nc(c(-c6c(F)cc(S(=O)(=O)[O-])cc6F)c6ccc([nH]6)c(-c6c(F)cc(S(=O)(=O)[O-])cc6F)c6nc(c(-c7c(F)cc(S(=O)(=O)[O-])cc7F)c7ccc4[nH]7)C=C6)C=C5)cc3)c3c[nH]c4ccccc34)CC2)nc2ccccc12
REMARK SMILES IDX 15 1 14 2 13 3 12 4 10 5 11 6 9 8 8 9 5 10 6 11 96 12 7 13
REMARK SMILES IDX 95 14 4 16 1 17 2 18 3 19 103 20 98 21 102 22 97 23 99 24
REMARK SMILES IDX 101 25 100 26 86 27 87 28 94 29 88 30 89 31 93 32 90 34
REMARK SMILES IDX 92 35 91 36 16 37 17 38 18 39 19 41 20 42 21 43 85 44 22 45
REMARK SMILES IDX 84 46 23 47 24 48 25 49 78 50 26 51 83 52 77 53 79 54 27 55
REMARK SMILES IDX 82 56 76 57 75 58 28 60 62 61 41 62 61 63 42 64 45 65 60 66
REMARK SMILES IDX 80 67 43 68 44 69 59 71 81 72 46 73 29 74 30 75 39 76 31 77
REMARK SMILES IDX 32 78 38 79 40 80 33 81 34 82 35 83 36 84 37 85 63 86 64 87
REMARK SMILES IDX 73 88 65 89 66 90 72 91 74 92 67 93 68 94 69 95 70 96 71 97
REMARK SMILES IDX 47 98 48 99 57 100 49 101 50 102 56 103 58 104 51 105 52 106
REMARK SMILES IDX 53 107 54 108 55 109
REMARK H PARENT 12 7 8 15 88 33 17 40 79 59 45 70
REMARK Flexibility Score: inf
ROOT
ATOM      1  C   UNL A   1      31.581  32.080  26.691  1.00  0.00     0.023 C 
ENDROOT
BRANCH   1   2
ATOM      2  C   UNL A   1      31.585  30.555  26.517  1.00  0.00     0.023 C 
BRANCH   2   3
ATOM      3  C   UNL A   1      32.893  29.791  26.885  1.00  0.00     0.116 C 
BRANCH   3   4
ATOM      4  N   UNL A   1      33.372  28.762  25.946  1.00  0.00    -0.351 N 
ATOM      5  C   UNL A   1      32.853  27.865  25.031  1.00  0.00     0.283 C 
ATOM      6  O   UNL A   1      33.720  27.327  24.328  1.00  0.00    -0.268 OA
ATOM      7  H   UNL A   1      34.354  28.691  25.981  1.00  0.00     0.163 HD
BRANCH   5   8
ATOM      8  C   UNL A   1      31.330  27.591  24.798  1.00  0.00     0.307 C 
BRANCH   8   9
ATOM      9  N   UNL A   1      30.716  26.301  25.303  1.00  0.00    -0.318 N 
ATOM     10  N   UNL A   1      32.394  23.902  25.085  1.00  0.00    -0.345 N 
ATOM     11  C   UNL A   1      31.774  24.452  23.887  1.00  0.00     0.179 C 
ATOM     12  C   UNL A   1      32.633  24.880  26.144  1.00  0.00     0.179 C 
ATOM     13  C   UNL A   1      30.502  25.154  24.391  1.00  0.00     0.284 C 
ATOM     14  C   UNL A   1      31.373  25.720  26.470  1.00  0.00     0.284 C 
ATOM     15  H   UNL A   1      29.803  26.713  25.495  1.00  0.00     0.349 HD
BRANCH  10  16
ATOM     16  C   UNL A   1      33.461  23.023  24.953  1.00  0.00     0.129 A 
ATOM     17  C   UNL A   1      33.679  19.283  24.629  1.00  0.00     0.045 C 
ATOM     18  C   UNL A   1      34.113  20.710  24.781  1.00  0.00    -0.038 A 
ATOM     19  C   UNL A   1      33.131  21.689  24.760  1.00  0.00     0.051 A 
ATOM     20  C   UNL A   1      35.450  21.114  24.949  1.00  0.00     0.003 A 
ATOM     21  C   UNL A   1      35.703  22.495  25.149  1.00  0.00     0.073 A 
ATOM     22  C   UNL A   1      36.529  20.205  24.929  1.00  0.00     0.010 A 
ATOM     23  N   UNL A   1      34.728  23.427  25.141  1.00  0.00    -0.231 NA
ATOM     24  C   UNL A   1      37.015  22.894  25.379  1.00  0.00     0.029 A 
ATOM     25  C   UNL A   1      37.836  20.641  25.133  1.00  0.00     0.001 A 
ATOM     26  C   UNL A   1      38.078  21.986  25.376  1.00  0.00     0.002 A 
ENDBRANCH  10  16
ENDBRANCH   8   9
BRANCH   8  27
ATOM     27  C   UNL A   1      30.807  27.883  23.349  1.00  0.00     0.044 A 
ATOM     28  C   UNL A   1      31.659  28.289  22.317  1.00  0.00     0.094 A 
ATOM     29  C   UNL A   1      29.552  28.481  22.928  1.00  0.00     0.009 A 
ATOM     30  N   UNL A   1      31.307  29.630  22.214  1.00  0.00    -0.361 N 
ATOM     31  C   UNL A   1      29.943  29.722  22.397  1.00  0.00     0.046 A 
ATOM     32  C   UNL A   1      28.172  28.270  23.127  1.00  0.00     0.011 A 
ATOM     33  H   UNL A   1      31.921  30.380  22.041  1.00  0.00     0.166 HD
ATOM     34  C   UNL A   1      29.081  30.824  22.313  1.00  0.00     0.026 A 
ATOM     35  C   UNL A   1      27.269  29.322  22.886  1.00  0.00     0.001 A 
ATOM     36  C   UNL A   1      27.729  30.599  22.570  1.00  0.00     0.002 A 
ENDBRANCH   8  27
ENDBRANCH   5   8
ENDBRANCH   3   4
ENDBRANCH   2   3
ENDBRANCH   1   2
BRANCH   1  37
ATOM     37  C   UNL A   1      32.893  32.648  27.188  1.00  0.00     0.116 C 
BRANCH  37  38
ATOM     38  N   UNL A   1      32.757  34.025  27.642  1.00  0.00    -0.352 N 
ATOM     39  C   UNL A   1      33.405  34.661  28.680  1.00  0.00     0.251 C 
ATOM     40  H   UNL A   1      32.116  34.577  27.140  1.00  0.00     0.163 HD
ATOM     41  O   UNL A   1      33.035  35.766  29.042  1.00  0.00    -0.269 OA
BRANCH  39  42
ATOM     42  C   UNL A   1      34.533  33.983  29.365  1.00  0.00     0.039 A 
ATOM     43  C   UNL A   1      35.843  34.373  29.075  1.00  0.00     0.014 A 
ATOM     44  C   UNL A   1      34.297  32.967  30.294  1.00  0.00     0.014 A 
ATOM     45  C   UNL A   1      36.908  33.775  29.753  1.00  0.00     0.010 A 
ATOM     46  C   UNL A   1      35.344  32.457  31.048  1.00  0.00     0.010 A 
ATOM     47  C   UNL A   1      36.663  32.832  30.765  1.00  0.00    -0.014 A 
BRANCH  47  48
ATOM     48  C   UNL A   1      37.768  32.185  31.511  1.00  0.00     0.031 A 
ATOM     49  C   UNL A   1      38.156  32.718  32.868  1.00  0.00     0.074 A 
ATOM     50  C   UNL A   1      38.457  31.177  30.942  1.00  0.00     0.049 A 
ATOM     51  N   UNL A   1      39.141  32.354  33.645  1.00  0.00    -0.248 NA
ATOM     52  C   UNL A   1      37.355  33.832  33.405  1.00  0.00     0.031 C 
ATOM     53  C   UNL A   1      38.207  30.629  29.605  1.00  0.00     0.029 A 
ATOM     54  N   UNL A   1      39.514  30.438  31.408  1.00  0.00    -0.354 N 
ATOM     55  C   UNL A   1      39.090  33.205  34.743  1.00  0.00     0.074 A 
ATOM     56  C   UNL A   1      38.018  34.143  34.509  1.00  0.00     0.031 C 
ATOM     57  C   UNL A   1      39.068  29.626  29.372  1.00  0.00     0.029 A 
ATOM     58  C   UNL A   1      39.958  29.488  30.519  1.00  0.00     0.049 A 
ATOM     59  H   UNL A   1      39.918  30.577  32.295  1.00  0.00     0.167 HD
ATOM     60  C   UNL A   1      39.853  33.186  35.861  1.00  0.00     0.037 A 
ATOM     61  C   UNL A   1      40.978  28.612  30.619  1.00  0.00     0.037 A 
ATOM     62  C   UNL A   1      40.886  32.214  36.101  1.00  0.00     0.049 A 
ATOM     63  C   UNL A   1      41.795  28.598  31.885  1.00  0.00     0.074 A 
ATOM     64  C   UNL A   1      41.665  32.051  37.232  1.00  0.00     0.029 A 
ATOM     65  N   UNL A   1      41.278  31.239  35.197  1.00  0.00    -0.354 N 
ATOM     66  N   UNL A   1      41.679  29.358  32.948  1.00  0.00    -0.248 NA
ATOM     67  C   UNL A   1      42.874  27.606  31.969  1.00  0.00     0.031 C 
ATOM     68  C   UNL A   1      42.567  31.011  36.990  1.00  0.00     0.029 A 
ATOM     69  C   UNL A   1      42.306  30.484  35.733  1.00  0.00     0.049 A 
ATOM     70  H   UNL A   1      40.883  31.102  34.305  1.00  0.00     0.167 HD
ATOM     71  C   UNL A   1      42.648  28.913  33.841  1.00  0.00     0.074 A 
ATOM     72  C   UNL A   1      43.329  27.808  33.198  1.00  0.00     0.031 C 
ATOM     73  C   UNL A   1      42.953  29.377  35.078  1.00  0.00     0.037 A 
BRANCH  60  74
ATOM     74  C   UNL A   1      39.596  34.227  36.917  1.00  0.00     0.058 A 
ATOM     75  C   UNL A   1      38.853  33.941  38.072  1.00  0.00     0.135 A 
ATOM     76  C   UNL A   1      40.167  35.506  36.808  1.00  0.00     0.135 A 
ATOM     77  F   UNL A   1      38.266  32.742  38.220  1.00  0.00    -0.206 F 
ATOM     78  C   UNL A   1      38.676  34.886  39.078  1.00  0.00     0.059 A 
ATOM     79  C   UNL A   1      40.029  36.457  37.814  1.00  0.00     0.059 A 
ATOM     80  F   UNL A   1      40.881  35.837  35.720  1.00  0.00    -0.206 F 
ATOM     81  C   UNL A   1      39.278  36.138  38.945  1.00  0.00     0.060 A 
BRANCH  81  82
ATOM     82  S   UNL A   1      39.085  37.331  40.285  1.00  0.00     0.124 S 
ATOM     83  O   UNL A   1      38.525  36.494  41.343  1.00  0.00    -0.237 OA
ATOM     84  O   UNL A   1      40.456  37.784  40.496  1.00  0.00    -0.237 OA
ATOM     85  O   UNL A   1      38.176  38.328  39.729  1.00  0.00    -0.744 OA
ENDBRANCH  81  82
ENDBRANCH  60  74
BRANCH  61  86
ATOM     86  C   UNL A   1      41.280  27.675  29.502  1.00  0.00     0.058 A 
ATOM     87  C   UNL A   1      40.435  26.591  29.214  1.00  0.00     0.135 A 
ATOM     88  C   UNL A   1      42.429  27.831  28.711  1.00  0.00     0.135 A 
ATOM     89  F   UNL A   1      39.323  26.398  29.940  1.00  0.00    -0.206 F 
ATOM     90  C   UNL A   1      40.738  25.674  28.213  1.00  0.00     0.059 A 
ATOM     91  C   UNL A   1      42.736  26.946  27.682  1.00  0.00     0.059 A 
ATOM     92  F   UNL A   1      43.260  28.863  28.923  1.00  0.00    -0.206 F 
ATOM     93  C   UNL A   1      41.895  25.859  27.454  1.00  0.00     0.060 A 
BRANCH  93  94
ATOM     94  S   UNL A   1      42.275  24.669  26.150  1.00  0.00     0.124 S 
ATOM     95  O   UNL A   1      41.225  23.675  26.346  1.00  0.00    -0.237 OA
ATOM     96  O   UNL A   1      42.165  25.487  24.947  1.00  0.00    -0.237 OA
ATOM     97  O   UNL A   1      43.628  24.232  26.481  1.00  0.00    -0.744 OA
ENDBRANCH  93  94
ENDBRANCH  61  86
BRANCH  73  98
ATOM     98  C   UNL A   1      44.035  28.661  35.837  1.00  0.00     0.058 A 
ATOM     99  C   UNL A   1      45.378  29.061  35.765  1.00  0.00     0.135 A 
ATOM    100  C   UNL A   1      43.710  27.597  36.696  1.00  0.00     0.135 A 
ATOM    101  F   UNL A   1      45.740  30.070  34.956  1.00  0.00    -0.206 F 
ATOM    102  C   UNL A   1      46.366  28.414  36.497  1.00  0.00     0.059 A 
ATOM    103  C   UNL A   1      44.677  26.959  37.462  1.00  0.00     0.059 A 
ATOM    104  F   UNL A   1      42.438  27.185  36.811  1.00  0.00    -0.206 F 
ATOM    105  C   UNL A   1      46.005  27.366  37.346  1.00  0.00     0.060 A 
BRANCH 105 106
ATOM    106  S   UNL A   1      47.294  26.557  38.316  1.00  0.00     0.124 S 
ATOM    107  O   UNL A   1      48.036  27.703  38.832  1.00  0.00    -0.237 OA
ATOM    108  O   UNL A   1      46.519  25.808  39.301  1.00  0.00    -0.237 OA
ATOM    109  O   UNL A   1      48.001  25.743  37.332  1.00  0.00    -0.744 OA
ENDBRANCH 105 106
ENDBRANCH  73  98
ENDBRANCH  47  48
ENDBRANCH  39  42
ENDBRANCH  37  38
ENDBRANCH   1  37
TORSDOF 17
ENDMDL
