MODEL 1
REMARK VINA RESULT:     -12.4      0.000      0.000
REMARK SMILES O=C(NCCCCNC(=O)c1ccc(-c2c3nc(c(-c4c(F)cc(S(=O)(=O)[O-])cc4F)c4ccc([nH]4)c(-c4c(F)cc(S(=O)(=O)[O-])cc4F)c4nc(c(-c5c(F)cc(S(=O)(=O)[O-])cc5F)c5ccc2[nH]5)C=C4)C=C3)cc1)C1=Cc2c(cc(Cl)c(Cl)c2Cl)O[C@H]1C(F)(F)F
REMARK SMILES IDX 6 1 5 2 4 3 3 4 1 5 2 6 77 8 78 9 89 10 79 11 88 12 80 13
REMARK SMILES IDX 86 14 81 15 84 16 87 17 82 18 85 19 83 20 90 21 91 22 92 23
REMARK SMILES IDX 93 24 7 25 8 26 9 27 10 29 11 30 12 31 76 32 13 33 75 34
REMARK SMILES IDX 14 35 15 36 16 37 69 38 17 39 74 40 68 41 70 42 18 43 73 44
REMARK SMILES IDX 67 45 66 46 19 48 53 49 32 50 52 51 33 52 36 53 51 54 71 55
REMARK SMILES IDX 34 56 35 57 50 59 72 60 37 61 20 62 21 63 30 64 22 65 23 66
REMARK SMILES IDX 29 67 31 68 24 69 25 70 26 71 27 72 28 73 54 74 55 75 64 76
REMARK SMILES IDX 56 77 57 78 63 79 65 80 58 81 59 82 60 83 61 84 62 85 38 86
REMARK SMILES IDX 39 87 48 88 40 89 41 90 47 91 49 92 42 93 43 94 44 95 45 96
REMARK SMILES IDX 46 97
REMARK H PARENT 3 7 8 28 70 47 36 58
REMARK Flexibility Score: inf
ROOT
ATOM      1  C   UNL A   1      32.221  29.586  26.204  1.00  0.00     0.023 C 
ENDROOT
BRANCH   1   2
ATOM      2  C   UNL A   1      32.437  29.102  24.774  1.00  0.00     0.023 C 
BRANCH   2   3
ATOM      3  C   UNL A   1      33.778  28.440  24.488  1.00  0.00     0.116 C 
BRANCH   3   4
ATOM      4  N   UNL A   1      33.795  27.485  23.395  1.00  0.00    -0.352 N 
ATOM      5  O   UNL A   1      33.768  25.434  22.440  1.00  0.00    -0.270 OA
ATOM      6  C   UNL A   1      33.675  26.119  23.452  1.00  0.00     0.251 C 
ATOM      7  H   UNL A   1      33.907  27.867  22.495  1.00  0.00     0.163 HD
BRANCH   6   8
ATOM      8  C   UNL A   1      33.466  25.446  24.764  1.00  0.00     0.067 C 
ATOM      9  C   UNL A   1      34.576  24.975  25.356  1.00  0.00     0.027 C 
ATOM     10  C   UNL A   1      32.124  24.793  24.950  1.00  0.00     0.314 C 
ATOM     11  C   UNL A   1      34.634  23.499  25.401  1.00  0.00     0.037 A 
ATOM     12  O   UNL A   1      32.201  23.367  25.246  1.00  0.00    -0.475 OA
ATOM     13  C   UNL A   1      33.439  22.781  25.272  1.00  0.00     0.131 A 
ATOM     14  C   UNL A   1      35.870  22.821  25.357  1.00  0.00     0.072 A 
ATOM     15  C   UNL A   1      33.470  21.408  25.052  1.00  0.00     0.069 A 
ATOM     16  C   UNL A   1      35.904  21.439  25.101  1.00  0.00     0.079 A 
ATOM     17  Cl  UNL A   1      37.343  23.732  25.534  1.00  0.00    -0.082 Cl
ATOM     18  C   UNL A   1      34.695  20.745  24.933  1.00  0.00     0.064 A 
ATOM     19  Cl  UNL A   1      37.420  20.612  24.930  1.00  0.00    -0.081 Cl
ATOM     20  Cl  UNL A   1      34.636  19.068  24.519  1.00  0.00    -0.083 Cl
BRANCH  10  21
ATOM     21  C   UNL A   1      31.279  25.518  26.021  1.00  0.00     0.429 C 
ATOM     22  F   UNL A   1      30.628  24.671  26.851  1.00  0.00    -0.167 F 
ATOM     23  F   UNL A   1      32.055  26.317  26.792  1.00  0.00    -0.167 F 
ATOM     24  F   UNL A   1      30.331  26.312  25.463  1.00  0.00    -0.167 F 
ENDBRANCH  10  21
ENDBRANCH   6   8
ENDBRANCH   3   4
ENDBRANCH   2   3
ENDBRANCH   1   2
BRANCH   1  25
ATOM     25  C   UNL A   1      33.430  29.545  27.139  1.00  0.00     0.116 C 
BRANCH  25  26
ATOM     26  N   UNL A   1      33.581  30.711  28.000  1.00  0.00    -0.352 N 
ATOM     27  C   UNL A   1      34.666  31.117  28.754  1.00  0.00     0.251 C 
ATOM     28  H   UNL A   1      32.791  31.298  28.054  1.00  0.00     0.163 HD
ATOM     29  O   UNL A   1      34.590  32.126  29.440  1.00  0.00    -0.269 OA
BRANCH  27  30
ATOM     30  C   UNL A   1      35.887  30.279  28.794  1.00  0.00     0.039 A 
ATOM     31  C   UNL A   1      36.655  30.170  27.630  1.00  0.00     0.014 A 
ATOM     32  C   UNL A   1      36.330  29.699  29.983  1.00  0.00     0.014 A 
ATOM     33  C   UNL A   1      37.937  29.620  27.699  1.00  0.00     0.010 A 
ATOM     34  C   UNL A   1      37.635  29.220  30.067  1.00  0.00     0.010 A 
ATOM     35  C   UNL A   1      38.466  29.222  28.936  1.00  0.00    -0.014 A 
BRANCH  35  36
ATOM     36  C   UNL A   1      39.916  28.931  29.094  1.00  0.00     0.031 A 
ATOM     37  C   UNL A   1      40.883  30.011  29.474  1.00  0.00     0.074 A 
ATOM     38  C   UNL A   1      40.371  27.702  28.768  1.00  0.00     0.049 A 
ATOM     39  N   UNL A   1      42.188  29.960  29.549  1.00  0.00    -0.248 NA
ATOM     40  C   UNL A   1      40.312  31.330  29.782  1.00  0.00     0.031 C 
ATOM     41  C   UNL A   1      39.540  26.586  28.309  1.00  0.00     0.029 A 
ATOM     42  N   UNL A   1      41.645  27.191  28.747  1.00  0.00    -0.354 N 
ATOM     43  C   UNL A   1      42.598  31.240  29.898  1.00  0.00     0.074 A 
ATOM     44  C   UNL A   1      41.403  32.056  29.978  1.00  0.00     0.031 C 
ATOM     45  C   UNL A   1      40.321  25.525  28.056  1.00  0.00     0.029 A 
ATOM     46  C   UNL A   1      41.713  25.893  28.299  1.00  0.00     0.049 A 
ATOM     47  H   UNL A   1      42.438  27.707  29.025  1.00  0.00     0.167 HD
ATOM     48  C   UNL A   1      43.852  31.690  30.145  1.00  0.00     0.037 A 
ATOM     49  C   UNL A   1      42.773  25.089  28.087  1.00  0.00     0.037 A 
ATOM     50  C   UNL A   1      45.034  30.871  30.076  1.00  0.00     0.049 A 
ATOM     51  C   UNL A   1      44.153  25.600  28.381  1.00  0.00     0.074 A 
ATOM     52  C   UNL A   1      46.340  31.214  30.382  1.00  0.00     0.029 A 
ATOM     53  N   UNL A   1      45.057  29.547  29.658  1.00  0.00    -0.354 N 
ATOM     54  N   UNL A   1      44.514  26.791  28.796  1.00  0.00    -0.248 NA
ATOM     55  C   UNL A   1      45.268  24.666  28.182  1.00  0.00     0.031 C 
ATOM     56  C   UNL A   1      47.157  30.108  30.116  1.00  0.00     0.029 A 
ATOM     57  C   UNL A   1      46.356  29.066  29.675  1.00  0.00     0.049 A 
ATOM     58  H   UNL A   1      44.267  29.026  29.390  1.00  0.00     0.167 HD
ATOM     59  C   UNL A   1      45.898  26.748  28.914  1.00  0.00     0.074 A 
ATOM     60  C   UNL A   1      46.307  25.408  28.543  1.00  0.00     0.031 C 
ATOM     61  C   UNL A   1      46.751  27.732  29.291  1.00  0.00     0.037 A 
BRANCH  48  62
ATOM     62  C   UNL A   1      43.999  33.141  30.512  1.00  0.00     0.058 A 
ATOM     63  C   UNL A   1      43.992  33.562  31.851  1.00  0.00     0.135 A 
ATOM     64  C   UNL A   1      44.137  34.120  29.517  1.00  0.00     0.135 A 
ATOM     65  F   UNL A   1      43.851  32.667  32.842  1.00  0.00    -0.206 F 
ATOM     66  C   UNL A   1      44.067  34.909  32.189  1.00  0.00     0.059 A 
ATOM     67  C   UNL A   1      44.239  35.472  29.832  1.00  0.00     0.059 A 
ATOM     68  F   UNL A   1      44.153  33.771  28.221  1.00  0.00    -0.206 F 
ATOM     69  C   UNL A   1      44.179  35.858  31.171  1.00  0.00     0.060 A 
BRANCH  69  70
ATOM     70  S   UNL A   1      44.233  37.606  31.619  1.00  0.00     0.124 S 
ATOM     71  O   UNL A   1      43.445  37.614  32.849  1.00  0.00    -0.237 OA
ATOM     72  O   UNL A   1      45.663  37.846  31.783  1.00  0.00    -0.237 OA
ATOM     73  O   UNL A   1      43.617  38.268  30.474  1.00  0.00    -0.744 OA
ENDBRANCH  69  70
ENDBRANCH  48  62
BRANCH  49  74
ATOM     74  C   UNL A   1      42.552  23.711  27.573  1.00  0.00     0.058 A 
ATOM     75  C   UNL A   1      42.553  23.447  26.197  1.00  0.00     0.135 A 
ATOM     76  C   UNL A   1      42.399  22.626  28.450  1.00  0.00     0.135 A 
ATOM     77  F   UNL A   1      42.689  24.453  25.321  1.00  0.00    -0.206 F 
ATOM     78  C   UNL A   1      42.417  22.152  25.704  1.00  0.00     0.059 A 
ATOM     79  C   UNL A   1      42.280  21.321  27.983  1.00  0.00     0.059 A 
ATOM     80  F   UNL A   1      42.409  22.827  29.777  1.00  0.00    -0.206 F 
ATOM     81  C   UNL A   1      42.290  21.094  26.607  1.00  0.00     0.060 A 
BRANCH  81  82
ATOM     82  S   UNL A   1      42.212  19.408  25.963  1.00  0.00     0.124 S 
ATOM     83  O   UNL A   1      42.686  18.635  27.105  1.00  0.00    -0.237 OA
ATOM     84  O   UNL A   1      40.795  19.266  25.640  1.00  0.00    -0.237 OA
ATOM     85  O   UNL A   1      43.106  19.449  24.809  1.00  0.00    -0.744 OA
ENDBRANCH  81  82
ENDBRANCH  49  74
BRANCH  61  86
ATOM     86  C   UNL A   1      48.215  27.400  29.320  1.00  0.00     0.058 A 
ATOM     87  C   UNL A   1      49.035  27.623  28.204  1.00  0.00     0.135 A 
ATOM     88  C   UNL A   1      48.815  26.913  30.492  1.00  0.00     0.135 A 
ATOM     89  F   UNL A   1      48.507  28.078  27.058  1.00  0.00    -0.206 F 
ATOM     90  C   UNL A   1      50.403  27.367  28.246  1.00  0.00     0.059 A 
ATOM     91  C   UNL A   1      50.183  26.669  30.562  1.00  0.00     0.059 A 
ATOM     92  F   UNL A   1      48.074  26.687  31.588  1.00  0.00    -0.206 F 
ATOM     93  C   UNL A   1      50.967  26.892  29.431  1.00  0.00     0.060 A 
BRANCH  93  94
ATOM     94  S   UNL A   1      52.751  26.612  29.489  1.00  0.00     0.124 S 
ATOM     95  O   UNL A   1      53.261  27.978  29.523  1.00  0.00    -0.237 OA
ATOM     96  O   UNL A   1      52.908  25.846  30.721  1.00  0.00    -0.237 OA
ATOM     97  O   UNL A   1      53.017  25.872  28.260  1.00  0.00    -0.744 OA
ENDBRANCH  93  94
ENDBRANCH  61  86
ENDBRANCH  35  36
ENDBRANCH  27  30
ENDBRANCH  25  26
ENDBRANCH   1  25
TORSDOF 15
ENDMDL
MODEL 2
REMARK VINA RESULT:     -12.0      3.725      9.597
REMARK SMILES O=C(NCCCCNC(=O)c1ccc(-c2c3nc(c(-c4c(F)cc(S(=O)(=O)[O-])cc4F)c4ccc([nH]4)c(-c4c(F)cc(S(=O)(=O)[O-])cc4F)c4nc(c(-c5c(F)cc(S(=O)(=O)[O-])cc5F)c5ccc2[nH]5)C=C4)C=C3)cc1)C1=Cc2c(cc(Cl)c(Cl)c2Cl)O[C@H]1C(F)(F)F
REMARK SMILES IDX 6 1 5 2 4 3 3 4 1 5 2 6 77 8 78 9 89 10 79 11 88 12 80 13
REMARK SMILES IDX 86 14 81 15 84 16 87 17 82 18 85 19 83 20 90 21 91 22 92 23
REMARK SMILES IDX 93 24 7 25 8 26 9 27 10 29 11 30 12 31 76 32 13 33 75 34
REMARK SMILES IDX 14 35 15 36 16 37 69 38 17 39 74 40 68 41 70 42 18 43 73 44
REMARK SMILES IDX 67 45 66 46 19 48 53 49 32 50 52 51 33 52 36 53 51 54 71 55
REMARK SMILES IDX 34 56 35 57 50 59 72 60 37 61 20 62 21 63 30 64 22 65 23 66
REMARK SMILES IDX 29 67 31 68 24 69 25 70 26 71 27 72 28 73 54 74 55 75 64 76
REMARK SMILES IDX 56 77 57 78 63 79 65 80 58 81 59 82 60 83 61 84 62 85 38 86
REMARK SMILES IDX 39 87 48 88 40 89 41 90 47 91 49 92 42 93 43 94 44 95 45 96
REMARK SMILES IDX 46 97
REMARK H PARENT 3 7 8 28 70 47 36 58
REMARK Flexibility Score: inf
ROOT
ATOM      1  C   UNL A   1      36.142  21.828  25.731  1.00  0.00     0.023 C 
ENDROOT
BRANCH   1   2
ATOM      2  C   UNL A   1      35.195  22.249  26.850  1.00  0.00     0.023 C 
BRANCH   2   3
ATOM      3  C   UNL A   1      33.905  21.451  26.971  1.00  0.00     0.116 C 
BRANCH   3   4
ATOM      4  N   UNL A   1      32.734  22.196  27.398  1.00  0.00    -0.352 N 
ATOM      5  O   UNL A   1      31.168  23.827  27.296  1.00  0.00    -0.270 OA
ATOM      6  C   UNL A   1      32.124  23.258  26.779  1.00  0.00     0.251 C 
ATOM      7  H   UNL A   1      32.324  21.900  28.243  1.00  0.00     0.163 HD
BRANCH   6   8
ATOM      8  C   UNL A   1      32.646  23.759  25.478  1.00  0.00     0.067 C 
ATOM      9  C   UNL A   1      33.212  24.977  25.512  1.00  0.00     0.027 C 
ATOM     10  C   UNL A   1      31.940  23.242  24.255  1.00  0.00     0.314 C 
ATOM     11  C   UNL A   1      32.432  26.007  24.796  1.00  0.00     0.037 A 
ATOM     12  O   UNL A   1      31.381  24.292  23.411  1.00  0.00    -0.475 OA
ATOM     13  C   UNL A   1      31.506  25.589  23.831  1.00  0.00     0.131 A 
ATOM     14  C   UNL A   1      32.452  27.354  25.215  1.00  0.00     0.072 A 
ATOM     15  C   UNL A   1      30.576  26.489  23.321  1.00  0.00     0.069 A 
ATOM     16  C   UNL A   1      31.491  28.255  24.726  1.00  0.00     0.079 A 
ATOM     17  Cl  UNL A   1      33.620  27.853  26.405  1.00  0.00    -0.082 Cl
ATOM     18  C   UNL A   1      30.546  27.806  23.790  1.00  0.00     0.064 A 
ATOM     19  Cl  UNL A   1      31.432  29.885  25.318  1.00  0.00    -0.081 Cl
ATOM     20  Cl  UNL A   1      29.267  28.812  23.205  1.00  0.00    -0.083 Cl
BRANCH  10  21
ATOM     21  C   UNL A   1      32.850  22.312  23.421  1.00  0.00     0.429 C 
ATOM     22  F   UNL A   1      32.424  22.150  22.148  1.00  0.00    -0.167 F 
ATOM     23  F   UNL A   1      34.114  22.795  23.362  1.00  0.00    -0.167 F 
ATOM     24  F   UNL A   1      32.929  21.069  23.960  1.00  0.00    -0.167 F 
ENDBRANCH  10  21
ENDBRANCH   6   8
ENDBRANCH   3   4
ENDBRANCH   2   3
ENDBRANCH   1   2
BRANCH   1  25
ATOM     25  C   UNL A   1      37.275  22.794  25.384  1.00  0.00     0.116 C 
BRANCH  25  26
ATOM     26  N   UNL A   1      38.617  22.237  25.510  1.00  0.00    -0.352 N 
ATOM     27  C   UNL A   1      39.747  22.781  26.091  1.00  0.00     0.251 C 
ATOM     28  H   UNL A   1      38.736  21.339  25.123  1.00  0.00     0.163 HD
ATOM     29  O   UNL A   1      40.801  22.160  26.076  1.00  0.00    -0.269 OA
BRANCH  27  30
ATOM     30  C   UNL A   1      39.697  24.151  26.654  1.00  0.00     0.039 A 
ATOM     31  C   UNL A   1      39.064  24.338  27.887  1.00  0.00     0.014 A 
ATOM     32  C   UNL A   1      40.355  25.214  26.034  1.00  0.00     0.014 A 
ATOM     33  C   UNL A   1      39.229  25.546  28.570  1.00  0.00     0.010 A 
ATOM     34  C   UNL A   1      40.582  26.388  26.748  1.00  0.00     0.010 A 
ATOM     35  C   UNL A   1      40.062  26.544  28.042  1.00  0.00    -0.014 A 
BRANCH  35  36
ATOM     36  C   UNL A   1      40.506  27.694  28.874  1.00  0.00     0.031 A 
ATOM     37  C   UNL A   1      41.777  27.628  29.667  1.00  0.00     0.074 A 
ATOM     38  C   UNL A   1      39.684  28.757  29.005  1.00  0.00     0.049 A 
ATOM     39  N   UNL A   1      42.258  28.489  30.526  1.00  0.00    -0.248 NA
ATOM     40  C   UNL A   1      42.601  26.423  29.494  1.00  0.00     0.031 C 
ATOM     41  C   UNL A   1      38.384  28.907  28.347  1.00  0.00     0.029 A 
ATOM     42  N   UNL A   1      39.805  29.901  29.755  1.00  0.00    -0.354 N 
ATOM     43  C   UNL A   1      43.433  27.927  31.008  1.00  0.00     0.074 A 
ATOM     44  C   UNL A   1      43.568  26.630  30.376  1.00  0.00     0.031 C 
ATOM     45  C   UNL A   1      37.831  30.072  28.717  1.00  0.00     0.029 A 
ATOM     46  C   UNL A   1      38.717  30.737  29.667  1.00  0.00     0.049 A 
ATOM     47  H   UNL A   1      40.596  30.102  30.307  1.00  0.00     0.167 HD
ATOM     48  C   UNL A   1      44.324  28.450  31.885  1.00  0.00     0.037 A 
ATOM     49  C   UNL A   1      38.448  31.900  30.290  1.00  0.00     0.037 A 
ATOM     50  C   UNL A   1      44.190  29.744  32.501  1.00  0.00     0.049 A 
ATOM     51  C   UNL A   1      39.455  32.471  31.246  1.00  0.00     0.074 A 
ATOM     52  C   UNL A   1      45.077  30.395  33.342  1.00  0.00     0.029 A 
ATOM     53  N   UNL A   1      43.093  30.581  32.353  1.00  0.00    -0.354 N 
ATOM     54  N   UNL A   1      40.605  31.965  31.624  1.00  0.00    -0.248 NA
ATOM     55  C   UNL A   1      39.135  33.767  31.860  1.00  0.00     0.031 C 
ATOM     56  C   UNL A   1      44.499  31.610  33.730  1.00  0.00     0.029 A 
ATOM     57  C   UNL A   1      43.268  31.731  33.106  1.00  0.00     0.049 A 
ATOM     58  H   UNL A   1      42.306  30.387  31.795  1.00  0.00     0.167 HD
ATOM     59  C   UNL A   1      41.149  32.881  32.515  1.00  0.00     0.074 A 
ATOM     60  C   UNL A   1      40.210  33.982  32.606  1.00  0.00     0.031 C 
ATOM     61  C   UNL A   1      42.318  32.814  33.197  1.00  0.00     0.037 A 
BRANCH  48  62
ATOM     62  C   UNL A   1      45.523  27.608  32.225  1.00  0.00     0.058 A 
ATOM     63  C   UNL A   1      45.506  26.713  33.306  1.00  0.00     0.135 A 
ATOM     64  C   UNL A   1      46.702  27.703  31.471  1.00  0.00     0.135 A 
ATOM     65  F   UNL A   1      44.406  26.591  34.067  1.00  0.00    -0.206 F 
ATOM     66  C   UNL A   1      46.633  25.978  33.658  1.00  0.00     0.059 A 
ATOM     67  C   UNL A   1      47.835  26.959  31.789  1.00  0.00     0.059 A 
ATOM     68  F   UNL A   1      46.771  28.541  30.424  1.00  0.00    -0.206 F 
ATOM     69  C   UNL A   1      47.797  26.116  32.900  1.00  0.00     0.060 A 
BRANCH  69  70
ATOM     70  S   UNL A   1      49.266  25.190  33.392  1.00  0.00     0.124 S 
ATOM     71  O   UNL A   1      48.670  24.034  34.057  1.00  0.00    -0.237 OA
ATOM     72  O   UNL A   1      49.912  24.919  32.112  1.00  0.00    -0.237 OA
ATOM     73  O   UNL A   1      49.976  26.120  34.265  1.00  0.00    -0.744 OA
ENDBRANCH  69  70
ENDBRANCH  48  62
BRANCH  49  74
ATOM     74  C   UNL A   1      37.164  32.596  30.014  1.00  0.00     0.058 A 
ATOM     75  C   UNL A   1      36.018  32.322  30.773  1.00  0.00     0.135 A 
ATOM     76  C   UNL A   1      37.075  33.592  29.029  1.00  0.00     0.135 A 
ATOM     77  F   UNL A   1      36.053  31.374  31.722  1.00  0.00    -0.206 F 
ATOM     78  C   UNL A   1      34.828  33.016  30.572  1.00  0.00     0.059 A 
ATOM     79  C   UNL A   1      35.904  34.312  28.821  1.00  0.00     0.059 A 
ATOM     80  F   UNL A   1      38.151  33.902  28.288  1.00  0.00    -0.206 F 
ATOM     81  C   UNL A   1      34.784  34.015  29.598  1.00  0.00     0.060 A 
BRANCH  81  82
ATOM     82  S   UNL A   1      33.267  34.977  29.408  1.00  0.00     0.124 S 
ATOM     83  O   UNL A   1      32.721  34.935  30.759  1.00  0.00    -0.237 OA
ATOM     84  O   UNL A   1      33.776  36.272  28.966  1.00  0.00    -0.237 OA
ATOM     85  O   UNL A   1      32.522  34.230  28.399  1.00  0.00    -0.744 OA
ENDBRANCH  81  82
ENDBRANCH  49  74
BRANCH  61  86
ATOM     86  C   UNL A   1      42.651  33.961  34.107  1.00  0.00     0.058 A 
ATOM     87  C   UNL A   1      42.290  33.944  35.463  1.00  0.00     0.135 A 
ATOM     88  C   UNL A   1      43.390  35.058  33.636  1.00  0.00     0.135 A 
ATOM     89  F   UNL A   1      41.575  32.923  35.959  1.00  0.00    -0.206 F 
ATOM     90  C   UNL A   1      42.644  34.981  36.321  1.00  0.00     0.059 A 
ATOM     91  C   UNL A   1      43.772  36.095  34.481  1.00  0.00     0.059 A 
ATOM     92  F   UNL A   1      43.763  35.118  32.348  1.00  0.00    -0.206 F 
ATOM     93  C   UNL A   1      43.388  36.051  35.820  1.00  0.00     0.060 A 
BRANCH  93  94
ATOM     94  S   UNL A   1      43.886  37.366  36.954  1.00  0.00     0.124 S 
ATOM     95  O   UNL A   1      44.033  38.497  36.045  1.00  0.00    -0.237 OA
ATOM     96  O   UNL A   1      42.755  37.434  37.873  1.00  0.00    -0.237 OA
ATOM     97  O   UNL A   1      45.126  36.861  37.534  1.00  0.00    -0.744 OA
ENDBRANCH  93  94
ENDBRANCH  61  86
ENDBRANCH  35  36
ENDBRANCH  27  30
ENDBRANCH  25  26
ENDBRANCH   1  25
TORSDOF 15
ENDMDL
MODEL 3
REMARK VINA RESULT:     -11.8      0.712      8.168
REMARK SMILES O=C(NCCCCNC(=O)c1ccc(-c2c3nc(c(-c4c(F)cc(S(=O)(=O)[O-])cc4F)c4ccc([nH]4)c(-c4c(F)cc(S(=O)(=O)[O-])cc4F)c4nc(c(-c5c(F)cc(S(=O)(=O)[O-])cc5F)c5ccc2[nH]5)C=C4)C=C3)cc1)C1=Cc2c(cc(Cl)c(Cl)c2Cl)O[C@H]1C(F)(F)F
REMARK SMILES IDX 6 1 5 2 4 3 3 4 1 5 2 6 77 8 78 9 89 10 79 11 88 12 80 13
REMARK SMILES IDX 86 14 81 15 84 16 87 17 82 18 85 19 83 20 90 21 91 22 92 23
REMARK SMILES IDX 93 24 7 25 8 26 9 27 10 29 11 30 12 31 76 32 13 33 75 34
REMARK SMILES IDX 14 35 15 36 16 37 69 38 17 39 74 40 68 41 70 42 18 43 73 44
REMARK SMILES IDX 67 45 66 46 19 48 53 49 32 50 52 51 33 52 36 53 51 54 71 55
REMARK SMILES IDX 34 56 35 57 50 59 72 60 37 61 20 62 21 63 30 64 22 65 23 66
REMARK SMILES IDX 29 67 31 68 24 69 25 70 26 71 27 72 28 73 54 74 55 75 64 76
REMARK SMILES IDX 56 77 57 78 63 79 65 80 58 81 59 82 60 83 61 84 62 85 38 86
REMARK SMILES IDX 39 87 48 88 40 89 41 90 47 91 49 92 42 93 43 94 44 95 45 96
REMARK SMILES IDX 46 97
REMARK H PARENT 3 7 8 28 70 47 36 58
REMARK Flexibility Score: inf
ROOT
ATOM      1  C   UNL A   1      32.241  29.294  26.337  1.00  0.00     0.023 C 
ENDROOT
BRANCH   1   2
ATOM      2  C   UNL A   1      32.303  28.694  24.937  1.00  0.00     0.023 C 
BRANCH   2   3
ATOM      3  C   UNL A   1      33.671  28.209  24.476  1.00  0.00     0.116 C 
BRANCH   3   4
ATOM      4  N   UNL A   1      33.672  27.255  23.382  1.00  0.00    -0.352 N 
ATOM      5  O   UNL A   1      33.637  25.205  22.424  1.00  0.00    -0.270 OA
ATOM      6  C   UNL A   1      33.559  25.888  23.439  1.00  0.00     0.251 C 
ATOM      7  H   UNL A   1      33.767  27.639  22.480  1.00  0.00     0.163 HD
BRANCH   6   8
ATOM      8  C   UNL A   1      33.376  25.213  24.754  1.00  0.00     0.067 C 
ATOM      9  C   UNL A   1      34.503  24.786  25.346  1.00  0.00     0.027 C 
ATOM     10  C   UNL A   1      32.060  24.510  24.942  1.00  0.00     0.314 C 
ATOM     11  C   UNL A   1      34.617  23.314  25.397  1.00  0.00     0.037 A 
ATOM     12  O   UNL A   1      32.190  23.089  25.243  1.00  0.00    -0.475 OA
ATOM     13  C   UNL A   1      33.449  22.551  25.270  1.00  0.00     0.131 A 
ATOM     14  C   UNL A   1      35.878  22.682  25.355  1.00  0.00     0.072 A 
ATOM     15  C   UNL A   1      33.532  21.179  25.056  1.00  0.00     0.069 A 
ATOM     16  C   UNL A   1      35.963  21.302  25.103  1.00  0.00     0.079 A 
ATOM     17  Cl  UNL A   1      37.315  23.649  25.528  1.00  0.00    -0.082 Cl
ATOM     18  C   UNL A   1      34.781  20.562  24.939  1.00  0.00     0.064 A 
ATOM     19  Cl  UNL A   1      37.509  20.532  24.935  1.00  0.00    -0.081 Cl
ATOM     20  Cl  UNL A   1      34.785  18.882  24.530  1.00  0.00    -0.083 Cl
BRANCH  10  21
ATOM     21  C   UNL A   1      31.189  25.207  26.011  1.00  0.00     0.429 C 
ATOM     22  F   UNL A   1      30.518  24.339  26.803  1.00  0.00    -0.167 F 
ATOM     23  F   UNL A   1      31.945  25.986  26.821  1.00  0.00    -0.167 F 
ATOM     24  F   UNL A   1      30.253  26.014  25.451  1.00  0.00    -0.167 F 
ENDBRANCH  10  21
ENDBRANCH   6   8
ENDBRANCH   3   4
ENDBRANCH   2   3
ENDBRANCH   1   2
BRANCH   1  25
ATOM     25  C   UNL A   1      33.552  29.356  27.121  1.00  0.00     0.116 C 
BRANCH  25  26
ATOM     26  N   UNL A   1      33.686  30.510  28.002  1.00  0.00    -0.352 N 
ATOM     27  C   UNL A   1      34.780  30.944  28.727  1.00  0.00     0.251 C 
ATOM     28  H   UNL A   1      32.877  31.063  28.095  1.00  0.00     0.163 HD
ATOM     29  O   UNL A   1      34.688  31.935  29.437  1.00  0.00    -0.269 OA
BRANCH  27  30
ATOM     30  C   UNL A   1      36.035  30.155  28.707  1.00  0.00     0.039 A 
ATOM     31  C   UNL A   1      36.772  30.112  27.519  1.00  0.00     0.014 A 
ATOM     32  C   UNL A   1      36.535  29.558  29.865  1.00  0.00     0.014 A 
ATOM     33  C   UNL A   1      38.076  29.613  27.535  1.00  0.00     0.010 A 
ATOM     34  C   UNL A   1      37.860  29.130  29.898  1.00  0.00     0.010 A 
ATOM     35  C   UNL A   1      38.657  29.200  28.744  1.00  0.00    -0.014 A 
BRANCH  35  36
ATOM     36  C   UNL A   1      40.121  28.963  28.853  1.00  0.00     0.031 A 
ATOM     37  C   UNL A   1      40.715  27.632  28.503  1.00  0.00     0.074 A 
ATOM     38  C   UNL A   1      40.897  29.927  29.392  1.00  0.00     0.049 A 
ATOM     39  N   UNL A   1      41.948  27.218  28.641  1.00  0.00    -0.248 NA
ATOM     40  C   UNL A   1      39.797  26.624  27.952  1.00  0.00     0.031 C 
ATOM     41  C   UNL A   1      40.425  31.238  29.846  1.00  0.00     0.029 A 
ATOM     42  N   UNL A   1      42.240  29.947  29.676  1.00  0.00    -0.354 N 
ATOM     43  C   UNL A   1      41.955  25.898  28.209  1.00  0.00     0.074 A 
ATOM     44  C   UNL A   1      40.592  25.569  27.844  1.00  0.00     0.031 C 
ATOM     45  C   UNL A   1      41.458  31.933  30.345  1.00  0.00     0.029 A 
ATOM     46  C   UNL A   1      42.661  31.108  30.282  1.00  0.00     0.049 A 
ATOM     47  H   UNL A   1      42.846  29.199  29.466  1.00  0.00     0.167 HD
ATOM     48  C   UNL A   1      43.003  25.045  28.111  1.00  0.00     0.037 A 
ATOM     49  C   UNL A   1      43.870  31.467  30.753  1.00  0.00     0.037 A 
ATOM     50  C   UNL A   1      44.358  25.382  28.464  1.00  0.00     0.049 A 
ATOM     51  C   UNL A   1      45.022  30.514  30.622  1.00  0.00     0.074 A 
ATOM     52  C   UNL A   1      45.501  24.613  28.328  1.00  0.00     0.029 A 
ATOM     53  N   UNL A   1      44.751  26.584  29.037  1.00  0.00    -0.354 N 
ATOM     54  N   UNL A   1      45.027  29.298  30.128  1.00  0.00    -0.248 NA
ATOM     55  C   UNL A   1      46.330  30.975  31.105  1.00  0.00     0.031 C 
ATOM     56  C   UNL A   1      46.579  25.337  28.851  1.00  0.00     0.029 A 
ATOM     57  C   UNL A   1      46.114  26.569  29.283  1.00  0.00     0.049 A 
ATOM     58  H   UNL A   1      44.150  27.337  29.238  1.00  0.00     0.167 HD
ATOM     59  C   UNL A   1      46.338  28.850  30.236  1.00  0.00     0.074 A 
ATOM     60  C   UNL A   1      47.101  29.933  30.826  1.00  0.00     0.031 C 
ATOM     61  C   UNL A   1      46.859  27.650  29.882  1.00  0.00     0.037 A 
BRANCH  48  62
ATOM     62  C   UNL A   1      42.713  23.661  27.600  1.00  0.00     0.058 A 
ATOM     63  C   UNL A   1      42.473  22.591  28.477  1.00  0.00     0.135 A 
ATOM     64  C   UNL A   1      42.682  23.398  26.222  1.00  0.00     0.135 A 
ATOM     65  F   UNL A   1      42.502  22.786  29.806  1.00  0.00    -0.206 F 
ATOM     66  C   UNL A   1      42.264  21.299  28.008  1.00  0.00     0.059 A 
ATOM     67  C   UNL A   1      42.450  22.117  25.728  1.00  0.00     0.059 A 
ATOM     68  F   UNL A   1      42.901  24.385  25.340  1.00  0.00    -0.206 F 
ATOM     69  C   UNL A   1      42.265  21.070  26.631  1.00  0.00     0.060 A 
BRANCH  69  70
ATOM     70  S   UNL A   1      42.034  19.382  26.034  1.00  0.00     0.124 S 
ATOM     71  O   UNL A   1      42.970  19.340  24.914  1.00  0.00    -0.237 OA
ATOM     72  O   UNL A   1      42.404  18.582  27.197  1.00  0.00    -0.237 OA
ATOM     73  O   UNL A   1      40.620  19.341  25.674  1.00  0.00    -0.744 OA
ENDBRANCH  69  70
ENDBRANCH  48  62
BRANCH  49  74
ATOM     74  C   UNL A   1      44.039  32.800  31.389  1.00  0.00     0.058 A 
ATOM     75  C   UNL A   1      43.873  32.967  32.770  1.00  0.00     0.135 A 
ATOM     76  C   UNL A   1      44.430  33.918  30.635  1.00  0.00     0.135 A 
ATOM     77  F   UNL A   1      43.494  31.928  33.530  1.00  0.00    -0.206 F 
ATOM     78  C   UNL A   1      44.096  34.194  33.388  1.00  0.00     0.059 A 
ATOM     79  C   UNL A   1      44.677  35.150  31.231  1.00  0.00     0.059 A 
ATOM     80  F   UNL A   1      44.618  33.804  29.311  1.00  0.00    -0.206 F 
ATOM     81  C   UNL A   1      44.507  35.279  32.609  1.00  0.00     0.060 A 
BRANCH  81  82
ATOM     82  S   UNL A   1      44.888  36.842  33.430  1.00  0.00     0.124 S 
ATOM     83  O   UNL A   1      45.157  37.713  32.293  1.00  0.00    -0.237 OA
ATOM     84  O   UNL A   1      43.656  37.113  34.166  1.00  0.00    -0.237 OA
ATOM     85  O   UNL A   1      46.042  36.509  34.262  1.00  0.00    -0.744 OA
ENDBRANCH  81  82
ENDBRANCH  49  74
BRANCH  61  86
ATOM     86  C   UNL A   1      48.326  27.438  30.124  1.00  0.00     0.058 A 
ATOM     87  C   UNL A   1      49.285  27.826  29.176  1.00  0.00     0.135 A 
ATOM     88  C   UNL A   1      48.780  26.899  31.338  1.00  0.00     0.135 A 
ATOM     89  F   UNL A   1      48.900  28.336  27.996  1.00  0.00    -0.206 F 
ATOM     90  C   UNL A   1      50.647  27.680  29.420  1.00  0.00     0.059 A 
ATOM     91  C   UNL A   1      50.138  26.763  31.612  1.00  0.00     0.059 A 
ATOM     92  F   UNL A   1      47.902  26.518  32.279  1.00  0.00    -0.206 F 
ATOM     93  C   UNL A   1      51.063  27.149  30.643  1.00  0.00     0.060 A 
BRANCH  93  94
ATOM     94  S   UNL A   1      52.834  27.012  30.970  1.00  0.00     0.124 S 
ATOM     95  O   UNL A   1      53.178  28.389  31.306  1.00  0.00    -0.237 OA
ATOM     96  O   UNL A   1      52.877  26.060  32.075  1.00  0.00    -0.237 OA
ATOM     97  O   UNL A   1      53.374  26.520  29.707  1.00  0.00    -0.744 OA
ENDBRANCH  93  94
ENDBRANCH  61  86
ENDBRANCH  35  36
ENDBRANCH  27  30
ENDBRANCH  25  26
ENDBRANCH   1  25
TORSDOF 15
ENDMDL
