MODEL 1
REMARK VINA RESULT:     -12.5      0.000      0.000
REMARK SMILES O=C(NCCCCNC(=O)c1cc(NC(=O)c2cncc(Br)c2)ccc1O)c1ccc(-c2c3nc(c(-c4c(F)cc(S(=O)(=O)[O-])cc4F)c4ccc([nH]4)c(-c4c(F)cc(S(=O)(=O)[O-])cc4F)c4nc(c(-c5c(F)cc(S(=O)(=O)[O-])cc5F)c5ccc2[nH]5)C=C4)C=C3)cc1
REMARK SMILES IDX 5 1 4 2 3 3 1 4 2 5 28 7 29 8 93 9 30 10 92 11 31 12 32 13
REMARK SMILES IDX 33 14 86 15 34 16 91 17 85 18 87 19 35 20 90 21 84 22 83 23
REMARK SMILES IDX 36 25 70 26 49 27 69 28 50 29 53 30 68 31 88 32 51 33 52 34
REMARK SMILES IDX 67 36 89 37 54 38 37 39 38 40 47 41 39 42 40 43 46 44 48 45
REMARK SMILES IDX 41 46 42 47 43 48 44 49 45 50 71 51 72 52 81 53 73 54 74 55
REMARK SMILES IDX 80 56 82 57 75 58 76 59 77 60 78 61 79 62 55 63 56 64 65 65
REMARK SMILES IDX 57 66 58 67 64 68 66 69 59 70 60 71 61 72 62 73 63 74 6 75
REMARK SMILES IDX 7 76 8 77 9 78 10 80 11 81 12 82 26 83 13 84 25 85 24 86
REMARK SMILES IDX 27 87 14 89 15 90 16 92 17 93 18 94 23 95 19 96 21 97 20 98
REMARK SMILES IDX 22 99
REMARK H PARENT 3 6 87 24 53 35 8 79 27 88 14 91
REMARK Flexibility Score: inf
ROOT
ATOM      1  C   UNL A   1      34.070  29.390  27.064  1.00  0.00     0.023 C 
ENDROOT
BRANCH   1   2
ATOM      2  C   UNL A   1      35.421  29.621  27.724  1.00  0.00     0.116 C 
BRANCH   2   3
ATOM      3  N   UNL A   1      35.303  30.140  29.077  1.00  0.00    -0.352 N 
ATOM      4  O   UNL A   1      35.950  30.570  31.191  1.00  0.00    -0.269 OA
ATOM      5  C   UNL A   1      36.268  30.248  30.049  1.00  0.00     0.251 C 
ATOM      6  H   UNL A   1      34.407  30.459  29.332  1.00  0.00     0.163 HD
BRANCH   5   7
ATOM      7  C   UNL A   1      37.682  29.957  29.722  1.00  0.00     0.039 A 
ATOM      8  C   UNL A   1      38.587  29.605  30.726  1.00  0.00     0.014 A 
ATOM      9  C   UNL A   1      38.100  30.016  28.389  1.00  0.00     0.014 A 
ATOM     10  C   UNL A   1      39.931  29.424  30.415  1.00  0.00     0.010 A 
ATOM     11  C   UNL A   1      39.435  29.755  28.068  1.00  0.00     0.010 A 
ATOM     12  C   UNL A   1      40.364  29.469  29.081  1.00  0.00    -0.014 A 
BRANCH  12  13
ATOM     13  C   UNL A   1      41.759  29.081  28.758  1.00  0.00     0.031 A 
ATOM     14  C   UNL A   1      42.876  30.084  28.768  1.00  0.00     0.074 A 
ATOM     15  C   UNL A   1      41.999  27.791  28.443  1.00  0.00     0.049 A 
ATOM     16  N   UNL A   1      44.141  29.901  28.488  1.00  0.00    -0.248 NA
ATOM     17  C   UNL A   1      42.538  31.470  29.130  1.00  0.00     0.031 C 
ATOM     18  C   UNL A   1      40.978  26.739  28.374  1.00  0.00     0.029 A 
ATOM     19  N   UNL A   1      43.162  27.142  28.122  1.00  0.00    -0.354 N 
ATOM     20  C   UNL A   1      44.747  31.145  28.618  1.00  0.00     0.074 A 
ATOM     21  C   UNL A   1      43.709  32.082  28.993  1.00  0.00     0.031 C 
ATOM     22  C   UNL A   1      41.562  25.577  28.053  1.00  0.00     0.029 A 
ATOM     23  C   UNL A   1      42.983  25.809  27.834  1.00  0.00     0.049 A 
ATOM     24  H   UNL A   1      44.040  27.586  28.101  1.00  0.00     0.167 HD
ATOM     25  C   UNL A   1      46.051  31.468  28.439  1.00  0.00     0.037 A 
ATOM     26  C   UNL A   1      43.859  24.882  27.404  1.00  0.00     0.037 A 
ATOM     27  C   UNL A   1      47.079  30.516  28.095  1.00  0.00     0.049 A 
ATOM     28  C   UNL A   1      45.292  25.277  27.197  1.00  0.00     0.074 A 
ATOM     29  C   UNL A   1      48.442  30.728  27.985  1.00  0.00     0.029 A 
ATOM     30  N   UNL A   1      46.858  29.181  27.792  1.00  0.00    -0.354 N 
ATOM     31  N   UNL A   1      45.859  26.441  27.401  1.00  0.00    -0.248 NA
ATOM     32  C   UNL A   1      46.202  24.240  26.696  1.00  0.00     0.031 C 
ATOM     33  C   UNL A   1      49.038  29.536  27.563  1.00  0.00     0.029 A 
ATOM     34  C   UNL A   1      48.053  28.569  27.452  1.00  0.00     0.049 A 
ATOM     35  H   UNL A   1      45.981  28.734  27.813  1.00  0.00     0.167 HD
ATOM     36  C   UNL A   1      47.193  26.278  27.049  1.00  0.00     0.074 A 
ATOM     37  C   UNL A   1      47.354  24.894  26.651  1.00  0.00     0.031 C 
ATOM     38  C   UNL A   1      48.191  27.193  27.046  1.00  0.00     0.037 A 
BRANCH  25  39
ATOM     39  C   UNL A   1      46.466  32.903  28.600  1.00  0.00     0.058 A 
ATOM     40  C   UNL A   1      46.913  33.410  29.828  1.00  0.00     0.135 A 
ATOM     41  C   UNL A   1      46.528  33.749  27.480  1.00  0.00     0.135 A 
ATOM     42  F   UNL A   1      46.865  32.648  30.933  1.00  0.00    -0.206 F 
ATOM     43  C   UNL A   1      47.413  34.704  29.941  1.00  0.00     0.059 A 
ATOM     44  C   UNL A   1      47.040  35.041  27.566  1.00  0.00     0.059 A 
ATOM     45  F   UNL A   1      46.110  33.313  26.281  1.00  0.00    -0.206 F 
ATOM     46  C   UNL A   1      47.479  35.511  28.802  1.00  0.00     0.060 A 
BRANCH  46  47
ATOM     47  S   UNL A   1      48.183  37.167  28.955  1.00  0.00     0.124 S 
ATOM     48  O   UNL A   1      46.992  37.964  29.236  1.00  0.00    -0.237 OA
ATOM     49  O   UNL A   1      49.115  37.008  30.067  1.00  0.00    -0.237 OA
ATOM     50  O   UNL A   1      48.798  37.398  27.652  1.00  0.00    -0.744 OA
ENDBRANCH  46  47
ENDBRANCH  25  39
BRANCH  26  51
ATOM     51  C   UNL A   1      43.388  23.508  27.088  1.00  0.00     0.058 A 
ATOM     52  C   UNL A   1      43.126  22.577  28.103  1.00  0.00     0.135 A 
ATOM     53  C   UNL A   1      43.189  23.103  25.759  1.00  0.00     0.135 A 
ATOM     54  F   UNL A   1      43.305  22.918  29.389  1.00  0.00    -0.206 F 
ATOM     55  C   UNL A   1      42.708  21.283  27.811  1.00  0.00     0.059 A 
ATOM     56  C   UNL A   1      42.745  21.824  25.443  1.00  0.00     0.059 A 
ATOM     57  F   UNL A   1      43.407  23.964  24.753  1.00  0.00    -0.206 F 
ATOM     58  C   UNL A   1      42.523  20.916  26.476  1.00  0.00     0.060 A 
BRANCH  58  59
ATOM     59  S   UNL A   1      41.960  19.242  26.103  1.00  0.00     0.124 S 
ATOM     60  O   UNL A   1      40.535  19.458  25.877  1.00  0.00    -0.237 OA
ATOM     61  O   UNL A   1      42.749  18.904  24.923  1.00  0.00    -0.237 OA
ATOM     62  O   UNL A   1      42.303  18.498  27.311  1.00  0.00    -0.744 OA
ENDBRANCH  58  59
ENDBRANCH  26  51
BRANCH  38  63
ATOM     63  C   UNL A   1      49.544  26.726  26.592  1.00  0.00     0.058 A 
ATOM     64  C   UNL A   1      50.419  26.069  27.471  1.00  0.00     0.135 A 
ATOM     65  C   UNL A   1      49.952  26.896  25.261  1.00  0.00     0.135 A 
ATOM     66  F   UNL A   1      50.078  25.893  28.758  1.00  0.00    -0.206 F 
ATOM     67  C   UNL A   1      51.662  25.613  27.049  1.00  0.00     0.059 A 
ATOM     68  C   UNL A   1      51.180  26.425  24.810  1.00  0.00     0.059 A 
ATOM     69  F   UNL A   1      49.147  27.513  24.380  1.00  0.00    -0.206 F 
ATOM     70  C   UNL A   1      52.033  25.793  25.715  1.00  0.00     0.060 A 
BRANCH  70  71
ATOM     71  S   UNL A   1      53.633  25.160  25.170  1.00  0.00     0.124 S 
ATOM     72  O   UNL A   1      54.543  25.823  26.098  1.00  0.00    -0.237 OA
ATOM     73  O   UNL A   1      53.480  23.720  25.352  1.00  0.00    -0.237 OA
ATOM     74  O   UNL A   1      53.718  25.605  23.782  1.00  0.00    -0.744 OA
ENDBRANCH  70  71
ENDBRANCH  38  63
ENDBRANCH  12  13
ENDBRANCH   5   7
ENDBRANCH   2   3
ENDBRANCH   1   2
BRANCH   1  75
ATOM     75  C   UNL A   1      34.023  28.239  26.063  1.00  0.00     0.023 C 
BRANCH  75  76
ATOM     76  C   UNL A   1      33.787  28.633  24.607  1.00  0.00     0.116 C 
BRANCH  76  77
ATOM     77  N   UNL A   1      32.572  29.401  24.395  1.00  0.00    -0.352 N 
ATOM     78  C   UNL A   1      31.286  28.949  24.225  1.00  0.00     0.255 C 
ATOM     79  H   UNL A   1      32.685  30.379  24.370  1.00  0.00     0.163 HD
ATOM     80  O   UNL A   1      30.359  29.743  24.092  1.00  0.00    -0.269 OA
BRANCH  78  81
ATOM     81  C   UNL A   1      31.031  27.506  24.050  1.00  0.00     0.083 A 
ATOM     82  C   UNL A   1      30.722  26.798  25.218  1.00  0.00     0.043 A 
ATOM     83  C   UNL A   1      31.037  26.859  22.815  1.00  0.00     0.128 A 
ATOM     84  C   UNL A   1      30.263  25.486  25.152  1.00  0.00     0.042 A 
ATOM     85  C   UNL A   1      30.655  25.522  22.742  1.00  0.00     0.049 A 
ATOM     86  C   UNL A   1      30.254  24.849  23.903  1.00  0.00     0.030 A 
BRANCH  83  87
ATOM     87  O   UNL A   1      31.400  27.530  21.683  1.00  0.00    -0.507 OA
ATOM     88  H   UNL A   1      32.044  27.164  21.110  1.00  0.00     0.293 HD
ENDBRANCH  83  87
BRANCH  84  89
ATOM     89  N   UNL A   1      29.804  24.741  26.256  1.00  0.00    -0.322 N 
ATOM     90  C   UNL A   1      30.201  23.547  26.818  1.00  0.00     0.257 C 
ATOM     91  H   UNL A   1      29.044  25.158  26.721  1.00  0.00     0.170 HD
ATOM     92  O   UNL A   1      29.505  23.028  27.691  1.00  0.00    -0.269 OA
BRANCH  90  93
ATOM     93  C   UNL A   1      31.450  22.874  26.444  1.00  0.00     0.059 A 
ATOM     94  C   UNL A   1      32.641  23.339  26.984  1.00  0.00     0.124 A 
ATOM     95  C   UNL A   1      31.483  21.788  25.566  1.00  0.00     0.032 A 
ATOM     96  N   UNL A   1      33.840  22.748  26.765  1.00  0.00    -0.263 NA
ATOM     97  C   UNL A   1      32.702  21.155  25.343  1.00  0.00     0.037 A 
ATOM     98  C   UNL A   1      33.840  21.654  25.964  1.00  0.00     0.126 A 
ATOM     99  Br  UNL A   1      32.798  19.624  24.248  1.00  0.00    -0.049 Br
ENDBRANCH  90  93
ENDBRANCH  84  89
ENDBRANCH  78  81
ENDBRANCH  76  77
ENDBRANCH  75  76
ENDBRANCH   1  75
TORSDOF 17
ENDMDL
MODEL 2
REMARK VINA RESULT:     -12.3      2.594      8.635
REMARK SMILES O=C(NCCCCNC(=O)c1cc(NC(=O)c2cncc(Br)c2)ccc1O)c1ccc(-c2c3nc(c(-c4c(F)cc(S(=O)(=O)[O-])cc4F)c4ccc([nH]4)c(-c4c(F)cc(S(=O)(=O)[O-])cc4F)c4nc(c(-c5c(F)cc(S(=O)(=O)[O-])cc5F)c5ccc2[nH]5)C=C4)C=C3)cc1
REMARK SMILES IDX 5 1 4 2 3 3 1 4 2 5 28 7 29 8 93 9 30 10 92 11 31 12 32 13
REMARK SMILES IDX 33 14 86 15 34 16 91 17 85 18 87 19 35 20 90 21 84 22 83 23
REMARK SMILES IDX 36 25 70 26 49 27 69 28 50 29 53 30 68 31 88 32 51 33 52 34
REMARK SMILES IDX 67 36 89 37 54 38 37 39 38 40 47 41 39 42 40 43 46 44 48 45
REMARK SMILES IDX 41 46 42 47 43 48 44 49 45 50 71 51 72 52 81 53 73 54 74 55
REMARK SMILES IDX 80 56 82 57 75 58 76 59 77 60 78 61 79 62 55 63 56 64 65 65
REMARK SMILES IDX 57 66 58 67 64 68 66 69 59 70 60 71 61 72 62 73 63 74 6 75
REMARK SMILES IDX 7 76 8 77 9 78 10 80 11 81 12 82 26 83 13 84 25 85 24 86
REMARK SMILES IDX 27 87 14 89 15 90 16 92 17 93 18 94 23 95 19 96 21 97 20 98
REMARK SMILES IDX 22 99
REMARK H PARENT 3 6 87 24 53 35 8 79 27 88 14 91
REMARK Flexibility Score: inf
ROOT
ATOM      1  C   UNL A   1      38.170  19.845  24.695  1.00  0.00     0.023 C 
ENDROOT
BRANCH   1   2
ATOM      2  C   UNL A   1      39.195  20.220  25.756  1.00  0.00     0.116 C 
BRANCH   2   3
ATOM      3  N   UNL A   1      40.210  19.196  25.942  1.00  0.00    -0.352 N 
ATOM      4  O   UNL A   1      42.292  18.363  26.159  1.00  0.00    -0.269 OA
ATOM      5  C   UNL A   1      41.555  19.345  26.182  1.00  0.00     0.251 C 
ATOM      6  H   UNL A   1      39.890  18.267  25.891  1.00  0.00     0.163 HD
BRANCH   5   7
ATOM      7  C   UNL A   1      42.113  20.690  26.446  1.00  0.00     0.039 A 
ATOM      8  C   UNL A   1      42.475  21.531  25.390  1.00  0.00     0.014 A 
ATOM      9  C   UNL A   1      42.255  21.123  27.768  1.00  0.00     0.014 A 
ATOM     10  C   UNL A   1      43.082  22.754  25.655  1.00  0.00     0.010 A 
ATOM     11  C   UNL A   1      42.792  22.386  28.031  1.00  0.00     0.010 A 
ATOM     12  C   UNL A   1      43.221  23.207  26.977  1.00  0.00    -0.014 A 
BRANCH  12  13
ATOM     13  C   UNL A   1      43.691  24.593  27.222  1.00  0.00     0.031 A 
ATOM     14  C   UNL A   1      42.744  25.682  27.639  1.00  0.00     0.074 A 
ATOM     15  C   UNL A   1      45.003  24.854  27.051  1.00  0.00     0.049 A 
ATOM     16  N   UNL A   1      43.002  26.944  27.870  1.00  0.00    -0.248 NA
ATOM     17  C   UNL A   1      41.330  25.318  27.814  1.00  0.00     0.031 C 
ATOM     18  C   UNL A   1      46.005  23.874  26.618  1.00  0.00     0.029 A 
ATOM     19  N   UNL A   1      45.722  26.008  27.215  1.00  0.00    -0.354 N 
ATOM     20  C   UNL A   1      41.785  27.531  28.196  1.00  0.00     0.074 A 
ATOM     21  C   UNL A   1      40.782  26.488  28.125  1.00  0.00     0.031 C 
ATOM     22  C   UNL A   1      47.208  24.463  26.570  1.00  0.00     0.029 A 
ATOM     23  C   UNL A   1      47.056  25.871  26.908  1.00  0.00     0.049 A 
ATOM     24  H   UNL A   1      45.323  26.854  27.523  1.00  0.00     0.167 HD
ATOM     25  C   UNL A   1      41.535  28.821  28.525  1.00  0.00     0.037 A 
ATOM     26  C   UNL A   1      48.043  26.785  26.867  1.00  0.00     0.037 A 
ATOM     27  C   UNL A   1      42.551  29.841  28.622  1.00  0.00     0.049 A 
ATOM     28  C   UNL A   1      47.729  28.210  27.218  1.00  0.00     0.074 A 
ATOM     29  C   UNL A   1      42.411  31.153  29.039  1.00  0.00     0.029 A 
ATOM     30  N   UNL A   1      43.885  29.670  28.285  1.00  0.00    -0.354 N 
ATOM     31  N   UNL A   1      46.586  28.727  27.599  1.00  0.00    -0.248 NA
ATOM     32  C   UNL A   1      48.831  29.175  27.126  1.00  0.00     0.031 C 
ATOM     33  C   UNL A   1      43.649  31.790  28.904  1.00  0.00     0.029 A 
ATOM     34  C   UNL A   1      44.570  30.863  28.443  1.00  0.00     0.049 A 
ATOM     35  H   UNL A   1      44.287  28.825  27.978  1.00  0.00     0.167 HD
ATOM     36  C   UNL A   1      46.831  30.081  27.790  1.00  0.00     0.074 A 
ATOM     37  C   UNL A   1      48.236  30.296  27.513  1.00  0.00     0.031 C 
ATOM     38  C   UNL A   1      45.967  31.060  28.151  1.00  0.00     0.037 A 
BRANCH  25  39
ATOM     39  C   UNL A   1      40.116  29.231  28.803  1.00  0.00     0.058 A 
ATOM     40  C   UNL A   1      39.651  29.444  30.108  1.00  0.00     0.135 A 
ATOM     41  C   UNL A   1      39.248  29.530  27.739  1.00  0.00     0.135 A 
ATOM     42  F   UNL A   1      40.436  29.164  31.161  1.00  0.00    -0.206 F 
ATOM     43  C   UNL A   1      38.374  29.944  30.351  1.00  0.00     0.059 A 
ATOM     44  C   UNL A   1      37.973  30.047  27.958  1.00  0.00     0.059 A 
ATOM     45  F   UNL A   1      39.645  29.342  26.471  1.00  0.00    -0.206 F 
ATOM     46  C   UNL A   1      37.545  30.250  29.268  1.00  0.00     0.060 A 
BRANCH  46  47
ATOM     47  S   UNL A   1      35.914  30.950  29.600  1.00  0.00     0.124 S 
ATOM     48  O   UNL A   1      36.185  32.381  29.496  1.00  0.00    -0.237 OA
ATOM     49  O   UNL A   1      35.105  30.379  28.527  1.00  0.00    -0.237 OA
ATOM     50  O   UNL A   1      35.602  30.467  30.942  1.00  0.00    -0.744 OA
ENDBRANCH  46  47
ENDBRANCH  25  39
BRANCH  26  51
ATOM     51  C   UNL A   1      49.404  26.386  26.424  1.00  0.00     0.058 A 
ATOM     52  C   UNL A   1      49.838  26.613  25.110  1.00  0.00     0.135 A 
ATOM     53  C   UNL A   1      50.300  25.770  27.312  1.00  0.00     0.135 A 
ATOM     54  F   UNL A   1      49.016  27.197  24.223  1.00  0.00    -0.206 F 
ATOM     55  C   UNL A   1      51.103  26.220  24.685  1.00  0.00     0.059 A 
ATOM     56  C   UNL A   1      51.579  25.393  26.918  1.00  0.00     0.059 A 
ATOM     57  F   UNL A   1      49.938  25.549  28.586  1.00  0.00    -0.206 F 
ATOM     58  C   UNL A   1      51.965  25.608  25.597  1.00  0.00     0.060 A 
BRANCH  58  59
ATOM     59  S   UNL A   1      53.613  25.119  25.046  1.00  0.00     0.124 S 
ATOM     60  O   UNL A   1      54.462  25.889  25.949  1.00  0.00    -0.237 OA
ATOM     61  O   UNL A   1      53.597  23.675  25.260  1.00  0.00    -0.237 OA
ATOM     62  O   UNL A   1      53.634  25.537  23.647  1.00  0.00    -0.744 OA
ENDBRANCH  58  59
ENDBRANCH  26  51
BRANCH  38  63
ATOM     63  C   UNL A   1      46.520  32.452  28.260  1.00  0.00     0.058 A 
ATOM     64  C   UNL A   1      47.156  32.890  29.431  1.00  0.00     0.135 A 
ATOM     65  C   UNL A   1      46.452  33.338  27.175  1.00  0.00     0.135 A 
ATOM     66  F   UNL A   1      47.235  32.083  30.501  1.00  0.00    -0.206 F 
ATOM     67  C   UNL A   1      47.692  34.169  29.530  1.00  0.00     0.059 A 
ATOM     68  C   UNL A   1      47.003  34.613  27.242  1.00  0.00     0.059 A 
ATOM     69  F   UNL A   1      45.858  32.962  26.031  1.00  0.00    -0.206 F 
ATOM     70  C   UNL A   1      47.613  35.023  28.428  1.00  0.00     0.060 A 
BRANCH  70  71
ATOM     71  S   UNL A   1      48.347  36.667  28.554  1.00  0.00     0.124 S 
ATOM     72  O   UNL A   1      47.996  37.246  27.261  1.00  0.00    -0.237 OA
ATOM     73  O   UNL A   1      47.658  37.231  29.709  1.00  0.00    -0.237 OA
ATOM     74  O   UNL A   1      49.767  36.389  28.752  1.00  0.00    -0.744 OA
ENDBRANCH  70  71
ENDBRANCH  38  63
ENDBRANCH  12  13
ENDBRANCH   5   7
ENDBRANCH   2   3
ENDBRANCH   1   2
BRANCH   1  75
ATOM     75  C   UNL A   1      36.729  20.227  25.019  1.00  0.00     0.023 C 
BRANCH  75  76
ATOM     76  C   UNL A   1      36.504  21.676  25.443  1.00  0.00     0.116 C 
BRANCH  76  77
ATOM     77  N   UNL A   1      35.586  21.826  26.559  1.00  0.00    -0.352 N 
ATOM     78  C   UNL A   1      34.215  21.740  26.563  1.00  0.00     0.255 C 
ATOM     79  H   UNL A   1      36.002  22.014  27.432  1.00  0.00     0.163 HD
ATOM     80  O   UNL A   1      33.587  21.857  27.612  1.00  0.00    -0.269 OA
BRANCH  78  81
ATOM     81  C   UNL A   1      33.479  21.658  25.286  1.00  0.00     0.083 A 
ATOM     82  C   UNL A   1      33.650  22.742  24.416  1.00  0.00     0.043 A 
ATOM     83  C   UNL A   1      32.695  20.569  24.908  1.00  0.00     0.128 A 
ATOM     84  C   UNL A   1      33.178  22.685  23.109  1.00  0.00     0.042 A 
ATOM     85  C   UNL A   1      32.148  20.531  23.629  1.00  0.00     0.049 A 
ATOM     86  C   UNL A   1      32.405  21.577  22.732  1.00  0.00     0.030 A 
BRANCH  83  87
ATOM     87  O   UNL A   1      32.473  19.540  25.777  1.00  0.00    -0.507 OA
ATOM     88  H   UNL A   1      31.598  19.319  26.026  1.00  0.00     0.293 HD
ENDBRANCH  83  87
BRANCH  84  89
ATOM     89  N   UNL A   1      33.416  23.665  22.126  1.00  0.00    -0.322 N 
ATOM     90  C   UNL A   1      33.025  24.980  21.991  1.00  0.00     0.257 C 
ATOM     91  H   UNL A   1      33.976  23.347  21.383  1.00  0.00     0.170 HD
ATOM     92  O   UNL A   1      33.234  25.568  20.931  1.00  0.00    -0.269 OA
BRANCH  90  93
ATOM     93  C   UNL A   1      32.392  25.732  23.080  1.00  0.00     0.059 A 
ATOM     94  C   UNL A   1      31.005  25.772  23.139  1.00  0.00     0.124 A 
ATOM     95  C   UNL A   1      33.130  26.409  24.054  1.00  0.00     0.032 A 
ATOM     96  N   UNL A   1      30.318  26.374  24.140  1.00  0.00    -0.263 NA
ATOM     97  C   UNL A   1      32.444  27.016  25.101  1.00  0.00     0.037 A 
ATOM     98  C   UNL A   1      31.056  26.966  25.112  1.00  0.00     0.126 A 
ATOM     99  Br  UNL A   1      33.386  27.859  26.499  1.00  0.00    -0.049 Br
ENDBRANCH  90  93
ENDBRANCH  84  89
ENDBRANCH  78  81
ENDBRANCH  76  77
ENDBRANCH  75  76
ENDBRANCH   1  75
TORSDOF 17
ENDMDL
MODEL 3
REMARK VINA RESULT:     -12.3      6.671     11.928
REMARK SMILES O=C(NCCCCNC(=O)c1cc(NC(=O)c2cncc(Br)c2)ccc1O)c1ccc(-c2c3nc(c(-c4c(F)cc(S(=O)(=O)[O-])cc4F)c4ccc([nH]4)c(-c4c(F)cc(S(=O)(=O)[O-])cc4F)c4nc(c(-c5c(F)cc(S(=O)(=O)[O-])cc5F)c5ccc2[nH]5)C=C4)C=C3)cc1
REMARK SMILES IDX 5 1 4 2 3 3 1 4 2 5 28 7 29 8 93 9 30 10 92 11 31 12 32 13
REMARK SMILES IDX 33 14 86 15 34 16 91 17 85 18 87 19 35 20 90 21 84 22 83 23
REMARK SMILES IDX 36 25 70 26 49 27 69 28 50 29 53 30 68 31 88 32 51 33 52 34
REMARK SMILES IDX 67 36 89 37 54 38 37 39 38 40 47 41 39 42 40 43 46 44 48 45
REMARK SMILES IDX 41 46 42 47 43 48 44 49 45 50 71 51 72 52 81 53 73 54 74 55
REMARK SMILES IDX 80 56 82 57 75 58 76 59 77 60 78 61 79 62 55 63 56 64 65 65
REMARK SMILES IDX 57 66 58 67 64 68 66 69 59 70 60 71 61 72 62 73 63 74 6 75
REMARK SMILES IDX 7 76 8 77 9 78 10 80 11 81 12 82 26 83 13 84 25 85 24 86
REMARK SMILES IDX 27 87 14 89 15 90 16 92 17 93 18 94 23 95 19 96 21 97 20 98
REMARK SMILES IDX 22 99
REMARK H PARENT 3 6 87 24 53 35 8 79 27 88 14 91
REMARK Flexibility Score: inf
ROOT
ATOM      1  C   UNL A   1      37.316  23.813  25.808  1.00  0.00     0.023 C 
ENDROOT
BRANCH   1   2
ATOM      2  C   UNL A   1      38.465  24.094  26.765  1.00  0.00     0.116 C 
BRANCH   2   3
ATOM      3  N   UNL A   1      39.757  24.128  26.097  1.00  0.00    -0.352 N 
ATOM      4  O   UNL A   1      41.780  24.949  25.547  1.00  0.00    -0.269 OA
ATOM      5  C   UNL A   1      40.822  24.968  26.314  1.00  0.00     0.251 C 
ATOM      6  H   UNL A   1      39.886  23.454  25.391  1.00  0.00     0.163 HD
BRANCH   5   7
ATOM      7  C   UNL A   1      40.801  25.905  27.460  1.00  0.00     0.039 A 
ATOM      8  C   UNL A   1      41.781  26.892  27.590  1.00  0.00     0.014 A 
ATOM      9  C   UNL A   1      39.775  25.806  28.404  1.00  0.00     0.014 A 
ATOM     10  C   UNL A   1      41.801  27.705  28.718  1.00  0.00     0.010 A 
ATOM     11  C   UNL A   1      39.750  26.677  29.497  1.00  0.00     0.010 A 
ATOM     12  C   UNL A   1      40.770  27.626  29.669  1.00  0.00    -0.014 A 
BRANCH  12  13
ATOM     13  C   UNL A   1      40.709  28.633  30.757  1.00  0.00     0.031 A 
ATOM     14  C   UNL A   1      41.609  28.548  31.957  1.00  0.00     0.074 A 
ATOM     15  C   UNL A   1      39.810  29.631  30.643  1.00  0.00     0.049 A 
ATOM     16  N   UNL A   1      41.658  29.340  32.998  1.00  0.00    -0.248 NA
ATOM     17  C   UNL A   1      42.569  27.435  32.005  1.00  0.00     0.031 C 
ATOM     18  C   UNL A   1      38.867  29.790  29.531  1.00  0.00     0.029 A 
ATOM     19  N   UNL A   1      39.536  30.696  31.461  1.00  0.00    -0.354 N 
ATOM     20  C   UNL A   1      42.635  28.813  33.834  1.00  0.00     0.074 A 
ATOM     21  C   UNL A   1      43.150  27.626  33.185  1.00  0.00     0.031 C 
ATOM     22  C   UNL A   1      38.134  30.895  29.727  1.00  0.00     0.029 A 
ATOM     23  C   UNL A   1      38.510  31.489  31.002  1.00  0.00     0.049 A 
ATOM     24  H   UNL A   1      40.026  30.876  32.296  1.00  0.00     0.167 HD
ATOM     25  C   UNL A   1      43.059  29.285  35.032  1.00  0.00     0.037 A 
ATOM     26  C   UNL A   1      37.911  32.556  31.562  1.00  0.00     0.037 A 
ATOM     27  C   UNL A   1      42.557  30.487  35.650  1.00  0.00     0.049 A 
ATOM     28  C   UNL A   1      38.392  33.041  32.898  1.00  0.00     0.074 A 
ATOM     29  C   UNL A   1      42.989  31.097  36.816  1.00  0.00     0.029 A 
ATOM     30  N   UNL A   1      41.507  31.251  35.167  1.00  0.00    -0.354 N 
ATOM     31  N   UNL A   1      39.371  32.575  33.636  1.00  0.00    -0.248 NA
ATOM     32  C   UNL A   1      37.686  34.187  33.483  1.00  0.00     0.031 C 
ATOM     33  C   UNL A   1      42.166  32.199  37.065  1.00  0.00     0.029 A 
ATOM     34  C   UNL A   1      41.248  32.302  36.032  1.00  0.00     0.049 A 
ATOM     35  H   UNL A   1      41.016  31.074  34.332  1.00  0.00     0.167 HD
ATOM     36  C   UNL A   1      39.395  33.369  34.775  1.00  0.00     0.074 A 
ATOM     37  C   UNL A   1      38.356  34.365  34.614  1.00  0.00     0.031 C 
ATOM     38  C   UNL A   1      40.200  33.276  35.861  1.00  0.00     0.037 A 
BRANCH  25  39
ATOM     39  C   UNL A   1      44.113  28.514  35.776  1.00  0.00     0.058 A 
ATOM     40  C   UNL A   1      43.786  27.452  36.631  1.00  0.00     0.135 A 
ATOM     41  C   UNL A   1      45.474  28.767  35.536  1.00  0.00     0.135 A 
ATOM     42  F   UNL A   1      42.500  27.174  36.904  1.00  0.00    -0.206 F 
ATOM     43  C   UNL A   1      44.771  26.663  37.219  1.00  0.00     0.059 A 
ATOM     44  C   UNL A   1      46.476  27.980  36.100  1.00  0.00     0.059 A 
ATOM     45  F   UNL A   1      45.841  29.773  34.727  1.00  0.00    -0.206 F 
ATOM     46  C   UNL A   1      46.113  26.930  36.942  1.00  0.00     0.060 A 
BRANCH  46  47
ATOM     47  S   UNL A   1      47.376  25.862  37.668  1.00  0.00     0.124 S 
ATOM     48  O   UNL A   1      47.579  26.495  38.968  1.00  0.00    -0.237 OA
ATOM     49  O   UNL A   1      46.709  24.564  37.693  1.00  0.00    -0.237 OA
ATOM     50  O   UNL A   1      48.493  25.972  36.736  1.00  0.00    -0.744 OA
ENDBRANCH  46  47
ENDBRANCH  25  39
BRANCH  26  51
ATOM     51  C   UNL A   1      36.756  33.199  30.883  1.00  0.00     0.058 A 
ATOM     52  C   UNL A   1      36.939  34.043  29.778  1.00  0.00     0.135 A 
ATOM     53  C   UNL A   1      35.444  32.976  31.328  1.00  0.00     0.135 A 
ATOM     54  F   UNL A   1      38.175  34.288  29.318  1.00  0.00    -0.206 F 
ATOM     55  C   UNL A   1      35.862  34.665  29.154  1.00  0.00     0.059 A 
ATOM     56  C   UNL A   1      34.349  33.564  30.704  1.00  0.00     0.059 A 
ATOM     57  F   UNL A   1      35.216  32.160  32.370  1.00  0.00    -0.206 F 
ATOM     58  C   UNL A   1      34.571  34.421  29.627  1.00  0.00     0.060 A 
BRANCH  58  59
ATOM     59  S   UNL A   1      33.175  35.213  28.801  1.00  0.00     0.124 S 
ATOM     60  O   UNL A   1      32.358  35.623  29.938  1.00  0.00    -0.237 OA
ATOM     61  O   UNL A   1      33.824  36.290  28.059  1.00  0.00    -0.237 OA
ATOM     62  O   UNL A   1      32.623  34.141  27.978  1.00  0.00    -0.744 OA
ENDBRANCH  58  59
ENDBRANCH  26  51
BRANCH  38  63
ATOM     63  C   UNL A   1      39.980  34.274  36.961  1.00  0.00     0.058 A 
ATOM     64  C   UNL A   1      40.568  35.548  36.913  1.00  0.00     0.135 A 
ATOM     65  C   UNL A   1      39.144  33.974  38.046  1.00  0.00     0.135 A 
ATOM     66  F   UNL A   1      41.386  35.878  35.901  1.00  0.00    -0.206 F 
ATOM     67  C   UNL A   1      40.348  36.485  37.916  1.00  0.00     0.059 A 
ATOM     68  C   UNL A   1      38.889  34.904  39.047  1.00  0.00     0.059 A 
ATOM     69  F   UNL A   1      38.554  32.770  38.133  1.00  0.00    -0.206 F 
ATOM     70  C   UNL A   1      39.504  36.154  38.979  1.00  0.00     0.060 A 
BRANCH  70  71
ATOM     71  S   UNL A   1      39.195  37.393  40.254  1.00  0.00     0.124 S 
ATOM     72  O   UNL A   1      40.537  37.916  40.489  1.00  0.00    -0.237 OA
ATOM     73  O   UNL A   1      38.268  38.304  39.589  1.00  0.00    -0.237 OA
ATOM     74  O   UNL A   1      38.623  36.616  41.350  1.00  0.00    -0.744 OA
ENDBRANCH  70  71
ENDBRANCH  38  63
ENDBRANCH  12  13
ENDBRANCH   5   7
ENDBRANCH   2   3
ENDBRANCH   1   2
BRANCH   1  75
ATOM     75  C   UNL A   1      37.435  22.517  25.011  1.00  0.00     0.023 C 
BRANCH  75  76
ATOM     76  C   UNL A   1      36.575  21.355  25.500  1.00  0.00     0.116 C 
BRANCH  76  77
ATOM     77  N   UNL A   1      35.695  21.697  26.604  1.00  0.00    -0.352 N 
ATOM     78  C   UNL A   1      34.323  21.754  26.624  1.00  0.00     0.255 C 
ATOM     79  H   UNL A   1      36.142  21.918  27.453  1.00  0.00     0.163 HD
ATOM     80  O   UNL A   1      33.727  22.028  27.662  1.00  0.00    -0.269 OA
BRANCH  78  81
ATOM     81  C   UNL A   1      33.563  21.636  25.365  1.00  0.00     0.083 A 
ATOM     82  C   UNL A   1      33.741  22.680  24.448  1.00  0.00     0.043 A 
ATOM     83  C   UNL A   1      32.749  20.550  25.046  1.00  0.00     0.128 A 
ATOM     84  C   UNL A   1      33.244  22.579  23.153  1.00  0.00     0.042 A 
ATOM     85  C   UNL A   1      32.179  20.472  23.779  1.00  0.00     0.049 A 
ATOM     86  C   UNL A   1      32.441  21.474  22.835  1.00  0.00     0.030 A 
BRANCH  83  87
ATOM     87  O   UNL A   1      32.522  19.563  25.960  1.00  0.00    -0.507 OA
ATOM     88  H   UNL A   1      33.036  18.781  25.941  1.00  0.00     0.293 HD
ENDBRANCH  83  87
BRANCH  84  89
ATOM     89  N   UNL A   1      33.484  23.513  22.126  1.00  0.00    -0.322 N 
ATOM     90  C   UNL A   1      33.038  24.797  21.895  1.00  0.00     0.257 C 
ATOM     91  H   UNL A   1      34.096  23.182  21.431  1.00  0.00     0.170 HD
ATOM     92  O   UNL A   1      33.273  25.334  20.813  1.00  0.00    -0.269 OA
BRANCH  90  93
ATOM     93  C   UNL A   1      32.315  25.576  22.907  1.00  0.00     0.059 A 
ATOM     94  C   UNL A   1      33.050  26.264  23.863  1.00  0.00     0.124 A 
ATOM     95  C   UNL A   1      30.921  25.649  22.943  1.00  0.00     0.032 A 
ATOM     96  N   UNL A   1      32.490  27.071  24.796  1.00  0.00    -0.263 NA
ATOM     97  C   UNL A   1      30.327  26.488  23.881  1.00  0.00     0.037 A 
ATOM     98  C   UNL A   1      31.138  27.181  24.770  1.00  0.00     0.126 A 
ATOM     99  Br  UNL A   1      28.455  26.707  23.918  1.00  0.00    -0.049 Br
ENDBRANCH  90  93
ENDBRANCH  84  89
ENDBRANCH  78  81
ENDBRANCH  76  77
ENDBRANCH  75  76
ENDBRANCH   1  75
TORSDOF 17
ENDMDL
