MODEL 1
REMARK VINA RESULT:     -11.5      0.000      0.000
REMARK SMILES O=C(NCCCCNC(=O)c1cc(-c2cccc(Cl)c2)oc1C(F)(F)F)c1ccc(-c2c3nc(c(-c4c(F)cc(S(=O)(=O)[O-])cc4F)c4ccc([nH]4)c(-c4c(F)cc(S(=O)(=O)[O-])cc4F)c4nc(c(-c5c(F)cc(S(=O)(=O)[O-])cc5F)c5ccc2[nH]5)C=C4)C=C3)cc1
REMARK SMILES IDX 4 1 3 2 1 3 2 4 27 6 28 7 92 8 29 9 91 10 30 11 31 12 32 13
REMARK SMILES IDX 85 14 33 15 90 16 84 17 86 18 34 19 89 20 83 21 82 22 35 24
REMARK SMILES IDX 69 25 48 26 68 27 49 28 52 29 67 30 87 31 50 32 51 33 66 35
REMARK SMILES IDX 88 36 53 37 36 38 37 39 46 40 38 41 39 42 45 43 47 44 40 45
REMARK SMILES IDX 41 46 42 47 43 48 44 49 70 50 71 51 80 52 72 53 73 54 79 55
REMARK SMILES IDX 81 56 74 57 75 58 76 59 77 60 78 61 54 62 55 63 64 64 56 65
REMARK SMILES IDX 57 66 63 67 65 68 58 69 59 70 60 71 61 72 62 73 5 74 6 75
REMARK SMILES IDX 7 76 8 77 9 78 10 80 11 81 12 82 22 83 13 84 21 85 23 86
REMARK SMILES IDX 24 87 25 88 26 89 14 90 15 91 20 92 16 93 18 94 17 95 19 96
REMARK H PARENT 3 5 86 23 52 34 8 79
REMARK Flexibility Score: inf
ROOT
ATOM      1  C   UNL A   1      33.607  28.260  27.235  1.00  0.00     0.116 C 
ENDROOT
BRANCH   1   2
ATOM      2  N   UNL A   1      33.458  29.677  27.527  1.00  0.00    -0.352 N 
ATOM      3  O   UNL A   1      34.010  31.686  28.387  1.00  0.00    -0.269 OA
ATOM      4  C   UNL A   1      34.364  30.551  28.080  1.00  0.00     0.251 C 
ATOM      5  H   UNL A   1      32.584  30.067  27.294  1.00  0.00     0.163 HD
BRANCH   4   6
ATOM      6  C   UNL A   1      35.752  30.108  28.331  1.00  0.00     0.039 A 
ATOM      7  C   UNL A   1      36.144  29.669  29.599  1.00  0.00     0.014 A 
ATOM      8  C   UNL A   1      36.674  30.145  27.283  1.00  0.00     0.014 A 
ATOM      9  C   UNL A   1      37.487  29.407  29.855  1.00  0.00     0.010 A 
ATOM     10  C   UNL A   1      38.005  29.801  27.523  1.00  0.00     0.010 A 
ATOM     11  C   UNL A   1      38.430  29.462  28.818  1.00  0.00    -0.014 A 
BRANCH  11  12
ATOM     12  C   UNL A   1      39.851  29.124  29.082  1.00  0.00     0.031 A 
ATOM     13  C   UNL A   1      40.801  30.158  29.621  1.00  0.00     0.074 A 
ATOM     14  C   UNL A   1      40.289  27.881  28.808  1.00  0.00     0.049 A 
ATOM     15  N   UNL A   1      42.089  30.066  29.831  1.00  0.00    -0.248 NA
ATOM     16  C   UNL A   1      40.230  31.471  29.960  1.00  0.00     0.031 C 
ATOM     17  C   UNL A   1      39.460  26.793  28.285  1.00  0.00     0.029 A 
ATOM     18  N   UNL A   1      41.538  27.324  28.918  1.00  0.00    -0.354 N 
ATOM     19  C   UNL A   1      42.490  31.311  30.302  1.00  0.00     0.074 A 
ATOM     20  C   UNL A   1      41.310  32.150  30.322  1.00  0.00     0.031 C 
ATOM     21  C   UNL A   1      40.217  25.698  28.130  1.00  0.00     0.029 A 
ATOM     22  C   UNL A   1      41.597  26.024  28.476  1.00  0.00     0.049 A 
ATOM     23  H   UNL A   1      42.316  27.808  29.277  1.00  0.00     0.167 HD
ATOM     24  C   UNL A   1      43.727  31.713  30.684  1.00  0.00     0.037 A 
ATOM     25  C   UNL A   1      42.647  25.193  28.327  1.00  0.00     0.037 A 
ATOM     26  C   UNL A   1      44.893  30.865  30.655  1.00  0.00     0.049 A 
ATOM     27  C   UNL A   1      44.016  25.672  28.713  1.00  0.00     0.074 A 
ATOM     28  C   UNL A   1      46.185  31.165  31.048  1.00  0.00     0.029 A 
ATOM     29  N   UNL A   1      44.912  29.554  30.197  1.00  0.00    -0.354 N 
ATOM     30  N   UNL A   1      44.375  26.843  29.182  1.00  0.00    -0.248 NA
ATOM     31  C   UNL A   1      45.123  24.720  28.554  1.00  0.00     0.031 C 
ATOM     32  C   UNL A   1      46.995  30.059  30.772  1.00  0.00     0.029 A 
ATOM     33  C   UNL A   1      46.198  29.042  30.273  1.00  0.00     0.049 A 
ATOM     34  H   UNL A   1      44.126  29.060  29.867  1.00  0.00     0.167 HD
ATOM     35  C   UNL A   1      45.745  26.760  29.405  1.00  0.00     0.074 A 
ATOM     36  C   UNL A   1      46.149  25.422  29.019  1.00  0.00     0.031 C 
ATOM     37  C   UNL A   1      46.586  27.704  29.897  1.00  0.00     0.037 A 
BRANCH  24  38
ATOM     38  C   UNL A   1      43.891  33.144  31.126  1.00  0.00     0.058 A 
ATOM     39  C   UNL A   1      43.724  33.535  32.465  1.00  0.00     0.135 A 
ATOM     40  C   UNL A   1      44.232  34.140  30.195  1.00  0.00     0.135 A 
ATOM     41  F   UNL A   1      43.389  32.629  33.398  1.00  0.00    -0.206 F 
ATOM     42  C   UNL A   1      43.840  34.866  32.855  1.00  0.00     0.059 A 
ATOM     43  C   UNL A   1      44.386  35.473  30.570  1.00  0.00     0.059 A 
ATOM     44  F   UNL A   1      44.412  33.826  28.902  1.00  0.00    -0.206 F 
ATOM     45  C   UNL A   1      44.164  35.829  31.898  1.00  0.00     0.060 A 
BRANCH  45  46
ATOM     46  S   UNL A   1      44.272  37.556  32.413  1.00  0.00     0.124 S 
ATOM     47  O   UNL A   1      45.681  37.661  32.780  1.00  0.00    -0.237 OA
ATOM     48  O   UNL A   1      43.880  38.269  31.201  1.00  0.00    -0.237 OA
ATOM     49  O   UNL A   1      43.327  37.642  33.522  1.00  0.00    -0.744 OA
ENDBRANCH  45  46
ENDBRANCH  24  38
BRANCH  25  50
ATOM     50  C   UNL A   1      42.421  23.829  27.782  1.00  0.00     0.058 A 
ATOM     51  C   UNL A   1      42.302  23.613  26.403  1.00  0.00     0.135 A 
ATOM     52  C   UNL A   1      42.391  22.708  28.628  1.00  0.00     0.135 A 
ATOM     53  F   UNL A   1      42.320  24.653  25.556  1.00  0.00    -0.206 F 
ATOM     54  C   UNL A   1      42.165  22.332  25.878  1.00  0.00     0.059 A 
ATOM     55  C   UNL A   1      42.284  21.416  28.125  1.00  0.00     0.059 A 
ATOM     56  F   UNL A   1      42.521  22.862  29.954  1.00  0.00    -0.206 F 
ATOM     57  C   UNL A   1      42.168  21.239  26.746  1.00  0.00     0.060 A 
BRANCH  57  58
ATOM     58  S   UNL A   1      42.077  19.578  26.045  1.00  0.00     0.124 S 
ATOM     59  O   UNL A   1      42.527  18.761  27.165  1.00  0.00    -0.237 OA
ATOM     60  O   UNL A   1      40.662  19.470  25.703  1.00  0.00    -0.237 OA
ATOM     61  O   UNL A   1      42.986  19.644  24.904  1.00  0.00    -0.744 OA
ENDBRANCH  57  58
ENDBRANCH  25  50
BRANCH  37  62
ATOM     62  C   UNL A   1      48.025  27.317  30.103  1.00  0.00     0.058 A 
ATOM     63  C   UNL A   1      49.014  27.582  29.144  1.00  0.00     0.135 A 
ATOM     64  C   UNL A   1      48.430  26.744  31.320  1.00  0.00     0.135 A 
ATOM     65  F   UNL A   1      48.681  28.117  27.958  1.00  0.00    -0.206 F 
ATOM     66  C   UNL A   1      50.353  27.286  29.381  1.00  0.00     0.059 A 
ATOM     67  C   UNL A   1      49.766  26.467  31.591  1.00  0.00     0.059 A 
ATOM     68  F   UNL A   1      47.525  26.476  32.275  1.00  0.00    -0.206 F 
ATOM     69  C   UNL A   1      50.720  26.737  30.612  1.00  0.00     0.060 A 
BRANCH  69  70
ATOM     70  S   UNL A   1      52.468  26.420  30.932  1.00  0.00     0.124 S 
ATOM     71  O   UNL A   1      52.404  25.213  31.748  1.00  0.00    -0.237 OA
ATOM     72  O   UNL A   1      53.005  26.247  29.586  1.00  0.00    -0.237 OA
ATOM     73  O   UNL A   1      52.912  27.625  31.627  1.00  0.00    -0.744 OA
ENDBRANCH  69  70
ENDBRANCH  37  62
ENDBRANCH  11  12
ENDBRANCH   4   6
ENDBRANCH   1   2
BRANCH   1  74
ATOM     74  C   UNL A   1      34.054  27.993  25.803  1.00  0.00     0.023 C 
BRANCH  74  75
ATOM     75  C   UNL A   1      33.401  28.880  24.746  1.00  0.00     0.023 C 
BRANCH  75  76
ATOM     76  C   UNL A   1      33.783  28.551  23.306  1.00  0.00     0.116 C 
BRANCH  76  77
ATOM     77  N   UNL A   1      32.630  28.210  22.484  1.00  0.00    -0.352 N 
ATOM     78  C   UNL A   1      32.002  27.000  22.339  1.00  0.00     0.255 C 
ATOM     79  H   UNL A   1      32.248  28.951  21.960  1.00  0.00     0.163 HD
ATOM     80  O   UNL A   1      31.107  26.854  21.513  1.00  0.00    -0.269 OA
BRANCH  78  81
ATOM     81  C   UNL A   1      32.433  25.920  23.195  1.00  0.00     0.091 A 
ATOM     82  C   UNL A   1      33.566  25.076  23.040  1.00  0.00     0.065 A 
ATOM     83  C   UNL A   1      31.799  25.506  24.354  1.00  0.00     0.221 A 
ATOM     84  C   UNL A   1      33.473  24.113  24.015  1.00  0.00     0.135 A 
ATOM     85  O   UNL A   1      32.413  24.370  24.830  1.00  0.00    -0.451 OA
BRANCH  83  86
ATOM     86  C   UNL A   1      30.612  25.997  25.098  1.00  0.00     0.450 C 
ATOM     87  F   UNL A   1      30.725  27.317  25.408  1.00  0.00    -0.163 F 
ATOM     88  F   UNL A   1      29.470  25.865  24.372  1.00  0.00    -0.163 F 
ATOM     89  F   UNL A   1      30.411  25.351  26.273  1.00  0.00    -0.163 F 
ENDBRANCH  83  86
BRANCH  84  90
ATOM     90  C   UNL A   1      34.248  22.918  24.283  1.00  0.00     0.019 A 
ATOM     91  C   UNL A   1      33.601  21.680  24.401  1.00  0.00     0.012 A 
ATOM     92  C   UNL A   1      35.623  23.002  24.532  1.00  0.00     0.032 A 
ATOM     93  C   UNL A   1      34.315  20.540  24.770  1.00  0.00     0.002 A 
ATOM     94  C   UNL A   1      36.328  21.861  24.916  1.00  0.00     0.041 A 
ATOM     95  C   UNL A   1      35.680  20.633  25.036  1.00  0.00     0.020 A 
ATOM     96  Cl  UNL A   1      38.007  21.974  25.275  1.00  0.00    -0.084 Cl
ENDBRANCH  84  90
ENDBRANCH  78  81
ENDBRANCH  76  77
ENDBRANCH  75  76
ENDBRANCH  74  75
ENDBRANCH   1  74
TORSDOF 16
ENDMDL
MODEL 2
REMARK VINA RESULT:     -11.5      5.092     10.556
REMARK SMILES O=C(NCCCCNC(=O)c1cc(-c2cccc(Cl)c2)oc1C(F)(F)F)c1ccc(-c2c3nc(c(-c4c(F)cc(S(=O)(=O)[O-])cc4F)c4ccc([nH]4)c(-c4c(F)cc(S(=O)(=O)[O-])cc4F)c4nc(c(-c5c(F)cc(S(=O)(=O)[O-])cc5F)c5ccc2[nH]5)C=C4)C=C3)cc1
REMARK SMILES IDX 4 1 3 2 1 3 2 4 27 6 28 7 92 8 29 9 91 10 30 11 31 12 32 13
REMARK SMILES IDX 85 14 33 15 90 16 84 17 86 18 34 19 89 20 83 21 82 22 35 24
REMARK SMILES IDX 69 25 48 26 68 27 49 28 52 29 67 30 87 31 50 32 51 33 66 35
REMARK SMILES IDX 88 36 53 37 36 38 37 39 46 40 38 41 39 42 45 43 47 44 40 45
REMARK SMILES IDX 41 46 42 47 43 48 44 49 70 50 71 51 80 52 72 53 73 54 79 55
REMARK SMILES IDX 81 56 74 57 75 58 76 59 77 60 78 61 54 62 55 63 64 64 56 65
REMARK SMILES IDX 57 66 63 67 65 68 58 69 59 70 60 71 61 72 62 73 5 74 6 75
REMARK SMILES IDX 7 76 8 77 9 78 10 80 11 81 12 82 22 83 13 84 21 85 23 86
REMARK SMILES IDX 24 87 25 88 26 89 14 90 15 91 20 92 16 93 18 94 17 95 19 96
REMARK H PARENT 3 5 86 23 52 34 8 79
REMARK Flexibility Score: inf
ROOT
ATOM      1  C   UNL A   1      37.932  24.337  26.582  1.00  0.00     0.116 C 
ENDROOT
BRANCH   1   2
ATOM      2  N   UNL A   1      39.280  24.070  26.105  1.00  0.00    -0.352 N 
ATOM      3  O   UNL A   1      41.495  24.402  25.859  1.00  0.00    -0.269 OA
ATOM      4  C   UNL A   1      40.466  24.656  26.478  1.00  0.00     0.251 C 
ATOM      5  H   UNL A   1      39.353  23.368  25.418  1.00  0.00     0.163 HD
BRANCH   4   6
ATOM      6  C   UNL A   1      40.488  25.615  27.604  1.00  0.00     0.039 A 
ATOM      7  C   UNL A   1      39.531  25.546  28.620  1.00  0.00     0.014 A 
ATOM      8  C   UNL A   1      41.476  26.602  27.633  1.00  0.00     0.014 A 
ATOM      9  C   UNL A   1      39.471  26.550  29.583  1.00  0.00     0.010 A 
ATOM     10  C   UNL A   1      41.464  27.560  28.648  1.00  0.00     0.010 A 
ATOM     11  C   UNL A   1      40.442  27.563  29.612  1.00  0.00    -0.014 A 
BRANCH  11  12
ATOM     12  C   UNL A   1      40.410  28.597  30.676  1.00  0.00     0.031 A 
ATOM     13  C   UNL A   1      41.318  28.499  31.871  1.00  0.00     0.074 A 
ATOM     14  C   UNL A   1      39.537  29.616  30.571  1.00  0.00     0.049 A 
ATOM     15  N   UNL A   1      41.367  29.261  32.934  1.00  0.00    -0.248 NA
ATOM     16  C   UNL A   1      42.290  27.396  31.877  1.00  0.00     0.031 C 
ATOM     17  C   UNL A   1      38.609  29.818  29.456  1.00  0.00     0.029 A 
ATOM     18  N   UNL A   1      39.276  30.666  31.415  1.00  0.00    -0.354 N 
ATOM     19  C   UNL A   1      42.356  28.719  33.747  1.00  0.00     0.074 A 
ATOM     20  C   UNL A   1      42.862  27.546  33.064  1.00  0.00     0.031 C 
ATOM     21  C   UNL A   1      37.889  30.927  29.677  1.00  0.00     0.029 A 
ATOM     22  C   UNL A   1      38.255  31.477  30.979  1.00  0.00     0.049 A 
ATOM     23  H   UNL A   1      39.772  30.824  32.250  1.00  0.00     0.167 HD
ATOM     24  C   UNL A   1      42.799  29.161  34.949  1.00  0.00     0.037 A 
ATOM     25  C   UNL A   1      37.650  32.523  31.572  1.00  0.00     0.037 A 
ATOM     26  C   UNL A   1      42.282  30.330  35.617  1.00  0.00     0.049 A 
ATOM     27  C   UNL A   1      38.125  32.970  32.924  1.00  0.00     0.074 A 
ATOM     28  C   UNL A   1      42.682  30.880  36.822  1.00  0.00     0.029 A 
ATOM     29  N   UNL A   1      41.245  31.122  35.144  1.00  0.00    -0.354 N 
ATOM     30  N   UNL A   1      39.078  32.463  33.669  1.00  0.00    -0.248 NA
ATOM     31  C   UNL A   1      37.448  34.131  33.517  1.00  0.00     0.031 C 
ATOM     32  C   UNL A   1      41.848  31.966  37.106  1.00  0.00     0.029 A 
ATOM     33  C   UNL A   1      40.974  32.140  36.045  1.00  0.00     0.049 A 
ATOM     34  H   UNL A   1      40.770  30.982  34.292  1.00  0.00     0.167 HD
ATOM     35  C   UNL A   1      39.139  33.262  34.805  1.00  0.00     0.074 A 
ATOM     36  C   UNL A   1      38.125  34.286  34.648  1.00  0.00     0.031 C 
ATOM     37  C   UNL A   1      39.968  33.161  35.873  1.00  0.00     0.037 A 
BRANCH  24  38
ATOM     38  C   UNL A   1      43.869  28.354  35.639  1.00  0.00     0.058 A 
ATOM     39  C   UNL A   1      45.237  28.584  35.416  1.00  0.00     0.135 A 
ATOM     40  C   UNL A   1      43.520  27.341  36.548  1.00  0.00     0.135 A 
ATOM     41  F   UNL A   1      45.631  29.534  34.552  1.00  0.00    -0.206 F 
ATOM     42  C   UNL A   1      46.215  27.808  36.029  1.00  0.00     0.059 A 
ATOM     43  C   UNL A   1      44.484  26.573  37.198  1.00  0.00     0.059 A 
ATOM     44  F   UNL A   1      42.229  27.079  36.807  1.00  0.00    -0.206 F 
ATOM     45  C   UNL A   1      45.828  26.799  36.913  1.00  0.00     0.060 A 
BRANCH  45  46
ATOM     46  S   UNL A   1      47.108  25.775  37.669  1.00  0.00     0.124 S 
ATOM     47  O   UNL A   1      46.586  25.612  39.023  1.00  0.00    -0.237 OA
ATOM     48  O   UNL A   1      47.086  24.578  36.835  1.00  0.00    -0.237 OA
ATOM     49  O   UNL A   1      48.311  26.593  37.557  1.00  0.00    -0.744 OA
ENDBRANCH  45  46
ENDBRANCH  24  38
BRANCH  25  50
ATOM     50  C   UNL A   1      36.527  33.202  30.875  1.00  0.00     0.058 A 
ATOM     51  C   UNL A   1      35.209  33.079  31.335  1.00  0.00     0.135 A 
ATOM     52  C   UNL A   1      36.762  34.046  29.776  1.00  0.00     0.135 A 
ATOM     53  F   UNL A   1      34.935  32.281  32.378  1.00  0.00    -0.206 F 
ATOM     54  C   UNL A   1      34.162  33.769  30.735  1.00  0.00     0.059 A 
ATOM     55  C   UNL A   1      35.737  34.768  29.177  1.00  0.00     0.059 A 
ATOM     56  F   UNL A   1      38.009  34.212  29.310  1.00  0.00    -0.206 F 
ATOM     57  C   UNL A   1      34.438  34.621  29.663  1.00  0.00     0.060 A 
BRANCH  57  58
ATOM     58  S   UNL A   1      33.083  35.577  28.949  1.00  0.00     0.124 S 
ATOM     59  O   UNL A   1      33.805  36.632  28.247  1.00  0.00    -0.237 OA
ATOM     60  O   UNL A   1      32.422  34.585  28.107  1.00  0.00    -0.237 OA
ATOM     61  O   UNL A   1      32.319  36.004  30.119  1.00  0.00    -0.744 OA
ENDBRANCH  57  58
ENDBRANCH  25  50
BRANCH  37  62
ATOM     62  C   UNL A   1      39.862  34.214  36.942  1.00  0.00     0.058 A 
ATOM     63  C   UNL A   1      40.459  35.477  36.808  1.00  0.00     0.135 A 
ATOM     64  C   UNL A   1      39.078  33.977  38.084  1.00  0.00     0.135 A 
ATOM     65  F   UNL A   1      41.229  35.752  35.743  1.00  0.00    -0.206 F 
ATOM     66  C   UNL A   1      40.289  36.465  37.772  1.00  0.00     0.059 A 
ATOM     67  C   UNL A   1      38.871  34.960  39.046  1.00  0.00     0.059 A 
ATOM     68  F   UNL A   1      38.480  32.788  38.259  1.00  0.00    -0.206 F 
ATOM     69  C   UNL A   1      39.485  36.200  38.884  1.00  0.00     0.060 A 
BRANCH  69  70
ATOM     70  S   UNL A   1      39.219  37.514  40.094  1.00  0.00     0.124 S 
ATOM     71  O   UNL A   1      38.800  36.754  41.266  1.00  0.00    -0.237 OA
ATOM     72  O   UNL A   1      40.538  38.132  40.177  1.00  0.00    -0.237 OA
ATOM     73  O   UNL A   1      38.184  38.340  39.478  1.00  0.00    -0.744 OA
ENDBRANCH  69  70
ENDBRANCH  37  62
ENDBRANCH  11  12
ENDBRANCH   4   6
ENDBRANCH   1   2
BRANCH   1  74
ATOM     74  C   UNL A   1      36.861  24.014  25.546  1.00  0.00     0.023 C 
BRANCH  74  75
ATOM     75  C   UNL A   1      35.994  22.800  25.870  1.00  0.00     0.023 C 
BRANCH  75  76
ATOM     76  C   UNL A   1      34.824  23.078  26.809  1.00  0.00     0.116 C 
BRANCH  76  77
ATOM     77  N   UNL A   1      33.534  22.806  26.191  1.00  0.00    -0.352 N 
ATOM     78  C   UNL A   1      32.645  23.684  25.624  1.00  0.00     0.255 C 
ATOM     79  H   UNL A   1      33.260  21.860  26.179  1.00  0.00     0.163 HD
ATOM     80  O   UNL A   1      31.542  23.303  25.248  1.00  0.00    -0.269 OA
BRANCH  78  81
ATOM     81  C   UNL A   1      33.066  25.058  25.488  1.00  0.00     0.091 A 
ATOM     82  C   UNL A   1      33.170  26.049  26.502  1.00  0.00     0.065 A 
ATOM     83  C   UNL A   1      33.454  25.670  24.309  1.00  0.00     0.221 A 
ATOM     84  C   UNL A   1      33.464  27.231  25.865  1.00  0.00     0.135 A 
ATOM     85  O   UNL A   1      33.656  27.013  24.535  1.00  0.00    -0.451 OA
BRANCH  83  86
ATOM     86  C   UNL A   1      33.624  25.186  22.916  1.00  0.00     0.450 C 
ATOM     87  F   UNL A   1      34.563  24.204  22.837  1.00  0.00    -0.163 F 
ATOM     88  F   UNL A   1      32.473  24.662  22.419  1.00  0.00    -0.163 F 
ATOM     89  F   UNL A   1      34.021  26.155  22.055  1.00  0.00    -0.163 F 
ENDBRANCH  83  86
BRANCH  84  90
ATOM     90  C   UNL A   1      33.564  28.595  26.341  1.00  0.00     0.019 A 
ATOM     91  C   UNL A   1      34.674  28.988  27.102  1.00  0.00     0.012 A 
ATOM     92  C   UNL A   1      32.513  29.498  26.142  1.00  0.00     0.032 A 
ATOM     93  C   UNL A   1      34.733  30.263  27.664  1.00  0.00     0.002 A 
ATOM     94  C   UNL A   1      32.571  30.766  26.720  1.00  0.00     0.041 A 
ATOM     95  C   UNL A   1      33.675  31.152  27.480  1.00  0.00     0.020 A 
ATOM     96  Cl  UNL A   1      31.255  31.857  26.521  1.00  0.00    -0.084 Cl
ENDBRANCH  84  90
ENDBRANCH  78  81
ENDBRANCH  76  77
ENDBRANCH  75  76
ENDBRANCH  74  75
ENDBRANCH   1  74
TORSDOF 16
ENDMDL
MODEL 3
REMARK VINA RESULT:     -11.4      2.567      3.465
REMARK SMILES O=C(NCCCCNC(=O)c1cc(-c2cccc(Cl)c2)oc1C(F)(F)F)c1ccc(-c2c3nc(c(-c4c(F)cc(S(=O)(=O)[O-])cc4F)c4ccc([nH]4)c(-c4c(F)cc(S(=O)(=O)[O-])cc4F)c4nc(c(-c5c(F)cc(S(=O)(=O)[O-])cc5F)c5ccc2[nH]5)C=C4)C=C3)cc1
REMARK SMILES IDX 4 1 3 2 1 3 2 4 27 6 28 7 92 8 29 9 91 10 30 11 31 12 32 13
REMARK SMILES IDX 85 14 33 15 90 16 84 17 86 18 34 19 89 20 83 21 82 22 35 24
REMARK SMILES IDX 69 25 48 26 68 27 49 28 52 29 67 30 87 31 50 32 51 33 66 35
REMARK SMILES IDX 88 36 53 37 36 38 37 39 46 40 38 41 39 42 45 43 47 44 40 45
REMARK SMILES IDX 41 46 42 47 43 48 44 49 70 50 71 51 80 52 72 53 73 54 79 55
REMARK SMILES IDX 81 56 74 57 75 58 76 59 77 60 78 61 54 62 55 63 64 64 56 65
REMARK SMILES IDX 57 66 63 67 65 68 58 69 59 70 60 71 61 72 62 73 5 74 6 75
REMARK SMILES IDX 7 76 8 77 9 78 10 80 11 81 12 82 22 83 13 84 21 85 23 86
REMARK SMILES IDX 24 87 25 88 26 89 14 90 15 91 20 92 16 93 18 94 17 95 19 96
REMARK H PARENT 3 5 86 23 52 34 8 79
REMARK Flexibility Score: inf
ROOT
ATOM      1  C   UNL A   1      35.146  29.367  27.621  1.00  0.00     0.116 C 
ENDROOT
BRANCH   1   2
ATOM      2  N   UNL A   1      35.130  30.211  28.805  1.00  0.00    -0.352 N 
ATOM      3  O   UNL A   1      35.903  31.105  30.723  1.00  0.00    -0.269 OA
ATOM      4  C   UNL A   1      36.143  30.479  29.695  1.00  0.00     0.251 C 
ATOM      5  H   UNL A   1      34.272  30.655  28.995  1.00  0.00     0.163 HD
BRANCH   4   6
ATOM      6  C   UNL A   1      37.509  29.983  29.424  1.00  0.00     0.039 A 
ATOM      7  C   UNL A   1      38.316  29.508  30.461  1.00  0.00     0.014 A 
ATOM      8  C   UNL A   1      37.989  30.008  28.112  1.00  0.00     0.014 A 
ATOM      9  C   UNL A   1      39.650  29.195  30.212  1.00  0.00     0.010 A 
ATOM     10  C   UNL A   1      39.303  29.614  27.852  1.00  0.00     0.010 A 
ATOM     11  C   UNL A   1      40.155  29.237  28.903  1.00  0.00    -0.014 A 
BRANCH  11  12
ATOM     12  C   UNL A   1      41.560  28.845  28.632  1.00  0.00     0.031 A 
ATOM     13  C   UNL A   1      42.665  29.864  28.675  1.00  0.00     0.074 A 
ATOM     14  C   UNL A   1      41.833  27.563  28.321  1.00  0.00     0.049 A 
ATOM     15  N   UNL A   1      43.932  29.720  28.383  1.00  0.00    -0.248 NA
ATOM     16  C   UNL A   1      42.296  31.225  29.090  1.00  0.00     0.031 C 
ATOM     17  C   UNL A   1      40.845  26.485  28.252  1.00  0.00     0.029 A 
ATOM     18  N   UNL A   1      43.016  26.951  27.993  1.00  0.00    -0.354 N 
ATOM     19  C   UNL A   1      44.509  30.973  28.555  1.00  0.00     0.074 A 
ATOM     20  C   UNL A   1      43.445  31.872  28.951  1.00  0.00     0.031 C 
ATOM     21  C   UNL A   1      41.461  25.343  27.915  1.00  0.00     0.029 A 
ATOM     22  C   UNL A   1      42.874  25.621  27.678  1.00  0.00     0.049 A 
ATOM     23  H   UNL A   1      43.882  27.419  27.984  1.00  0.00     0.167 HD
ATOM     24  C   UNL A   1      45.806  31.336  28.398  1.00  0.00     0.037 A 
ATOM     25  C   UNL A   1      43.768  24.728  27.212  1.00  0.00     0.037 A 
ATOM     26  C   UNL A   1      46.853  30.428  28.000  1.00  0.00     0.049 A 
ATOM     27  C   UNL A   1      45.190  25.161  27.002  1.00  0.00     0.074 A 
ATOM     28  C   UNL A   1      48.203  30.689  27.841  1.00  0.00     0.029 A 
ATOM     29  N   UNL A   1      46.667  29.089  27.686  1.00  0.00    -0.354 N 
ATOM     30  N   UNL A   1      45.726  26.343  27.193  1.00  0.00    -0.248 NA
ATOM     31  C   UNL A   1      46.130  24.143  26.515  1.00  0.00     0.031 C 
ATOM     32  C   UNL A   1      48.821  29.524  27.374  1.00  0.00     0.029 A 
ATOM     33  C   UNL A   1      47.872  28.516  27.309  1.00  0.00     0.049 A 
ATOM     34  H   UNL A   1      45.805  28.614  27.725  1.00  0.00     0.167 HD
ATOM     35  C   UNL A   1      47.074  26.205  26.883  1.00  0.00     0.074 A 
ATOM     36  C   UNL A   1      47.270  24.823  26.490  1.00  0.00     0.031 C 
ATOM     37  C   UNL A   1      48.058  27.136  26.931  1.00  0.00     0.037 A 
BRANCH  24  38
ATOM     38  C   UNL A   1      46.156  32.785  28.617  1.00  0.00     0.058 A 
ATOM     39  C   UNL A   1      46.123  33.726  27.574  1.00  0.00     0.135 A 
ATOM     40  C   UNL A   1      46.521  33.243  29.894  1.00  0.00     0.135 A 
ATOM     41  F   UNL A   1      45.791  33.346  26.330  1.00  0.00    -0.206 F 
ATOM     42  C   UNL A   1      46.486  35.054  27.780  1.00  0.00     0.059 A 
ATOM     43  C   UNL A   1      46.855  34.575  30.129  1.00  0.00     0.059 A 
ATOM     44  F   UNL A   1      46.563  32.392  30.932  1.00  0.00    -0.206 F 
ATOM     45  C   UNL A   1      46.858  35.467  29.060  1.00  0.00     0.060 A 
BRANCH  45  46
ATOM     46  S   UNL A   1      47.364  37.183  29.301  1.00  0.00     0.124 S 
ATOM     47  O   UNL A   1      48.776  37.123  28.937  1.00  0.00    -0.237 OA
ATOM     48  O   UNL A   1      46.501  37.898  28.366  1.00  0.00    -0.237 OA
ATOM     49  O   UNL A   1      47.091  37.424  30.714  1.00  0.00    -0.744 OA
ENDBRANCH  45  46
ENDBRANCH  24  38
BRANCH  25  50
ATOM     50  C   UNL A   1      43.322  23.342  26.915  1.00  0.00     0.058 A 
ATOM     51  C   UNL A   1      43.192  22.891  25.595  1.00  0.00     0.135 A 
ATOM     52  C   UNL A   1      43.086  22.421  27.950  1.00  0.00     0.135 A 
ATOM     53  F   UNL A   1      43.403  23.735  24.574  1.00  0.00    -0.206 F 
ATOM     54  C   UNL A   1      42.847  21.575  25.308  1.00  0.00     0.059 A 
ATOM     55  C   UNL A   1      42.768  21.094  27.688  1.00  0.00     0.059 A 
ATOM     56  F   UNL A   1      43.216  22.800  29.231  1.00  0.00    -0.206 F 
ATOM     57  C   UNL A   1      42.648  20.680  26.362  1.00  0.00     0.060 A 
BRANCH  57  58
ATOM     58  S   UNL A   1      42.286  18.955  25.973  1.00  0.00     0.124 S 
ATOM     59  O   UNL A   1      43.086  18.749  24.772  1.00  0.00    -0.237 OA
ATOM     60  O   UNL A   1      42.749  18.269  27.175  1.00  0.00    -0.237 OA
ATOM     61  O   UNL A   1      40.838  18.950  25.778  1.00  0.00    -0.744 OA
ENDBRANCH  57  58
ENDBRANCH  25  50
BRANCH  37  62
ATOM     62  C   UNL A   1      49.458  26.691  26.604  1.00  0.00     0.058 A 
ATOM     63  C   UNL A   1      50.300  26.111  27.565  1.00  0.00     0.135 A 
ATOM     64  C   UNL A   1      49.930  26.775  25.284  1.00  0.00     0.135 A 
ATOM     65  F   UNL A   1      49.903  26.017  28.845  1.00  0.00    -0.206 F 
ATOM     66  C   UNL A   1      51.564  25.636  27.230  1.00  0.00     0.059 A 
ATOM     67  C   UNL A   1      51.178  26.281  24.920  1.00  0.00     0.059 A 
ATOM     68  F   UNL A   1      49.162  27.316  24.325  1.00  0.00    -0.206 F 
ATOM     69  C   UNL A   1      51.991  25.717  25.902  1.00  0.00     0.060 A 
BRANCH  69  70
ATOM     70  S   UNL A   1      53.606  25.038  25.469  1.00  0.00     0.124 S 
ATOM     71  O   UNL A   1      54.401  25.398  26.637  1.00  0.00    -0.237 OA
ATOM     72  O   UNL A   1      53.315  23.616  25.314  1.00  0.00    -0.237 OA
ATOM     73  O   UNL A   1      53.951  25.738  24.235  1.00  0.00    -0.744 OA
ENDBRANCH  69  70
ENDBRANCH  37  62
ENDBRANCH  11  12
ENDBRANCH   4   6
ENDBRANCH   1   2
BRANCH   1  74
ATOM     74  C   UNL A   1      33.854  29.450  26.816  1.00  0.00     0.023 C 
BRANCH  74  75
ATOM     75  C   UNL A   1      32.774  28.451  27.222  1.00  0.00     0.023 C 
BRANCH  75  76
ATOM     76  C   UNL A   1      32.569  27.294  26.248  1.00  0.00     0.116 C 
BRANCH  76  77
ATOM     77  N   UNL A   1      31.493  26.402  26.657  1.00  0.00    -0.352 N 
ATOM     78  C   UNL A   1      31.375  25.048  26.470  1.00  0.00     0.255 C 
ATOM     79  H   UNL A   1      30.746  26.829  27.135  1.00  0.00     0.163 HD
ATOM     80  O   UNL A   1      30.344  24.461  26.777  1.00  0.00    -0.269 OA
BRANCH  78  81
ATOM     81  C   UNL A   1      32.510  24.355  25.905  1.00  0.00     0.091 A 
ATOM     82  C   UNL A   1      33.620  23.788  26.588  1.00  0.00     0.065 A 
ATOM     83  C   UNL A   1      32.720  24.113  24.559  1.00  0.00     0.221 A 
ATOM     84  C   UNL A   1      34.504  23.375  25.621  1.00  0.00     0.135 A 
ATOM     85  O   UNL A   1      33.965  23.552  24.384  1.00  0.00    -0.451 OA
BRANCH  83  86
ATOM     86  C   UNL A   1      31.923  24.389  23.337  1.00  0.00     0.450 C 
ATOM     87  F   UNL A   1      30.590  24.236  23.563  1.00  0.00    -0.163 F 
ATOM     88  F   UNL A   1      32.099  25.661  22.894  1.00  0.00    -0.163 F 
ATOM     89  F   UNL A   1      32.226  23.565  22.303  1.00  0.00    -0.163 F 
ENDBRANCH  83  86
BRANCH  84  90
ATOM     90  C   UNL A   1      35.851  22.847  25.694  1.00  0.00     0.019 A 
ATOM     91  C   UNL A   1      36.914  23.695  26.033  1.00  0.00     0.012 A 
ATOM     92  C   UNL A   1      36.119  21.523  25.325  1.00  0.00     0.032 A 
ATOM     93  C   UNL A   1      38.230  23.232  25.997  1.00  0.00     0.002 A 
ATOM     94  C   UNL A   1      37.437  21.071  25.276  1.00  0.00     0.041 A 
ATOM     95  C   UNL A   1      38.492  21.919  25.610  1.00  0.00     0.020 A 
ATOM     96  Cl  UNL A   1      37.771  19.461  24.770  1.00  0.00    -0.084 Cl
ENDBRANCH  84  90
ENDBRANCH  78  81
ENDBRANCH  76  77
ENDBRANCH  75  76
ENDBRANCH  74  75
ENDBRANCH   1  74
TORSDOF 16
ENDMDL
