MODEL 1
REMARK VINA RESULT:     -13.2      0.000      0.000
REMARK SMILES Cc1cccc(CC(=O)N2CCCC[C@@H]2C(=O)NCCCCNC(=O)c2ccc(-c3c4nc(c(-c5c(F)cc(S(=O)(=O)[O-])cc5F)c5ccc([nH]5)c(-c5c(F)cc(S(=O)(=O)[O-])cc5F)c5nc(c(-c6c(F)cc(S(=O)(=O)[O-])cc6F)c6ccc3[nH]6)C=C5)C=C4)cc2)c1
REMARK SMILES IDX 20 1 19 2 18 3 16 4 17 5 15 7 10 8 11 9 12 10 14 11 13 12
REMARK SMILES IDX 8 13 9 14 7 15 6 16 1 17 2 18 3 19 92 20 4 21 5 22 21 23
REMARK SMILES IDX 22 24 23 25 24 26 25 28 26 29 27 30 91 31 28 32 90 33 29 34
REMARK SMILES IDX 30 35 31 36 84 37 32 38 89 39 83 40 85 41 33 42 88 43 82 44
REMARK SMILES IDX 81 45 34 47 68 48 47 49 67 50 48 51 51 52 66 53 86 54 49 55
REMARK SMILES IDX 50 56 65 58 87 59 52 60 35 61 36 62 45 63 37 64 38 65 44 66
REMARK SMILES IDX 46 67 39 68 40 69 41 70 42 71 43 72 69 73 70 74 79 75 71 76
REMARK SMILES IDX 72 77 78 78 80 79 73 80 74 81 75 82 76 83 77 84 53 85 54 86
REMARK SMILES IDX 63 87 55 88 56 89 62 90 64 91 57 92 58 93 59 94 60 95 61 96
REMARK H PARENT 18 6 23 27 85 46 51 57
REMARK Flexibility Score: inf
ROOT
ATOM      1  C   UNL A   1      35.546  23.599  25.935  1.00  0.00     0.023 C 
ENDROOT
BRANCH   1   2
ATOM      2  C   UNL A   1      34.182  23.700  25.236  1.00  0.00     0.116 C 
BRANCH   2   3
ATOM      3  N   UNL A   1      34.098  24.843  24.340  1.00  0.00    -0.354 N 
ATOM      4  C   UNL A   1      33.683  26.123  24.567  1.00  0.00     0.242 C 
ATOM      5  O   UNL A   1      33.529  26.851  23.578  1.00  0.00    -0.273 OA
ATOM      6  H   UNL A   1      34.391  24.665  23.417  1.00  0.00     0.163 HD
BRANCH   4   7
ATOM      7  C   UNL A   1      33.156  26.593  25.944  1.00  0.00     0.174 C 
ATOM      8  N   UNL A   1      31.725  26.959  26.048  1.00  0.00    -0.330 N 
ATOM      9  C   UNL A   1      31.351  27.883  27.116  1.00  0.00     0.120 C 
ATOM     10  C   UNL A   1      32.233  29.114  27.189  1.00  0.00     0.022 C 
ATOM     11  C   UNL A   1      34.108  27.785  26.251  1.00  0.00     0.035 C 
ATOM     12  C   UNL A   1      33.677  28.695  27.384  1.00  0.00     0.004 C 
BRANCH   8  13
ATOM     13  C   UNL A   1      30.657  26.182  25.592  1.00  0.00     0.227 C 
ATOM     14  O   UNL A   1      30.105  25.383  26.356  1.00  0.00    -0.275 OA
BRANCH  13  15
ATOM     15  C   UNL A   1      30.304  26.157  24.114  1.00  0.00     0.135 C 
BRANCH  15  16
ATOM     16  C   UNL A   1      29.313  27.175  23.627  1.00  0.00    -0.038 A 
ATOM     17  C   UNL A   1      29.436  30.475  21.738  1.00  0.00     0.044 C 
ATOM     18  C   UNL A   1      28.895  29.265  22.439  1.00  0.00    -0.051 A 
ATOM     19  C   UNL A   1      27.538  29.164  22.762  1.00  0.00     0.003 A 
ATOM     20  C   UNL A   1      29.770  28.261  22.866  1.00  0.00     0.007 A 
ATOM     21  C   UNL A   1      27.061  28.058  23.467  1.00  0.00     0.001 A 
ATOM     22  C   UNL A   1      27.942  27.061  23.889  1.00  0.00     0.004 A 
ENDBRANCH  15  16
ENDBRANCH  13  15
ENDBRANCH   8  13
ENDBRANCH   4   7
ENDBRANCH   2   3
ENDBRANCH   1   2
BRANCH   1  23
ATOM     23  C   UNL A   1      36.779  23.852  25.062  1.00  0.00     0.023 C 
BRANCH  23  24
ATOM     24  C   UNL A   1      38.034  23.137  25.521  1.00  0.00     0.116 C 
BRANCH  24  25
ATOM     25  N   UNL A   1      38.311  23.200  26.946  1.00  0.00    -0.352 N 
ATOM     26  C   UNL A   1      39.572  23.666  27.325  1.00  0.00     0.251 C 
ATOM     27  H   UNL A   1      37.640  22.929  27.613  1.00  0.00     0.163 HD
ATOM     28  O   UNL A   1      40.605  23.029  27.256  1.00  0.00    -0.269 OA
BRANCH  26  29
ATOM     29  C   UNL A   1      39.586  25.138  27.481  1.00  0.00     0.039 A 
ATOM     30  C   UNL A   1      40.161  26.006  26.556  1.00  0.00     0.014 A 
ATOM     31  C   UNL A   1      39.126  25.599  28.715  1.00  0.00     0.014 A 
ATOM     32  C   UNL A   1      40.369  27.343  26.924  1.00  0.00     0.010 A 
ATOM     33  C   UNL A   1      39.416  26.880  29.108  1.00  0.00     0.010 A 
ATOM     34  C   UNL A   1      40.047  27.756  28.219  1.00  0.00    -0.014 A 
BRANCH  34  35
ATOM     35  C   UNL A   1      40.299  29.070  28.800  1.00  0.00     0.031 A 
ATOM     36  C   UNL A   1      39.222  30.090  28.799  1.00  0.00     0.074 A 
ATOM     37  C   UNL A   1      41.365  29.209  29.617  1.00  0.00     0.049 A 
ATOM     38  N   UNL A   1      39.351  31.301  29.222  1.00  0.00    -0.248 NA
ATOM     39  C   UNL A   1      37.887  29.814  28.281  1.00  0.00     0.031 C 
ATOM     40  C   UNL A   1      41.519  30.161  30.712  1.00  0.00     0.029 A 
ATOM     41  N   UNL A   1      42.624  28.620  29.487  1.00  0.00    -0.354 N 
ATOM     42  C   UNL A   1      38.097  31.873  29.291  1.00  0.00     0.074 A 
ATOM     43  C   UNL A   1      37.231  30.923  28.636  1.00  0.00     0.031 C 
ATOM     44  C   UNL A   1      42.823  30.292  30.995  1.00  0.00     0.029 A 
ATOM     45  C   UNL A   1      43.553  29.568  29.969  1.00  0.00     0.049 A 
ATOM     46  H   UNL A   1      42.825  27.726  29.129  1.00  0.00     0.167 HD
ATOM     47  C   UNL A   1      37.936  33.032  29.999  1.00  0.00     0.037 A 
ATOM     48  C   UNL A   1      44.472  30.140  29.133  1.00  0.00     0.037 A 
ATOM     49  C   UNL A   1      39.231  33.531  30.464  1.00  0.00     0.049 A 
ATOM     50  C   UNL A   1      44.359  31.643  29.024  1.00  0.00     0.074 A 
ATOM     51  C   UNL A   1      39.901  33.431  31.672  1.00  0.00     0.029 A 
ATOM     52  N   UNL A   1      40.154  33.999  29.537  1.00  0.00    -0.354 N 
ATOM     53  N   UNL A   1      43.298  32.324  29.356  1.00  0.00    -0.248 NA
ATOM     54  C   UNL A   1      45.436  32.499  28.535  1.00  0.00     0.031 C 
ATOM     55  C   UNL A   1      41.256  33.787  31.453  1.00  0.00     0.029 A 
ATOM     56  C   UNL A   1      41.402  34.122  30.117  1.00  0.00     0.049 A 
ATOM     57  H   UNL A   1      39.948  34.213  28.598  1.00  0.00     0.167 HD
ATOM     58  C   UNL A   1      43.509  33.659  29.118  1.00  0.00     0.074 A 
ATOM     59  C   UNL A   1      44.876  33.718  28.631  1.00  0.00     0.031 C 
ATOM     60  C   UNL A   1      42.536  34.595  29.337  1.00  0.00     0.037 A 
BRANCH  47  61
ATOM     61  C   UNL A   1      36.614  33.606  30.490  1.00  0.00     0.058 A 
ATOM     62  C   UNL A   1      35.644  34.070  29.567  1.00  0.00     0.135 A 
ATOM     63  C   UNL A   1      36.245  33.778  31.839  1.00  0.00     0.135 A 
ATOM     64  F   UNL A   1      35.795  33.900  28.246  1.00  0.00    -0.206 F 
ATOM     65  C   UNL A   1      34.475  34.735  29.946  1.00  0.00     0.059 A 
ATOM     66  C   UNL A   1      35.104  34.483  32.244  1.00  0.00     0.059 A 
ATOM     67  F   UNL A   1      36.938  33.221  32.836  1.00  0.00    -0.206 F 
ATOM     68  C   UNL A   1      34.228  34.971  31.289  1.00  0.00     0.060 A 
BRANCH  68  69
ATOM     69  S   UNL A   1      32.753  35.891  31.765  1.00  0.00     0.124 S 
ATOM     70  O   UNL A   1      32.185  36.251  30.469  1.00  0.00    -0.237 OA
ATOM     71  O   UNL A   1      32.007  34.902  32.534  1.00  0.00    -0.237 OA
ATOM     72  O   UNL A   1      33.285  37.011  32.539  1.00  0.00    -0.744 OA
ENDBRANCH  68  69
ENDBRANCH  47  61
BRANCH  48  73
ATOM     73  C   UNL A   1      44.910  29.214  28.050  1.00  0.00     0.058 A 
ATOM     74  C   UNL A   1      45.857  28.231  28.398  1.00  0.00     0.135 A 
ATOM     75  C   UNL A   1      44.076  28.953  26.952  1.00  0.00     0.135 A 
ATOM     76  F   UNL A   1      46.701  28.446  29.421  1.00  0.00    -0.206 F 
ATOM     77  C   UNL A   1      45.831  26.961  27.831  1.00  0.00     0.059 A 
ATOM     78  C   UNL A   1      44.046  27.690  26.356  1.00  0.00     0.059 A 
ATOM     79  F   UNL A   1      43.169  29.860  26.562  1.00  0.00    -0.206 F 
ATOM     80  C   UNL A   1      44.859  26.680  26.872  1.00  0.00     0.060 A 
BRANCH  80  81
ATOM     81  S   UNL A   1      44.551  24.942  26.467  1.00  0.00     0.124 S 
ATOM     82  O   UNL A   1      45.759  24.290  26.962  1.00  0.00    -0.237 OA
ATOM     83  O   UNL A   1      43.329  24.669  27.223  1.00  0.00    -0.237 OA
ATOM     84  O   UNL A   1      44.394  24.955  25.016  1.00  0.00    -0.744 OA
ENDBRANCH  80  81
ENDBRANCH  48  73
BRANCH  60  85
ATOM     85  C   UNL A   1      42.569  36.050  28.918  1.00  0.00     0.058 A 
ATOM     86  C   UNL A   1      43.284  37.053  29.593  1.00  0.00     0.135 A 
ATOM     87  C   UNL A   1      41.972  36.456  27.696  1.00  0.00     0.135 A 
ATOM     88  F   UNL A   1      43.993  36.785  30.699  1.00  0.00    -0.206 F 
ATOM     89  C   UNL A   1      43.351  38.371  29.131  1.00  0.00     0.059 A 
ATOM     90  C   UNL A   1      42.075  37.748  27.187  1.00  0.00     0.059 A 
ATOM     91  F   UNL A   1      41.275  35.596  26.937  1.00  0.00    -0.206 F 
ATOM     92  C   UNL A   1      42.745  38.710  27.926  1.00  0.00     0.060 A 
BRANCH  92  93
ATOM     93  S   UNL A   1      42.887  40.388  27.284  1.00  0.00     0.124 S 
ATOM     94  O   UNL A   1      43.949  40.233  26.295  1.00  0.00    -0.237 OA
ATOM     95  O   UNL A   1      41.555  40.643  26.741  1.00  0.00    -0.237 OA
ATOM     96  O   UNL A   1      43.231  41.169  28.468  1.00  0.00    -0.744 OA
ENDBRANCH  92  93
ENDBRANCH  60  85
ENDBRANCH  34  35
ENDBRANCH  26  29
ENDBRANCH  24  25
ENDBRANCH  23  24
ENDBRANCH   1  23
TORSDOF 17
ENDMDL
MODEL 2
REMARK VINA RESULT:     -13.2      2.232      4.174
REMARK SMILES Cc1cccc(CC(=O)N2CCCC[C@@H]2C(=O)NCCCCNC(=O)c2ccc(-c3c4nc(c(-c5c(F)cc(S(=O)(=O)[O-])cc5F)c5ccc([nH]5)c(-c5c(F)cc(S(=O)(=O)[O-])cc5F)c5nc(c(-c6c(F)cc(S(=O)(=O)[O-])cc6F)c6ccc3[nH]6)C=C5)C=C4)cc2)c1
REMARK SMILES IDX 20 1 19 2 18 3 16 4 17 5 15 7 10 8 11 9 12 10 14 11 13 12
REMARK SMILES IDX 8 13 9 14 7 15 6 16 1 17 2 18 3 19 92 20 4 21 5 22 21 23
REMARK SMILES IDX 22 24 23 25 24 26 25 28 26 29 27 30 91 31 28 32 90 33 29 34
REMARK SMILES IDX 30 35 31 36 84 37 32 38 89 39 83 40 85 41 33 42 88 43 82 44
REMARK SMILES IDX 81 45 34 47 68 48 47 49 67 50 48 51 51 52 66 53 86 54 49 55
REMARK SMILES IDX 50 56 65 58 87 59 52 60 35 61 36 62 45 63 37 64 38 65 44 66
REMARK SMILES IDX 46 67 39 68 40 69 41 70 42 71 43 72 69 73 70 74 79 75 71 76
REMARK SMILES IDX 72 77 78 78 80 79 73 80 74 81 75 82 76 83 77 84 53 85 54 86
REMARK SMILES IDX 63 87 55 88 56 89 62 90 64 91 57 92 58 93 59 94 60 95 61 96
REMARK H PARENT 18 6 23 27 85 46 51 57
REMARK Flexibility Score: inf
ROOT
ATOM      1  C   UNL A   1      38.901  21.064  25.375  1.00  0.00     0.023 C 
ENDROOT
BRANCH   1   2
ATOM      2  C   UNL A   1      37.379  21.270  25.349  1.00  0.00     0.116 C 
BRANCH   2   3
ATOM      3  N   UNL A   1      36.928  21.944  24.141  1.00  0.00    -0.354 N 
ATOM      4  C   UNL A   1      35.820  22.705  23.908  1.00  0.00     0.242 C 
ATOM      5  O   UNL A   1      35.576  23.002  22.731  1.00  0.00    -0.273 OA
ATOM      6  H   UNL A   1      37.521  21.834  23.363  1.00  0.00     0.163 HD
BRANCH   4   7
ATOM      7  C   UNL A   1      34.750  22.970  24.994  1.00  0.00     0.174 C 
ATOM      8  N   UNL A   1      33.352  22.587  24.693  1.00  0.00    -0.330 N 
ATOM      9  C   UNL A   1      32.299  23.294  25.419  1.00  0.00     0.120 C 
ATOM     10  C   UNL A   1      32.463  24.800  25.413  1.00  0.00     0.022 C 
ATOM     11  C   UNL A   1      34.921  24.498  25.233  1.00  0.00     0.035 C 
ATOM     12  C   UNL A   1      33.807  25.169  26.012  1.00  0.00     0.004 C 
BRANCH   8  13
ATOM     13  C   UNL A   1      32.942  21.348  24.195  1.00  0.00     0.227 C 
ATOM     14  O   UNL A   1      32.749  21.204  22.982  1.00  0.00    -0.275 OA
BRANCH  13  15
ATOM     15  C   UNL A   1      32.528  20.238  25.147  1.00  0.00     0.135 C 
BRANCH  15  16
ATOM     16  C   UNL A   1      33.230  18.918  25.008  1.00  0.00    -0.038 A 
ATOM     17  C   UNL A   1      32.379  15.257  25.601  1.00  0.00     0.044 C 
ATOM     18  C   UNL A   1      33.138  16.487  25.202  1.00  0.00    -0.051 A 
ATOM     19  C   UNL A   1      34.492  16.420  24.861  1.00  0.00     0.003 A 
ATOM     20  C   UNL A   1      32.515  17.738  25.262  1.00  0.00     0.007 A 
ATOM     21  C   UNL A   1      35.199  17.582  24.548  1.00  0.00     0.001 A 
ATOM     22  C   UNL A   1      34.569  18.827  24.610  1.00  0.00     0.004 A 
ENDBRANCH  15  16
ENDBRANCH  13  15
ENDBRANCH   8  13
ENDBRANCH   4   7
ENDBRANCH   2   3
ENDBRANCH   1   2
BRANCH   1  23
ATOM     23  C   UNL A   1      39.592  21.268  26.727  1.00  0.00     0.023 C 
BRANCH  23  24
ATOM     24  C   UNL A   1      40.444  22.519  26.817  1.00  0.00     0.116 C 
BRANCH  24  25
ATOM     25  N   UNL A   1      39.992  23.649  26.025  1.00  0.00    -0.352 N 
ATOM     26  C   UNL A   1      38.944  24.409  26.549  1.00  0.00     0.251 C 
ATOM     27  H   UNL A   1      40.406  23.871  25.160  1.00  0.00     0.163 HD
ATOM     28  O   UNL A   1      37.774  24.077  26.559  1.00  0.00    -0.269 OA
BRANCH  26  29
ATOM     29  C   UNL A   1      39.441  25.498  27.419  1.00  0.00     0.039 A 
ATOM     30  C   UNL A   1      39.104  25.625  28.765  1.00  0.00     0.014 A 
ATOM     31  C   UNL A   1      40.146  26.501  26.753  1.00  0.00     0.014 A 
ATOM     32  C   UNL A   1      39.396  26.829  29.423  1.00  0.00     0.010 A 
ATOM     33  C   UNL A   1      40.344  27.710  27.369  1.00  0.00     0.010 A 
ATOM     34  C   UNL A   1      39.961  27.884  28.703  1.00  0.00    -0.014 A 
BRANCH  34  35
ATOM     35  C   UNL A   1      40.224  29.231  29.197  1.00  0.00     0.031 A 
ATOM     36  C   UNL A   1      39.141  30.244  29.179  1.00  0.00     0.074 A 
ATOM     37  C   UNL A   1      41.320  29.423  29.963  1.00  0.00     0.049 A 
ATOM     38  N   UNL A   1      39.277  31.478  29.527  1.00  0.00    -0.248 NA
ATOM     39  C   UNL A   1      37.789  29.931  28.730  1.00  0.00     0.031 C 
ATOM     40  C   UNL A   1      41.509  30.437  30.995  1.00  0.00     0.029 A 
ATOM     41  N   UNL A   1      42.578  28.834  29.819  1.00  0.00    -0.354 N 
ATOM     42  C   UNL A   1      38.022  32.046  29.611  1.00  0.00     0.074 A 
ATOM     43  C   UNL A   1      37.139  31.055  29.046  1.00  0.00     0.031 C 
ATOM     44  C   UNL A   1      42.822  30.591  31.219  1.00  0.00     0.029 A 
ATOM     45  C   UNL A   1      43.517  29.813  30.209  1.00  0.00     0.049 A 
ATOM     46  H   UNL A   1      42.771  27.921  29.506  1.00  0.00     0.167 HD
ATOM     47  C   UNL A   1      37.880  33.243  30.257  1.00  0.00     0.037 A 
ATOM     48  C   UNL A   1      44.399  30.340  29.307  1.00  0.00     0.037 A 
ATOM     49  C   UNL A   1      39.187  33.774  30.642  1.00  0.00     0.049 A 
ATOM     50  C   UNL A   1      44.271  31.834  29.116  1.00  0.00     0.074 A 
ATOM     51  C   UNL A   1      39.904  33.749  31.828  1.00  0.00     0.029 A 
ATOM     52  N   UNL A   1      40.071  34.193  29.655  1.00  0.00    -0.354 N 
ATOM     53  N   UNL A   1      43.219  32.528  29.449  1.00  0.00    -0.248 NA
ATOM     54  C   UNL A   1      45.322  32.666  28.538  1.00  0.00     0.031 C 
ATOM     55  C   UNL A   1      41.247  34.098  31.536  1.00  0.00     0.029 A 
ATOM     56  C   UNL A   1      41.339  34.357  30.178  1.00  0.00     0.049 A 
ATOM     57  H   UNL A   1      39.827  34.352  28.714  1.00  0.00     0.167 HD
ATOM     58  C   UNL A   1      43.410  33.848  29.127  1.00  0.00     0.074 A 
ATOM     59  C   UNL A   1      44.757  33.886  28.585  1.00  0.00     0.031 C 
ATOM     60  C   UNL A   1      42.439  34.789  29.329  1.00  0.00     0.037 A 
BRANCH  47  61
ATOM     61  C   UNL A   1      36.573  33.837  30.765  1.00  0.00     0.058 A 
ATOM     62  C   UNL A   1      35.553  34.214  29.856  1.00  0.00     0.135 A 
ATOM     63  C   UNL A   1      36.265  34.112  32.112  1.00  0.00     0.135 A 
ATOM     64  F   UNL A   1      35.644  33.941  28.547  1.00  0.00    -0.206 F 
ATOM     65  C   UNL A   1      34.392  34.892  30.238  1.00  0.00     0.059 A 
ATOM     66  C   UNL A   1      35.134  34.832  32.516  1.00  0.00     0.059 A 
ATOM     67  F   UNL A   1      37.015  33.645  33.116  1.00  0.00    -0.206 F 
ATOM     68  C   UNL A   1      34.205  35.231  31.569  1.00  0.00     0.060 A 
BRANCH  68  69
ATOM     69  S   UNL A   1      32.740  36.168  32.042  1.00  0.00     0.124 S 
ATOM     70  O   UNL A   1      33.261  37.046  33.085  1.00  0.00    -0.237 OA
ATOM     71  O   UNL A   1      32.371  36.817  30.789  1.00  0.00    -0.237 OA
ATOM     72  O   UNL A   1      31.813  35.139  32.508  1.00  0.00    -0.744 OA
ENDBRANCH  68  69
ENDBRANCH  47  61
BRANCH  48  73
ATOM     73  C   UNL A   1      44.803  29.356  28.263  1.00  0.00     0.058 A 
ATOM     74  C   UNL A   1      45.568  28.253  28.690  1.00  0.00     0.135 A 
ATOM     75  C   UNL A   1      44.045  29.206  27.091  1.00  0.00     0.135 A 
ATOM     76  F   UNL A   1      46.336  28.356  29.788  1.00  0.00    -0.206 F 
ATOM     77  C   UNL A   1      45.418  26.996  28.115  1.00  0.00     0.059 A 
ATOM     78  C   UNL A   1      43.895  27.956  26.486  1.00  0.00     0.059 A 
ATOM     79  F   UNL A   1      43.312  30.228  26.625  1.00  0.00    -0.206 F 
ATOM     80  C   UNL A   1      44.509  26.846  27.068  1.00  0.00     0.060 A 
BRANCH  80  81
ATOM     81  S   UNL A   1      44.002  25.166  26.625  1.00  0.00     0.124 S 
ATOM     82  O   UNL A   1      43.217  25.388  25.416  1.00  0.00    -0.237 OA
ATOM     83  O   UNL A   1      45.291  24.503  26.429  1.00  0.00    -0.237 OA
ATOM     84  O   UNL A   1      43.246  24.722  27.792  1.00  0.00    -0.744 OA
ENDBRANCH  80  81
ENDBRANCH  48  73
BRANCH  60  85
ATOM     85  C   UNL A   1      42.444  36.219  28.827  1.00  0.00     0.058 A 
ATOM     86  C   UNL A   1      43.146  37.271  29.438  1.00  0.00     0.135 A 
ATOM     87  C   UNL A   1      41.835  36.542  27.586  1.00  0.00     0.135 A 
ATOM     88  F   UNL A   1      43.865  37.080  30.553  1.00  0.00    -0.206 F 
ATOM     89  C   UNL A   1      43.188  38.561  28.900  1.00  0.00     0.059 A 
ATOM     90  C   UNL A   1      41.913  37.804  27.003  1.00  0.00     0.059 A 
ATOM     91  F   UNL A   1      41.149  35.629  26.883  1.00  0.00    -0.206 F 
ATOM     92  C   UNL A   1      42.570  38.819  27.680  1.00  0.00     0.060 A 
BRANCH  92  93
ATOM     93  S   UNL A   1      42.680  40.459  26.942  1.00  0.00     0.124 S 
ATOM     94  O   UNL A   1      41.280  40.736  26.636  1.00  0.00    -0.237 OA
ATOM     95  O   UNL A   1      43.259  41.261  28.016  1.00  0.00    -0.237 OA
ATOM     96  O   UNL A   1      43.551  40.248  25.791  1.00  0.00    -0.744 OA
ENDBRANCH  92  93
ENDBRANCH  60  85
ENDBRANCH  34  35
ENDBRANCH  26  29
ENDBRANCH  24  25
ENDBRANCH  23  24
ENDBRANCH   1  23
TORSDOF 17
ENDMDL
MODEL 3
REMARK VINA RESULT:     -13.1      4.697     11.282
REMARK SMILES Cc1cccc(CC(=O)N2CCCC[C@@H]2C(=O)NCCCCNC(=O)c2ccc(-c3c4nc(c(-c5c(F)cc(S(=O)(=O)[O-])cc5F)c5ccc([nH]5)c(-c5c(F)cc(S(=O)(=O)[O-])cc5F)c5nc(c(-c6c(F)cc(S(=O)(=O)[O-])cc6F)c6ccc3[nH]6)C=C5)C=C4)cc2)c1
REMARK SMILES IDX 20 1 19 2 18 3 16 4 17 5 15 7 10 8 11 9 12 10 14 11 13 12
REMARK SMILES IDX 8 13 9 14 7 15 6 16 1 17 2 18 3 19 92 20 4 21 5 22 21 23
REMARK SMILES IDX 22 24 23 25 24 26 25 28 26 29 27 30 91 31 28 32 90 33 29 34
REMARK SMILES IDX 30 35 31 36 84 37 32 38 89 39 83 40 85 41 33 42 88 43 82 44
REMARK SMILES IDX 81 45 34 47 68 48 47 49 67 50 48 51 51 52 66 53 86 54 49 55
REMARK SMILES IDX 50 56 65 58 87 59 52 60 35 61 36 62 45 63 37 64 38 65 44 66
REMARK SMILES IDX 46 67 39 68 40 69 41 70 42 71 43 72 69 73 70 74 79 75 71 76
REMARK SMILES IDX 72 77 78 78 80 79 73 80 74 81 75 82 76 83 77 84 53 85 54 86
REMARK SMILES IDX 63 87 55 88 56 89 62 90 64 91 57 92 58 93 59 94 60 95 61 96
REMARK H PARENT 18 6 23 27 85 46 51 57
REMARK Flexibility Score: inf
ROOT
ATOM      1  C   UNL A   1      32.769  27.602  26.638  1.00  0.00     0.023 C 
ENDROOT
BRANCH   1   2
ATOM      2  C   UNL A   1      33.294  26.497  25.709  1.00  0.00     0.116 C 
BRANCH   2   3
ATOM      3  N   UNL A   1      32.637  25.219  25.936  1.00  0.00    -0.354 N 
ATOM      4  C   UNL A   1      31.670  24.576  25.220  1.00  0.00     0.242 C 
ATOM      5  O   UNL A   1      31.146  23.583  25.742  1.00  0.00    -0.273 OA
ATOM      6  H   UNL A   1      32.941  24.738  26.739  1.00  0.00     0.163 HD
BRANCH   4   7
ATOM      7  C   UNL A   1      31.040  25.182  23.943  1.00  0.00     0.174 C 
ATOM      8  N   UNL A   1      31.956  25.694  22.897  1.00  0.00    -0.330 N 
ATOM      9  C   UNL A   1      31.430  26.716  21.996  1.00  0.00     0.120 C 
ATOM     10  C   UNL A   1      30.732  27.855  22.712  1.00  0.00     0.022 C 
ATOM     11  C   UNL A   1      30.128  26.290  24.542  1.00  0.00     0.035 C 
ATOM     12  C   UNL A   1      29.595  27.308  23.553  1.00  0.00     0.004 C 
BRANCH   8  13
ATOM     13  C   UNL A   1      33.047  25.000  22.367  1.00  0.00     0.227 C 
ATOM     14  O   UNL A   1      34.099  25.600  22.121  1.00  0.00    -0.275 OA
BRANCH  13  15
ATOM     15  C   UNL A   1      32.885  23.564  21.895  1.00  0.00     0.135 C 
BRANCH  15  16
ATOM     16  C   UNL A   1      33.151  22.478  22.898  1.00  0.00    -0.038 A 
ATOM     17  C   UNL A   1      35.932  21.587  25.337  1.00  0.00     0.044 C 
ATOM     18  C   UNL A   1      34.628  21.538  24.598  1.00  0.00    -0.051 A 
ATOM     19  C   UNL A   1      33.766  20.445  24.725  1.00  0.00     0.003 A 
ATOM     20  C   UNL A   1      34.306  22.553  23.691  1.00  0.00     0.007 A 
ATOM     21  C   UNL A   1      32.584  20.388  23.986  1.00  0.00     0.001 A 
ATOM     22  C   UNL A   1      32.270  21.405  23.083  1.00  0.00     0.004 A 
ENDBRANCH  15  16
ENDBRANCH  13  15
ENDBRANCH   8  13
ENDBRANCH   4   7
ENDBRANCH   2   3
ENDBRANCH   1   2
BRANCH   1  23
ATOM     23  C   UNL A   1      33.194  29.035  26.300  1.00  0.00     0.023 C 
BRANCH  23  24
ATOM     24  C   UNL A   1      34.038  29.709  27.363  1.00  0.00     0.116 C 
BRANCH  24  25
ATOM     25  N   UNL A   1      35.267  30.326  26.895  1.00  0.00    -0.352 N 
ATOM     26  C   UNL A   1      36.144  30.806  27.870  1.00  0.00     0.251 C 
ATOM     27  H   UNL A   1      35.473  30.401  25.936  1.00  0.00     0.163 HD
ATOM     28  O   UNL A   1      35.992  31.830  28.508  1.00  0.00    -0.269 OA
BRANCH  26  29
ATOM     29  C   UNL A   1      37.095  29.761  28.311  1.00  0.00     0.039 A 
ATOM     30  C   UNL A   1      37.030  29.132  29.552  1.00  0.00     0.014 A 
ATOM     31  C   UNL A   1      38.180  29.561  27.456  1.00  0.00     0.014 A 
ATOM     32  C   UNL A   1      38.125  28.369  29.981  1.00  0.00     0.010 A 
ATOM     33  C   UNL A   1      39.288  28.895  27.915  1.00  0.00     0.010 A 
ATOM     34  C   UNL A   1      39.270  28.304  29.183  1.00  0.00    -0.014 A 
BRANCH  34  35
ATOM     35  C   UNL A   1      40.530  27.654  29.523  1.00  0.00     0.031 A 
ATOM     36  C   UNL A   1      40.809  26.286  29.020  1.00  0.00     0.074 A 
ATOM     37  C   UNL A   1      41.538  28.425  29.986  1.00  0.00     0.049 A 
ATOM     38  N   UNL A   1      41.856  25.591  29.310  1.00  0.00    -0.248 NA
ATOM     39  C   UNL A   1      39.885  25.575  28.145  1.00  0.00     0.031 C 
ATOM     40  C   UNL A   1      42.970  28.175  29.861  1.00  0.00     0.029 A 
ATOM     41  N   UNL A   1      41.449  29.522  30.845  1.00  0.00    -0.354 N 
ATOM     42  C   UNL A   1      41.889  24.489  28.481  1.00  0.00     0.074 A 
ATOM     43  C   UNL A   1      40.607  24.498  27.818  1.00  0.00     0.031 C 
ATOM     44  C   UNL A   1      43.620  28.897  30.785  1.00  0.00     0.029 A 
ATOM     45  C   UNL A   1      42.611  29.489  31.645  1.00  0.00     0.049 A 
ATOM     46  H   UNL A   1      40.722  30.183  30.887  1.00  0.00     0.167 HD
ATOM     47  C   UNL A   1      43.048  23.772  28.378  1.00  0.00     0.037 A 
ATOM     48  C   UNL A   1      42.531  29.273  32.993  1.00  0.00     0.037 A 
ATOM     49  C   UNL A   1      44.044  24.275  29.324  1.00  0.00     0.049 A 
ATOM     50  C   UNL A   1      43.260  28.037  33.468  1.00  0.00     0.074 A 
ATOM     51  C   UNL A   1      45.116  25.144  29.193  1.00  0.00     0.029 A 
ATOM     52  N   UNL A   1      43.836  24.108  30.688  1.00  0.00    -0.354 N 
ATOM     53  N   UNL A   1      43.612  27.051  32.691  1.00  0.00    -0.248 NA
ATOM     54  C   UNL A   1      43.653  27.816  34.856  1.00  0.00     0.031 C 
ATOM     55  C   UNL A   1      45.514  25.549  30.492  1.00  0.00     0.029 A 
ATOM     56  C   UNL A   1      44.699  24.909  31.411  1.00  0.00     0.049 A 
ATOM     57  H   UNL A   1      43.167  23.503  31.084  1.00  0.00     0.167 HD
ATOM     58  C   UNL A   1      44.234  26.076  33.430  1.00  0.00     0.074 A 
ATOM     59  C   UNL A   1      44.260  26.618  34.776  1.00  0.00     0.031 C 
ATOM     60  C   UNL A   1      44.665  24.907  32.866  1.00  0.00     0.037 A 
BRANCH  47  61
ATOM     61  C   UNL A   1      43.393  22.778  27.277  1.00  0.00     0.058 A 
ATOM     62  C   UNL A   1      42.719  21.534  27.195  1.00  0.00     0.135 A 
ATOM     63  C   UNL A   1      44.397  22.948  26.303  1.00  0.00     0.135 A 
ATOM     64  F   UNL A   1      41.677  21.247  27.987  1.00  0.00    -0.206 F 
ATOM     65  C   UNL A   1      43.079  20.520  26.302  1.00  0.00     0.059 A 
ATOM     66  C   UNL A   1      44.808  21.932  25.431  1.00  0.00     0.059 A 
ATOM     67  F   UNL A   1      44.992  24.128  26.104  1.00  0.00    -0.206 F 
ATOM     68  C   UNL A   1      44.152  20.713  25.446  1.00  0.00     0.060 A 
BRANCH  68  69
ATOM     69  S   UNL A   1      44.654  19.374  24.348  1.00  0.00     0.124 S 
ATOM     70  O   UNL A   1      43.671  18.340  24.657  1.00  0.00    -0.237 OA
ATOM     71  O   UNL A   1      44.534  19.993  23.033  1.00  0.00    -0.237 OA
ATOM     72  O   UNL A   1      46.019  19.077  24.775  1.00  0.00    -0.744 OA
ENDBRANCH  68  69
ENDBRANCH  47  61
BRANCH  48  73
ATOM     73  C   UNL A   1      41.285  29.836  33.587  1.00  0.00     0.058 A 
ATOM     74  C   UNL A   1      41.298  31.206  33.913  1.00  0.00     0.135 A 
ATOM     75  C   UNL A   1      40.040  29.241  33.331  1.00  0.00     0.135 A 
ATOM     76  F   UNL A   1      42.461  31.815  34.199  1.00  0.00    -0.206 F 
ATOM     77  C   UNL A   1      40.164  31.999  33.775  1.00  0.00     0.059 A 
ATOM     78  C   UNL A   1      38.884  30.017  33.205  1.00  0.00     0.059 A 
ATOM     79  F   UNL A   1      39.962  27.936  33.035  1.00  0.00    -0.206 F 
ATOM     80  C   UNL A   1      38.984  31.403  33.334  1.00  0.00     0.060 A 
BRANCH  80  81
ATOM     81  S   UNL A   1      37.659  32.487  32.745  1.00  0.00     0.124 S 
ATOM     82  O   UNL A   1      37.109  31.726  31.628  1.00  0.00    -0.237 OA
ATOM     83  O   UNL A   1      36.802  32.585  33.926  1.00  0.00    -0.237 OA
ATOM     84  O   UNL A   1      38.362  33.714  32.384  1.00  0.00    -0.744 OA
ENDBRANCH  80  81
ENDBRANCH  48  73
BRANCH  60  85
ATOM     85  C   UNL A   1      45.165  23.678  33.599  1.00  0.00     0.058 A 
ATOM     86  C   UNL A   1      46.508  23.453  33.943  1.00  0.00     0.135 A 
ATOM     87  C   UNL A   1      44.244  22.731  34.117  1.00  0.00     0.135 A 
ATOM     88  F   UNL A   1      47.471  24.328  33.620  1.00  0.00    -0.206 F 
ATOM     89  C   UNL A   1      46.918  22.343  34.687  1.00  0.00     0.059 A 
ATOM     90  C   UNL A   1      44.623  21.650  34.909  1.00  0.00     0.059 A 
ATOM     91  F   UNL A   1      42.927  22.834  33.883  1.00  0.00    -0.206 F 
ATOM     92  C   UNL A   1      45.969  21.446  35.168  1.00  0.00     0.060 A 
BRANCH  92  93
ATOM     93  S   UNL A   1      46.479  20.053  36.190  1.00  0.00     0.124 S 
ATOM     94  O   UNL A   1      45.756  20.319  37.429  1.00  0.00    -0.237 OA
ATOM     95  O   UNL A   1      46.011  18.899  35.425  1.00  0.00    -0.237 OA
ATOM     96  O   UNL A   1      47.929  20.202  36.257  1.00  0.00    -0.744 OA
ENDBRANCH  92  93
ENDBRANCH  60  85
ENDBRANCH  34  35
ENDBRANCH  26  29
ENDBRANCH  24  25
ENDBRANCH  23  24
ENDBRANCH   1  23
TORSDOF 17
ENDMDL
