MODEL 1
REMARK VINA RESULT:     -13.9      0.000      0.000
REMARK SMILES O=C(NCCCCNC(=O)[C@H]1[C@H]2CC[C@H](C2)[C@@H]1C(=O)N[C@H]1CCCc2ccccc21)c1ccc(-c2c3nc(c(-c4c(F)cc(S(=O)(=O)[O-])cc4F)c4ccc([nH]4)c(-c4c(F)cc(S(=O)(=O)[O-])cc4F)c4nc(c(-c5c(F)cc(S(=O)(=O)[O-])cc5F)c5ccc2[nH]5)C=C4)C=C3)cc1
REMARK SMILES IDX 5 1 4 2 3 3 1 4 2 5 31 7 32 8 96 9 33 10 95 11 34 12 35 13
REMARK SMILES IDX 36 14 89 15 37 16 94 17 88 18 90 19 38 20 93 21 87 22 86 23
REMARK SMILES IDX 39 25 73 26 52 27 72 28 53 29 56 30 71 31 91 32 54 33 55 34
REMARK SMILES IDX 70 36 92 37 57 38 40 39 41 40 50 41 42 42 43 43 49 44 51 45
REMARK SMILES IDX 44 46 45 47 46 48 47 49 48 50 74 51 75 52 84 53 76 54 77 55
REMARK SMILES IDX 83 56 85 57 78 58 79 59 80 60 81 61 82 62 58 63 59 64 68 65
REMARK SMILES IDX 60 66 61 67 67 68 69 69 62 70 63 71 64 72 65 73 66 74 6 75
REMARK SMILES IDX 7 76 8 77 9 78 10 80 11 81 12 82 17 83 13 84 16 85 15 86
REMARK SMILES IDX 14 87 18 88 19 89 20 90 21 92 22 93 30 94 23 95 25 96 29 97
REMARK SMILES IDX 24 98 26 99 28 100 27 101
REMARK H PARENT 3 6 90 24 56 35 8 79 20 91
REMARK Flexibility Score: inf
ROOT
ATOM      1  C   UNL A   1      34.180  28.862  26.971  1.00  0.00     0.023 C 
ENDROOT
BRANCH   1   2
ATOM      2  C   UNL A   1      35.353  29.644  27.518  1.00  0.00     0.116 C 
BRANCH   2   3
ATOM      3  N   UNL A   1      35.306  29.909  28.953  1.00  0.00    -0.352 N 
ATOM      4  O   UNL A   1      36.184  29.911  31.054  1.00  0.00    -0.269 OA
ATOM      5  C   UNL A   1      36.336  29.723  29.854  1.00  0.00     0.251 C 
ATOM      6  H   UNL A   1      34.456  30.253  29.313  1.00  0.00     0.163 HD
BRANCH   5   7
ATOM      7  C   UNL A   1      37.620  29.243  29.309  1.00  0.00     0.039 A 
ATOM      8  C   UNL A   1      38.521  28.631  30.179  1.00  0.00     0.014 A 
ATOM      9  C   UNL A   1      37.996  29.579  28.007  1.00  0.00     0.014 A 
ATOM     10  C   UNL A   1      39.855  28.567  29.825  1.00  0.00     0.010 A 
ATOM     11  C   UNL A   1      39.315  29.361  27.600  1.00  0.00     0.010 A 
ATOM     12  C   UNL A   1      40.266  28.889  28.519  1.00  0.00    -0.014 A 
BRANCH  12  13
ATOM     13  C   UNL A   1      41.678  28.617  28.149  1.00  0.00     0.031 A 
ATOM     14  C   UNL A   1      42.740  29.680  28.191  1.00  0.00     0.074 A 
ATOM     15  C   UNL A   1      41.997  27.343  27.837  1.00  0.00     0.049 A 
ATOM     16  N   UNL A   1      44.019  29.567  27.933  1.00  0.00    -0.248 NA
ATOM     17  C   UNL A   1      42.325  31.045  28.555  1.00  0.00     0.031 C 
ATOM     18  C   UNL A   1      41.036  26.238  27.744  1.00  0.00     0.029 A 
ATOM     19  N   UNL A   1      43.203  26.749  27.583  1.00  0.00    -0.354 N 
ATOM     20  C   UNL A   1      44.560  30.839  28.088  1.00  0.00     0.074 A 
ATOM     21  C   UNL A   1      43.463  31.718  28.434  1.00  0.00     0.031 C 
ATOM     22  C   UNL A   1      41.694  25.092  27.536  1.00  0.00     0.029 A 
ATOM     23  C   UNL A   1      43.109  25.393  27.372  1.00  0.00     0.049 A 
ATOM     24  H   UNL A   1      44.055  27.242  27.554  1.00  0.00     0.167 HD
ATOM     25  C   UNL A   1      45.852  31.227  27.960  1.00  0.00     0.037 A 
ATOM     26  C   UNL A   1      44.047  24.488  27.047  1.00  0.00     0.037 A 
ATOM     27  C   UNL A   1      46.933  30.332  27.618  1.00  0.00     0.049 A 
ATOM     28  C   UNL A   1      45.464  24.953  26.896  1.00  0.00     0.074 A 
ATOM     29  C   UNL A   1      48.278  30.624  27.464  1.00  0.00     0.029 A 
ATOM     30  N   UNL A   1      46.794  28.971  27.379  1.00  0.00    -0.354 N 
ATOM     31  N   UNL A   1      45.953  26.161  27.050  1.00  0.00    -0.248 NA
ATOM     32  C   UNL A   1      46.453  23.938  26.523  1.00  0.00     0.031 C 
ATOM     33  C   UNL A   1      48.943  29.451  27.091  1.00  0.00     0.029 A 
ATOM     34  C   UNL A   1      48.025  28.414  27.067  1.00  0.00     0.049 A 
ATOM     35  H   UNL A   1      45.946  28.474  27.426  1.00  0.00     0.167 HD
ATOM     36  C   UNL A   1      47.313  26.049  26.797  1.00  0.00     0.074 A 
ATOM     37  C   UNL A   1      47.571  24.650  26.519  1.00  0.00     0.031 C 
ATOM     38  C   UNL A   1      48.261  27.019  26.784  1.00  0.00     0.037 A 
BRANCH  25  39
ATOM     39  C   UNL A   1      46.182  32.681  28.181  1.00  0.00     0.058 A 
ATOM     40  C   UNL A   1      46.075  33.627  27.149  1.00  0.00     0.135 A 
ATOM     41  C   UNL A   1      46.537  33.151  29.459  1.00  0.00     0.135 A 
ATOM     42  F   UNL A   1      45.753  33.238  25.906  1.00  0.00    -0.206 F 
ATOM     43  C   UNL A   1      46.323  34.981  27.370  1.00  0.00     0.059 A 
ATOM     44  C   UNL A   1      46.763  34.503  29.708  1.00  0.00     0.059 A 
ATOM     45  F   UNL A   1      46.653  32.293  30.484  1.00  0.00    -0.206 F 
ATOM     46  C   UNL A   1      46.662  35.409  28.654  1.00  0.00     0.060 A 
BRANCH  46  47
ATOM     47  S   UNL A   1      46.954  37.171  28.924  1.00  0.00     0.124 S 
ATOM     48  O   UNL A   1      48.404  37.253  28.767  1.00  0.00    -0.237 OA
ATOM     49  O   UNL A   1      46.167  37.784  27.860  1.00  0.00    -0.237 OA
ATOM     50  O   UNL A   1      46.458  37.396  30.279  1.00  0.00    -0.744 OA
ENDBRANCH  46  47
ENDBRANCH  25  39
BRANCH  26  51
ATOM     51  C   UNL A   1      43.656  23.076  26.798  1.00  0.00     0.058 A 
ATOM     52  C   UNL A   1      43.269  22.228  27.844  1.00  0.00     0.135 A 
ATOM     53  C   UNL A   1      43.638  22.555  25.492  1.00  0.00     0.135 A 
ATOM     54  F   UNL A   1      43.266  22.680  29.108  1.00  0.00    -0.206 F 
ATOM     55  C   UNL A   1      42.908  20.906  27.611  1.00  0.00     0.059 A 
ATOM     56  C   UNL A   1      43.244  21.250  25.230  1.00  0.00     0.059 A 
ATOM     57  F   UNL A   1      43.974  23.334  24.451  1.00  0.00    -0.206 F 
ATOM     58  C   UNL A   1      42.899  20.427  26.299  1.00  0.00     0.060 A 
BRANCH  58  59
ATOM     59  S   UNL A   1      42.406  18.716  26.002  1.00  0.00     0.124 S 
ATOM     60  O   UNL A   1      41.003  18.878  25.637  1.00  0.00    -0.237 OA
ATOM     61  O   UNL A   1      43.306  18.319  24.925  1.00  0.00    -0.237 OA
ATOM     62  O   UNL A   1      42.654  18.068  27.286  1.00  0.00    -0.744 OA
ENDBRANCH  58  59
ENDBRANCH  26  51
BRANCH  38  63
ATOM     63  C   UNL A   1      49.666  26.581  26.479  1.00  0.00     0.058 A 
ATOM     64  C   UNL A   1      50.190  26.641  25.177  1.00  0.00     0.135 A 
ATOM     65  C   UNL A   1      50.495  26.088  27.498  1.00  0.00     0.135 A 
ATOM     66  F   UNL A   1      49.435  27.096  24.164  1.00  0.00    -0.206 F 
ATOM     67  C   UNL A   1      51.472  26.186  24.889  1.00  0.00     0.059 A 
ATOM     68  C   UNL A   1      51.792  25.658  27.239  1.00  0.00     0.059 A 
ATOM     69  F   UNL A   1      50.046  26.017  28.762  1.00  0.00    -0.206 F 
ATOM     70  C   UNL A   1      52.264  25.692  25.927  1.00  0.00     0.060 A 
BRANCH  70  71
ATOM     71  S   UNL A   1      53.924  25.100  25.540  1.00  0.00     0.124 S 
ATOM     72  O   UNL A   1      54.126  25.647  24.203  1.00  0.00    -0.237 OA
ATOM     73  O   UNL A   1      54.725  25.702  26.600  1.00  0.00    -0.237 OA
ATOM     74  O   UNL A   1      53.792  23.648  25.611  1.00  0.00    -0.744 OA
ENDBRANCH  70  71
ENDBRANCH  38  63
ENDBRANCH  12  13
ENDBRANCH   5   7
ENDBRANCH   2   3
ENDBRANCH   1   2
BRANCH   1  75
ATOM     75  C   UNL A   1      33.063  29.720  26.413  1.00  0.00     0.023 C 
BRANCH  75  76
ATOM     76  C   UNL A   1      32.848  29.671  24.891  1.00  0.00     0.116 C 
BRANCH  76  77
ATOM     77  N   UNL A   1      33.913  28.967  24.191  1.00  0.00    -0.356 N 
ATOM     78  C   UNL A   1      33.821  27.777  23.516  1.00  0.00     0.224 C 
ATOM     79  H   UNL A   1      34.800  29.395  24.203  1.00  0.00     0.163 HD
ATOM     80  O   UNL A   1      34.165  27.830  22.325  1.00  0.00    -0.275 OA
BRANCH  78  81
ATOM     81  C   UNL A   1      33.401  26.264  24.219  1.00  0.00     0.094 C 
ATOM     82  C   UNL A   1      32.357  25.671  26.142  1.00  0.00     0.002 C 
ATOM     83  C   UNL A   1      31.987  25.497  22.949  1.00  0.00     0.094 C 
ATOM     84  C   UNL A   1      30.625  26.339  26.524  1.00  0.00     0.005 C 
ATOM     85  C   UNL A   1      31.072  24.230  25.820  1.00  0.00     0.009 C 
ATOM     86  C   UNL A   1      30.464  24.864  24.151  1.00  0.00     0.002 C 
ATOM     87  C   UNL A   1      29.585  25.883  25.169  1.00  0.00     0.005 C 
BRANCH  83  88
ATOM     88  C   UNL A   1      32.963  24.431  22.123  1.00  0.00     0.224 C 
ATOM     89  O   UNL A   1      33.374  24.758  21.004  1.00  0.00    -0.275 OA
ATOM     90  N   UNL A   1      33.407  23.185  22.635  1.00  0.00    -0.349 N 
ATOM     91  H   UNL A   1      34.190  22.843  22.146  1.00  0.00     0.164 HD
BRANCH  90  92
ATOM     92  C   UNL A   1      32.964  22.216  23.785  1.00  0.00     0.112 C 
ATOM     93  C   UNL A   1      32.379  20.893  23.272  1.00  0.00     0.030 C 
ATOM     94  C   UNL A   1      34.119  21.913  24.721  1.00  0.00    -0.022 A 
ATOM     95  C   UNL A   1      32.513  19.754  24.314  1.00  0.00     0.007 C 
ATOM     96  C   UNL A   1      34.875  20.491  24.833  1.00  0.00    -0.043 A 
ATOM     97  C   UNL A   1      35.007  23.199  24.728  1.00  0.00     0.006 A 
ATOM     98  C   UNL A   1      33.981  19.306  24.538  1.00  0.00     0.036 C 
ATOM     99  C   UNL A   1      36.563  20.303  24.967  1.00  0.00     0.004 A 
ATOM    100  C   UNL A   1      37.019  23.188  24.729  1.00  0.00     0.000 A 
ATOM    101  C   UNL A   1      37.688  21.566  24.926  1.00  0.00     0.000 A 
ENDBRANCH  90  92
ENDBRANCH  83  88
ENDBRANCH  78  81
ENDBRANCH  76  77
ENDBRANCH  75  76
ENDBRANCH   1  75
TORSDOF 16
ENDMDL
MODEL 2
REMARK VINA RESULT:     -13.7      6.714     11.451
REMARK SMILES O=C(NCCCCNC(=O)[C@H]1[C@H]2CC[C@H](C2)[C@@H]1C(=O)N[C@H]1CCCc2ccccc21)c1ccc(-c2c3nc(c(-c4c(F)cc(S(=O)(=O)[O-])cc4F)c4ccc([nH]4)c(-c4c(F)cc(S(=O)(=O)[O-])cc4F)c4nc(c(-c5c(F)cc(S(=O)(=O)[O-])cc5F)c5ccc2[nH]5)C=C4)C=C3)cc1
REMARK SMILES IDX 5 1 4 2 3 3 1 4 2 5 31 7 32 8 96 9 33 10 95 11 34 12 35 13
REMARK SMILES IDX 36 14 89 15 37 16 94 17 88 18 90 19 38 20 93 21 87 22 86 23
REMARK SMILES IDX 39 25 73 26 52 27 72 28 53 29 56 30 71 31 91 32 54 33 55 34
REMARK SMILES IDX 70 36 92 37 57 38 40 39 41 40 50 41 42 42 43 43 49 44 51 45
REMARK SMILES IDX 44 46 45 47 46 48 47 49 48 50 74 51 75 52 84 53 76 54 77 55
REMARK SMILES IDX 83 56 85 57 78 58 79 59 80 60 81 61 82 62 58 63 59 64 68 65
REMARK SMILES IDX 60 66 61 67 67 68 69 69 62 70 63 71 64 72 65 73 66 74 6 75
REMARK SMILES IDX 7 76 8 77 9 78 10 80 11 81 12 82 17 83 13 84 16 85 15 86
REMARK SMILES IDX 14 87 18 88 19 89 20 90 21 92 22 93 30 94 23 95 25 96 29 97
REMARK SMILES IDX 24 98 26 99 28 100 27 101
REMARK H PARENT 3 6 90 24 56 35 8 79 20 91
REMARK Flexibility Score: inf
ROOT
ATOM      1  C   UNL A   1      37.152  23.562  25.508  1.00  0.00     0.023 C 
ENDROOT
BRANCH   1   2
ATOM      2  C   UNL A   1      38.155  24.106  26.500  1.00  0.00     0.116 C 
BRANCH   2   3
ATOM      3  N   UNL A   1      39.555  23.925  26.126  1.00  0.00    -0.352 N 
ATOM      4  O   UNL A   1      41.756  24.509  26.130  1.00  0.00    -0.269 OA
ATOM      5  C   UNL A   1      40.621  24.694  26.548  1.00  0.00     0.251 C 
ATOM      6  H   UNL A   1      39.758  23.181  25.513  1.00  0.00     0.163 HD
BRANCH   5   7
ATOM      7  C   UNL A   1      40.322  25.785  27.497  1.00  0.00     0.039 A 
ATOM      8  C   UNL A   1      41.060  26.964  27.403  1.00  0.00     0.014 A 
ATOM      9  C   UNL A   1      39.469  25.556  28.578  1.00  0.00     0.014 A 
ATOM     10  C   UNL A   1      41.118  27.805  28.498  1.00  0.00     0.010 A 
ATOM     11  C   UNL A   1      39.411  26.495  29.612  1.00  0.00     0.010 A 
ATOM     12  C   UNL A   1      40.266  27.609  29.600  1.00  0.00    -0.014 A 
BRANCH  12  13
ATOM     13  C   UNL A   1      40.244  28.653  30.655  1.00  0.00     0.031 A 
ATOM     14  C   UNL A   1      39.245  29.777  30.654  1.00  0.00     0.074 A 
ATOM     15  C   UNL A   1      41.122  28.519  31.671  1.00  0.00     0.049 A 
ATOM     16  N   UNL A   1      39.090  30.731  31.537  1.00  0.00    -0.248 NA
ATOM     17  C   UNL A   1      38.306  29.854  29.523  1.00  0.00     0.031 C 
ATOM     18  C   UNL A   1      42.152  27.475  31.755  1.00  0.00     0.029 A 
ATOM     19  N   UNL A   1      41.271  29.220  32.836  1.00  0.00    -0.354 N 
ATOM     20  C   UNL A   1      38.053  31.530  31.066  1.00  0.00     0.074 A 
ATOM     21  C   UNL A   1      37.633  30.963  29.802  1.00  0.00     0.031 C 
ATOM     22  C   UNL A   1      42.767  27.554  32.940  1.00  0.00     0.029 A 
ATOM     23  C   UNL A   1      42.256  28.715  33.653  1.00  0.00     0.049 A 
ATOM     24  H   UNL A   1      40.728  30.007  33.068  1.00  0.00     0.167 HD
ATOM     25  C   UNL A   1      37.502  32.625  31.646  1.00  0.00     0.037 A 
ATOM     26  C   UNL A   1      42.726  29.152  34.833  1.00  0.00     0.037 A 
ATOM     27  C   UNL A   1      37.934  33.171  32.911  1.00  0.00     0.049 A 
ATOM     28  C   UNL A   1      42.108  30.376  35.438  1.00  0.00     0.074 A 
ATOM     29  C   UNL A   1      37.443  34.275  33.586  1.00  0.00     0.029 A 
ATOM     30  N   UNL A   1      38.957  32.651  33.695  1.00  0.00    -0.354 N 
ATOM     31  N   UNL A   1      41.125  31.113  34.977  1.00  0.00    -0.248 NA
ATOM     32  C   UNL A   1      42.662  30.830  36.717  1.00  0.00     0.031 C 
ATOM     33  C   UNL A   1      38.195  34.450  34.753  1.00  0.00     0.029 A 
ATOM     34  C   UNL A   1      39.119  33.421  34.838  1.00  0.00     0.049 A 
ATOM     35  H   UNL A   1      39.488  31.854  33.473  1.00  0.00     0.167 HD
ATOM     36  C   UNL A   1      40.940  32.119  35.915  1.00  0.00     0.074 A 
ATOM     37  C   UNL A   1      41.886  31.870  36.986  1.00  0.00     0.031 C 
ATOM     38  C   UNL A   1      40.073  33.162  35.888  1.00  0.00     0.037 A 
BRANCH  25  39
ATOM     39  C   UNL A   1      36.377  33.319  30.923  1.00  0.00     0.058 A 
ATOM     40  C   UNL A   1      35.054  33.264  31.390  1.00  0.00     0.135 A 
ATOM     41  C   UNL A   1      36.633  34.113  29.791  1.00  0.00     0.135 A 
ATOM     42  F   UNL A   1      34.746  32.512  32.459  1.00  0.00    -0.206 F 
ATOM     43  C   UNL A   1      34.025  33.955  30.755  1.00  0.00     0.059 A 
ATOM     44  C   UNL A   1      35.624  34.834  29.155  1.00  0.00     0.059 A 
ATOM     45  F   UNL A   1      37.878  34.206  29.299  1.00  0.00    -0.206 F 
ATOM     46  C   UNL A   1      34.321  34.741  29.641  1.00  0.00     0.060 A 
BRANCH  46  47
ATOM     47  S   UNL A   1      32.976  35.650  28.847  1.00  0.00     0.124 S 
ATOM     48  O   UNL A   1      32.192  36.078  30.002  1.00  0.00    -0.237 OA
ATOM     49  O   UNL A   1      33.690  36.708  28.140  1.00  0.00    -0.237 OA
ATOM     50  O   UNL A   1      32.342  34.647  27.996  1.00  0.00    -0.744 OA
ENDBRANCH  46  47
ENDBRANCH  25  39
BRANCH  26  51
ATOM     51  C   UNL A   1      43.868  28.452  35.478  1.00  0.00     0.058 A 
ATOM     52  C   UNL A   1      45.195  28.778  35.172  1.00  0.00     0.135 A 
ATOM     53  C   UNL A   1      43.644  27.450  36.439  1.00  0.00     0.135 A 
ATOM     54  F   UNL A   1      45.459  29.729  34.264  1.00  0.00    -0.206 F 
ATOM     55  C   UNL A   1      46.262  28.119  35.773  1.00  0.00     0.059 A 
ATOM     56  C   UNL A   1      44.692  26.804  37.081  1.00  0.00     0.059 A 
ATOM     57  F   UNL A   1      42.391  27.118  36.788  1.00  0.00    -0.206 F 
ATOM     58  C   UNL A   1      45.999  27.132  36.726  1.00  0.00     0.060 A 
BRANCH  58  59
ATOM     59  S   UNL A   1      47.389  26.297  37.518  1.00  0.00     0.124 S 
ATOM     60  O   UNL A   1      48.252  26.023  36.375  1.00  0.00    -0.237 OA
ATOM     61  O   UNL A   1      47.866  27.310  38.452  1.00  0.00    -0.237 OA
ATOM     62  O   UNL A   1      46.769  25.128  38.135  1.00  0.00    -0.744 OA
ENDBRANCH  58  59
ENDBRANCH  26  51
BRANCH  38  63
ATOM     63  C   UNL A   1      40.104  34.092  37.068  1.00  0.00     0.058 A 
ATOM     64  C   UNL A   1      39.300  33.874  38.199  1.00  0.00     0.135 A 
ATOM     65  C   UNL A   1      40.943  35.217  37.066  1.00  0.00     0.135 A 
ATOM     66  F   UNL A   1      38.473  32.818  38.248  1.00  0.00    -0.206 F 
ATOM     67  C   UNL A   1      39.293  34.765  39.267  1.00  0.00     0.059 A 
ATOM     68  C   UNL A   1      40.977  36.103  38.137  1.00  0.00     0.059 A 
ATOM     69  F   UNL A   1      41.739  35.466  36.013  1.00  0.00    -0.206 F 
ATOM     70  C   UNL A   1      40.133  35.880  39.224  1.00  0.00     0.060 A 
BRANCH  70  71
ATOM     71  S   UNL A   1      40.112  37.030  40.614  1.00  0.00     0.124 S 
ATOM     72  O   UNL A   1      41.370  36.710  41.279  1.00  0.00    -0.237 OA
ATOM     73  O   UNL A   1      40.058  38.326  39.946  1.00  0.00    -0.237 OA
ATOM     74  O   UNL A   1      38.903  36.658  41.344  1.00  0.00    -0.744 OA
ENDBRANCH  70  71
ENDBRANCH  38  63
ENDBRANCH  12  13
ENDBRANCH   5   7
ENDBRANCH   2   3
ENDBRANCH   1   2
BRANCH   1  75
ATOM     75  C   UNL A   1      37.034  22.052  25.503  1.00  0.00     0.023 C 
BRANCH  75  76
ATOM     76  C   UNL A   1      35.761  21.455  26.126  1.00  0.00     0.116 C 
BRANCH  76  77
ATOM     77  N   UNL A   1      35.124  22.351  27.081  1.00  0.00    -0.356 N 
ATOM     78  C   UNL A   1      33.877  22.913  26.992  1.00  0.00     0.224 C 
ATOM     79  H   UNL A   1      35.649  22.578  27.883  1.00  0.00     0.163 HD
ATOM     80  O   UNL A   1      33.126  22.659  27.947  1.00  0.00    -0.275 OA
BRANCH  78  81
ATOM     81  C   UNL A   1      33.359  23.998  25.762  1.00  0.00     0.094 C 
ATOM     82  C   UNL A   1      34.063  24.411  23.646  1.00  0.00     0.002 C 
ATOM     83  C   UNL A   1      31.492  23.323  25.251  1.00  0.00     0.094 C 
ATOM     84  C   UNL A   1      34.140  23.001  22.382  1.00  0.00     0.005 C 
ATOM     85  C   UNL A   1      32.539  24.606  22.432  1.00  0.00     0.009 C 
ATOM     86  C   UNL A   1      31.480  23.255  23.211  1.00  0.00     0.002 C 
ATOM     87  C   UNL A   1      32.523  22.294  22.296  1.00  0.00     0.005 C 
BRANCH  83  88
ATOM     88  C   UNL A   1      30.596  24.437  26.104  1.00  0.00     0.224 C 
ATOM     89  O   UNL A   1      30.069  24.078  27.163  1.00  0.00    -0.275 OA
ATOM     90  N   UNL A   1      30.435  25.795  25.730  1.00  0.00    -0.349 N 
ATOM     91  H   UNL A   1      30.134  26.352  26.484  1.00  0.00     0.164 HD
BRANCH  90  92
ATOM     92  C   UNL A   1      30.614  26.632  24.417  1.00  0.00     0.112 C 
ATOM     93  C   UNL A   1      29.287  27.130  23.828  1.00  0.00     0.030 C 
ATOM     94  C   UNL A   1      31.527  27.823  24.647  1.00  0.00    -0.022 A 
ATOM     95  C   UNL A   1      29.477  28.394  22.952  1.00  0.00     0.007 C 
ATOM     96  C   UNL A   1      31.053  29.365  24.673  1.00  0.00    -0.043 A 
ATOM     97  C   UNL A   1      32.548  27.368  25.740  1.00  0.00     0.006 A 
ATOM     98  C   UNL A   1      29.869  29.649  23.774  1.00  0.00     0.036 C 
ATOM     99  C   UNL A   1      31.595  30.522  25.800  1.00  0.00     0.004 A 
ATOM    100  C   UNL A   1      33.195  28.537  27.244  1.00  0.00     0.000 A 
ATOM    101  C   UNL A   1      32.643  30.207  27.089  1.00  0.00     0.000 A 
ENDBRANCH  90  92
ENDBRANCH  83  88
ENDBRANCH  78  81
ENDBRANCH  76  77
ENDBRANCH  75  76
ENDBRANCH   1  75
TORSDOF 16
ENDMDL
MODEL 3
REMARK VINA RESULT:     -13.7      0.436      8.113
REMARK SMILES O=C(NCCCCNC(=O)[C@H]1[C@H]2CC[C@H](C2)[C@@H]1C(=O)N[C@H]1CCCc2ccccc21)c1ccc(-c2c3nc(c(-c4c(F)cc(S(=O)(=O)[O-])cc4F)c4ccc([nH]4)c(-c4c(F)cc(S(=O)(=O)[O-])cc4F)c4nc(c(-c5c(F)cc(S(=O)(=O)[O-])cc5F)c5ccc2[nH]5)C=C4)C=C3)cc1
REMARK SMILES IDX 5 1 4 2 3 3 1 4 2 5 31 7 32 8 96 9 33 10 95 11 34 12 35 13
REMARK SMILES IDX 36 14 89 15 37 16 94 17 88 18 90 19 38 20 93 21 87 22 86 23
REMARK SMILES IDX 39 25 73 26 52 27 72 28 53 29 56 30 71 31 91 32 54 33 55 34
REMARK SMILES IDX 70 36 92 37 57 38 40 39 41 40 50 41 42 42 43 43 49 44 51 45
REMARK SMILES IDX 44 46 45 47 46 48 47 49 48 50 74 51 75 52 84 53 76 54 77 55
REMARK SMILES IDX 83 56 85 57 78 58 79 59 80 60 81 61 82 62 58 63 59 64 68 65
REMARK SMILES IDX 60 66 61 67 67 68 69 69 62 70 63 71 64 72 65 73 66 74 6 75
REMARK SMILES IDX 7 76 8 77 9 78 10 80 11 81 12 82 17 83 13 84 16 85 15 86
REMARK SMILES IDX 14 87 18 88 19 89 20 90 21 92 22 93 30 94 23 95 25 96 29 97
REMARK SMILES IDX 24 98 26 99 28 100 27 101
REMARK H PARENT 3 6 90 24 56 35 8 79 20 91
REMARK Flexibility Score: inf
ROOT
ATOM      1  C   UNL A   1      33.792  28.988  27.034  1.00  0.00     0.023 C 
ENDROOT
BRANCH   1   2
ATOM      2  C   UNL A   1      35.176  29.328  27.540  1.00  0.00     0.116 C 
BRANCH   2   3
ATOM      3  N   UNL A   1      35.208  30.120  28.766  1.00  0.00    -0.352 N 
ATOM      4  O   UNL A   1      36.222  30.946  30.631  1.00  0.00    -0.269 OA
ATOM      5  C   UNL A   1      36.304  30.319  29.584  1.00  0.00     0.251 C 
ATOM      6  H   UNL A   1      34.366  30.555  29.036  1.00  0.00     0.163 HD
BRANCH   5   7
ATOM      7  C   UNL A   1      37.574  29.698  29.159  1.00  0.00     0.039 A 
ATOM      8  C   UNL A   1      38.424  29.193  30.141  1.00  0.00     0.014 A 
ATOM      9  C   UNL A   1      37.993  29.803  27.832  1.00  0.00     0.014 A 
ATOM     10  C   UNL A   1      39.760  29.011  29.840  1.00  0.00     0.010 A 
ATOM     11  C   UNL A   1      39.307  29.461  27.502  1.00  0.00     0.010 A 
ATOM     12  C   UNL A   1      40.214  29.100  28.511  1.00  0.00    -0.014 A 
BRANCH  12  13
ATOM     13  C   UNL A   1      41.618  28.707  28.230  1.00  0.00     0.031 A 
ATOM     14  C   UNL A   1      42.000  27.304  27.847  1.00  0.00     0.074 A 
ATOM     15  C   UNL A   1      42.548  29.684  28.262  1.00  0.00     0.049 A 
ATOM     16  N   UNL A   1      43.182  26.836  27.536  1.00  0.00    -0.248 NA
ATOM     17  C   UNL A   1      40.932  26.291  27.817  1.00  0.00     0.031 C 
ATOM     18  C   UNL A   1      42.286  31.077  28.646  1.00  0.00     0.029 A 
ATOM     19  N   UNL A   1      43.877  29.680  27.934  1.00  0.00    -0.354 N 
ATOM     20  C   UNL A   1      43.009  25.478  27.288  1.00  0.00     0.074 A 
ATOM     21  C   UNL A   1      41.609  25.190  27.514  1.00  0.00     0.031 C 
ATOM     22  C   UNL A   1      43.391  31.806  28.453  1.00  0.00     0.029 A 
ATOM     23  C   UNL A   1      44.467  30.918  28.039  1.00  0.00     0.049 A 
ATOM     24  H   UNL A   1      44.362  28.872  27.650  1.00  0.00     0.167 HD
ATOM     25  C   UNL A   1      43.935  24.567  26.900  1.00  0.00     0.037 A 
ATOM     26  C   UNL A   1      45.743  31.300  27.858  1.00  0.00     0.037 A 
ATOM     27  C   UNL A   1      45.328  24.878  26.676  1.00  0.00     0.049 A 
ATOM     28  C   UNL A   1      46.745  30.265  27.446  1.00  0.00     0.074 A 
ATOM     29  C   UNL A   1      46.347  24.029  26.281  1.00  0.00     0.029 A 
ATOM     30  N   UNL A   1      45.897  26.137  26.824  1.00  0.00    -0.354 N 
ATOM     31  N   UNL A   1      46.558  28.987  27.213  1.00  0.00    -0.248 NA
ATOM     32  C   UNL A   1      48.128  30.719  27.276  1.00  0.00     0.031 C 
ATOM     33  C   UNL A   1      47.538  24.762  26.232  1.00  0.00     0.029 A 
ATOM     34  C   UNL A   1      47.254  26.083  26.541  1.00  0.00     0.049 A 
ATOM     35  H   UNL A   1      45.408  26.948  27.090  1.00  0.00     0.167 HD
ATOM     36  C   UNL A   1      47.803  28.483  26.864  1.00  0.00     0.074 A 
ATOM     37  C   UNL A   1      48.724  29.604  26.878  1.00  0.00     0.031 C 
ATOM     38  C   UNL A   1      48.156  27.207  26.570  1.00  0.00     0.037 A 
BRANCH  25  39
ATOM     39  C   UNL A   1      43.487  23.143  26.697  1.00  0.00     0.058 A 
ATOM     40  C   UNL A   1      43.401  22.571  25.417  1.00  0.00     0.135 A 
ATOM     41  C   UNL A   1      43.211  22.313  27.799  1.00  0.00     0.135 A 
ATOM     42  F   UNL A   1      43.639  23.317  24.327  1.00  0.00    -0.206 F 
ATOM     43  C   UNL A   1      43.044  21.237  25.235  1.00  0.00     0.059 A 
ATOM     44  C   UNL A   1      42.878  20.969  27.641  1.00  0.00     0.059 A 
ATOM     45  F   UNL A   1      43.278  22.803  29.046  1.00  0.00    -0.206 F 
ATOM     46  C   UNL A   1      42.788  20.443  26.354  1.00  0.00     0.060 A 
BRANCH  46  47
ATOM     47  S   UNL A   1      42.352  18.709  26.097  1.00  0.00     0.124 S 
ATOM     48  O   UNL A   1      42.651  18.137  27.407  1.00  0.00    -0.237 OA
ATOM     49  O   UNL A   1      40.937  18.792  25.751  1.00  0.00    -0.237 OA
ATOM     50  O   UNL A   1      43.238  18.291  25.014  1.00  0.00    -0.744 OA
ENDBRANCH  46  47
ENDBRANCH  25  39
BRANCH  26  51
ATOM     51  C   UNL A   1      46.134  32.710  28.115  1.00  0.00     0.058 A 
ATOM     52  C   UNL A   1      46.061  33.685  27.113  1.00  0.00     0.135 A 
ATOM     53  C   UNL A   1      46.569  33.112  29.390  1.00  0.00     0.135 A 
ATOM     54  F   UNL A   1      45.649  33.351  25.881  1.00  0.00    -0.206 F 
ATOM     55  C   UNL A   1      46.432  35.004  27.354  1.00  0.00     0.059 A 
ATOM     56  C   UNL A   1      46.908  34.430  29.666  1.00  0.00     0.059 A 
ATOM     57  F   UNL A   1      46.632  32.223  30.394  1.00  0.00    -0.206 F 
ATOM     58  C   UNL A   1      46.855  35.366  28.635  1.00  0.00     0.060 A 
BRANCH  58  59
ATOM     59  S   UNL A   1      47.313  37.083  28.947  1.00  0.00     0.124 S 
ATOM     60  O   UNL A   1      48.735  37.068  28.621  1.00  0.00    -0.237 OA
ATOM     61  O   UNL A   1      46.451  37.805  28.018  1.00  0.00    -0.237 OA
ATOM     62  O   UNL A   1      46.991  37.264  30.359  1.00  0.00    -0.744 OA
ENDBRANCH  58  59
ENDBRANCH  26  51
BRANCH  38  63
ATOM     63  C   UNL A   1      49.598  26.973  26.219  1.00  0.00     0.058 A 
ATOM     64  C   UNL A   1      50.564  26.711  27.206  1.00  0.00     0.135 A 
ATOM     65  C   UNL A   1      50.022  27.019  24.882  1.00  0.00     0.135 A 
ATOM     66  F   UNL A   1      50.212  26.666  28.500  1.00  0.00    -0.206 F 
ATOM     67  C   UNL A   1      51.905  26.547  26.882  1.00  0.00     0.059 A 
ATOM     68  C   UNL A   1      51.354  26.825  24.532  1.00  0.00     0.059 A 
ATOM     69  F   UNL A   1      49.139  27.257  23.899  1.00  0.00    -0.206 F 
ATOM     70  C   UNL A   1      52.292  26.611  25.542  1.00  0.00     0.060 A 
BRANCH  70  71
ATOM     71  S   UNL A   1      54.037  26.400  25.135  1.00  0.00     0.124 S 
ATOM     72  O   UNL A   1      54.543  27.758  25.304  1.00  0.00    -0.237 OA
ATOM     73  O   UNL A   1      54.476  25.431  26.134  1.00  0.00    -0.237 OA
ATOM     74  O   UNL A   1      54.009  25.907  23.762  1.00  0.00    -0.744 OA
ENDBRANCH  70  71
ENDBRANCH  38  63
ENDBRANCH  12  13
ENDBRANCH   5   7
ENDBRANCH   2   3
ENDBRANCH   1   2
BRANCH   1  75
ATOM     75  C   UNL A   1      33.147  30.076  26.199  1.00  0.00     0.023 C 
BRANCH  75  76
ATOM     76  C   UNL A   1      32.760  29.703  24.759  1.00  0.00     0.116 C 
BRANCH  76  77
ATOM     77  N   UNL A   1      33.819  28.998  24.051  1.00  0.00    -0.356 N 
ATOM     78  C   UNL A   1      33.730  27.789  23.410  1.00  0.00     0.224 C 
ATOM     79  H   UNL A   1      34.699  29.440  24.031  1.00  0.00     0.163 HD
ATOM     80  O   UNL A   1      34.045  27.817  22.210  1.00  0.00    -0.275 OA
BRANCH  78  81
ATOM     81  C   UNL A   1      33.354  26.289  24.161  1.00  0.00     0.094 C 
ATOM     82  C   UNL A   1      32.369  25.729  26.126  1.00  0.00     0.002 C 
ATOM     83  C   UNL A   1      31.919  25.468  22.949  1.00  0.00     0.094 C 
ATOM     84  C   UNL A   1      30.637  26.380  26.536  1.00  0.00     0.005 C 
ATOM     85  C   UNL A   1      31.099  24.261  25.874  1.00  0.00     0.009 C 
ATOM     86  C   UNL A   1      30.438  24.843  24.207  1.00  0.00     0.002 C 
ATOM     87  C   UNL A   1      29.570  25.874  25.221  1.00  0.00     0.005 C 
BRANCH  83  88
ATOM     88  C   UNL A   1      32.891  24.396  22.125  1.00  0.00     0.224 C 
ATOM     89  O   UNL A   1      33.281  24.708  20.993  1.00  0.00    -0.275 OA
ATOM     90  N   UNL A   1      33.354  23.163  22.651  1.00  0.00    -0.349 N 
ATOM     91  H   UNL A   1      34.131  22.819  22.154  1.00  0.00     0.164 HD
BRANCH  90  92
ATOM     92  C   UNL A   1      32.938  22.210  23.824  1.00  0.00     0.112 C 
ATOM     93  C   UNL A   1      32.367  20.869  23.343  1.00  0.00     0.030 C 
ATOM     94  C   UNL A   1      34.109  21.941  24.751  1.00  0.00    -0.022 A 
ATOM     95  C   UNL A   1      32.529  19.753  24.405  1.00  0.00     0.007 C 
ATOM     96  C   UNL A   1      34.886  20.533  24.882  1.00  0.00    -0.043 A 
ATOM     97  C   UNL A   1      34.977  23.240  24.724  1.00  0.00     0.006 A 
ATOM     98  C   UNL A   1      34.006  19.330  24.620  1.00  0.00     0.036 C 
ATOM     99  C   UNL A   1      36.578  20.372  24.999  1.00  0.00     0.004 A 
ATOM    100  C   UNL A   1      36.990  23.258  24.701  1.00  0.00     0.000 A 
ATOM    101  C   UNL A   1      37.684  21.649  24.921  1.00  0.00     0.000 A 
ENDBRANCH  90  92
ENDBRANCH  83  88
ENDBRANCH  78  81
ENDBRANCH  76  77
ENDBRANCH  75  76
ENDBRANCH   1  75
TORSDOF 16
ENDMDL
