MODEL 1
REMARK VINA RESULT:     -11.6      0.000      0.000
REMARK SMILES Nc1cccc(CC(=O)N2CC(C(=O)NCCCCNC(=O)c3ccc(-c4c5nc(c(-c6c(F)cc(S(=O)(=O)[O-])cc6F)c6ccc([nH]6)c(-c6c(F)cc(S(=O)(=O)[O-])cc6F)c6nc(c(-c7c(F)cc(S(=O)(=O)[O-])cc7F)c7ccc4[nH]7)C=C6)C=C5)cc3)C2)c1
REMARK SMILES IDX 17 1 16 2 15 3 13 4 14 5 12 7 8 8 9 9 10 10 11 11 89 12 7 13
REMARK SMILES IDX 6 14 2 15 3 16 90 17 4 18 5 19 1 20 18 23 19 24 20 25 21 26
REMARK SMILES IDX 22 28 23 29 24 30 88 31 25 32 87 33 26 34 27 35 28 36 81 37
REMARK SMILES IDX 29 38 86 39 80 40 82 41 30 42 85 43 79 44 78 45 31 47 65 48
REMARK SMILES IDX 44 49 64 50 45 51 48 52 63 53 83 54 46 55 47 56 62 58 84 59
REMARK SMILES IDX 49 60 32 61 33 62 42 63 34 64 35 65 41 66 43 67 36 68 37 69
REMARK SMILES IDX 38 70 39 71 40 72 66 73 67 74 76 75 68 76 69 77 75 78 77 79
REMARK SMILES IDX 70 80 71 81 72 82 73 83 74 84 50 85 51 86 60 87 52 88 53 89
REMARK SMILES IDX 59 90 61 91 54 92 55 93 56 94 57 95 58 96
REMARK H PARENT 15 6 1 21 1 22 20 27 82 46 48 57
REMARK Flexibility Score: inf
ROOT
ATOM      1  C   UNL A   1      32.968  29.316  24.886  1.00  0.00     0.023 C 
ENDROOT
BRANCH   1   2
ATOM      2  C   UNL A   1      31.450  29.490  24.947  1.00  0.00     0.116 C 
BRANCH   2   3
ATOM      3  N   UNL A   1      30.859  29.480  23.625  1.00  0.00    -0.356 N 
ATOM      4  C   UNL A   1      30.339  28.457  22.872  1.00  0.00     0.226 C 
ATOM      5  O   UNL A   1      29.914  28.780  21.751  1.00  0.00    -0.275 OA
ATOM      6  H   UNL A   1      30.823  30.362  23.189  1.00  0.00     0.163 HD
BRANCH   4   7
ATOM      7  C   UNL A   1      30.264  27.013  23.364  1.00  0.00     0.117 C 
ATOM      8  C   UNL A   1      31.213  24.694  25.662  1.00  0.00     0.227 C 
ATOM      9  O   UNL A   1      30.440  24.497  26.609  1.00  0.00    -0.275 OA
ATOM     10  N   UNL A   1      30.961  25.685  24.765  1.00  0.00    -0.341 N 
ATOM     11  C   UNL A   1      29.944  26.722  24.830  1.00  0.00     0.134 C 
ATOM     12  C   UNL A   1      31.497  26.111  23.490  1.00  0.00     0.134 C 
BRANCH   8  13
ATOM     13  C   UNL A   1      32.522  23.929  25.606  1.00  0.00     0.135 C 
BRANCH  13  14
ATOM     14  C   UNL A   1      32.532  22.542  25.020  1.00  0.00    -0.037 A 
ATOM     15  C   UNL A   1      32.728  20.129  25.351  1.00  0.00     0.032 A 
ATOM     16  C   UNL A   1      32.542  19.946  23.980  1.00  0.00     0.025 A 
ATOM     17  C   UNL A   1      32.743  21.431  25.855  1.00  0.00     0.029 A 
ATOM     18  C   UNL A   1      32.319  21.038  23.138  1.00  0.00     0.002 A 
ATOM     19  C   UNL A   1      32.305  22.333  23.655  1.00  0.00     0.004 A 
BRANCH  15  20
ATOM     20  N   UNL A   1      33.010  19.054  26.176  1.00  0.00    -0.399 N 
ATOM     21  H   UNL A   1      32.830  19.114  27.142  1.00  0.00     0.156 HD
ATOM     22  H   UNL A   1      33.391  18.229  25.796  1.00  0.00     0.156 HD
ENDBRANCH  15  20
ENDBRANCH  13  14
ENDBRANCH   8  13
ENDBRANCH   4   7
ENDBRANCH   2   3
ENDBRANCH   1   2
BRANCH   1  23
ATOM     23  C   UNL A   1      33.517  28.174  25.749  1.00  0.00     0.023 C 
BRANCH  23  24
ATOM     24  C   UNL A   1      33.529  28.431  27.253  1.00  0.00     0.116 C 
BRANCH  24  25
ATOM     25  N   UNL A   1      33.441  29.843  27.589  1.00  0.00    -0.352 N 
ATOM     26  C   UNL A   1      34.391  30.659  28.156  1.00  0.00     0.251 C 
ATOM     27  H   UNL A   1      32.581  30.275  27.383  1.00  0.00     0.163 HD
ATOM     28  O   UNL A   1      34.091  31.803  28.489  1.00  0.00    -0.269 OA
BRANCH  26  29
ATOM     29  C   UNL A   1      35.757  30.147  28.394  1.00  0.00     0.039 A 
ATOM     30  C   UNL A   1      36.674  30.154  27.339  1.00  0.00     0.014 A 
ATOM     31  C   UNL A   1      36.141  29.676  29.654  1.00  0.00     0.014 A 
ATOM     32  C   UNL A   1      37.995  29.760  27.566  1.00  0.00     0.010 A 
ATOM     33  C   UNL A   1      37.473  29.349  29.894  1.00  0.00     0.010 A 
ATOM     34  C   UNL A   1      38.415  29.392  28.856  1.00  0.00    -0.014 A 
BRANCH  34  35
ATOM     35  C   UNL A   1      39.836  29.061  29.138  1.00  0.00     0.031 A 
ATOM     36  C   UNL A   1      40.748  30.096  29.739  1.00  0.00     0.074 A 
ATOM     37  C   UNL A   1      40.321  27.852  28.791  1.00  0.00     0.049 A 
ATOM     38  N   UNL A   1      42.032  30.023  29.983  1.00  0.00    -0.248 NA
ATOM     39  C   UNL A   1      40.144  31.391  30.088  1.00  0.00     0.031 C 
ATOM     40  C   UNL A   1      39.549  26.779  28.159  1.00  0.00     0.029 A 
ATOM     41  N   UNL A   1      41.583  27.325  28.908  1.00  0.00    -0.354 N 
ATOM     42  C   UNL A   1      42.391  31.262  30.502  1.00  0.00     0.074 A 
ATOM     43  C   UNL A   1      41.200  32.085  30.489  1.00  0.00     0.031 C 
ATOM     44  C   UNL A   1      40.346  25.717  27.965  1.00  0.00     0.029 A 
ATOM     45  C   UNL A   1      41.694  26.043  28.422  1.00  0.00     0.049 A 
ATOM     46  H   UNL A   1      42.338  27.817  29.304  1.00  0.00     0.167 HD
ATOM     47  C   UNL A   1      43.594  31.667  30.972  1.00  0.00     0.037 A 
ATOM     48  C   UNL A   1      42.763  25.225  28.343  1.00  0.00     0.037 A 
ATOM     49  C   UNL A   1      44.771  30.839  31.004  1.00  0.00     0.049 A 
ATOM     50  C   UNL A   1      44.092  25.704  28.863  1.00  0.00     0.074 A 
ATOM     51  C   UNL A   1      46.026  31.143  31.502  1.00  0.00     0.029 A 
ATOM     52  N   UNL A   1      44.838  29.539  30.520  1.00  0.00    -0.354 N 
ATOM     53  N   UNL A   1      44.399  26.859  29.401  1.00  0.00    -0.248 NA
ATOM     54  C   UNL A   1      45.219  24.765  28.770  1.00  0.00     0.031 C 
ATOM     55  C   UNL A   1      46.862  30.041  31.287  1.00  0.00     0.029 A 
ATOM     56  C   UNL A   1      46.116  29.035  30.694  1.00  0.00     0.049 A 
ATOM     57  H   UNL A   1      44.088  29.049  30.113  1.00  0.00     0.167 HD
ATOM     58  C   UNL A   1      45.746  26.776  29.737  1.00  0.00     0.074 A 
ATOM     59  C   UNL A   1      46.191  25.454  29.351  1.00  0.00     0.031 C 
ATOM     60  C   UNL A   1      46.541  27.710  30.315  1.00  0.00     0.037 A 
BRANCH  47  61
ATOM     61  C   UNL A   1      43.697  33.074  31.498  1.00  0.00     0.058 A 
ATOM     62  C   UNL A   1      43.904  34.165  30.639  1.00  0.00     0.135 A 
ATOM     63  C   UNL A   1      43.556  33.339  32.870  1.00  0.00     0.135 A 
ATOM     64  F   UNL A   1      44.060  33.968  29.320  1.00  0.00    -0.206 F 
ATOM     65  C   UNL A   1      44.000  35.466  31.123  1.00  0.00     0.059 A 
ATOM     66  C   UNL A   1      43.620  34.635  33.374  1.00  0.00     0.059 A 
ATOM     67  F   UNL A   1      43.356  32.334  33.736  1.00  0.00    -0.206 F 
ATOM     68  C   UNL A   1      43.858  35.690  32.494  1.00  0.00     0.060 A 
BRANCH  68  69
ATOM     69  S   UNL A   1      43.985  37.383  33.106  1.00  0.00     0.124 S 
ATOM     70  O   UNL A   1      43.911  38.147  31.864  1.00  0.00    -0.237 OA
ATOM     71  O   UNL A   1      42.823  37.487  33.984  1.00  0.00    -0.237 OA
ATOM     72  O   UNL A   1      45.280  37.406  33.779  1.00  0.00    -0.744 OA
ENDBRANCH  68  69
ENDBRANCH  47  61
BRANCH  48  73
ATOM     73  C   UNL A   1      42.617  23.861  27.771  1.00  0.00     0.058 A 
ATOM     74  C   UNL A   1      42.484  22.741  28.605  1.00  0.00     0.135 A 
ATOM     75  C   UNL A   1      42.606  23.647  26.384  1.00  0.00     0.135 A 
ATOM     76  F   UNL A   1      42.495  22.894  29.939  1.00  0.00    -0.206 F 
ATOM     77  C   UNL A   1      42.364  21.455  28.088  1.00  0.00     0.059 A 
ATOM     78  C   UNL A   1      42.462  22.373  25.842  1.00  0.00     0.059 A 
ATOM     79  F   UNL A   1      42.713  24.686  25.542  1.00  0.00    -0.206 F 
ATOM     80  C   UNL A   1      42.355  21.282  26.703  1.00  0.00     0.060 A 
BRANCH  80  81
ATOM     81  S   UNL A   1      42.158  19.614  26.040  1.00  0.00     0.124 S 
ATOM     82  O   UNL A   1      43.091  19.631  24.920  1.00  0.00    -0.237 OA
ATOM     83  O   UNL A   1      42.541  18.783  27.178  1.00  0.00    -0.237 OA
ATOM     84  O   UNL A   1      40.743  19.561  25.683  1.00  0.00    -0.744 OA
ENDBRANCH  80  81
ENDBRANCH  48  73
BRANCH  60  85
ATOM     85  C   UNL A   1      47.965  27.324  30.602  1.00  0.00     0.058 A 
ATOM     86  C   UNL A   1      48.312  26.561  31.728  1.00  0.00     0.135 A 
ATOM     87  C   UNL A   1      48.989  27.679  29.710  1.00  0.00     0.135 A 
ATOM     88  F   UNL A   1      47.371  26.202  32.616  1.00  0.00    -0.206 F 
ATOM     89  C   UNL A   1      49.628  26.181  31.970  1.00  0.00     0.059 A 
ATOM     90  C   UNL A   1      50.309  27.288  29.918  1.00  0.00     0.059 A 
ATOM     91  F   UNL A   1      48.711  28.400  28.612  1.00  0.00    -0.206 F 
ATOM     92  C   UNL A   1      50.619  26.548  31.059  1.00  0.00     0.060 A 
BRANCH  92  93
ATOM     93  S   UNL A   1      52.317  26.019  31.366  1.00  0.00     0.124 S 
ATOM     94  O   UNL A   1      52.111  24.726  32.009  1.00  0.00    -0.237 OA
ATOM     95  O   UNL A   1      52.879  25.974  30.019  1.00  0.00    -0.237 OA
ATOM     96  O   UNL A   1      52.851  27.071  32.226  1.00  0.00    -0.744 OA
ENDBRANCH  92  93
ENDBRANCH  60  85
ENDBRANCH  34  35
ENDBRANCH  26  29
ENDBRANCH  24  25
ENDBRANCH  23  24
ENDBRANCH   1  23
TORSDOF 17
ENDMDL
MODEL 2
REMARK VINA RESULT:     -11.4      3.765      6.319
REMARK SMILES Nc1cccc(CC(=O)N2CC(C(=O)NCCCCNC(=O)c3ccc(-c4c5nc(c(-c6c(F)cc(S(=O)(=O)[O-])cc6F)c6ccc([nH]6)c(-c6c(F)cc(S(=O)(=O)[O-])cc6F)c6nc(c(-c7c(F)cc(S(=O)(=O)[O-])cc7F)c7ccc4[nH]7)C=C6)C=C5)cc3)C2)c1
REMARK SMILES IDX 17 1 16 2 15 3 13 4 14 5 12 7 8 8 9 9 10 10 11 11 89 12 7 13
REMARK SMILES IDX 6 14 2 15 3 16 90 17 4 18 5 19 1 20 18 23 19 24 20 25 21 26
REMARK SMILES IDX 22 28 23 29 24 30 88 31 25 32 87 33 26 34 27 35 28 36 81 37
REMARK SMILES IDX 29 38 86 39 80 40 82 41 30 42 85 43 79 44 78 45 31 47 65 48
REMARK SMILES IDX 44 49 64 50 45 51 48 52 63 53 83 54 46 55 47 56 62 58 84 59
REMARK SMILES IDX 49 60 32 61 33 62 42 63 34 64 35 65 41 66 43 67 36 68 37 69
REMARK SMILES IDX 38 70 39 71 40 72 66 73 67 74 76 75 68 76 69 77 75 78 77 79
REMARK SMILES IDX 70 80 71 81 72 82 73 83 74 84 50 85 51 86 60 87 52 88 53 89
REMARK SMILES IDX 59 90 61 91 54 92 55 93 56 94 57 95 58 96
REMARK H PARENT 15 6 1 21 1 22 20 27 82 46 48 57
REMARK Flexibility Score: inf
ROOT
ATOM      1  C   UNL A   1      33.353  34.790  29.197  1.00  0.00     0.023 C 
ENDROOT
BRANCH   1   2
ATOM      2  C   UNL A   1      33.396  36.145  29.903  1.00  0.00     0.116 C 
BRANCH   2   3
ATOM      3  N   UNL A   1      32.298  36.295  30.836  1.00  0.00    -0.356 N 
ATOM      4  C   UNL A   1      32.195  35.995  32.171  1.00  0.00     0.226 C 
ATOM      5  O   UNL A   1      31.094  36.235  32.690  1.00  0.00    -0.275 OA
ATOM      6  H   UNL A   1      31.481  36.680  30.444  1.00  0.00     0.163 HD
BRANCH   4   7
ATOM      7  C   UNL A   1      33.350  35.419  32.988  1.00  0.00     0.117 C 
ATOM      8  C   UNL A   1      36.582  34.366  33.075  1.00  0.00     0.227 C 
ATOM      9  O   UNL A   1      37.428  35.189  33.450  1.00  0.00    -0.275 OA
ATOM     10  N   UNL A   1      35.286  34.744  32.903  1.00  0.00    -0.341 N 
ATOM     11  C   UNL A   1      34.725  36.084  32.941  1.00  0.00     0.134 C 
ATOM     12  C   UNL A   1      34.023  34.083  32.652  1.00  0.00     0.134 C 
BRANCH   8  13
ATOM     13  C   UNL A   1      37.035  32.981  32.655  1.00  0.00     0.135 C 
BRANCH  13  14
ATOM     14  C   UNL A   1      37.999  32.230  33.535  1.00  0.00    -0.037 A 
ATOM     15  C   UNL A   1      38.395  30.867  35.524  1.00  0.00     0.032 A 
ATOM     16  C   UNL A   1      39.748  30.809  35.191  1.00  0.00     0.025 A 
ATOM     17  C   UNL A   1      37.535  31.598  34.702  1.00  0.00     0.029 A 
ATOM     18  C   UNL A   1      40.224  31.420  34.028  1.00  0.00     0.002 A 
ATOM     19  C   UNL A   1      39.353  32.123  33.197  1.00  0.00     0.004 A 
BRANCH  15  20
ATOM     20  N   UNL A   1      37.932  30.314  36.707  1.00  0.00    -0.399 N 
ATOM     21  H   UNL A   1      38.277  30.639  37.570  1.00  0.00     0.156 HD
ATOM     22  H   UNL A   1      37.259  29.596  36.683  1.00  0.00     0.156 HD
ENDBRANCH  15  20
ENDBRANCH  13  14
ENDBRANCH   8  13
ENDBRANCH   4   7
ENDBRANCH   2   3
ENDBRANCH   1   2
BRANCH   1  23
ATOM     23  C   UNL A   1      34.719  34.257  28.749  1.00  0.00     0.023 C 
BRANCH  23  24
ATOM     24  C   UNL A   1      35.041  32.829  29.176  1.00  0.00     0.116 C 
BRANCH  24  25
ATOM     25  N   UNL A   1      34.214  31.835  28.510  1.00  0.00    -0.352 N 
ATOM     26  C   UNL A   1      34.565  30.594  28.034  1.00  0.00     0.251 C 
ATOM     27  H   UNL A   1      33.271  32.087  28.381  1.00  0.00     0.163 HD
ATOM     28  O   UNL A   1      33.756  29.942  27.380  1.00  0.00    -0.269 OA
BRANCH  26  29
ATOM     29  C   UNL A   1      35.923  30.064  28.284  1.00  0.00     0.039 A 
ATOM     30  C   UNL A   1      36.862  30.101  27.248  1.00  0.00     0.014 A 
ATOM     31  C   UNL A   1      36.277  29.549  29.535  1.00  0.00     0.014 A 
ATOM     32  C   UNL A   1      38.175  29.691  27.490  1.00  0.00     0.010 A 
ATOM     33  C   UNL A   1      37.602  29.205  29.791  1.00  0.00     0.010 A 
ATOM     34  C   UNL A   1      38.566  29.277  28.775  1.00  0.00    -0.014 A 
BRANCH  34  35
ATOM     35  C   UNL A   1      39.978  28.927  29.076  1.00  0.00     0.031 A 
ATOM     36  C   UNL A   1      40.898  29.952  29.683  1.00  0.00     0.074 A 
ATOM     37  C   UNL A   1      40.449  27.710  28.740  1.00  0.00     0.049 A 
ATOM     38  N   UNL A   1      42.178  29.862  29.942  1.00  0.00    -0.248 NA
ATOM     39  C   UNL A   1      40.308  31.257  30.018  1.00  0.00     0.031 C 
ATOM     40  C   UNL A   1      39.670  26.644  28.105  1.00  0.00     0.029 A 
ATOM     41  N   UNL A   1      41.703  27.165  28.875  1.00  0.00    -0.354 N 
ATOM     42  C   UNL A   1      42.548  31.098  30.459  1.00  0.00     0.074 A 
ATOM     43  C   UNL A   1      41.369  31.938  30.427  1.00  0.00     0.031 C 
ATOM     44  C   UNL A   1      40.454  25.570  27.926  1.00  0.00     0.029 A 
ATOM     45  C   UNL A   1      41.801  25.879  28.397  1.00  0.00     0.049 A 
ATOM     46  H   UNL A   1      42.460  27.648  29.277  1.00  0.00     0.167 HD
ATOM     47  C   UNL A   1      43.752  31.489  30.940  1.00  0.00     0.037 A 
ATOM     48  C   UNL A   1      42.858  25.045  28.335  1.00  0.00     0.037 A 
ATOM     49  C   UNL A   1      44.916  30.643  30.991  1.00  0.00     0.049 A 
ATOM     50  C   UNL A   1      44.188  25.507  28.868  1.00  0.00     0.074 A 
ATOM     51  C   UNL A   1      46.169  30.932  31.503  1.00  0.00     0.029 A 
ATOM     52  N   UNL A   1      44.970  29.341  30.515  1.00  0.00    -0.354 N 
ATOM     53  N   UNL A   1      44.505  26.661  29.404  1.00  0.00    -0.248 NA
ATOM     54  C   UNL A   1      45.302  24.552  28.793  1.00  0.00     0.031 C 
ATOM     55  C   UNL A   1      46.991  29.817  31.302  1.00  0.00     0.029 A 
ATOM     56  C   UNL A   1      46.238  28.819  30.706  1.00  0.00     0.049 A 
ATOM     57  H   UNL A   1      44.218  28.859  30.101  1.00  0.00     0.167 HD
ATOM     58  C   UNL A   1      45.847  26.561  29.756  1.00  0.00     0.074 A 
ATOM     59  C   UNL A   1      46.277  25.230  29.383  1.00  0.00     0.031 C 
ATOM     60  C   UNL A   1      46.649  27.486  30.339  1.00  0.00     0.037 A 
BRANCH  47  61
ATOM     61  C   UNL A   1      43.868  32.896  31.461  1.00  0.00     0.058 A 
ATOM     62  C   UNL A   1      44.133  33.976  30.603  1.00  0.00     0.135 A 
ATOM     63  C   UNL A   1      43.684  33.175  32.825  1.00  0.00     0.135 A 
ATOM     64  F   UNL A   1      44.333  33.765  29.292  1.00  0.00    -0.206 F 
ATOM     65  C   UNL A   1      44.242  35.277  31.081  1.00  0.00     0.059 A 
ATOM     66  C   UNL A   1      43.760  34.473  33.322  1.00  0.00     0.059 A 
ATOM     67  F   UNL A   1      43.428  32.181  33.690  1.00  0.00    -0.206 F 
ATOM     68  C   UNL A   1      44.056  35.515  32.445  1.00  0.00     0.060 A 
BRANCH  68  69
ATOM     69  S   UNL A   1      44.200  37.209  33.050  1.00  0.00     0.124 S 
ATOM     70  O   UNL A   1      44.426  37.943  31.808  1.00  0.00    -0.237 OA
ATOM     71  O   UNL A   1      42.905  37.426  33.687  1.00  0.00    -0.237 OA
ATOM     72  O   UNL A   1      45.341  37.150  33.958  1.00  0.00    -0.744 OA
ENDBRANCH  68  69
ENDBRANCH  47  61
BRANCH  48  73
ATOM     73  C   UNL A   1      42.700  23.680  27.768  1.00  0.00     0.058 A 
ATOM     74  C   UNL A   1      42.468  22.577  28.602  1.00  0.00     0.135 A 
ATOM     75  C   UNL A   1      42.774  23.450  26.385  1.00  0.00     0.135 A 
ATOM     76  F   UNL A   1      42.395  22.746  29.932  1.00  0.00    -0.206 F 
ATOM     77  C   UNL A   1      42.335  21.290  28.092  1.00  0.00     0.059 A 
ATOM     78  C   UNL A   1      42.619  22.175  25.848  1.00  0.00     0.059 A 
ATOM     79  F   UNL A   1      42.977  24.473  25.542  1.00  0.00    -0.206 F 
ATOM     80  C   UNL A   1      42.412  21.099  26.711  1.00  0.00     0.060 A 
BRANCH  80  81
ATOM     81  S   UNL A   1      42.197  19.431  26.053  1.00  0.00     0.124 S 
ATOM     82  O   UNL A   1      42.711  18.617  27.148  1.00  0.00    -0.237 OA
ATOM     83  O   UNL A   1      40.755  19.371  25.833  1.00  0.00    -0.237 OA
ATOM     84  O   UNL A   1      43.008  19.443  24.839  1.00  0.00    -0.744 OA
ENDBRANCH  80  81
ENDBRANCH  48  73
BRANCH  60  85
ATOM     85  C   UNL A   1      48.064  27.081  30.645  1.00  0.00     0.058 A 
ATOM     86  C   UNL A   1      48.398  26.397  31.824  1.00  0.00     0.135 A 
ATOM     87  C   UNL A   1      49.089  27.335  29.720  1.00  0.00     0.135 A 
ATOM     88  F   UNL A   1      47.456  26.136  32.744  1.00  0.00    -0.206 F 
ATOM     89  C   UNL A   1      49.705  25.998  32.086  1.00  0.00     0.059 A 
ATOM     90  C   UNL A   1      50.399  26.922  29.949  1.00  0.00     0.059 A 
ATOM     91  F   UNL A   1      48.821  27.977  28.572  1.00  0.00    -0.206 F 
ATOM     92  C   UNL A   1      50.698  26.264  31.141  1.00  0.00     0.060 A 
BRANCH  92  93
ATOM     93  S   UNL A   1      52.383  25.709  31.476  1.00  0.00     0.124 S 
ATOM     94  O   UNL A   1      52.154  24.357  31.971  1.00  0.00    -0.237 OA
ATOM     95  O   UNL A   1      53.011  25.806  30.161  1.00  0.00    -0.237 OA
ATOM     96  O   UNL A   1      52.866  26.668  32.465  1.00  0.00    -0.744 OA
ENDBRANCH  92  93
ENDBRANCH  60  85
ENDBRANCH  34  35
ENDBRANCH  26  29
ENDBRANCH  24  25
ENDBRANCH  23  24
ENDBRANCH   1  23
TORSDOF 17
ENDMDL
MODEL 3
REMARK VINA RESULT:     -11.3      4.974     10.105
REMARK SMILES Nc1cccc(CC(=O)N2CC(C(=O)NCCCCNC(=O)c3ccc(-c4c5nc(c(-c6c(F)cc(S(=O)(=O)[O-])cc6F)c6ccc([nH]6)c(-c6c(F)cc(S(=O)(=O)[O-])cc6F)c6nc(c(-c7c(F)cc(S(=O)(=O)[O-])cc7F)c7ccc4[nH]7)C=C6)C=C5)cc3)C2)c1
REMARK SMILES IDX 17 1 16 2 15 3 13 4 14 5 12 7 8 8 9 9 10 10 11 11 89 12 7 13
REMARK SMILES IDX 6 14 2 15 3 16 90 17 4 18 5 19 1 20 18 23 19 24 20 25 21 26
REMARK SMILES IDX 22 28 23 29 24 30 88 31 25 32 87 33 26 34 27 35 28 36 81 37
REMARK SMILES IDX 29 38 86 39 80 40 82 41 30 42 85 43 79 44 78 45 31 47 65 48
REMARK SMILES IDX 44 49 64 50 45 51 48 52 63 53 83 54 46 55 47 56 62 58 84 59
REMARK SMILES IDX 49 60 32 61 33 62 42 63 34 64 35 65 41 66 43 67 36 68 37 69
REMARK SMILES IDX 38 70 39 71 40 72 66 73 67 74 76 75 68 76 69 77 75 78 77 79
REMARK SMILES IDX 70 80 71 81 72 82 73 83 74 84 50 85 51 86 60 87 52 88 53 89
REMARK SMILES IDX 59 90 61 91 54 92 55 93 56 94 57 95 58 96
REMARK H PARENT 15 6 1 21 1 22 20 27 82 46 48 57
REMARK Flexibility Score: inf
ROOT
ATOM      1  C   UNL A   1      38.917  23.013  26.281  1.00  0.00     0.023 C 
ENDROOT
BRANCH   1   2
ATOM      2  C   UNL A   1      37.903  21.995  25.759  1.00  0.00     0.116 C 
BRANCH   2   3
ATOM      3  N   UNL A   1      37.392  22.371  24.457  1.00  0.00    -0.356 N 
ATOM      4  C   UNL A   1      36.328  23.156  24.093  1.00  0.00     0.226 C 
ATOM      5  O   UNL A   1      36.143  23.275  22.871  1.00  0.00    -0.275 OA
ATOM      6  H   UNL A   1      37.898  21.999  23.698  1.00  0.00     0.163 HD
BRANCH   4   7
ATOM      7  C   UNL A   1      35.425  23.860  25.104  1.00  0.00     0.117 C 
ATOM      8  C   UNL A   1      32.290  24.346  26.328  1.00  0.00     0.227 C 
ATOM      9  O   UNL A   1      31.960  23.665  27.307  1.00  0.00    -0.275 OA
ATOM     10  N   UNL A   1      33.483  24.128  25.710  1.00  0.00    -0.341 N 
ATOM     11  C   UNL A   1      34.429  23.048  25.933  1.00  0.00     0.134 C 
ATOM     12  C   UNL A   1      34.275  24.786  24.692  1.00  0.00     0.134 C 
BRANCH   8  13
ATOM     13  C   UNL A   1      31.285  25.311  25.728  1.00  0.00     0.135 C 
BRANCH  13  14
ATOM     14  C   UNL A   1      31.509  26.791  25.887  1.00  0.00    -0.037 A 
ATOM     15  C   UNL A   1      31.285  29.052  24.988  1.00  0.00     0.032 A 
ATOM     16  C   UNL A   1      31.887  29.550  26.144  1.00  0.00     0.025 A 
ATOM     17  C   UNL A   1      31.121  27.672  24.862  1.00  0.00     0.029 A 
ATOM     18  C   UNL A   1      32.267  28.691  27.178  1.00  0.00     0.002 A 
ATOM     19  C   UNL A   1      32.072  27.315  27.056  1.00  0.00     0.004 A 
BRANCH  15  20
ATOM     20  N   UNL A   1      30.965  29.896  23.938  1.00  0.00    -0.399 N 
ATOM     21  H   UNL A   1      30.176  29.709  23.379  1.00  0.00     0.156 HD
ATOM     22  H   UNL A   1      31.527  30.682  23.750  1.00  0.00     0.156 HD
ENDBRANCH  15  20
ENDBRANCH  13  14
ENDBRANCH   8  13
ENDBRANCH   4   7
ENDBRANCH   2   3
ENDBRANCH   1   2
BRANCH   1  23
ATOM     23  C   UNL A   1      40.107  22.405  27.031  1.00  0.00     0.023 C 
BRANCH  23  24
ATOM     24  C   UNL A   1      41.335  23.302  27.156  1.00  0.00     0.116 C 
BRANCH  24  25
ATOM     25  N   UNL A   1      41.470  24.239  26.052  1.00  0.00    -0.352 N 
ATOM     26  C   UNL A   1      41.415  25.613  26.071  1.00  0.00     0.251 C 
ATOM     27  H   UNL A   1      41.619  23.834  25.168  1.00  0.00     0.163 HD
ATOM     28  O   UNL A   1      41.421  26.237  25.013  1.00  0.00    -0.269 OA
BRANCH  26  29
ATOM     29  C   UNL A   1      41.316  26.330  27.360  1.00  0.00     0.039 A 
ATOM     30  C   UNL A   1      42.323  27.237  27.707  1.00  0.00     0.014 A 
ATOM     31  C   UNL A   1      40.230  26.125  28.217  1.00  0.00     0.014 A 
ATOM     32  C   UNL A   1      42.202  27.991  28.876  1.00  0.00     0.010 A 
ATOM     33  C   UNL A   1      40.079  26.927  29.346  1.00  0.00     0.010 A 
ATOM     34  C   UNL A   1      41.059  27.871  29.685  1.00  0.00    -0.014 A 
BRANCH  34  35
ATOM     35  C   UNL A   1      40.867  28.732  30.881  1.00  0.00     0.031 A 
ATOM     36  C   UNL A   1      39.809  29.801  30.881  1.00  0.00     0.074 A 
ATOM     37  C   UNL A   1      41.690  28.596  31.939  1.00  0.00     0.049 A 
ATOM     38  N   UNL A   1      39.543  30.701  31.794  1.00  0.00    -0.248 NA
ATOM     39  C   UNL A   1      38.953  29.888  29.687  1.00  0.00     0.031 C 
ATOM     40  C   UNL A   1      42.784  27.627  32.043  1.00  0.00     0.029 A 
ATOM     41  N   UNL A   1      41.744  29.281  33.128  1.00  0.00    -0.354 N 
ATOM     42  C   UNL A   1      38.501  31.465  31.282  1.00  0.00     0.074 A 
ATOM     43  C   UNL A   1      38.218  30.957  29.957  1.00  0.00     0.031 C 
ATOM     44  C   UNL A   1      43.385  27.765  33.236  1.00  0.00     0.029 A 
ATOM     45  C   UNL A   1      42.747  28.855  33.967  1.00  0.00     0.049 A 
ATOM     46  H   UNL A   1      41.122  30.009  33.358  1.00  0.00     0.167 HD
ATOM     47  C   UNL A   1      37.825  32.479  31.872  1.00  0.00     0.037 A 
ATOM     48  C   UNL A   1      43.118  29.299  35.185  1.00  0.00     0.037 A 
ATOM     49  C   UNL A   1      38.095  32.967  33.200  1.00  0.00     0.049 A 
ATOM     50  C   UNL A   1      42.356  30.434  35.815  1.00  0.00     0.074 A 
ATOM     51  C   UNL A   1      37.435  33.959  33.904  1.00  0.00     0.029 A 
ATOM     52  N   UNL A   1      39.106  32.496  34.025  1.00  0.00    -0.354 N 
ATOM     53  N   UNL A   1      41.337  31.108  35.339  1.00  0.00    -0.248 NA
ATOM     54  C   UNL A   1      42.791  30.865  37.151  1.00  0.00     0.031 C 
ATOM     55  C   UNL A   1      38.071  34.114  35.141  1.00  0.00     0.029 A 
ATOM     56  C   UNL A   1      39.098  33.188  35.225  1.00  0.00     0.049 A 
ATOM     57  H   UNL A   1      39.737  31.777  33.792  1.00  0.00     0.167 HD
ATOM     58  C   UNL A   1      40.991  32.022  36.327  1.00  0.00     0.074 A 
ATOM     59  C   UNL A   1      41.902  31.807  37.432  1.00  0.00     0.031 C 
ATOM     60  C   UNL A   1      40.005  32.954  36.321  1.00  0.00     0.037 A 
BRANCH  47  61
ATOM     61  C   UNL A   1      36.717  33.126  31.086  1.00  0.00     0.058 A 
ATOM     62  C   UNL A   1      36.987  34.011  30.029  1.00  0.00     0.135 A 
ATOM     63  C   UNL A   1      35.372  32.836  31.368  1.00  0.00     0.135 A 
ATOM     64  F   UNL A   1      38.254  34.335  29.726  1.00  0.00    -0.206 F 
ATOM     65  C   UNL A   1      35.964  34.610  29.302  1.00  0.00     0.059 A 
ATOM     66  C   UNL A   1      34.333  33.403  30.635  1.00  0.00     0.059 A 
ATOM     67  F   UNL A   1      35.056  31.997  32.367  1.00  0.00    -0.206 F 
ATOM     68  C   UNL A   1      34.639  34.301  29.614  1.00  0.00     0.060 A 
BRANCH  68  69
ATOM     69  S   UNL A   1      33.324  35.087  28.660  1.00  0.00     0.124 S 
ATOM     70  O   UNL A   1      32.787  33.952  27.915  1.00  0.00    -0.237 OA
ATOM     71  O   UNL A   1      32.458  35.625  29.705  1.00  0.00    -0.237 OA
ATOM     72  O   UNL A   1      34.031  36.083  27.862  1.00  0.00    -0.744 OA
ENDBRANCH  68  69
ENDBRANCH  47  61
BRANCH  48  73
ATOM     73  C   UNL A   1      44.251  28.655  35.900  1.00  0.00     0.058 A 
ATOM     74  C   UNL A   1      45.569  29.091  35.701  1.00  0.00     0.135 A 
ATOM     75  C   UNL A   1      44.041  27.596  36.798  1.00  0.00     0.135 A 
ATOM     76  F   UNL A   1      45.820  30.097  34.848  1.00  0.00    -0.206 F 
ATOM     77  C   UNL A   1      46.643  28.489  36.347  1.00  0.00     0.059 A 
ATOM     78  C   UNL A   1      45.098  26.994  37.476  1.00  0.00     0.059 A 
ATOM     79  F   UNL A   1      42.798  27.152  37.038  1.00  0.00    -0.206 F 
ATOM     80  C   UNL A   1      46.396  27.439  37.235  1.00  0.00     0.060 A 
BRANCH  80  81
ATOM     81  S   UNL A   1      47.793  26.691  38.101  1.00  0.00     0.124 S 
ATOM     82  O   UNL A   1      48.559  27.869  38.493  1.00  0.00    -0.237 OA
ATOM     83  O   UNL A   1      47.133  25.969  39.185  1.00  0.00    -0.237 OA
ATOM     84  O   UNL A   1      48.408  25.848  37.080  1.00  0.00    -0.744 OA
ENDBRANCH  80  81
ENDBRANCH  48  73
BRANCH  60  85
ATOM     85  C   UNL A   1      39.834  33.787  37.561  1.00  0.00     0.058 A 
ATOM     86  C   UNL A   1      40.495  35.015  37.723  1.00  0.00     0.135 A 
ATOM     87  C   UNL A   1      38.956  33.376  38.576  1.00  0.00     0.135 A 
ATOM     88  F   UNL A   1      41.350  35.451  36.784  1.00  0.00    -0.206 F 
ATOM     89  C   UNL A   1      40.307  35.796  38.859  1.00  0.00     0.059 A 
ATOM     90  C   UNL A   1      38.733  34.153  39.709  1.00  0.00     0.059 A 
ATOM     91  F   UNL A   1      38.292  32.214  38.466  1.00  0.00    -0.206 F 
ATOM     92  C   UNL A   1      39.423  35.357  39.846  1.00  0.00     0.060 A 
BRANCH  92  93
ATOM     93  S   UNL A   1      39.161  36.396  41.299  1.00  0.00     0.124 S 
ATOM     94  O   UNL A   1      40.454  36.299  41.967  1.00  0.00    -0.237 OA
ATOM     95  O   UNL A   1      38.850  37.692  40.704  1.00  0.00    -0.237 OA
ATOM     96  O   UNL A   1      38.048  35.746  41.985  1.00  0.00    -0.744 OA
ENDBRANCH  92  93
ENDBRANCH  60  85
ENDBRANCH  34  35
ENDBRANCH  26  29
ENDBRANCH  24  25
ENDBRANCH  23  24
ENDBRANCH   1  23
TORSDOF 17
ENDMDL
