MODEL 1
REMARK VINA RESULT:      -9.9      0.000      0.000
REMARK SMILES Cc1ncccc1C(=O)NCCOCC(=O)NCCCCNC(=O)c1ccc(-c2c3nc(c(-c4c(F)cc(S(=O)(=O)[O-])cc4F)c4ccc([nH]4)c(-c4c(F)cc(S(=O)(=O)[O-])cc4F)c4nc(c(-c5c(F)cc(S(=O)(=O)[O-])cc5F)c5ccc2[nH]5)C=C4)C=C3)cc1
REMARK SMILES IDX 18 1 17 2 15 3 16 4 14 6 13 7 12 8 11 9 10 10 8 11 9 12 7 14
REMARK SMILES IDX 1 15 2 16 3 17 4 18 6 19 5 20 19 21 20 22 21 23 22 24 23 25
REMARK SMILES IDX 24 27 25 28 26 29 90 30 27 31 89 32 28 33 29 34 30 35 83 36
REMARK SMILES IDX 31 37 88 38 82 39 84 40 32 41 87 42 81 43 80 44 33 46 67 47
REMARK SMILES IDX 46 48 66 49 47 50 50 51 65 52 85 53 48 54 49 55 64 57 86 58
REMARK SMILES IDX 51 59 34 60 35 61 44 62 36 63 37 64 43 65 45 66 38 67 39 68
REMARK SMILES IDX 40 69 41 70 42 71 68 72 69 73 78 74 70 75 71 76 77 77 79 78
REMARK SMILES IDX 72 79 73 80 74 81 75 82 76 83 52 84 53 85 62 86 54 87 55 88
REMARK SMILES IDX 61 89 63 90 56 91 57 92 58 93 59 94 60 95
REMARK H PARENT 17 5 10 13 22 26 84 45 50 56
REMARK Flexibility Score: inf
ROOT
ATOM      1  C   UNL A   1      33.491  35.890  29.155  1.00  0.00     0.116 C 
ENDROOT
BRANCH   1   2
ATOM      2  N   UNL A   1      32.606  36.322  30.218  1.00  0.00    -0.354 N 
ATOM      3  C   UNL A   1      32.840  36.317  31.565  1.00  0.00     0.245 C 
ATOM      4  O   UNL A   1      31.985  36.767  32.327  1.00  0.00    -0.272 OA
ATOM      5  H   UNL A   1      31.726  36.660  29.935  1.00  0.00     0.163 HD
BRANCH   3   6
ATOM      6  C   UNL A   1      34.158  35.725  32.091  1.00  0.00     0.260 C 
BRANCH   6   7
ATOM      7  O   UNL A   1      34.423  35.728  33.486  1.00  0.00    -0.370 OA
BRANCH   7   8
ATOM      8  C   UNL A   1      35.012  34.535  34.002  1.00  0.00     0.182 C 
BRANCH   8   9
ATOM      9  C   UNL A   1      34.760  33.287  33.161  1.00  0.00     0.144 C 
BRANCH   9  10
ATOM     10  N   UNL A   1      35.759  32.245  33.272  1.00  0.00    -0.350 N 
ATOM     11  C   UNL A   1      37.015  32.129  32.739  1.00  0.00     0.253 C 
ATOM     12  O   UNL A   1      37.701  31.164  33.080  1.00  0.00    -0.269 OA
ATOM     13  H   UNL A   1      35.487  31.482  33.831  1.00  0.00     0.163 HD
BRANCH  11  14
ATOM     14  C   UNL A   1      37.570  33.061  31.729  1.00  0.00     0.061 A 
ATOM     15  C   UNL A   1      39.087  34.422  33.284  1.00  0.00     0.067 C 
ATOM     16  C   UNL A   1      38.493  34.087  31.951  1.00  0.00     0.050 A 
ATOM     17  N   UNL A   1      38.970  34.866  30.936  1.00  0.00    -0.261 NA
ATOM     18  C   UNL A   1      38.589  34.577  29.673  1.00  0.00     0.111 A 
ATOM     19  C   UNL A   1      37.223  32.778  30.396  1.00  0.00     0.017 A 
ATOM     20  C   UNL A   1      37.741  33.538  29.353  1.00  0.00     0.021 A 
ENDBRANCH  11  14
ENDBRANCH   9  10
ENDBRANCH   8   9
ENDBRANCH   7   8
ENDBRANCH   6   7
ENDBRANCH   3   6
ENDBRANCH   1   2
BRANCH   1  21
ATOM     21  C   UNL A   1      33.116  34.521  28.590  1.00  0.00     0.023 C 
BRANCH  21  22
ATOM     22  C   UNL A   1      33.958  33.349  29.097  1.00  0.00     0.023 C 
BRANCH  22  23
ATOM     23  C   UNL A   1      34.584  32.479  28.014  1.00  0.00     0.116 C 
BRANCH  23  24
ATOM     24  N   UNL A   1      33.934  31.186  27.873  1.00  0.00    -0.352 N 
ATOM     25  C   UNL A   1      34.490  29.931  27.941  1.00  0.00     0.251 C 
ATOM     26  H   UNL A   1      32.964  31.213  27.707  1.00  0.00     0.163 HD
ATOM     27  O   UNL A   1      33.806  28.942  27.693  1.00  0.00    -0.269 OA
BRANCH  25  28
ATOM     28  C   UNL A   1      35.923  29.788  28.271  1.00  0.00     0.039 A 
ATOM     29  C   UNL A   1      36.280  29.383  29.558  1.00  0.00     0.014 A 
ATOM     30  C   UNL A   1      36.907  30.016  27.304  1.00  0.00     0.014 A 
ATOM     31  C   UNL A   1      37.621  29.136  29.857  1.00  0.00     0.010 A 
ATOM     32  C   UNL A   1      38.232  29.699  27.582  1.00  0.00     0.010 A 
ATOM     33  C   UNL A   1      38.603  29.255  28.860  1.00  0.00    -0.014 A 
BRANCH  33  34
ATOM     34  C   UNL A   1      40.023  28.915  29.133  1.00  0.00     0.031 A 
ATOM     35  C   UNL A   1      40.940  29.939  29.743  1.00  0.00     0.074 A 
ATOM     36  C   UNL A   1      40.501  27.708  28.770  1.00  0.00     0.049 A 
ATOM     37  N   UNL A   1      42.221  29.855  29.994  1.00  0.00    -0.248 NA
ATOM     38  C   UNL A   1      40.344  31.238  30.092  1.00  0.00     0.031 C 
ATOM     39  C   UNL A   1      39.721  26.648  28.125  1.00  0.00     0.029 A 
ATOM     40  N   UNL A   1      41.758  27.171  28.882  1.00  0.00    -0.354 N 
ATOM     41  C   UNL A   1      42.586  31.091  30.515  1.00  0.00     0.074 A 
ATOM     42  C   UNL A   1      41.404  31.924  30.493  1.00  0.00     0.031 C 
ATOM     43  C   UNL A   1      40.512  25.581  27.922  1.00  0.00     0.029 A 
ATOM     44  C   UNL A   1      41.860  25.892  28.385  1.00  0.00     0.049 A 
ATOM     45  H   UNL A   1      42.517  27.655  29.280  1.00  0.00     0.167 HD
ATOM     46  C   UNL A   1      43.790  31.486  30.993  1.00  0.00     0.037 A 
ATOM     47  C   UNL A   1      42.922  25.066  28.307  1.00  0.00     0.037 A 
ATOM     48  C   UNL A   1      44.957  30.643  31.034  1.00  0.00     0.049 A 
ATOM     49  C   UNL A   1      44.251  25.530  28.839  1.00  0.00     0.074 A 
ATOM     50  C   UNL A   1      46.208  30.930  31.549  1.00  0.00     0.029 A 
ATOM     51  N   UNL A   1      45.016  29.348  30.538  1.00  0.00    -0.354 N 
ATOM     52  N   UNL A   1      44.563  26.679  29.388  1.00  0.00    -0.248 NA
ATOM     53  C   UNL A   1      45.371  24.583  28.745  1.00  0.00     0.031 C 
ATOM     54  C   UNL A   1      47.036  29.824  31.326  1.00  0.00     0.029 A 
ATOM     55  C   UNL A   1      46.288  28.831  30.716  1.00  0.00     0.049 A 
ATOM     56  H   UNL A   1      44.264  28.869  30.119  1.00  0.00     0.167 HD
ATOM     57  C   UNL A   1      45.907  26.584  29.733  1.00  0.00     0.074 A 
ATOM     58  C   UNL A   1      46.345  25.260  29.338  1.00  0.00     0.031 C 
ATOM     59  C   UNL A   1      46.705  27.507  30.324  1.00  0.00     0.037 A 
BRANCH  46  60
ATOM     60  C   UNL A   1      43.902  32.893  31.514  1.00  0.00     0.058 A 
ATOM     61  C   UNL A   1      44.331  33.951  30.695  1.00  0.00     0.135 A 
ATOM     62  C   UNL A   1      43.556  33.194  32.842  1.00  0.00     0.135 A 
ATOM     63  F   UNL A   1      44.689  33.717  29.423  1.00  0.00    -0.206 F 
ATOM     64  C   UNL A   1      44.450  35.248  31.183  1.00  0.00     0.059 A 
ATOM     65  C   UNL A   1      43.638  34.491  33.342  1.00  0.00     0.059 A 
ATOM     66  F   UNL A   1      43.139  32.223  33.668  1.00  0.00    -0.206 F 
ATOM     67  C   UNL A   1      44.104  35.507  32.509  1.00  0.00     0.060 A 
BRANCH  67  68
ATOM     68  S   UNL A   1      44.271  37.194  33.129  1.00  0.00     0.124 S 
ATOM     69  O   UNL A   1      45.702  37.261  33.406  1.00  0.00    -0.237 OA
ATOM     70  O   UNL A   1      43.807  37.991  31.997  1.00  0.00    -0.237 OA
ATOM     71  O   UNL A   1      43.404  37.214  34.303  1.00  0.00    -0.744 OA
ENDBRANCH  67  68
ENDBRANCH  46  60
BRANCH  47  72
ATOM     72  C   UNL A   1      42.765  23.705  27.727  1.00  0.00     0.058 A 
ATOM     73  C   UNL A   1      42.796  23.507  26.339  1.00  0.00     0.135 A 
ATOM     74  C   UNL A   1      42.594  22.576  28.545  1.00  0.00     0.135 A 
ATOM     75  F   UNL A   1      42.952  24.555  25.517  1.00  0.00    -0.206 F 
ATOM     76  C   UNL A   1      42.647  22.243  25.779  1.00  0.00     0.059 A 
ATOM     77  C   UNL A   1      42.467  21.298  28.009  1.00  0.00     0.059 A 
ATOM     78  F   UNL A   1      42.574  22.710  29.880  1.00  0.00    -0.206 F 
ATOM     79  C   UNL A   1      42.484  21.143  26.623  1.00  0.00     0.060 A 
BRANCH  79  80
ATOM     80  S   UNL A   1      42.340  19.501  25.887  1.00  0.00     0.124 S 
ATOM     81  O   UNL A   1      43.366  19.551  24.853  1.00  0.00    -0.237 OA
ATOM     82  O   UNL A   1      42.620  18.629  27.023  1.00  0.00    -0.237 OA
ATOM     83  O   UNL A   1      40.961  19.469  25.407  1.00  0.00    -0.744 OA
ENDBRANCH  79  80
ENDBRANCH  47  72
BRANCH  59  84
ATOM     84  C   UNL A   1      48.125  27.108  30.616  1.00  0.00     0.058 A 
ATOM     85  C   UNL A   1      49.155  27.310  29.685  1.00  0.00     0.135 A 
ATOM     86  C   UNL A   1      48.467  26.565  31.866  1.00  0.00     0.135 A 
ATOM     87  F   UNL A   1      48.882  27.819  28.474  1.00  0.00    -0.206 F 
ATOM     88  C   UNL A   1      50.472  26.966  29.974  1.00  0.00     0.059 A 
ATOM     89  C   UNL A   1      49.781  26.240  32.186  1.00  0.00     0.059 A 
ATOM     90  F   UNL A   1      47.521  26.362  32.796  1.00  0.00    -0.206 F 
ATOM     91  C   UNL A   1      50.776  26.434  31.228  1.00  0.00     0.060 A 
BRANCH  91  92
ATOM     92  S   UNL A   1      52.494  26.027  31.605  1.00  0.00     0.124 S 
ATOM     93  O   UNL A   1      52.803  26.997  32.650  1.00  0.00    -0.237 OA
ATOM     94  O   UNL A   1      52.397  24.636  32.039  1.00  0.00    -0.237 OA
ATOM     95  O   UNL A   1      53.179  26.234  30.333  1.00  0.00    -0.744 OA
ENDBRANCH  91  92
ENDBRANCH  59  84
ENDBRANCH  33  34
ENDBRANCH  25  28
ENDBRANCH  23  24
ENDBRANCH  22  23
ENDBRANCH  21  22
ENDBRANCH   1  21
TORSDOF 19
ENDMDL
MODEL 2
REMARK VINA RESULT:      -9.1      4.069      6.579
REMARK SMILES Cc1ncccc1C(=O)NCCOCC(=O)NCCCCNC(=O)c1ccc(-c2c3nc(c(-c4c(F)cc(S(=O)(=O)[O-])cc4F)c4ccc([nH]4)c(-c4c(F)cc(S(=O)(=O)[O-])cc4F)c4nc(c(-c5c(F)cc(S(=O)(=O)[O-])cc5F)c5ccc2[nH]5)C=C4)C=C3)cc1
REMARK SMILES IDX 18 1 17 2 15 3 16 4 14 6 13 7 12 8 11 9 10 10 8 11 9 12 7 14
REMARK SMILES IDX 1 15 2 16 3 17 4 18 6 19 5 20 19 21 20 22 21 23 22 24 23 25
REMARK SMILES IDX 24 27 25 28 26 29 90 30 27 31 89 32 28 33 29 34 30 35 83 36
REMARK SMILES IDX 31 37 88 38 82 39 84 40 32 41 87 42 81 43 80 44 33 46 67 47
REMARK SMILES IDX 46 48 66 49 47 50 50 51 65 52 85 53 48 54 49 55 64 57 86 58
REMARK SMILES IDX 51 59 34 60 35 61 44 62 36 63 37 64 43 65 45 66 38 67 39 68
REMARK SMILES IDX 40 69 41 70 42 71 68 72 69 73 78 74 70 75 71 76 77 77 79 78
REMARK SMILES IDX 72 79 73 80 74 81 75 82 76 83 52 84 53 85 62 86 54 87 55 88
REMARK SMILES IDX 61 89 63 90 56 91 57 92 58 93 59 94 60 95
REMARK H PARENT 17 5 10 13 22 26 84 45 50 56
REMARK Flexibility Score: inf
ROOT
ATOM      1  C   UNL A   1      33.998  28.712  26.524  1.00  0.00     0.116 C 
ENDROOT
BRANCH   1   2
ATOM      2  N   UNL A   1      32.778  28.165  27.085  1.00  0.00    -0.354 N 
ATOM      3  C   UNL A   1      31.804  27.450  26.447  1.00  0.00     0.245 C 
ATOM      4  O   UNL A   1      30.850  27.020  27.094  1.00  0.00    -0.272 OA
ATOM      5  H   UNL A   1      32.633  28.330  28.045  1.00  0.00     0.163 HD
BRANCH   3   6
ATOM      6  C   UNL A   1      31.916  27.223  24.930  1.00  0.00     0.260 C 
BRANCH   6   7
ATOM      7  O   UNL A   1      30.761  27.342  24.113  1.00  0.00    -0.370 OA
BRANCH   7   8
ATOM      8  C   UNL A   1      29.844  26.252  24.183  1.00  0.00     0.182 C 
BRANCH   8   9
ATOM      9  C   UNL A   1      30.496  24.879  24.311  1.00  0.00     0.144 C 
BRANCH   9  10
ATOM     10  N   UNL A   1      30.370  24.243  25.606  1.00  0.00    -0.350 N 
ATOM     11  C   UNL A   1      31.284  23.596  26.394  1.00  0.00     0.253 C 
ATOM     12  O   UNL A   1      30.924  23.228  27.513  1.00  0.00    -0.269 OA
ATOM     13  H   UNL A   1      29.464  24.283  25.989  1.00  0.00     0.163 HD
BRANCH  11  14
ATOM     14  C   UNL A   1      32.658  23.257  25.953  1.00  0.00     0.061 A 
ATOM     15  C   UNL A   1      32.110  21.101  24.680  1.00  0.00     0.067 C 
ATOM     16  C   UNL A   1      33.046  22.152  25.190  1.00  0.00     0.050 A 
ATOM     17  N   UNL A   1      34.341  21.954  24.805  1.00  0.00    -0.261 NA
ATOM     18  C   UNL A   1      35.252  22.902  25.113  1.00  0.00     0.111 A 
ATOM     19  C   UNL A   1      33.634  24.232  26.227  1.00  0.00     0.017 A 
ATOM     20  C   UNL A   1      34.946  24.059  25.799  1.00  0.00     0.021 A 
ENDBRANCH  11  14
ENDBRANCH   9  10
ENDBRANCH   8   9
ENDBRANCH   7   8
ENDBRANCH   6   7
ENDBRANCH   3   6
ENDBRANCH   1   2
BRANCH   1  21
ATOM     21  C   UNL A   1      34.902  29.350  27.579  1.00  0.00     0.023 C 
BRANCH  21  22
ATOM     22  C   UNL A   1      34.824  30.874  27.675  1.00  0.00     0.023 C 
BRANCH  22  23
ATOM     23  C   UNL A   1      35.803  31.517  28.649  1.00  0.00     0.116 C 
BRANCH  23  24
ATOM     24  N   UNL A   1      35.649  31.039  30.013  1.00  0.00    -0.352 N 
ATOM     25  C   UNL A   1      36.565  30.389  30.806  1.00  0.00     0.251 C 
ATOM     26  H   UNL A   1      34.770  31.202  30.425  1.00  0.00     0.163 HD
ATOM     27  O   UNL A   1      36.228  29.960  31.906  1.00  0.00    -0.269 OA
BRANCH  25  28
ATOM     28  C   UNL A   1      37.937  30.174  30.304  1.00  0.00     0.039 A 
ATOM     29  C   UNL A   1      38.976  30.031  31.227  1.00  0.00     0.014 A 
ATOM     30  C   UNL A   1      38.192  30.078  28.933  1.00  0.00     0.014 A 
ATOM     31  C   UNL A   1      40.260  29.718  30.777  1.00  0.00     0.010 A 
ATOM     32  C   UNL A   1      39.454  29.694  28.492  1.00  0.00     0.010 A 
ATOM     33  C   UNL A   1      40.500  29.509  29.409  1.00  0.00    -0.014 A 
BRANCH  33  34
ATOM     34  C   UNL A   1      41.839  29.092  28.918  1.00  0.00     0.031 A 
ATOM     35  C   UNL A   1      42.945  30.103  28.793  1.00  0.00     0.074 A 
ATOM     36  C   UNL A   1      42.036  27.819  28.522  1.00  0.00     0.049 A 
ATOM     37  N   UNL A   1      44.156  29.948  28.323  1.00  0.00    -0.248 NA
ATOM     38  C   UNL A   1      42.642  31.476  29.229  1.00  0.00     0.031 C 
ATOM     39  C   UNL A   1      41.026  26.757  28.548  1.00  0.00     0.029 A 
ATOM     40  N   UNL A   1      43.149  27.201  28.011  1.00  0.00    -0.354 N 
ATOM     41  C   UNL A   1      44.752  31.202  28.394  1.00  0.00     0.074 A 
ATOM     42  C   UNL A   1      43.753  32.117  28.899  1.00  0.00     0.031 C 
ATOM     43  C   UNL A   1      41.574  25.617  28.098  1.00  0.00     0.029 A 
ATOM     44  C   UNL A   1      42.958  25.872  27.715  1.00  0.00     0.049 A 
ATOM     45  H   UNL A   1      44.005  27.667  27.868  1.00  0.00     0.167 HD
ATOM     46  C   UNL A   1      46.024  31.553  28.089  1.00  0.00     0.037 A 
ATOM     47  C   UNL A   1      43.803  24.962  27.191  1.00  0.00     0.037 A 
ATOM     48  C   UNL A   1      47.021  30.632  27.609  1.00  0.00     0.049 A 
ATOM     49  C   UNL A   1      45.210  25.377  26.855  1.00  0.00     0.074 A 
ATOM     50  C   UNL A   1      48.353  30.876  27.325  1.00  0.00     0.029 A 
ATOM     51  N   UNL A   1      46.795  29.289  27.340  1.00  0.00    -0.354 N 
ATOM     52  N   UNL A   1      45.777  26.552  26.988  1.00  0.00    -0.248 NA
ATOM     53  C   UNL A   1      46.094  24.342  26.302  1.00  0.00     0.031 C 
ATOM     54  C   UNL A   1      48.921  29.691  26.844  1.00  0.00     0.029 A 
ATOM     55  C   UNL A   1      47.957  28.697  26.873  1.00  0.00     0.049 A 
ATOM     56  H   UNL A   1      45.934  28.826  27.461  1.00  0.00     0.167 HD
ATOM     57  C   UNL A   1      47.091  26.392  26.564  1.00  0.00     0.074 A 
ATOM     58  C   UNL A   1      47.238  25.002  26.179  1.00  0.00     0.031 C 
ATOM     59  C   UNL A   1      48.087  27.310  26.502  1.00  0.00     0.037 A 
BRANCH  46  60
ATOM     60  C   UNL A   1      46.409  32.996  28.272  1.00  0.00     0.058 A 
ATOM     61  C   UNL A   1      46.924  33.473  29.489  1.00  0.00     0.135 A 
ATOM     62  C   UNL A   1      46.281  33.911  27.214  1.00  0.00     0.135 A 
ATOM     63  F   UNL A   1      47.052  32.646  30.539  1.00  0.00    -0.206 F 
ATOM     64  C   UNL A   1      47.263  34.811  29.663  1.00  0.00     0.059 A 
ATOM     65  C   UNL A   1      46.644  35.248  27.356  1.00  0.00     0.059 A 
ATOM     66  F   UNL A   1      45.796  33.510  26.029  1.00  0.00    -0.206 F 
ATOM     67  C   UNL A   1      47.116  35.691  28.590  1.00  0.00     0.060 A 
BRANCH  67  68
ATOM     68  S   UNL A   1      47.554  37.425  28.834  1.00  0.00     0.124 S 
ATOM     69  O   UNL A   1      47.351  37.577  30.271  1.00  0.00    -0.237 OA
ATOM     70  O   UNL A   1      48.942  37.464  28.382  1.00  0.00    -0.237 OA
ATOM     71  O   UNL A   1      46.603  38.139  27.987  1.00  0.00    -0.744 OA
ENDBRANCH  67  68
ENDBRANCH  46  60
BRANCH  47  72
ATOM     72  C   UNL A   1      43.349  23.562  26.977  1.00  0.00     0.058 A 
ATOM     73  C   UNL A   1      42.965  23.117  25.703  1.00  0.00     0.135 A 
ATOM     74  C   UNL A   1      43.302  22.638  28.033  1.00  0.00     0.135 A 
ATOM     75  F   UNL A   1      42.988  23.963  24.663  1.00  0.00    -0.206 F 
ATOM     76  C   UNL A   1      42.534  21.813  25.486  1.00  0.00     0.059 A 
ATOM     77  C   UNL A   1      42.898  21.321  27.836  1.00  0.00     0.059 A 
ATOM     78  F   UNL A   1      43.675  23.008  29.268  1.00  0.00    -0.206 F 
ATOM     79  C   UNL A   1      42.506  20.920  26.559  1.00  0.00     0.060 A 
BRANCH  79  80
ATOM     80  S   UNL A   1      41.990  19.217  26.255  1.00  0.00     0.124 S 
ATOM     81  O   UNL A   1      42.939  18.801  25.229  1.00  0.00    -0.237 OA
ATOM     82  O   UNL A   1      42.160  18.605  27.569  1.00  0.00    -0.237 OA
ATOM     83  O   UNL A   1      40.606  19.360  25.813  1.00  0.00    -0.744 OA
ENDBRANCH  79  80
ENDBRANCH  47  72
BRANCH  59  84
ATOM     84  C   UNL A   1      49.436  26.837  26.034  1.00  0.00     0.058 A 
ATOM     85  C   UNL A   1      49.868  27.028  24.713  1.00  0.00     0.135 A 
ATOM     86  C   UNL A   1      50.327  26.231  26.936  1.00  0.00     0.135 A 
ATOM     87  F   UNL A   1      49.052  27.595  23.810  1.00  0.00    -0.206 F 
ATOM     88  C   UNL A   1      51.129  26.615  24.295  1.00  0.00     0.059 A 
ATOM     89  C   UNL A   1      51.602  25.836  26.546  1.00  0.00     0.059 A 
ATOM     90  F   UNL A   1      49.966  26.035  28.213  1.00  0.00    -0.206 F 
ATOM     91  C   UNL A   1      51.990  26.022  25.220  1.00  0.00     0.060 A 
BRANCH  91  92
ATOM     92  S   UNL A   1      53.638  25.523  24.675  1.00  0.00     0.124 S 
ATOM     93  O   UNL A   1      53.571  24.073  24.829  1.00  0.00    -0.237 OA
ATOM     94  O   UNL A   1      53.673  26.013  23.300  1.00  0.00    -0.237 OA
ATOM     95  O   UNL A   1      54.526  26.214  25.603  1.00  0.00    -0.744 OA
ENDBRANCH  91  92
ENDBRANCH  59  84
ENDBRANCH  33  34
ENDBRANCH  25  28
ENDBRANCH  23  24
ENDBRANCH  22  23
ENDBRANCH  21  22
ENDBRANCH   1  21
TORSDOF 19
ENDMDL
MODEL 3
REMARK VINA RESULT:      -9.0      2.260      4.279
REMARK SMILES Cc1ncccc1C(=O)NCCOCC(=O)NCCCCNC(=O)c1ccc(-c2c3nc(c(-c4c(F)cc(S(=O)(=O)[O-])cc4F)c4ccc([nH]4)c(-c4c(F)cc(S(=O)(=O)[O-])cc4F)c4nc(c(-c5c(F)cc(S(=O)(=O)[O-])cc5F)c5ccc2[nH]5)C=C4)C=C3)cc1
REMARK SMILES IDX 18 1 17 2 15 3 16 4 14 6 13 7 12 8 11 9 10 10 8 11 9 12 7 14
REMARK SMILES IDX 1 15 2 16 3 17 4 18 6 19 5 20 19 21 20 22 21 23 22 24 23 25
REMARK SMILES IDX 24 27 25 28 26 29 90 30 27 31 89 32 28 33 29 34 30 35 83 36
REMARK SMILES IDX 31 37 88 38 82 39 84 40 32 41 87 42 81 43 80 44 33 46 67 47
REMARK SMILES IDX 46 48 66 49 47 50 50 51 65 52 85 53 48 54 49 55 64 57 86 58
REMARK SMILES IDX 51 59 34 60 35 61 44 62 36 63 37 64 43 65 45 66 38 67 39 68
REMARK SMILES IDX 40 69 41 70 42 71 68 72 69 73 78 74 70 75 71 76 77 77 79 78
REMARK SMILES IDX 72 79 73 80 74 81 75 82 76 83 52 84 53 85 62 86 54 87 55 88
REMARK SMILES IDX 61 89 63 90 56 91 57 92 58 93 59 94 60 95
REMARK H PARENT 17 5 10 13 22 26 84 45 50 56
REMARK Flexibility Score: inf
ROOT
ATOM      1  C   UNL A   1      36.643  32.394  32.893  1.00  0.00     0.116 C 
ENDROOT
BRANCH   1   2
ATOM      2  N   UNL A   1      36.553  30.951  32.783  1.00  0.00    -0.354 N 
ATOM      3  C   UNL A   1      37.401  30.013  33.298  1.00  0.00     0.245 C 
ATOM      4  O   UNL A   1      37.144  28.819  33.145  1.00  0.00    -0.272 OA
ATOM      5  H   UNL A   1      35.785  30.605  32.272  1.00  0.00     0.163 HD
BRANCH   3   6
ATOM      6  C   UNL A   1      38.668  30.476  34.036  1.00  0.00     0.260 C 
BRANCH   6   7
ATOM      7  O   UNL A   1      39.932  30.376  33.396  1.00  0.00    -0.370 OA
BRANCH   7   8
ATOM      8  C   UNL A   1      40.331  29.057  33.027  1.00  0.00     0.182 C 
BRANCH   8   9
ATOM      9  C   UNL A   1      41.736  28.668  33.477  1.00  0.00     0.144 C 
BRANCH   9  10
ATOM     10  N   UNL A   1      41.992  28.777  34.898  1.00  0.00    -0.350 N 
ATOM     11  C   UNL A   1      42.469  27.872  35.808  1.00  0.00     0.253 C 
ATOM     12  O   UNL A   1      42.684  28.266  36.955  1.00  0.00    -0.269 OA
ATOM     13  H   UNL A   1      41.785  29.661  35.278  1.00  0.00     0.163 HD
BRANCH  11  14
ATOM     14  C   UNL A   1      42.680  26.436  35.508  1.00  0.00     0.061 A 
ATOM     15  C   UNL A   1      45.196  26.530  35.031  1.00  0.00     0.067 C 
ATOM     16  C   UNL A   1      43.884  25.820  35.161  1.00  0.00     0.050 A 
ATOM     17  N   UNL A   1      43.975  24.474  34.943  1.00  0.00    -0.261 NA
ATOM     18  C   UNL A   1      42.875  23.717  35.146  1.00  0.00     0.111 A 
ATOM     19  C   UNL A   1      41.568  25.606  35.736  1.00  0.00     0.017 A 
ATOM     20  C   UNL A   1      41.664  24.230  35.560  1.00  0.00     0.021 A 
ENDBRANCH  11  14
ENDBRANCH   9  10
ENDBRANCH   8   9
ENDBRANCH   7   8
ENDBRANCH   6   7
ENDBRANCH   3   6
ENDBRANCH   1   2
BRANCH   1  21
ATOM     21  C   UNL A   1      36.030  33.120  31.695  1.00  0.00     0.023 C 
BRANCH  21  22
ATOM     22  C   UNL A   1      35.013  32.312  30.888  1.00  0.00     0.023 C 
BRANCH  22  23
ATOM     23  C   UNL A   1      34.998  32.590  29.391  1.00  0.00     0.116 C 
BRANCH  23  24
ATOM     24  N   UNL A   1      34.176  31.651  28.643  1.00  0.00    -0.352 N 
ATOM     25  C   UNL A   1      34.535  30.448  28.086  1.00  0.00     0.251 C 
ATOM     26  H   UNL A   1      33.235  31.914  28.520  1.00  0.00     0.163 HD
ATOM     27  O   UNL A   1      33.732  29.829  27.394  1.00  0.00    -0.269 OA
BRANCH  25  28
ATOM     28  C   UNL A   1      35.904  29.931  28.291  1.00  0.00     0.039 A 
ATOM     29  C   UNL A   1      36.842  30.088  27.269  1.00  0.00     0.014 A 
ATOM     30  C   UNL A   1      36.268  29.328  29.498  1.00  0.00     0.014 A 
ATOM     31  C   UNL A   1      38.167  29.705  27.484  1.00  0.00     0.010 A 
ATOM     32  C   UNL A   1      37.603  29.016  29.737  1.00  0.00     0.010 A 
ATOM     33  C   UNL A   1      38.566  29.202  28.734  1.00  0.00    -0.014 A 
BRANCH  33  34
ATOM     34  C   UNL A   1      39.987  28.870  29.012  1.00  0.00     0.031 A 
ATOM     35  C   UNL A   1      40.899  29.904  29.613  1.00  0.00     0.074 A 
ATOM     36  C   UNL A   1      40.469  27.661  28.662  1.00  0.00     0.049 A 
ATOM     37  N   UNL A   1      42.180  29.828  29.868  1.00  0.00    -0.248 NA
ATOM     38  C   UNL A   1      40.297  31.205  29.949  1.00  0.00     0.031 C 
ATOM     39  C   UNL A   1      39.695  26.592  28.027  1.00  0.00     0.029 A 
ATOM     40  N   UNL A   1      41.729  27.130  28.782  1.00  0.00    -0.354 N 
ATOM     41  C   UNL A   1      42.539  31.070  30.377  1.00  0.00     0.074 A 
ATOM     42  C   UNL A   1      41.354  31.899  30.344  1.00  0.00     0.031 C 
ATOM     43  C   UNL A   1      40.490  25.526  27.837  1.00  0.00     0.029 A 
ATOM     44  C   UNL A   1      41.836  25.848  28.299  1.00  0.00     0.049 A 
ATOM     45  H   UNL A   1      42.485  27.622  29.177  1.00  0.00     0.167 HD
ATOM     46  C   UNL A   1      43.741  31.475  30.853  1.00  0.00     0.037 A 
ATOM     47  C   UNL A   1      42.901  25.025  28.231  1.00  0.00     0.037 A 
ATOM     48  C   UNL A   1      44.910  30.637  30.904  1.00  0.00     0.049 A 
ATOM     49  C   UNL A   1      44.228  25.499  28.761  1.00  0.00     0.074 A 
ATOM     50  C   UNL A   1      46.160  30.933  31.419  1.00  0.00     0.029 A 
ATOM     51  N   UNL A   1      44.975  29.337  30.421  1.00  0.00    -0.354 N 
ATOM     52  N   UNL A   1      44.535  26.654  29.299  1.00  0.00    -0.248 NA
ATOM     53  C   UNL A   1      45.352  24.555  28.678  1.00  0.00     0.031 C 
ATOM     54  C   UNL A   1      46.992  29.829  31.209  1.00  0.00     0.029 A 
ATOM     55  C   UNL A   1      46.249  28.826  30.607  1.00  0.00     0.049 A 
ATOM     56  H   UNL A   1      44.226  28.851  30.006  1.00  0.00     0.167 HD
ATOM     57  C   UNL A   1      45.878  26.568  29.646  1.00  0.00     0.074 A 
ATOM     58  C   UNL A   1      46.322  25.242  29.266  1.00  0.00     0.031 C 
ATOM     59  C   UNL A   1      46.672  27.500  30.229  1.00  0.00     0.037 A 
BRANCH  46  60
ATOM     60  C   UNL A   1      43.846  32.888  31.360  1.00  0.00     0.058 A 
ATOM     61  C   UNL A   1      44.328  33.928  30.548  1.00  0.00     0.135 A 
ATOM     62  C   UNL A   1      43.442  33.211  32.665  1.00  0.00     0.135 A 
ATOM     63  F   UNL A   1      44.743  33.672  29.297  1.00  0.00    -0.206 F 
ATOM     64  C   UNL A   1      44.441  35.230  31.024  1.00  0.00     0.059 A 
ATOM     65  C   UNL A   1      43.517  34.514  33.152  1.00  0.00     0.059 A 
ATOM     66  F   UNL A   1      42.972  32.257  33.484  1.00  0.00    -0.206 F 
ATOM     67  C   UNL A   1      44.036  35.513  32.328  1.00  0.00     0.060 A 
BRANCH  67  68
ATOM     68  S   UNL A   1      44.195  37.206  32.932  1.00  0.00     0.124 S 
ATOM     69  O   UNL A   1      45.602  37.245  33.317  1.00  0.00    -0.237 OA
ATOM     70  O   UNL A   1      43.839  37.993  31.756  1.00  0.00    -0.237 OA
ATOM     71  O   UNL A   1      43.241  37.266  34.035  1.00  0.00    -0.744 OA
ENDBRANCH  67  68
ENDBRANCH  46  60
BRANCH  47  72
ATOM     72  C   UNL A   1      42.751  23.657  27.665  1.00  0.00     0.058 A 
ATOM     73  C   UNL A   1      42.500  22.557  28.499  1.00  0.00     0.135 A 
ATOM     74  C   UNL A   1      42.841  23.423  26.284  1.00  0.00     0.135 A 
ATOM     75  F   UNL A   1      42.411  22.730  29.826  1.00  0.00    -0.206 F 
ATOM     76  C   UNL A   1      42.361  21.271  27.987  1.00  0.00     0.059 A 
ATOM     77  C   UNL A   1      42.681  22.149  25.746  1.00  0.00     0.059 A 
ATOM     78  F   UNL A   1      43.063  24.444  25.441  1.00  0.00    -0.206 F 
ATOM     79  C   UNL A   1      42.451  21.077  26.608  1.00  0.00     0.060 A 
BRANCH  79  80
ATOM     80  S   UNL A   1      42.220  19.411  25.951  1.00  0.00     0.124 S 
ATOM     81  O   UNL A   1      42.670  18.590  27.069  1.00  0.00    -0.237 OA
ATOM     82  O   UNL A   1      40.788  19.385  25.675  1.00  0.00    -0.237 OA
ATOM     83  O   UNL A   1      43.079  19.395  24.770  1.00  0.00    -0.744 OA
ENDBRANCH  79  80
ENDBRANCH  47  72
BRANCH  59  84
ATOM     84  C   UNL A   1      48.093  27.110  30.528  1.00  0.00     0.058 A 
ATOM     85  C   UNL A   1      49.102  27.197  29.558  1.00  0.00     0.135 A 
ATOM     86  C   UNL A   1      48.458  26.692  31.819  1.00  0.00     0.135 A 
ATOM     87  F   UNL A   1      48.806  27.584  28.307  1.00  0.00    -0.206 F 
ATOM     88  C   UNL A   1      50.421  26.863  29.849  1.00  0.00     0.059 A 
ATOM     89  C   UNL A   1      49.775  26.380  32.140  1.00  0.00     0.059 A 
ATOM     90  F   UNL A   1      47.532  26.601  32.787  1.00  0.00    -0.206 F 
ATOM     91  C   UNL A   1      50.748  26.458  31.145  1.00  0.00     0.060 A 
BRANCH  91  92
ATOM     92  S   UNL A   1      52.469  26.062  31.521  1.00  0.00     0.124 S 
ATOM     93  O   UNL A   1      52.367  24.662  31.921  1.00  0.00    -0.237 OA
ATOM     94  O   UNL A   1      53.133  26.311  30.245  1.00  0.00    -0.237 OA
ATOM     95  O   UNL A   1      52.807  26.997  32.589  1.00  0.00    -0.744 OA
ENDBRANCH  91  92
ENDBRANCH  59  84
ENDBRANCH  33  34
ENDBRANCH  25  28
ENDBRANCH  23  24
ENDBRANCH  22  23
ENDBRANCH  21  22
ENDBRANCH   1  21
TORSDOF 19
ENDMDL
