MODEL 1
REMARK VINA RESULT:     -12.5      0.000      0.000
REMARK SMILES Cc1nc(-c2ccc3c(c2)CCN3S(=O)(=O)c2ccc(F)c(C(=O)NCCCCNC(=O)c3ccc(-c4c5nc(c(-c6c(F)cc(S(=O)(=O)[O-])cc6F)c6ccc([nH]6)c(-c6c(F)cc(S(=O)(=O)[O-])cc6F)c6nc(c(-c7c(F)cc(S(=O)(=O)[O-])cc7F)c7ccc4[nH]7)C=C6)C=C5)cc3)c2)cs1
REMARK SMILES IDX 27 1 26 2 25 3 23 4 24 5 22 7 17 8 18 9 99 10 19 11 20 12
REMARK SMILES IDX 21 13 14 14 15 15 16 16 13 17 5 18 6 19 10 20 7 21 9 22 8 23
REMARK SMILES IDX 11 24 12 25 4 26 1 27 2 28 3 29 101 30 100 31 28 32 29 33
REMARK SMILES IDX 30 34 31 35 32 37 33 38 34 39 98 40 35 41 97 42 36 43 37 44
REMARK SMILES IDX 38 45 91 46 39 47 96 48 90 49 92 50 40 51 95 52 89 53 88 54
REMARK SMILES IDX 41 56 75 57 54 58 74 59 55 60 58 61 73 62 93 63 56 64 57 65
REMARK SMILES IDX 72 67 94 68 59 69 42 70 43 71 52 72 44 73 45 74 51 75 53 76
REMARK SMILES IDX 46 77 47 78 48 79 49 80 50 81 76 82 77 83 86 84 78 85 79 86
REMARK SMILES IDX 85 87 87 88 80 89 81 90 82 91 83 92 84 93 60 94 61 95 70 96
REMARK SMILES IDX 62 97 63 98 69 99 71 100 64 101 65 102 66 103 67 104 68 105
REMARK H PARENT 25 6 30 36 92 55 58 66
REMARK Flexibility Score: inf
ROOT
ATOM      1  C   UNL A   1      39.392  22.954  26.612  1.00  0.00     0.023 C 
ENDROOT
BRANCH   1   2
ATOM      2  C   UNL A   1      38.228  23.773  26.079  1.00  0.00     0.116 C 
BRANCH   2   3
ATOM      3  N   UNL A   1      37.805  23.456  24.726  1.00  0.00    -0.352 N 
ATOM      4  C   UNL A   1      36.562  23.180  24.201  1.00  0.00     0.254 C 
ATOM      5  O   UNL A   1      36.477  23.018  22.982  1.00  0.00    -0.269 OA
ATOM      6  H   UNL A   1      38.536  23.436  24.068  1.00  0.00     0.163 HD
BRANCH   4   7
ATOM      7  C   UNL A   1      35.332  22.985  25.020  1.00  0.00     0.076 A 
ATOM      8  C   UNL A   1      33.182  23.839  25.753  1.00  0.00     0.089 A 
ATOM      9  C   UNL A   1      32.873  22.607  26.342  1.00  0.00     0.025 A 
ATOM     10  C   UNL A   1      34.356  24.004  25.008  1.00  0.00     0.039 A 
ATOM     11  C   UNL A   1      33.864  21.643  26.429  1.00  0.00     0.041 A 
ATOM     12  C   UNL A   1      35.111  21.891  25.861  1.00  0.00     0.136 A 
ATOM     13  F   UNL A   1      36.116  21.105  26.272  1.00  0.00    -0.206 F 
BRANCH   8  14
ATOM     14  S   UNL A   1      32.095  25.196  26.103  1.00  0.00     0.264 S 
ATOM     15  O   UNL A   1      32.931  26.258  26.627  1.00  0.00    -0.201 OA
ATOM     16  O   UNL A   1      30.990  24.695  26.897  1.00  0.00    -0.201 OA
BRANCH  14  17
ATOM     17  N   UNL A   1      31.442  25.721  24.602  1.00  0.00    -0.266 N 
ATOM     18  C   UNL A   1      29.709  29.408  23.453  1.00  0.00     0.001 A 
ATOM     19  C   UNL A   1      30.918  29.441  24.161  1.00  0.00     0.012 A 
ATOM     20  C   UNL A   1      29.137  28.167  23.142  1.00  0.00     0.016 A 
ATOM     21  C   UNL A   1      31.542  28.260  24.575  1.00  0.00     0.028 A 
ATOM     22  C   UNL A   1      29.768  27.003  23.592  1.00  0.00    -0.021 A 
ATOM     23  C   UNL A   1      30.922  27.043  24.373  1.00  0.00     0.055 A 
ATOM     24  C   UNL A   1      29.468  25.600  23.169  1.00  0.00     0.060 C 
ATOM     25  C   UNL A   1      30.378  24.775  24.092  1.00  0.00     0.140 C 
BRANCH  18  26
ATOM     26  C   UNL A   1      29.162  30.663  22.961  1.00  0.00     0.081 A 
ATOM     27  C   UNL A   1      27.683  32.423  20.124  1.00  0.00     0.079 C 
ATOM     28  C   UNL A   1      28.265  31.980  21.420  1.00  0.00     0.090 A 
ATOM     29  N   UNL A   1      28.705  30.764  21.657  1.00  0.00    -0.242 NA
ATOM     30  S   UNL A   1      28.407  33.080  22.735  1.00  0.00    -0.127 S 
ATOM     31  C   UNL A   1      29.089  31.829  23.695  1.00  0.00     0.095 A 
ENDBRANCH  18  26
ENDBRANCH  14  17
ENDBRANCH   8  14
ENDBRANCH   4   7
ENDBRANCH   2   3
ENDBRANCH   1   2
BRANCH   1  32
ATOM     32  C   UNL A   1      39.511  21.524  26.112  1.00  0.00     0.023 C 
BRANCH  32  33
ATOM     33  C   UNL A   1      40.293  20.568  27.003  1.00  0.00     0.116 C 
BRANCH  33  34
ATOM     34  N   UNL A   1      41.130  19.623  26.273  1.00  0.00    -0.352 N 
ATOM     35  C   UNL A   1      42.393  19.800  25.752  1.00  0.00     0.251 C 
ATOM     36  H   UNL A   1      40.737  18.732  26.133  1.00  0.00     0.163 HD
ATOM     37  O   UNL A   1      42.915  18.911  25.086  1.00  0.00    -0.269 OA
BRANCH  35  38
ATOM     38  C   UNL A   1      43.095  21.083  25.966  1.00  0.00     0.039 A 
ATOM     39  C   UNL A   1      43.257  21.958  24.890  1.00  0.00     0.014 A 
ATOM     40  C   UNL A   1      43.535  21.445  27.241  1.00  0.00     0.014 A 
ATOM     41  C   UNL A   1      43.773  23.236  25.115  1.00  0.00     0.010 A 
ATOM     42  C   UNL A   1      43.956  22.748  27.478  1.00  0.00     0.010 A 
ATOM     43  C   UNL A   1      44.077  23.661  26.419  1.00  0.00    -0.014 A 
BRANCH  43  44
ATOM     44  C   UNL A   1      44.516  25.052  26.702  1.00  0.00     0.031 A 
ATOM     45  C   UNL A   1      43.520  26.072  27.183  1.00  0.00     0.074 A 
ATOM     46  C   UNL A   1      45.794  25.413  26.468  1.00  0.00     0.049 A 
ATOM     47  N   UNL A   1      43.692  27.347  27.418  1.00  0.00    -0.248 NA
ATOM     48  C   UNL A   1      42.142  25.602  27.403  1.00  0.00     0.031 C 
ATOM     49  C   UNL A   1      46.846  24.527  25.964  1.00  0.00     0.029 A 
ATOM     50  N   UNL A   1      46.429  26.621  26.623  1.00  0.00    -0.354 N 
ATOM     51  C   UNL A   1      42.450  27.829  27.811  1.00  0.00     0.074 A 
ATOM     52  C   UNL A   1      41.517  26.730  27.711  1.00  0.00     0.031 C 
ATOM     53  C   UNL A   1      48.000  25.207  25.894  1.00  0.00     0.029 A 
ATOM     54  C   UNL A   1      47.766  26.590  26.299  1.00  0.00     0.049 A 
ATOM     55  H   UNL A   1      45.970  27.433  26.937  1.00  0.00     0.167 HD
ATOM     56  C   UNL A   1      42.122  29.067  28.251  1.00  0.00     0.037 A 
ATOM     57  C   UNL A   1      48.699  27.564  26.326  1.00  0.00     0.037 A 
ATOM     58  C   UNL A   1      43.059  30.154  28.361  1.00  0.00     0.049 A 
ATOM     59  C   UNL A   1      48.303  28.944  26.777  1.00  0.00     0.074 A 
ATOM     60  C   UNL A   1      42.833  31.438  28.823  1.00  0.00     0.029 A 
ATOM     61  N   UNL A   1      44.399  30.086  28.008  1.00  0.00    -0.354 N 
ATOM     62  N   UNL A   1      47.131  29.372  27.184  1.00  0.00    -0.248 NA
ATOM     63  C   UNL A   1      49.352  29.972  26.774  1.00  0.00     0.031 C 
ATOM     64  C   UNL A   1      44.023  32.162  28.702  1.00  0.00     0.029 A 
ATOM     65  C   UNL A   1      45.008  31.312  28.221  1.00  0.00     0.049 A 
ATOM     66  H   UNL A   1      44.851  29.285  27.657  1.00  0.00     0.167 HD
ATOM     67  C   UNL A   1      47.309  30.712  27.510  1.00  0.00     0.074 A 
ATOM     68  C   UNL A   1      48.703  31.021  27.262  1.00  0.00     0.031 C 
ATOM     69  C   UNL A   1      46.399  31.605  27.976  1.00  0.00     0.037 A 
BRANCH  56  70
ATOM     70  C   UNL A   1      40.694  29.307  28.663  1.00  0.00     0.058 A 
ATOM     71  C   UNL A   1      39.678  29.426  27.702  1.00  0.00     0.135 A 
ATOM     72  C   UNL A   1      40.337  29.459  30.013  1.00  0.00     0.135 A 
ATOM     73  F   UNL A   1      39.959  29.285  26.397  1.00  0.00    -0.206 F 
ATOM     74  C   UNL A   1      38.362  29.697  28.064  1.00  0.00     0.059 A 
ATOM     75  C   UNL A   1      39.023  29.698  30.400  1.00  0.00     0.059 A 
ATOM     76  F   UNL A   1      41.264  29.333  30.976  1.00  0.00    -0.206 F 
ATOM     77  C   UNL A   1      38.043  29.828  29.417  1.00  0.00     0.060 A 
BRANCH  77  78
ATOM     78  S   UNL A   1      36.323  30.131  29.872  1.00  0.00     0.124 S 
ATOM     79  O   UNL A   1      35.611  29.642  28.697  1.00  0.00    -0.237 OA
ATOM     80  O   UNL A   1      36.182  29.328  31.082  1.00  0.00    -0.237 OA
ATOM     81  O   UNL A   1      36.278  31.575  30.081  1.00  0.00    -0.744 OA
ENDBRANCH  77  78
ENDBRANCH  56  70
BRANCH  57  82
ATOM     82  C   UNL A   1      50.105  27.247  25.957  1.00  0.00     0.058 A 
ATOM     83  C   UNL A   1      50.529  27.224  24.620  1.00  0.00     0.135 A 
ATOM     84  C   UNL A   1      51.044  26.908  26.944  1.00  0.00     0.135 A 
ATOM     85  F   UNL A   1      49.669  27.531  23.636  1.00  0.00    -0.206 F 
ATOM     86  C   UNL A   1      51.820  26.845  24.270  1.00  0.00     0.059 A 
ATOM     87  C   UNL A   1      52.350  26.552  26.621  1.00  0.00     0.059 A 
ATOM     88  F   UNL A   1      50.691  26.928  28.238  1.00  0.00    -0.206 F 
ATOM     89  C   UNL A   1      52.723  26.504  25.278  1.00  0.00     0.060 A 
BRANCH  89  90
ATOM     90  S   UNL A   1      54.383  25.980  24.801  1.00  0.00     0.124 S 
ATOM     91  O   UNL A   1      55.212  26.801  25.679  1.00  0.00    -0.237 OA
ATOM     92  O   UNL A   1      54.352  24.554  25.108  1.00  0.00    -0.237 OA
ATOM     93  O   UNL A   1      54.451  26.314  23.383  1.00  0.00    -0.744 OA
ENDBRANCH  89  90
ENDBRANCH  57  82
BRANCH  69  94
ATOM     94  C   UNL A   1      46.872  33.001  28.274  1.00  0.00     0.058 A 
ATOM     95  C   UNL A   1      47.191  33.376  29.591  1.00  0.00     0.135 A 
ATOM     96  C   UNL A   1      46.918  33.993  27.282  1.00  0.00     0.135 A 
ATOM     97  F   UNL A   1      47.157  32.468  30.580  1.00  0.00    -0.206 F 
ATOM     98  C   UNL A   1      47.512  34.689  29.917  1.00  0.00     0.059 A 
ATOM     99  C   UNL A   1      47.267  35.307  27.580  1.00  0.00     0.059 A 
ATOM    100  F   UNL A   1      46.633  33.685  26.008  1.00  0.00    -0.206 F 
ATOM    101  C   UNL A   1      47.543  35.648  28.905  1.00  0.00     0.060 A 
BRANCH 101 102
ATOM    102  S   UNL A   1      47.959  37.348  29.348  1.00  0.00     0.124 S 
ATOM    103  O   UNL A   1      46.682  37.849  29.846  1.00  0.00    -0.237 OA
ATOM    104  O   UNL A   1      49.001  37.158  30.351  1.00  0.00    -0.237 OA
ATOM    105  O   UNL A   1      48.412  37.928  28.086  1.00  0.00    -0.744 OA
ENDBRANCH 101 102
ENDBRANCH  69  94
ENDBRANCH  43  44
ENDBRANCH  35  38
ENDBRANCH  33  34
ENDBRANCH  32  33
ENDBRANCH   1  32
TORSDOF 17
ENDMDL
MODEL 2
REMARK VINA RESULT:     -12.4      1.899      2.887
REMARK SMILES Cc1nc(-c2ccc3c(c2)CCN3S(=O)(=O)c2ccc(F)c(C(=O)NCCCCNC(=O)c3ccc(-c4c5nc(c(-c6c(F)cc(S(=O)(=O)[O-])cc6F)c6ccc([nH]6)c(-c6c(F)cc(S(=O)(=O)[O-])cc6F)c6nc(c(-c7c(F)cc(S(=O)(=O)[O-])cc7F)c7ccc4[nH]7)C=C6)C=C5)cc3)c2)cs1
REMARK SMILES IDX 27 1 26 2 25 3 23 4 24 5 22 7 17 8 18 9 99 10 19 11 20 12
REMARK SMILES IDX 21 13 14 14 15 15 16 16 13 17 5 18 6 19 10 20 7 21 9 22 8 23
REMARK SMILES IDX 11 24 12 25 4 26 1 27 2 28 3 29 101 30 100 31 28 32 29 33
REMARK SMILES IDX 30 34 31 35 32 37 33 38 34 39 98 40 35 41 97 42 36 43 37 44
REMARK SMILES IDX 38 45 91 46 39 47 96 48 90 49 92 50 40 51 95 52 89 53 88 54
REMARK SMILES IDX 41 56 75 57 54 58 74 59 55 60 58 61 73 62 93 63 56 64 57 65
REMARK SMILES IDX 72 67 94 68 59 69 42 70 43 71 52 72 44 73 45 74 51 75 53 76
REMARK SMILES IDX 46 77 47 78 48 79 49 80 50 81 76 82 77 83 86 84 78 85 79 86
REMARK SMILES IDX 85 87 87 88 80 89 81 90 82 91 83 92 84 93 60 94 61 95 70 96
REMARK SMILES IDX 62 97 63 98 69 99 71 100 64 101 65 102 66 103 67 104 68 105
REMARK H PARENT 25 6 30 36 92 55 58 66
REMARK Flexibility Score: inf
ROOT
ATOM      1  C   UNL A   1      38.689  23.095  26.488  1.00  0.00     0.023 C 
ENDROOT
BRANCH   1   2
ATOM      2  C   UNL A   1      37.512  23.718  25.756  1.00  0.00     0.116 C 
BRANCH   2   3
ATOM      3  N   UNL A   1      37.439  23.438  24.332  1.00  0.00    -0.352 N 
ATOM      4  C   UNL A   1      36.384  23.065  23.529  1.00  0.00     0.254 C 
ATOM      5  O   UNL A   1      36.591  22.966  22.319  1.00  0.00    -0.269 OA
ATOM      6  H   UNL A   1      38.296  23.532  23.857  1.00  0.00     0.163 HD
BRANCH   4   7
ATOM      7  C   UNL A   1      35.033  22.697  24.041  1.00  0.00     0.076 A 
ATOM      8  C   UNL A   1      32.676  23.243  24.228  1.00  0.00     0.089 A 
ATOM      9  C   UNL A   1      32.405  21.975  24.756  1.00  0.00     0.025 A 
ATOM     10  C   UNL A   1      33.960  23.574  23.777  1.00  0.00     0.039 A 
ATOM     11  C   UNL A   1      33.467  21.154  25.094  1.00  0.00     0.041 A 
ATOM     12  C   UNL A   1      34.769  21.574  24.830  1.00  0.00     0.136 A 
ATOM     13  F   UNL A   1      35.744  20.928  25.483  1.00  0.00    -0.206 F 
BRANCH   8  14
ATOM     14  S   UNL A   1      31.365  24.437  24.283  1.00  0.00     0.264 S 
ATOM     15  O   UNL A   1      30.928  24.494  25.665  1.00  0.00    -0.201 OA
ATOM     16  O   UNL A   1      30.411  24.107  23.243  1.00  0.00    -0.201 OA
BRANCH  14  17
ATOM     17  N   UNL A   1      32.051  25.960  23.877  1.00  0.00    -0.266 N 
ATOM     18  C   UNL A   1      33.608  29.055  26.309  1.00  0.00     0.001 A 
ATOM     19  C   UNL A   1      34.012  27.740  26.578  1.00  0.00     0.012 A 
ATOM     20  C   UNL A   1      32.728  29.292  25.245  1.00  0.00     0.016 A 
ATOM     21  C   UNL A   1      33.532  26.670  25.816  1.00  0.00     0.028 A 
ATOM     22  C   UNL A   1      32.243  28.200  24.518  1.00  0.00    -0.021 A 
ATOM     23  C   UNL A   1      32.575  26.887  24.845  1.00  0.00     0.055 A 
ATOM     24  C   UNL A   1      31.505  28.247  23.217  1.00  0.00     0.060 C 
ATOM     25  C   UNL A   1      31.128  26.774  22.998  1.00  0.00     0.140 C 
BRANCH  18  26
ATOM     26  C   UNL A   1      34.220  30.134  27.069  1.00  0.00     0.081 A 
ATOM     27  C   UNL A   1      33.813  33.503  28.419  1.00  0.00     0.079 C 
ATOM     28  C   UNL A   1      34.264  32.152  27.986  1.00  0.00     0.090 A 
ATOM     29  N   UNL A   1      33.527  31.314  27.291  1.00  0.00    -0.242 NA
ATOM     30  S   UNL A   1      35.840  31.589  28.381  1.00  0.00    -0.127 S 
ATOM     31  C   UNL A   1      35.501  30.107  27.579  1.00  0.00     0.095 A 
ENDBRANCH  18  26
ENDBRANCH  14  17
ENDBRANCH   8  14
ENDBRANCH   4   7
ENDBRANCH   2   3
ENDBRANCH   1   2
BRANCH   1  32
ATOM     32  C   UNL A   1      39.222  21.782  25.940  1.00  0.00     0.023 C 
BRANCH  32  33
ATOM     33  C   UNL A   1      40.079  20.958  26.894  1.00  0.00     0.116 C 
BRANCH  33  34
ATOM     34  N   UNL A   1      40.903  19.952  26.235  1.00  0.00    -0.352 N 
ATOM     35  C   UNL A   1      42.207  20.041  25.802  1.00  0.00     0.251 C 
ATOM     36  H   UNL A   1      40.465  19.086  26.077  1.00  0.00     0.163 HD
ATOM     37  O   UNL A   1      42.717  19.112  25.184  1.00  0.00    -0.269 OA
BRANCH  35  38
ATOM     38  C   UNL A   1      42.974  21.281  26.052  1.00  0.00     0.039 A 
ATOM     39  C   UNL A   1      43.044  22.251  25.049  1.00  0.00     0.014 A 
ATOM     40  C   UNL A   1      43.565  21.509  27.295  1.00  0.00     0.014 A 
ATOM     41  C   UNL A   1      43.626  23.489  25.330  1.00  0.00     0.010 A 
ATOM     42  C   UNL A   1      44.055  22.773  27.602  1.00  0.00     0.010 A 
ATOM     43  C   UNL A   1      44.089  23.779  26.625  1.00  0.00    -0.014 A 
BRANCH  43  44
ATOM     44  C   UNL A   1      44.605  25.126  26.982  1.00  0.00     0.031 A 
ATOM     45  C   UNL A   1      43.740  26.080  27.761  1.00  0.00     0.074 A 
ATOM     46  C   UNL A   1      45.824  25.513  26.555  1.00  0.00     0.049 A 
ATOM     47  N   UNL A   1      43.983  27.318  28.108  1.00  0.00    -0.248 NA
ATOM     48  C   UNL A   1      42.418  25.587  28.181  1.00  0.00     0.031 C 
ATOM     49  C   UNL A   1      46.742  24.694  25.759  1.00  0.00     0.029 A 
ATOM     50  N   UNL A   1      46.504  26.693  26.729  1.00  0.00    -0.354 N 
ATOM     51  C   UNL A   1      42.849  27.749  28.784  1.00  0.00     0.074 A 
ATOM     52  C   UNL A   1      41.888  26.669  28.733  1.00  0.00     0.031 C 
ATOM     53  C   UNL A   1      47.878  25.378  25.552  1.00  0.00     0.029 A 
ATOM     54  C   UNL A   1      47.755  26.702  26.156  1.00  0.00     0.049 A 
ATOM     55  H   UNL A   1      46.131  27.462  27.218  1.00  0.00     0.167 HD
ATOM     56  C   UNL A   1      42.637  28.925  29.422  1.00  0.00     0.037 A 
ATOM     57  C   UNL A   1      48.698  27.665  26.121  1.00  0.00     0.037 A 
ATOM     58  C   UNL A   1      43.603  29.990  29.481  1.00  0.00     0.049 A 
ATOM     59  C   UNL A   1      48.426  28.981  26.800  1.00  0.00     0.074 A 
ATOM     60  C   UNL A   1      43.497  31.209  30.126  1.00  0.00     0.029 A 
ATOM     61  N   UNL A   1      44.851  29.966  28.874  1.00  0.00    -0.354 N 
ATOM     62  N   UNL A   1      47.362  29.357  27.469  1.00  0.00    -0.248 NA
ATOM     63  C   UNL A   1      49.479  30.002  26.719  1.00  0.00     0.031 C 
ATOM     64  C   UNL A   1      44.659  31.942  29.869  1.00  0.00     0.029 A 
ATOM     65  C   UNL A   1      45.516  31.157  29.113  1.00  0.00     0.049 A 
ATOM     66  H   UNL A   1      45.210  29.212  28.352  1.00  0.00     0.167 HD
ATOM     67  C   UNL A   1      47.629  30.648  27.912  1.00  0.00     0.074 A 
ATOM     68  C   UNL A   1      48.957  30.984  27.443  1.00  0.00     0.031 C 
ATOM     69  C   UNL A   1      46.843  31.477  28.644  1.00  0.00     0.037 A 
BRANCH  56  70
ATOM     70  C   UNL A   1      41.318  29.112  30.122  1.00  0.00     0.058 A 
ATOM     71  C   UNL A   1      41.192  28.863  31.498  1.00  0.00     0.135 A 
ATOM     72  C   UNL A   1      40.165  29.502  29.420  1.00  0.00     0.135 A 
ATOM     73  F   UNL A   1      42.260  28.493  32.221  1.00  0.00    -0.206 F 
ATOM     74  C   UNL A   1      39.968  28.985  32.150  1.00  0.00     0.059 A 
ATOM     75  C   UNL A   1      38.939  29.661  30.057  1.00  0.00     0.059 A 
ATOM     76  F   UNL A   1      40.233  29.775  28.107  1.00  0.00    -0.206 F 
ATOM     77  C   UNL A   1      38.847  29.387  31.421  1.00  0.00     0.060 A 
BRANCH  77  78
ATOM     78  S   UNL A   1      37.279  29.587  32.292  1.00  0.00     0.124 S 
ATOM     79  O   UNL A   1      36.312  29.391  31.218  1.00  0.00    -0.237 OA
ATOM     80  O   UNL A   1      37.347  28.524  33.290  1.00  0.00    -0.237 OA
ATOM     81  O   UNL A   1      37.360  30.942  32.827  1.00  0.00    -0.744 OA
ENDBRANCH  77  78
ENDBRANCH  56  70
BRANCH  57  82
ATOM     82  C   UNL A   1      50.003  27.396  25.457  1.00  0.00     0.058 A 
ATOM     83  C   UNL A   1      51.144  27.044  26.193  1.00  0.00     0.135 A 
ATOM     84  C   UNL A   1      50.141  27.539  24.068  1.00  0.00     0.135 A 
ATOM     85  F   UNL A   1      51.070  26.903  27.526  1.00  0.00    -0.206 F 
ATOM     86  C   UNL A   1      52.382  26.876  25.582  1.00  0.00     0.059 A 
ATOM     87  C   UNL A   1      51.364  27.349  23.430  1.00  0.00     0.059 A 
ATOM     88  F   UNL A   1      49.076  27.860  23.319  1.00  0.00    -0.206 F 
ATOM     89  C   UNL A   1      52.484  27.037  24.200  1.00  0.00     0.060 A 
BRANCH  89  90
ATOM     90  S   UNL A   1      54.107  26.850  23.431  1.00  0.00     0.124 S 
ATOM     91  O   UNL A   1      54.633  28.208  23.528  1.00  0.00    -0.237 OA
ATOM     92  O   UNL A   1      54.740  25.860  24.295  1.00  0.00    -0.237 OA
ATOM     93  O   UNL A   1      53.793  26.395  22.081  1.00  0.00    -0.744 OA
ENDBRANCH  89  90
ENDBRANCH  57  82
BRANCH  69  94
ATOM     94  C   UNL A   1      47.395  32.827  29.011  1.00  0.00     0.058 A 
ATOM     95  C   UNL A   1      48.081  33.007  30.225  1.00  0.00     0.135 A 
ATOM     96  C   UNL A   1      47.166  33.960  28.215  1.00  0.00     0.135 A 
ATOM     97  F   UNL A   1      48.322  31.958  31.028  1.00  0.00    -0.206 F 
ATOM     98  C   UNL A   1      48.495  34.265  30.648  1.00  0.00     0.059 A 
ATOM     99  C   UNL A   1      47.599  35.225  28.604  1.00  0.00     0.059 A 
ATOM    100  F   UNL A   1      46.525  33.841  27.042  1.00  0.00    -0.206 F 
ATOM    101  C   UNL A   1      48.245  35.369  29.832  1.00  0.00     0.060 A 
BRANCH 101 102
ATOM    102  S   UNL A   1      48.787  36.995  30.400  1.00  0.00     0.124 S 
ATOM    103  O   UNL A   1      49.913  37.262  29.512  1.00  0.00    -0.237 OA
ATOM    104  O   UNL A   1      47.597  37.809  30.178  1.00  0.00    -0.237 OA
ATOM    105  O   UNL A   1      49.131  36.769  31.801  1.00  0.00    -0.744 OA
ENDBRANCH 101 102
ENDBRANCH  69  94
ENDBRANCH  43  44
ENDBRANCH  35  38
ENDBRANCH  33  34
ENDBRANCH  32  33
ENDBRANCH   1  32
TORSDOF 17
ENDMDL
MODEL 3
REMARK VINA RESULT:     -12.3      0.506      7.822
REMARK SMILES Cc1nc(-c2ccc3c(c2)CCN3S(=O)(=O)c2ccc(F)c(C(=O)NCCCCNC(=O)c3ccc(-c4c5nc(c(-c6c(F)cc(S(=O)(=O)[O-])cc6F)c6ccc([nH]6)c(-c6c(F)cc(S(=O)(=O)[O-])cc6F)c6nc(c(-c7c(F)cc(S(=O)(=O)[O-])cc7F)c7ccc4[nH]7)C=C6)C=C5)cc3)c2)cs1
REMARK SMILES IDX 27 1 26 2 25 3 23 4 24 5 22 7 17 8 18 9 99 10 19 11 20 12
REMARK SMILES IDX 21 13 14 14 15 15 16 16 13 17 5 18 6 19 10 20 7 21 9 22 8 23
REMARK SMILES IDX 11 24 12 25 4 26 1 27 2 28 3 29 101 30 100 31 28 32 29 33
REMARK SMILES IDX 30 34 31 35 32 37 33 38 34 39 98 40 35 41 97 42 36 43 37 44
REMARK SMILES IDX 38 45 91 46 39 47 96 48 90 49 92 50 40 51 95 52 89 53 88 54
REMARK SMILES IDX 41 56 75 57 54 58 74 59 55 60 58 61 73 62 93 63 56 64 57 65
REMARK SMILES IDX 72 67 94 68 59 69 42 70 43 71 52 72 44 73 45 74 51 75 53 76
REMARK SMILES IDX 46 77 47 78 48 79 49 80 50 81 76 82 77 83 86 84 78 85 79 86
REMARK SMILES IDX 85 87 87 88 80 89 81 90 82 91 83 92 84 93 60 94 61 95 70 96
REMARK SMILES IDX 62 97 63 98 69 99 71 100 64 101 65 102 66 103 67 104 68 105
REMARK H PARENT 25 6 30 36 92 55 58 66
REMARK Flexibility Score: inf
ROOT
ATOM      1  C   UNL A   1      39.387  22.694  26.504  1.00  0.00     0.023 C 
ENDROOT
BRANCH   1   2
ATOM      2  C   UNL A   1      38.213  23.537  26.034  1.00  0.00     0.116 C 
BRANCH   2   3
ATOM      3  N   UNL A   1      37.769  23.290  24.672  1.00  0.00    -0.352 N 
ATOM      4  C   UNL A   1      36.512  23.089  24.146  1.00  0.00     0.254 C 
ATOM      5  O   UNL A   1      36.414  22.977  22.922  1.00  0.00    -0.269 OA
ATOM      6  H   UNL A   1      38.496  23.263  24.009  1.00  0.00     0.163 HD
BRANCH   4   7
ATOM      7  C   UNL A   1      35.280  22.917  24.965  1.00  0.00     0.076 A 
ATOM      8  C   UNL A   1      33.158  23.822  25.719  1.00  0.00     0.089 A 
ATOM      9  C   UNL A   1      32.814  22.591  26.289  1.00  0.00     0.025 A 
ATOM     10  C   UNL A   1      34.335  23.965  24.973  1.00  0.00     0.039 A 
ATOM     11  C   UNL A   1      33.776  21.596  26.356  1.00  0.00     0.041 A 
ATOM     12  C   UNL A   1      35.029  21.816  25.789  1.00  0.00     0.136 A 
ATOM     13  F   UNL A   1      36.010  20.994  26.183  1.00  0.00    -0.206 F 
BRANCH   8  14
ATOM     14  S   UNL A   1      32.113  25.205  26.095  1.00  0.00     0.264 S 
ATOM     15  O   UNL A   1      32.986  26.245  26.605  1.00  0.00    -0.201 OA
ATOM     16  O   UNL A   1      31.012  24.730  26.911  1.00  0.00    -0.201 OA
BRANCH  14  17
ATOM     17  N   UNL A   1      31.442  25.751  24.609  1.00  0.00    -0.266 N 
ATOM     18  C   UNL A   1      29.752  29.475  23.514  1.00  0.00     0.001 A 
ATOM     19  C   UNL A   1      30.974  29.482  24.202  1.00  0.00     0.012 A 
ATOM     20  C   UNL A   1      29.154  28.246  23.206  1.00  0.00     0.016 A 
ATOM     21  C   UNL A   1      31.586  28.289  24.597  1.00  0.00     0.028 A 
ATOM     22  C   UNL A   1      29.773  27.069  23.637  1.00  0.00    -0.021 A 
ATOM     23  C   UNL A   1      30.941  27.083  24.398  1.00  0.00     0.055 A 
ATOM     24  C   UNL A   1      29.442  25.674  23.211  1.00  0.00     0.060 C 
ATOM     25  C   UNL A   1      30.353  24.827  24.112  1.00  0.00     0.140 C 
BRANCH  18  26
ATOM     26  C   UNL A   1      29.218  30.742  23.041  1.00  0.00     0.081 A 
ATOM     27  C   UNL A   1      27.732  32.550  20.237  1.00  0.00     0.079 C 
ATOM     28  C   UNL A   1      28.324  32.086  21.522  1.00  0.00     0.090 A 
ATOM     29  N   UNL A   1      28.748  30.862  21.743  1.00  0.00    -0.242 NA
ATOM     30  S   UNL A   1      28.497  33.172  22.845  1.00  0.00    -0.127 S 
ATOM     31  C   UNL A   1      29.171  31.902  23.786  1.00  0.00     0.095 A 
ENDBRANCH  18  26
ENDBRANCH  14  17
ENDBRANCH   8  14
ENDBRANCH   4   7
ENDBRANCH   2   3
ENDBRANCH   1   2
BRANCH   1  32
ATOM     32  C   UNL A   1      39.542  21.320  25.874  1.00  0.00     0.023 C 
BRANCH  32  33
ATOM     33  C   UNL A   1      39.956  20.196  26.815  1.00  0.00     0.116 C 
BRANCH  33  34
ATOM     34  N   UNL A   1      40.898  19.248  26.231  1.00  0.00    -0.352 N 
ATOM     35  C   UNL A   1      42.217  19.433  25.882  1.00  0.00     0.251 C 
ATOM     36  H   UNL A   1      40.540  18.347  26.064  1.00  0.00     0.163 HD
ATOM     37  O   UNL A   1      42.838  18.537  25.318  1.00  0.00    -0.269 OA
BRANCH  35  38
ATOM     38  C   UNL A   1      42.866  20.734  26.155  1.00  0.00     0.039 A 
ATOM     39  C   UNL A   1      43.272  21.530  25.082  1.00  0.00     0.014 A 
ATOM     40  C   UNL A   1      43.014  21.190  27.466  1.00  0.00     0.014 A 
ATOM     41  C   UNL A   1      43.737  22.825  25.324  1.00  0.00     0.010 A 
ATOM     42  C   UNL A   1      43.384  22.509  27.698  1.00  0.00     0.010 A 
ATOM     43  C   UNL A   1      43.747  23.344  26.629  1.00  0.00    -0.014 A 
BRANCH  43  44
ATOM     44  C   UNL A   1      44.125  24.755  26.902  1.00  0.00     0.031 A 
ATOM     45  C   UNL A   1      45.554  25.196  26.735  1.00  0.00     0.074 A 
ATOM     46  C   UNL A   1      43.199  25.622  27.358  1.00  0.00     0.049 A 
ATOM     47  N   UNL A   1      46.094  26.360  26.988  1.00  0.00    -0.248 NA
ATOM     48  C   UNL A   1      46.508  24.187  26.245  1.00  0.00     0.031 C 
ATOM     49  C   UNL A   1      41.789  25.307  27.598  1.00  0.00     0.029 A 
ATOM     50  N   UNL A   1      43.301  26.948  27.700  1.00  0.00    -0.354 N 
ATOM     51  C   UNL A   1      47.443  26.223  26.690  1.00  0.00     0.074 A 
ATOM     52  C   UNL A   1      47.657  24.845  26.309  1.00  0.00     0.031 C 
ATOM     53  C   UNL A   1      41.151  26.415  28.006  1.00  0.00     0.029 A 
ATOM     54  C   UNL A   1      42.112  27.510  28.104  1.00  0.00     0.049 A 
ATOM     55  H   UNL A   1      44.147  27.450  27.660  1.00  0.00     0.167 HD
ATOM     56  C   UNL A   1      48.413  27.169  26.696  1.00  0.00     0.037 A 
ATOM     57  C   UNL A   1      41.825  28.764  28.507  1.00  0.00     0.037 A 
ATOM     58  C   UNL A   1      48.191  28.543  27.062  1.00  0.00     0.049 A 
ATOM     59  C   UNL A   1      42.927  29.789  28.548  1.00  0.00     0.074 A 
ATOM     60  C   UNL A   1      49.101  29.585  27.074  1.00  0.00     0.029 A 
ATOM     61  N   UNL A   1      46.976  29.067  27.481  1.00  0.00    -0.354 N 
ATOM     62  N   UNL A   1      44.191  29.652  28.224  1.00  0.00    -0.248 NA
ATOM     63  C   UNL A   1      42.566  31.137  29.009  1.00  0.00     0.031 C 
ATOM     64  C   UNL A   1      48.449  30.728  27.546  1.00  0.00     0.029 A 
ATOM     65  C   UNL A   1      47.117  30.414  27.773  1.00  0.00     0.049 A 
ATOM     66  H   UNL A   1      46.137  28.558  27.558  1.00  0.00     0.167 HD
ATOM     67  C   UNL A   1      44.770  30.902  28.415  1.00  0.00     0.074 A 
ATOM     68  C   UNL A   1      43.716  31.784  28.875  1.00  0.00     0.031 C 
ATOM     69  C   UNL A   1      46.058  31.283  28.225  1.00  0.00     0.037 A 
BRANCH  56  70
ATOM     70  C   UNL A   1      49.798  26.753  26.277  1.00  0.00     0.058 A 
ATOM     71  C   UNL A   1      50.247  26.965  24.965  1.00  0.00     0.135 A 
ATOM     72  C   UNL A   1      50.668  26.105  27.170  1.00  0.00     0.135 A 
ATOM     73  F   UNL A   1      49.461  27.583  24.070  1.00  0.00    -0.206 F 
ATOM     74  C   UNL A   1      51.505  26.541  24.549  1.00  0.00     0.059 A 
ATOM     75  C   UNL A   1      51.943  25.702  26.785  1.00  0.00     0.059 A 
ATOM     76  F   UNL A   1      50.299  25.896  28.443  1.00  0.00    -0.206 F 
ATOM     77  C   UNL A   1      52.348  25.913  25.468  1.00  0.00     0.060 A 
BRANCH  77  78
ATOM     78  S   UNL A   1      53.996  25.413  24.926  1.00  0.00     0.124 S 
ATOM     79  O   UNL A   1      54.087  24.056  25.453  1.00  0.00    -0.237 OA
ATOM     80  O   UNL A   1      53.887  25.528  23.475  1.00  0.00    -0.237 OA
ATOM     81  O   UNL A   1      54.872  26.395  25.559  1.00  0.00    -0.744 OA
ENDBRANCH  77  78
ENDBRANCH  56  70
BRANCH  57  82
ATOM     82  C   UNL A   1      40.424  29.124  28.856  1.00  0.00     0.058 A 
ATOM     83  C   UNL A   1      39.472  29.421  27.869  1.00  0.00     0.135 A 
ATOM     84  C   UNL A   1      40.026  29.230  30.198  1.00  0.00     0.135 A 
ATOM     85  F   UNL A   1      39.803  29.344  26.570  1.00  0.00    -0.206 F 
ATOM     86  C   UNL A   1      38.188  29.840  28.198  1.00  0.00     0.059 A 
ATOM     87  C   UNL A   1      38.738  29.621  30.552  1.00  0.00     0.059 A 
ATOM     88  F   UNL A   1      40.896  28.944  31.178  1.00  0.00    -0.206 F 
ATOM     89  C   UNL A   1      37.831  29.943  29.543  1.00  0.00     0.060 A 
BRANCH  89  90
ATOM     90  S   UNL A   1      36.171  30.524  29.948  1.00  0.00     0.124 S 
ATOM     91  O   UNL A   1      35.377  29.892  28.899  1.00  0.00    -0.237 OA
ATOM     92  O   UNL A   1      35.983  29.994  31.293  1.00  0.00    -0.237 OA
ATOM     93  O   UNL A   1      36.287  31.976  29.857  1.00  0.00    -0.744 OA
ENDBRANCH  89  90
ENDBRANCH  57  82
BRANCH  69  94
ATOM     94  C   UNL A   1      46.413  32.721  28.487  1.00  0.00     0.058 A 
ATOM     95  C   UNL A   1      46.794  33.134  29.776  1.00  0.00     0.135 A 
ATOM     96  C   UNL A   1      46.284  33.706  27.496  1.00  0.00     0.135 A 
ATOM     97  F   UNL A   1      46.926  32.234  30.763  1.00  0.00    -0.206 F 
ATOM     98  C   UNL A   1      47.008  34.474  30.077  1.00  0.00     0.059 A 
ATOM     99  C   UNL A   1      46.524  35.051  27.768  1.00  0.00     0.059 A 
ATOM    100  F   UNL A   1      45.934  33.364  26.247  1.00  0.00    -0.206 F 
ATOM    101  C   UNL A   1      46.867  35.425  29.067  1.00  0.00     0.060 A 
BRANCH 101 102
ATOM    102  S   UNL A   1      47.145  37.161  29.479  1.00  0.00     0.124 S 
ATOM    103  O   UNL A   1      47.921  37.621  28.332  1.00  0.00    -0.237 OA
ATOM    104  O   UNL A   1      45.784  37.677  29.572  1.00  0.00    -0.237 OA
ATOM    105  O   UNL A   1      47.872  37.098  30.744  1.00  0.00    -0.744 OA
ENDBRANCH 101 102
ENDBRANCH  69  94
ENDBRANCH  43  44
ENDBRANCH  35  38
ENDBRANCH  33  34
ENDBRANCH  32  33
ENDBRANCH   1  32
TORSDOF 17
ENDMDL
