MODEL 1
REMARK VINA RESULT:     -13.0      0.000      0.000
REMARK SMILES C[C@@H](C(=O)NCCCCNC(=O)c1ccc(-c2c3nc(c(-c4c(F)cc(S(=O)(=O)[O-])cc4F)c4ccc([nH]4)c(-c4c(F)cc(S(=O)(=O)[O-])cc4F)c4nc(c(-c5c(F)cc(S(=O)(=O)[O-])cc5F)c5ccc2[nH]5)C=C4)C=C3)cc1)c1ccc(C[C@H]2CCCC2=O)c(-c2ccc(F)cc2)c1
REMARK SMILES IDX 7 1 6 2 5 3 3 4 4 5 2 7 1 8 79 9 80 10 98 11 81 12 90 13
REMARK SMILES IDX 82 14 91 15 92 16 97 17 93 18 96 19 94 20 95 21 83 22 84 23
REMARK SMILES IDX 85 24 88 25 86 26 87 27 89 28 8 29 9 30 10 31 11 32 12 34
REMARK SMILES IDX 13 35 14 36 78 37 15 38 77 39 16 40 17 41 18 42 71 43 19 44
REMARK SMILES IDX 76 45 70 46 72 47 20 48 75 49 69 50 68 51 21 53 55 54 34 55
REMARK SMILES IDX 54 56 35 57 38 58 53 59 73 60 36 61 37 62 52 64 74 65 39 66
REMARK SMILES IDX 22 67 23 68 32 69 24 70 25 71 31 72 33 73 26 74 27 75 28 76
REMARK SMILES IDX 29 77 30 78 56 79 57 80 66 81 58 82 59 83 65 84 67 85 60 86
REMARK SMILES IDX 61 87 62 88 63 89 64 90 40 91 41 92 50 93 42 94 43 95 49 96
REMARK SMILES IDX 51 97 44 98 45 99 46 100 47 101 48 102
REMARK H PARENT 5 6 10 33 72 52 38 63
REMARK Flexibility Score: inf
ROOT
ATOM      1  C   UNL A   1      38.587  21.825  25.776  1.00  0.00     0.023 C 
ENDROOT
BRANCH   1   2
ATOM      2  C   UNL A   1      37.783  23.130  25.774  1.00  0.00     0.116 C 
BRANCH   2   3
ATOM      3  N   UNL A   1      37.135  23.330  24.493  1.00  0.00    -0.356 N 
ATOM      4  C   UNL A   1      35.898  22.938  24.063  1.00  0.00     0.227 C 
ATOM      5  O   UNL A   1      35.676  23.051  22.854  1.00  0.00    -0.274 OA
ATOM      6  H   UNL A   1      37.668  23.825  23.830  1.00  0.00     0.163 HD
BRANCH   4   7
ATOM      7  C   UNL A   1      34.848  22.427  25.075  1.00  0.00     0.105 C 
ATOM      8  C   UNL A   1      34.533  20.952  24.780  1.00  0.00     0.023 C 
BRANCH   7   9
ATOM      9  C   UNL A   1      33.577  23.294  25.122  1.00  0.00    -0.035 A 
ATOM     10  C   UNL A   1      32.350  22.833  24.639  1.00  0.00     0.005 A 
ATOM     11  C   UNL A   1      33.602  24.589  25.678  1.00  0.00     0.013 A 
ATOM     12  C   UNL A   1      31.232  23.660  24.609  1.00  0.00     0.004 A 
ATOM     13  C   UNL A   1      32.491  25.465  25.626  1.00  0.00    -0.015 A 
ATOM     14  C   UNL A   1      31.298  24.997  25.028  1.00  0.00    -0.039 A 
BRANCH  13  15
ATOM     15  C   UNL A   1      32.639  26.836  26.158  1.00  0.00    -0.018 A 
ATOM     16  C   UNL A   1      33.807  27.587  25.927  1.00  0.00     0.012 A 
ATOM     17  C   UNL A   1      31.618  27.423  26.928  1.00  0.00     0.012 A 
ATOM     18  C   UNL A   1      33.982  28.845  26.507  1.00  0.00     0.040 A 
ATOM     19  C   UNL A   1      31.783  28.689  27.495  1.00  0.00     0.040 A 
ATOM     20  C   UNL A   1      32.970  29.381  27.293  1.00  0.00     0.123 A 
ATOM     21  F   UNL A   1      33.145  30.579  27.866  1.00  0.00    -0.207 F 
ENDBRANCH  13  15
BRANCH  14  22
ATOM     22  C   UNL A   1      30.085  25.865  24.751  1.00  0.00     0.047 C 
BRANCH  22  23
ATOM     23  C   UNL A   1      30.106  26.681  23.448  1.00  0.00     0.060 C 
ATOM     24  C   UNL A   1      30.065  28.205  23.589  1.00  0.00     0.012 C 
ATOM     25  C   UNL A   1      31.360  26.473  22.632  1.00  0.00     0.136 C 
ATOM     26  C   UNL A   1      31.503  28.690  23.451  1.00  0.00     0.009 C 
ATOM     27  C   UNL A   1      32.168  27.734  22.472  1.00  0.00     0.076 C 
ATOM     28  O   UNL A   1      31.678  25.397  22.138  1.00  0.00    -0.299 OA
ENDBRANCH  22  23
ENDBRANCH  14  22
ENDBRANCH   7   9
ENDBRANCH   4   7
ENDBRANCH   2   3
ENDBRANCH   1   2
BRANCH   1  29
ATOM     29  C   UNL A   1      39.914  21.890  26.535  1.00  0.00     0.023 C 
BRANCH  29  30
ATOM     30  C   UNL A   1      40.300  23.274  27.042  1.00  0.00     0.116 C 
BRANCH  30  31
ATOM     31  N   UNL A   1      40.987  24.066  26.036  1.00  0.00    -0.352 N 
ATOM     32  C   UNL A   1      41.345  25.389  26.068  1.00  0.00     0.251 C 
ATOM     33  H   UNL A   1      41.228  23.584  25.212  1.00  0.00     0.163 HD
ATOM     34  O   UNL A   1      41.787  25.918  25.048  1.00  0.00    -0.269 OA
BRANCH  32  35
ATOM     35  C   UNL A   1      41.175  26.180  27.305  1.00  0.00     0.039 A 
ATOM     36  C   UNL A   1      42.074  27.218  27.559  1.00  0.00     0.014 A 
ATOM     37  C   UNL A   1      40.149  25.904  28.215  1.00  0.00     0.014 A 
ATOM     38  C   UNL A   1      41.911  28.008  28.697  1.00  0.00     0.010 A 
ATOM     39  C   UNL A   1      39.939  26.746  29.305  1.00  0.00     0.010 A 
ATOM     40  C   UNL A   1      40.823  27.803  29.563  1.00  0.00    -0.014 A 
BRANCH  40  41
ATOM     41  C   UNL A   1      40.610  28.704  30.725  1.00  0.00     0.031 A 
ATOM     42  C   UNL A   1      41.431  28.553  31.977  1.00  0.00     0.074 A 
ATOM     43  C   UNL A   1      39.660  29.656  30.650  1.00  0.00     0.049 A 
ATOM     44  N   UNL A   1      41.412  29.280  33.066  1.00  0.00    -0.248 NA
ATOM     45  C   UNL A   1      42.382  27.431  32.026  1.00  0.00     0.031 C 
ATOM     46  C   UNL A   1      38.747  29.851  29.519  1.00  0.00     0.029 A 
ATOM     47  N   UNL A   1      39.304  30.643  31.534  1.00  0.00    -0.354 N 
ATOM     48  C   UNL A   1      42.350  28.712  33.920  1.00  0.00     0.074 A 
ATOM     49  C   UNL A   1      42.868  27.537  33.255  1.00  0.00     0.031 C 
ATOM     50  C   UNL A   1      37.965  30.914  29.762  1.00  0.00     0.029 A 
ATOM     51  C   UNL A   1      38.294  31.457  31.075  1.00  0.00     0.049 A 
ATOM     52  H   UNL A   1      39.730  30.759  32.413  1.00  0.00     0.167 HD
ATOM     53  C   UNL A   1      42.768  29.150  35.132  1.00  0.00     0.037 A 
ATOM     54  C   UNL A   1      37.701  32.522  31.646  1.00  0.00     0.037 A 
ATOM     55  C   UNL A   1      42.249  30.323  35.789  1.00  0.00     0.049 A 
ATOM     56  C   UNL A   1      38.190  32.995  32.988  1.00  0.00     0.074 A 
ATOM     57  C   UNL A   1      42.629  30.870  37.002  1.00  0.00     0.029 A 
ATOM     58  N   UNL A   1      41.240  31.133  35.287  1.00  0.00    -0.354 N 
ATOM     59  N   UNL A   1      39.130  32.486  33.750  1.00  0.00    -0.248 NA
ATOM     60  C   UNL A   1      37.550  34.195  33.542  1.00  0.00     0.031 C 
ATOM     61  C   UNL A   1      41.819  31.983  37.255  1.00  0.00     0.029 A 
ATOM     62  C   UNL A   1      40.973  32.164  36.173  1.00  0.00     0.049 A 
ATOM     63  H   UNL A   1      40.781  30.994  34.427  1.00  0.00     0.167 HD
ATOM     64  C   UNL A   1      39.205  33.313  34.865  1.00  0.00     0.074 A 
ATOM     65  C   UNL A   1      38.238  34.373  34.661  1.00  0.00     0.031 C 
ATOM     66  C   UNL A   1      39.998  33.206  35.960  1.00  0.00     0.037 A 
BRANCH  53  67
ATOM     67  C   UNL A   1      43.854  28.367  35.821  1.00  0.00     0.058 A 
ATOM     68  C   UNL A   1      45.213  28.660  35.613  1.00  0.00     0.135 A 
ATOM     69  C   UNL A   1      43.541  27.346  36.733  1.00  0.00     0.135 A 
ATOM     70  F   UNL A   1      45.573  29.615  34.739  1.00  0.00    -0.206 F 
ATOM     71  C   UNL A   1      46.220  27.956  36.264  1.00  0.00     0.059 A 
ATOM     72  C   UNL A   1      44.532  26.647  37.419  1.00  0.00     0.059 A 
ATOM     73  F   UNL A   1      42.261  27.019  36.969  1.00  0.00    -0.206 F 
ATOM     74  C   UNL A   1      45.870  26.953  37.168  1.00  0.00     0.060 A 
BRANCH  74  75
ATOM     75  S   UNL A   1      47.190  26.064  38.020  1.00  0.00     0.124 S 
ATOM     76  O   UNL A   1      47.109  26.637  39.360  1.00  0.00    -0.237 OA
ATOM     77  O   UNL A   1      46.759  24.675  37.898  1.00  0.00    -0.237 OA
ATOM     78  O   UNL A   1      48.385  26.417  37.259  1.00  0.00    -0.744 OA
ENDBRANCH  74  75
ENDBRANCH  53  67
BRANCH  54  79
ATOM     79  C   UNL A   1      36.593  33.223  30.943  1.00  0.00     0.058 A 
ATOM     80  C   UNL A   1      35.254  33.041  31.323  1.00  0.00     0.135 A 
ATOM     81  C   UNL A   1      36.854  34.096  29.874  1.00  0.00     0.135 A 
ATOM     82  F   UNL A   1      34.952  32.217  32.337  1.00  0.00    -0.206 F 
ATOM     83  C   UNL A   1      34.213  33.676  30.654  1.00  0.00     0.059 A 
ATOM     84  C   UNL A   1      35.832  34.766  29.210  1.00  0.00     0.059 A 
ATOM     85  F   UNL A   1      38.117  34.322  29.484  1.00  0.00    -0.206 F 
ATOM     86  C   UNL A   1      34.512  34.538  29.598  1.00  0.00     0.060 A 
BRANCH  86  87
ATOM     87  S   UNL A   1      33.158  35.386  28.757  1.00  0.00     0.124 S 
ATOM     88  O   UNL A   1      33.880  36.340  27.925  1.00  0.00    -0.237 OA
ATOM     89  O   UNL A   1      32.502  34.289  28.052  1.00  0.00    -0.237 OA
ATOM     90  O   UNL A   1      32.389  35.961  29.857  1.00  0.00    -0.744 OA
ENDBRANCH  86  87
ENDBRANCH  54  79
BRANCH  66  91
ATOM     91  C   UNL A   1      39.859  34.275  37.011  1.00  0.00     0.058 A 
ATOM     92  C   UNL A   1      39.016  34.113  38.122  1.00  0.00     0.135 A 
ATOM     93  C   UNL A   1      40.581  35.475  36.906  1.00  0.00     0.135 A 
ATOM     94  F   UNL A   1      38.302  32.986  38.271  1.00  0.00    -0.206 F 
ATOM     95  C   UNL A   1      38.853  35.124  39.065  1.00  0.00     0.059 A 
ATOM     96  C   UNL A   1      40.460  36.485  37.856  1.00  0.00     0.059 A 
ATOM     97  F   UNL A   1      41.414  35.677  35.873  1.00  0.00    -0.206 F 
ATOM     98  C   UNL A   1      39.575  36.309  38.919  1.00  0.00     0.060 A 
BRANCH  98  99
ATOM     99  S   UNL A   1      39.345  37.618  40.140  1.00  0.00     0.124 S 
ATOM    100  O   UNL A   1      39.086  36.847  41.350  1.00  0.00    -0.237 OA
ATOM    101  O   UNL A   1      40.628  38.316  40.096  1.00  0.00    -0.237 OA
ATOM    102  O   UNL A   1      38.209  38.373  39.620  1.00  0.00    -0.744 OA
ENDBRANCH  98  99
ENDBRANCH  66  91
ENDBRANCH  40  41
ENDBRANCH  32  35
ENDBRANCH  30  31
ENDBRANCH  29  30
ENDBRANCH   1  29
TORSDOF 18
ENDMDL
MODEL 2
REMARK VINA RESULT:     -12.3      6.437     11.858
REMARK SMILES C[C@@H](C(=O)NCCCCNC(=O)c1ccc(-c2c3nc(c(-c4c(F)cc(S(=O)(=O)[O-])cc4F)c4ccc([nH]4)c(-c4c(F)cc(S(=O)(=O)[O-])cc4F)c4nc(c(-c5c(F)cc(S(=O)(=O)[O-])cc5F)c5ccc2[nH]5)C=C4)C=C3)cc1)c1ccc(C[C@H]2CCCC2=O)c(-c2ccc(F)cc2)c1
REMARK SMILES IDX 7 1 6 2 5 3 3 4 4 5 2 7 1 8 79 9 80 10 98 11 81 12 90 13
REMARK SMILES IDX 82 14 91 15 92 16 97 17 93 18 96 19 94 20 95 21 83 22 84 23
REMARK SMILES IDX 85 24 88 25 86 26 87 27 89 28 8 29 9 30 10 31 11 32 12 34
REMARK SMILES IDX 13 35 14 36 78 37 15 38 77 39 16 40 17 41 18 42 71 43 19 44
REMARK SMILES IDX 76 45 70 46 72 47 20 48 75 49 69 50 68 51 21 53 55 54 34 55
REMARK SMILES IDX 54 56 35 57 38 58 53 59 73 60 36 61 37 62 52 64 74 65 39 66
REMARK SMILES IDX 22 67 23 68 32 69 24 70 25 71 31 72 33 73 26 74 27 75 28 76
REMARK SMILES IDX 29 77 30 78 56 79 57 80 66 81 58 82 59 83 65 84 67 85 60 86
REMARK SMILES IDX 61 87 62 88 63 89 64 90 40 91 41 92 50 93 42 94 43 95 49 96
REMARK SMILES IDX 51 97 44 98 45 99 46 100 47 101 48 102
REMARK H PARENT 5 6 10 33 72 52 38 63
REMARK Flexibility Score: inf
ROOT
ATOM      1  C   UNL A   1      35.246  33.431  28.109  1.00  0.00     0.023 C 
ENDROOT
BRANCH   1   2
ATOM      2  C   UNL A   1      35.096  31.937  27.803  1.00  0.00     0.116 C 
BRANCH   2   3
ATOM      3  N   UNL A   1      33.698  31.584  27.647  1.00  0.00    -0.356 N 
ATOM      4  C   UNL A   1      33.126  30.392  27.301  1.00  0.00     0.227 C 
ATOM      5  O   UNL A   1      31.922  30.420  27.030  1.00  0.00    -0.274 OA
ATOM      6  H   UNL A   1      33.063  32.317  27.816  1.00  0.00     0.163 HD
BRANCH   4   7
ATOM      7  C   UNL A   1      33.967  29.096  27.301  1.00  0.00     0.105 C 
ATOM      8  C   UNL A   1      35.423  29.434  27.660  1.00  0.00     0.023 C 
BRANCH   7   9
ATOM      9  C   UNL A   1      33.863  28.304  25.986  1.00  0.00    -0.035 A 
ATOM     10  C   UNL A   1      33.553  28.925  24.773  1.00  0.00     0.005 A 
ATOM     11  C   UNL A   1      34.096  26.915  25.954  1.00  0.00     0.013 A 
ATOM     12  C   UNL A   1      33.377  28.183  23.609  1.00  0.00     0.004 A 
ATOM     13  C   UNL A   1      33.887  26.130  24.794  1.00  0.00    -0.015 A 
ATOM     14  C   UNL A   1      33.467  26.783  23.612  1.00  0.00    -0.039 A 
BRANCH  13  15
ATOM     15  C   UNL A   1      34.075  24.666  24.880  1.00  0.00    -0.018 A 
ATOM     16  C   UNL A   1      33.413  23.902  25.859  1.00  0.00     0.012 A 
ATOM     17  C   UNL A   1      34.939  23.999  23.992  1.00  0.00     0.012 A 
ATOM     18  C   UNL A   1      33.663  22.534  25.995  1.00  0.00     0.040 A 
ATOM     19  C   UNL A   1      35.177  22.628  24.115  1.00  0.00     0.040 A 
ATOM     20  C   UNL A   1      34.549  21.911  25.127  1.00  0.00     0.123 A 
ATOM     21  F   UNL A   1      34.805  20.605  25.270  1.00  0.00    -0.207 F 
ENDBRANCH  13  15
BRANCH  14  22
ATOM     22  C   UNL A   1      33.044  26.065  22.344  1.00  0.00     0.047 C 
BRANCH  22  23
ATOM     23  C   UNL A   1      31.554  25.712  22.216  1.00  0.00     0.060 C 
ATOM     24  C   UNL A   1      31.033  24.586  23.113  1.00  0.00     0.012 C 
ATOM     25  C   UNL A   1      30.635  26.855  22.580  1.00  0.00     0.136 C 
ATOM     26  C   UNL A   1      30.365  25.258  24.307  1.00  0.00     0.009 C 
ATOM     27  C   UNL A   1      29.764  26.548  23.770  1.00  0.00     0.076 C 
ATOM     28  O   UNL A   1      30.590  27.913  21.963  1.00  0.00    -0.299 OA
ENDBRANCH  22  23
ENDBRANCH  14  22
ENDBRANCH   7   9
ENDBRANCH   4   7
ENDBRANCH   2   3
ENDBRANCH   1   2
BRANCH   1  29
ATOM     29  C   UNL A   1      35.463  33.764  29.587  1.00  0.00     0.023 C 
BRANCH  29  30
ATOM     30  C   UNL A   1      36.639  33.052  30.242  1.00  0.00     0.116 C 
BRANCH  30  31
ATOM     31  N   UNL A   1      36.224  31.925  31.060  1.00  0.00    -0.352 N 
ATOM     32  C   UNL A   1      36.818  30.698  31.213  1.00  0.00     0.251 C 
ATOM     33  H   UNL A   1      35.398  32.061  31.577  1.00  0.00     0.163 HD
ATOM     34  O   UNL A   1      36.226  29.818  31.837  1.00  0.00    -0.269 OA
BRANCH  32  35
ATOM     35  C   UNL A   1      38.140  30.427  30.611  1.00  0.00     0.039 A 
ATOM     36  C   UNL A   1      39.222  30.192  31.462  1.00  0.00     0.014 A 
ATOM     37  C   UNL A   1      38.323  30.410  29.225  1.00  0.00     0.014 A 
ATOM     38  C   UNL A   1      40.472  29.890  30.921  1.00  0.00     0.010 A 
ATOM     39  C   UNL A   1      39.551  30.026  28.688  1.00  0.00     0.010 A 
ATOM     40  C   UNL A   1      40.642  29.770  29.531  1.00  0.00    -0.014 A 
BRANCH  40  41
ATOM     41  C   UNL A   1      41.955  29.365  28.969  1.00  0.00     0.031 A 
ATOM     42  C   UNL A   1      43.081  30.356  28.848  1.00  0.00     0.074 A 
ATOM     43  C   UNL A   1      42.127  28.094  28.556  1.00  0.00     0.049 A 
ATOM     44  N   UNL A   1      44.305  30.164  28.426  1.00  0.00    -0.248 NA
ATOM     45  C   UNL A   1      42.793  31.749  29.227  1.00  0.00     0.031 C 
ATOM     46  C   UNL A   1      41.087  27.060  28.551  1.00  0.00     0.029 A 
ATOM     47  N   UNL A   1      43.234  27.449  28.066  1.00  0.00    -0.354 N 
ATOM     48  C   UNL A   1      44.933  31.402  28.499  1.00  0.00     0.074 A 
ATOM     49  C   UNL A   1      43.935  32.354  28.935  1.00  0.00     0.031 C 
ATOM     50  C   UNL A   1      41.616  25.905  28.118  1.00  0.00     0.029 A 
ATOM     51  C   UNL A   1      43.019  26.120  27.784  1.00  0.00     0.049 A 
ATOM     52  H   UNL A   1      44.101  27.895  27.930  1.00  0.00     0.167 HD
ATOM     53  C   UNL A   1      46.230  31.711  28.261  1.00  0.00     0.037 A 
ATOM     54  C   UNL A   1      43.858  25.178  27.312  1.00  0.00     0.037 A 
ATOM     55  C   UNL A   1      47.220  30.757  27.829  1.00  0.00     0.049 A 
ATOM     56  C   UNL A   1      45.297  25.544  27.064  1.00  0.00     0.074 A 
ATOM     57  C   UNL A   1      48.568  30.962  27.592  1.00  0.00     0.029 A 
ATOM     58  N   UNL A   1      46.971  29.416  27.571  1.00  0.00    -0.354 N 
ATOM     59  N   UNL A   1      45.890  26.706  27.209  1.00  0.00    -0.248 NA
ATOM     60  C   UNL A   1      46.185  24.468  26.605  1.00  0.00     0.031 C 
ATOM     61  C   UNL A   1      49.124  29.756  27.147  1.00  0.00     0.029 A 
ATOM     62  C   UNL A   1      48.135  28.787  27.161  1.00  0.00     0.049 A 
ATOM     63  H   UNL A   1      46.094  28.977  27.665  1.00  0.00     0.167 HD
ATOM     64  C   UNL A   1      47.223  26.497  26.875  1.00  0.00     0.074 A 
ATOM     65  C   UNL A   1      47.354  25.090  26.553  1.00  0.00     0.031 C 
ATOM     66  C   UNL A   1      48.246  27.386  26.833  1.00  0.00     0.037 A 
BRANCH  53  67
ATOM     67  C   UNL A   1      46.660  33.138  28.480  1.00  0.00     0.058 A 
ATOM     68  C   UNL A   1      46.603  34.087  27.446  1.00  0.00     0.135 A 
ATOM     69  C   UNL A   1      47.088  33.577  29.743  1.00  0.00     0.135 A 
ATOM     70  F   UNL A   1      46.217  33.721  26.212  1.00  0.00    -0.206 F 
ATOM     71  C   UNL A   1      46.976  35.411  27.648  1.00  0.00     0.059 A 
ATOM     72  C   UNL A   1      47.438  34.905  29.977  1.00  0.00     0.059 A 
ATOM     73  F   UNL A   1      47.166  32.714  30.769  1.00  0.00    -0.206 F 
ATOM     74  C   UNL A   1      47.389  35.812  28.919  1.00  0.00     0.060 A 
BRANCH  74  75
ATOM     75  S   UNL A   1      47.850  37.539  29.168  1.00  0.00     0.124 S 
ATOM     76  O   UNL A   1      46.543  38.191  29.168  1.00  0.00    -0.237 OA
ATOM     77  O   UNL A   1      48.536  37.496  30.455  1.00  0.00    -0.237 OA
ATOM     78  O   UNL A   1      48.697  37.836  28.017  1.00  0.00    -0.744 OA
ENDBRANCH  74  75
ENDBRANCH  53  67
BRANCH  54  79
ATOM     79  C   UNL A   1      43.363  23.798  27.061  1.00  0.00     0.058 A 
ATOM     80  C   UNL A   1      43.193  22.880  28.108  1.00  0.00     0.135 A 
ATOM     81  C   UNL A   1      43.046  23.370  25.762  1.00  0.00     0.135 A 
ATOM     82  F   UNL A   1      43.482  23.239  29.368  1.00  0.00    -0.206 F 
ATOM     83  C   UNL A   1      42.752  21.581  27.876  1.00  0.00     0.059 A 
ATOM     84  C   UNL A   1      42.575  22.087  25.507  1.00  0.00     0.059 A 
ATOM     85  F   UNL A   1      43.172  24.215  24.726  1.00  0.00    -0.206 F 
ATOM     86  C   UNL A   1      42.445  21.194  26.570  1.00  0.00     0.060 A 
BRANCH  86  87
ATOM     87  S   UNL A   1      41.841  19.518  26.280  1.00  0.00     0.124 S 
ATOM     88  O   UNL A   1      42.232  18.847  27.514  1.00  0.00    -0.237 OA
ATOM     89  O   UNL A   1      40.409  19.736  26.097  1.00  0.00    -0.237 OA
ATOM     90  O   UNL A   1      42.561  19.105  25.079  1.00  0.00    -0.744 OA
ENDBRANCH  86  87
ENDBRANCH  54  79
BRANCH  66  91
ATOM     91  C   UNL A   1      49.599  26.854  26.440  1.00  0.00     0.058 A 
ATOM     92  C   UNL A   1      50.029  26.845  25.103  1.00  0.00     0.135 A 
ATOM     93  C   UNL A   1      50.476  26.349  27.414  1.00  0.00     0.135 A 
ATOM     94  F   UNL A   1      49.229  27.314  24.132  1.00  0.00    -0.206 F 
ATOM     95  C   UNL A   1      51.259  26.306  24.739  1.00  0.00     0.059 A 
ATOM     96  C   UNL A   1      51.726  25.838  27.075  1.00  0.00     0.059 A 
ATOM     97  F   UNL A   1      50.124  26.348  28.709  1.00  0.00    -0.206 F 
ATOM     98  C   UNL A   1      52.098  25.799  25.733  1.00  0.00     0.060 A 
BRANCH  98  99
ATOM     99  S   UNL A   1      53.685  25.090  25.246  1.00  0.00     0.124 S 
ATOM    100  O   UNL A   1      54.567  25.608  26.287  1.00  0.00    -0.237 OA
ATOM    101  O   UNL A   1      53.416  23.656  25.299  1.00  0.00    -0.237 OA
ATOM    102  O   UNL A   1      53.905  25.632  23.909  1.00  0.00    -0.744 OA
ENDBRANCH  98  99
ENDBRANCH  66  91
ENDBRANCH  40  41
ENDBRANCH  32  35
ENDBRANCH  30  31
ENDBRANCH  29  30
ENDBRANCH   1  29
TORSDOF 18
ENDMDL
MODEL 3
REMARK VINA RESULT:     -12.3      5.125     11.951
REMARK SMILES C[C@@H](C(=O)NCCCCNC(=O)c1ccc(-c2c3nc(c(-c4c(F)cc(S(=O)(=O)[O-])cc4F)c4ccc([nH]4)c(-c4c(F)cc(S(=O)(=O)[O-])cc4F)c4nc(c(-c5c(F)cc(S(=O)(=O)[O-])cc5F)c5ccc2[nH]5)C=C4)C=C3)cc1)c1ccc(C[C@H]2CCCC2=O)c(-c2ccc(F)cc2)c1
REMARK SMILES IDX 7 1 6 2 5 3 3 4 4 5 2 7 1 8 79 9 80 10 98 11 81 12 90 13
REMARK SMILES IDX 82 14 91 15 92 16 97 17 93 18 96 19 94 20 95 21 83 22 84 23
REMARK SMILES IDX 85 24 88 25 86 26 87 27 89 28 8 29 9 30 10 31 11 32 12 34
REMARK SMILES IDX 13 35 14 36 78 37 15 38 77 39 16 40 17 41 18 42 71 43 19 44
REMARK SMILES IDX 76 45 70 46 72 47 20 48 75 49 69 50 68 51 21 53 55 54 34 55
REMARK SMILES IDX 54 56 35 57 38 58 53 59 73 60 36 61 37 62 52 64 74 65 39 66
REMARK SMILES IDX 22 67 23 68 32 69 24 70 25 71 31 72 33 73 26 74 27 75 28 76
REMARK SMILES IDX 29 77 30 78 56 79 57 80 66 81 58 82 59 83 65 84 67 85 60 86
REMARK SMILES IDX 61 87 62 88 63 89 64 90 40 91 41 92 50 93 42 94 43 95 49 96
REMARK SMILES IDX 51 97 44 98 45 99 46 100 47 101 48 102
REMARK H PARENT 5 6 10 33 72 52 38 63
REMARK Flexibility Score: inf
ROOT
ATOM      1  C   UNL A   1      33.542  34.626  28.353  1.00  0.00     0.023 C 
ENDROOT
BRANCH   1   2
ATOM      2  C   UNL A   1      33.042  34.783  29.793  1.00  0.00     0.116 C 
BRANCH   2   3
ATOM      3  N   UNL A   1      33.439  36.068  30.335  1.00  0.00    -0.356 N 
ATOM      4  C   UNL A   1      33.694  36.436  31.626  1.00  0.00     0.227 C 
ATOM      5  O   UNL A   1      33.806  37.646  31.840  1.00  0.00    -0.274 OA
ATOM      6  H   UNL A   1      33.540  36.787  29.670  1.00  0.00     0.163 HD
BRANCH   4   7
ATOM      7  C   UNL A   1      33.869  35.360  32.722  1.00  0.00     0.105 C 
ATOM      8  C   UNL A   1      34.202  36.043  34.058  1.00  0.00     0.023 C 
BRANCH   7   9
ATOM      9  C   UNL A   1      34.898  34.277  32.351  1.00  0.00    -0.035 A 
ATOM     10  C   UNL A   1      34.672  32.923  32.612  1.00  0.00     0.005 A 
ATOM     11  C   UNL A   1      36.107  34.614  31.712  1.00  0.00     0.013 A 
ATOM     12  C   UNL A   1      35.649  31.968  32.350  1.00  0.00     0.004 A 
ATOM     13  C   UNL A   1      37.134  33.669  31.469  1.00  0.00    -0.015 A 
ATOM     14  C   UNL A   1      36.908  32.326  31.848  1.00  0.00    -0.039 A 
BRANCH  13  15
ATOM     15  C   UNL A   1      38.403  34.134  30.870  1.00  0.00    -0.018 A 
ATOM     16  C   UNL A   1      39.512  34.460  31.673  1.00  0.00     0.012 A 
ATOM     17  C   UNL A   1      38.531  34.278  29.476  1.00  0.00     0.012 A 
ATOM     18  C   UNL A   1      40.678  34.985  31.112  1.00  0.00     0.040 A 
ATOM     19  C   UNL A   1      39.703  34.786  28.911  1.00  0.00     0.040 A 
ATOM     20  C   UNL A   1      40.760  35.150  29.736  1.00  0.00     0.123 A 
ATOM     21  F   UNL A   1      41.870  35.672  29.199  1.00  0.00    -0.207 F 
ENDBRANCH  13  15
BRANCH  14  22
ATOM     22  C   UNL A   1      37.965  31.238  31.806  1.00  0.00     0.047 C 
BRANCH  22  23
ATOM     23  C   UNL A   1      38.331  30.580  33.146  1.00  0.00     0.060 C 
ATOM     24  C   UNL A   1      38.472  29.056  33.150  1.00  0.00     0.012 C 
ATOM     25  C   UNL A   1      39.672  31.022  33.683  1.00  0.00     0.136 C 
ATOM     26  C   UNL A   1      39.964  28.760  33.050  1.00  0.00     0.009 C 
ATOM     27  C   UNL A   1      40.658  29.890  33.795  1.00  0.00     0.076 C 
ATOM     28  O   UNL A   1      39.925  32.177  34.011  1.00  0.00    -0.299 OA
ENDBRANCH  22  23
ENDBRANCH  14  22
ENDBRANCH   7   9
ENDBRANCH   4   7
ENDBRANCH   2   3
ENDBRANCH   1   2
BRANCH   1  29
ATOM     29  C   UNL A   1      34.853  33.851  28.209  1.00  0.00     0.023 C 
BRANCH  29  30
ATOM     30  C   UNL A   1      34.903  32.524  28.954  1.00  0.00     0.116 C 
BRANCH  30  31
ATOM     31  N   UNL A   1      34.173  31.470  28.268  1.00  0.00    -0.352 N 
ATOM     32  C   UNL A   1      34.627  30.268  27.791  1.00  0.00     0.251 C 
ATOM     33  H   UNL A   1      33.216  31.646  28.125  1.00  0.00     0.163 HD
ATOM     34  O   UNL A   1      33.882  29.575  27.100  1.00  0.00    -0.269 OA
BRANCH  32  35
ATOM     35  C   UNL A   1      36.007  29.822  28.078  1.00  0.00     0.039 A 
ATOM     36  C   UNL A   1      36.978  29.986  27.088  1.00  0.00     0.014 A 
ATOM     37  C   UNL A   1      36.349  29.241  29.303  1.00  0.00     0.014 A 
ATOM     38  C   UNL A   1      38.298  29.615  27.347  1.00  0.00     0.010 A 
ATOM     39  C   UNL A   1      37.681  28.949  29.590  1.00  0.00     0.010 A 
ATOM     40  C   UNL A   1      38.669  29.125  28.611  1.00  0.00    -0.014 A 
BRANCH  40  41
ATOM     41  C   UNL A   1      40.091  28.813  28.905  1.00  0.00     0.031 A 
ATOM     42  C   UNL A   1      40.982  29.829  29.569  1.00  0.00     0.074 A 
ATOM     43  C   UNL A   1      40.583  27.607  28.558  1.00  0.00     0.049 A 
ATOM     44  N   UNL A   1      42.231  29.709  29.942  1.00  0.00    -0.248 NA
ATOM     45  C   UNL A   1      40.406  31.157  29.831  1.00  0.00     0.031 C 
ATOM     46  C   UNL A   1      39.839  26.568  27.840  1.00  0.00     0.029 A 
ATOM     47  N   UNL A   1      41.817  27.046  28.765  1.00  0.00    -0.354 N 
ATOM     48  C   UNL A   1      42.585  30.937  30.489  1.00  0.00     0.074 A 
ATOM     49  C   UNL A   1      41.444  31.811  30.333  1.00  0.00     0.031 C 
ATOM     50  C   UNL A   1      40.619  25.485  27.700  1.00  0.00     0.029 A 
ATOM     51  C   UNL A   1      41.925  25.761  28.288  1.00  0.00     0.049 A 
ATOM     52  H   UNL A   1      42.556  27.518  29.212  1.00  0.00     0.167 HD
ATOM     53  C   UNL A   1      43.742  31.292  31.098  1.00  0.00     0.037 A 
ATOM     54  C   UNL A   1      42.959  24.899  28.321  1.00  0.00     0.037 A 
ATOM     55  C   UNL A   1      44.875  30.415  31.252  1.00  0.00     0.049 A 
ATOM     56  C   UNL A   1      44.230  25.313  29.012  1.00  0.00     0.074 A 
ATOM     57  C   UNL A   1      46.081  30.667  31.883  1.00  0.00     0.029 A 
ATOM     58  N   UNL A   1      44.943  29.114  30.772  1.00  0.00    -0.354 N 
ATOM     59  N   UNL A   1      44.521  26.456  29.588  1.00  0.00    -0.248 NA
ATOM     60  C   UNL A   1      45.307  24.317  29.072  1.00  0.00     0.031 C 
ATOM     61  C   UNL A   1      46.894  29.536  31.744  1.00  0.00     0.029 A 
ATOM     62  C   UNL A   1      46.174  28.558  31.078  1.00  0.00     0.049 A 
ATOM     63  H   UNL A   1      44.220  28.654  30.286  1.00  0.00     0.167 HD
ATOM     64  C   UNL A   1      45.808  26.310  30.093  1.00  0.00     0.074 A 
ATOM     65  C   UNL A   1      46.225  24.958  29.782  1.00  0.00     0.031 C 
ATOM     66  C   UNL A   1      46.578  27.213  30.751  1.00  0.00     0.037 A 
BRANCH  53  67
ATOM     67  C   UNL A   1      43.835  32.686  31.662  1.00  0.00     0.058 A 
ATOM     68  C   UNL A   1      44.210  33.776  30.860  1.00  0.00     0.135 A 
ATOM     69  C   UNL A   1      43.502  32.946  33.001  1.00  0.00     0.135 A 
ATOM     70  F   UNL A   1      44.556  33.585  29.576  1.00  0.00    -0.206 F 
ATOM     71  C   UNL A   1      44.275  35.069  31.369  1.00  0.00     0.059 A 
ATOM     72  C   UNL A   1      43.531  34.237  33.525  1.00  0.00     0.059 A 
ATOM     73  F   UNL A   1      43.139  31.943  33.816  1.00  0.00    -0.206 F 
ATOM     74  C   UNL A   1      43.930  35.290  32.702  1.00  0.00     0.060 A 
BRANCH  74  75
ATOM     75  S   UNL A   1      44.000  36.978  33.339  1.00  0.00     0.124 S 
ATOM     76  O   UNL A   1      42.681  37.113  33.950  1.00  0.00    -0.237 OA
ATOM     77  O   UNL A   1      45.124  36.913  34.268  1.00  0.00    -0.237 OA
ATOM     78  O   UNL A   1      44.222  37.785  32.144  1.00  0.00    -0.744 OA
ENDBRANCH  74  75
ENDBRANCH  53  67
BRANCH  54  79
ATOM     79  C   UNL A   1      42.829  23.555  27.697  1.00  0.00     0.058 A 
ATOM     80  C   UNL A   1      43.073  23.356  26.329  1.00  0.00     0.135 A 
ATOM     81  C   UNL A   1      42.460  22.436  28.461  1.00  0.00     0.135 A 
ATOM     82  F   UNL A   1      43.428  24.392  25.554  1.00  0.00    -0.206 F 
ATOM     83  C   UNL A   1      42.931  22.106  25.736  1.00  0.00     0.059 A 
ATOM     84  C   UNL A   1      42.340  21.171  27.898  1.00  0.00     0.059 A 
ATOM     85  F   UNL A   1      42.234  22.566  29.778  1.00  0.00    -0.206 F 
ATOM     86  C   UNL A   1      42.563  21.018  26.530  1.00  0.00     0.060 A 
BRANCH  86  87
ATOM     87  S   UNL A   1      42.414  19.392  25.760  1.00  0.00     0.124 S 
ATOM     88  O   UNL A   1      41.002  19.366  25.399  1.00  0.00    -0.237 OA
ATOM     89  O   UNL A   1      43.357  19.491  24.650  1.00  0.00    -0.237 OA
ATOM     90  O   UNL A   1      42.811  18.478  26.828  1.00  0.00    -0.744 OA
ENDBRANCH  86  87
ENDBRANCH  54  79
BRANCH  66  91
ATOM     91  C   UNL A   1      47.944  26.754  31.191  1.00  0.00     0.058 A 
ATOM     92  C   UNL A   1      49.095  27.038  30.440  1.00  0.00     0.135 A 
ATOM     93  C   UNL A   1      48.101  26.023  32.380  1.00  0.00     0.135 A 
ATOM     94  F   UNL A   1      49.002  27.732  29.295  1.00  0.00    -0.206 F 
ATOM     95  C   UNL A   1      50.348  26.570  30.825  1.00  0.00     0.059 A 
ATOM     96  C   UNL A   1      49.349  25.574  32.801  1.00  0.00     0.059 A 
ATOM     97  F   UNL A   1      47.036  25.736  33.145  1.00  0.00    -0.206 F 
ATOM     98  C   UNL A   1      50.463  25.832  32.004  1.00  0.00     0.060 A 
BRANCH  98  99
ATOM     99  S   UNL A   1      52.090  25.218  32.485  1.00  0.00     0.124 S 
ATOM    100  O   UNL A   1      52.876  25.503  31.289  1.00  0.00    -0.237 OA
ATOM    101  O   UNL A   1      52.400  26.035  33.656  1.00  0.00    -0.237 OA
ATOM    102  O   UNL A   1      51.853  23.804  32.760  1.00  0.00    -0.744 OA
ENDBRANCH  98  99
ENDBRANCH  66  91
ENDBRANCH  40  41
ENDBRANCH  32  35
ENDBRANCH  30  31
ENDBRANCH  29  30
ENDBRANCH   1  29
TORSDOF 18
ENDMDL
