MODEL 1
REMARK VINA RESULT:     -11.7      0.000      0.000
REMARK SMILES C[C@H](c1ccncc1)[N@H+]1[C@@H]2CC[C@H]1C[C@H](CC(=O)NCCCCNC(=O)c1ccc(-c3c4nc(c(-c5c(F)cc(S(=O)(=O)[O-])cc5F)c5ccc([nH]5)c(-c5c(F)cc(S(=O)(=O)[O-])cc5F)c5nc(c(-c6c(F)cc(S(=O)(=O)[O-])cc6F)c6ccc3[nH]6)C=C5)C=C4)cc1)C2
REMARK SMILES IDX 21 1 20 2 19 3 17 4 18 5 16 7 15 8 9 9 10 10 13 11 11 13
REMARK SMILES IDX 93 14 12 15 14 16 2 17 1 18 3 19 4 20 8 21 5 22 7 23 6 24
REMARK SMILES IDX 22 25 23 26 24 27 25 28 26 30 27 31 28 32 92 33 29 34 91 35
REMARK SMILES IDX 30 36 31 37 32 38 85 39 33 40 90 41 84 42 86 43 34 44 89 45
REMARK SMILES IDX 83 46 82 47 35 49 69 50 48 51 68 52 49 53 52 54 67 55 87 56
REMARK SMILES IDX 50 57 51 58 66 60 88 61 53 62 36 63 37 64 46 65 38 66 39 67
REMARK SMILES IDX 45 68 47 69 40 70 41 71 42 72 43 73 44 74 70 75 71 76 80 77
REMARK SMILES IDX 72 78 73 79 79 80 81 81 74 82 75 83 76 84 77 85 78 86 54 87
REMARK SMILES IDX 55 88 64 89 56 90 57 91 63 92 65 93 58 94 59 95 60 96 61 97
REMARK SMILES IDX 62 98
REMARK H PARENT 19 6 9 12 24 29 86 48 52 59
REMARK Flexibility Score: inf
ROOT
ATOM      1  C   UNL A   1      31.569  28.846  25.778  1.00  0.00     0.023 C 
ENDROOT
BRANCH   1   2
ATOM      2  C   UNL A   1      31.029  27.957  24.653  1.00  0.00     0.116 C 
BRANCH   2   3
ATOM      3  N   UNL A   1      31.981  27.851  23.557  1.00  0.00    -0.356 N 
ATOM      4  C   UNL A   1      32.864  26.865  23.224  1.00  0.00     0.220 C 
ATOM      5  O   UNL A   1      33.621  27.057  22.272  1.00  0.00    -0.275 OA
ATOM      6  H   UNL A   1      31.989  28.626  22.950  1.00  0.00     0.163 HD
BRANCH   4   7
ATOM      7  C   UNL A   1      32.919  25.554  23.992  1.00  0.00     0.104 C 
BRANCH   7   8
ATOM      8  C   UNL A   1      34.338  24.943  24.094  1.00  0.00     0.010 C 
ATOM      9  N   UNL A   1      35.146  22.268  25.144  1.00  0.00    -0.324 N 
ATOM     10  C   UNL A   1      35.426  22.618  23.736  1.00  0.00     0.185 C 
ATOM     11  C   UNL A   1      35.601  23.470  25.850  1.00  0.00     0.185 C 
ATOM     12  H   UNL A   1      35.631  21.428  25.460  1.00  0.00     0.349 HD
ATOM     13  C   UNL A   1      36.862  23.155  23.830  1.00  0.00     0.071 C 
ATOM     14  C   UNL A   1      34.459  23.693  23.196  1.00  0.00     0.069 C 
ATOM     15  C   UNL A   1      36.987  23.686  25.254  1.00  0.00     0.071 C 
ATOM     16  C   UNL A   1      34.692  24.660  25.559  1.00  0.00     0.069 C 
BRANCH   9  17
ATOM     17  C   UNL A   1      33.767  21.813  25.426  1.00  0.00     0.212 C 
ATOM     18  C   UNL A   1      33.500  21.538  26.920  1.00  0.00     0.081 C 
BRANCH  17  19
ATOM     19  C   UNL A   1      33.441  20.560  24.625  1.00  0.00     0.012 A 
ATOM     20  C   UNL A   1      32.432  20.563  23.656  1.00  0.00     0.030 A 
ATOM     21  C   UNL A   1      34.112  19.359  24.874  1.00  0.00     0.030 A 
ATOM     22  C   UNL A   1      32.144  19.385  22.988  1.00  0.00     0.111 A 
ATOM     23  C   UNL A   1      33.747  18.230  24.157  1.00  0.00     0.111 A 
ATOM     24  N   UNL A   1      32.779  18.215  23.216  1.00  0.00    -0.265 NA
ENDBRANCH  17  19
ENDBRANCH   9  17
ENDBRANCH   7   8
ENDBRANCH   4   7
ENDBRANCH   2   3
ENDBRANCH   1   2
BRANCH   1  25
ATOM     25  C   UNL A   1      32.253  28.128  26.925  1.00  0.00     0.023 C 
BRANCH  25  26
ATOM     26  C   UNL A   1      33.642  28.643  27.232  1.00  0.00     0.116 C 
BRANCH  26  27
ATOM     27  N   UNL A   1      33.666  30.010  27.745  1.00  0.00    -0.352 N 
ATOM     28  C   UNL A   1      34.733  30.685  28.306  1.00  0.00     0.251 C 
ATOM     29  H   UNL A   1      32.820  30.510  27.684  1.00  0.00     0.163 HD
ATOM     30  O   UNL A   1      34.604  31.807  28.759  1.00  0.00    -0.269 OA
BRANCH  28  31
ATOM     31  C   UNL A   1      36.025  29.969  28.385  1.00  0.00     0.039 A 
ATOM     32  C   UNL A   1      36.918  30.062  27.316  1.00  0.00     0.014 A 
ATOM     33  C   UNL A   1      36.400  29.363  29.585  1.00  0.00     0.014 A 
ATOM     34  C   UNL A   1      38.236  29.632  27.492  1.00  0.00     0.010 A 
ATOM     35  C   UNL A   1      37.732  29.042  29.790  1.00  0.00     0.010 A 
ATOM     36  C   UNL A   1      38.666  29.174  28.748  1.00  0.00    -0.014 A 
BRANCH  36  37
ATOM     37  C   UNL A   1      40.077  28.802  29.017  1.00  0.00     0.031 A 
ATOM     38  C   UNL A   1      41.010  29.846  29.567  1.00  0.00     0.074 A 
ATOM     39  C   UNL A   1      40.543  27.589  28.662  1.00  0.00     0.049 A 
ATOM     40  N   UNL A   1      42.310  29.815  29.683  1.00  0.00    -0.248 NA
ATOM     41  C   UNL A   1      40.397  31.116  29.995  1.00  0.00     0.031 C 
ATOM     42  C   UNL A   1      39.750  26.509  28.067  1.00  0.00     0.029 A 
ATOM     43  N   UNL A   1      41.810  27.065  28.731  1.00  0.00    -0.354 N 
ATOM     44  C   UNL A   1      42.674  31.074  30.146  1.00  0.00     0.074 A 
ATOM     45  C   UNL A   1      41.464  31.859  30.244  1.00  0.00     0.031 C 
ATOM     46  C   UNL A   1      40.545  25.448  27.846  1.00  0.00     0.029 A 
ATOM     47  C   UNL A   1      41.909  25.783  28.241  1.00  0.00     0.049 A 
ATOM     48  H   UNL A   1      42.578  27.561  29.096  1.00  0.00     0.167 HD
ATOM     49  C   UNL A   1      43.903  31.528  30.483  1.00  0.00     0.037 A 
ATOM     50  C   UNL A   1      42.981  24.976  28.118  1.00  0.00     0.037 A 
ATOM     51  C   UNL A   1      45.089  30.717  30.453  1.00  0.00     0.049 A 
ATOM     52  C   UNL A   1      44.328  25.478  28.563  1.00  0.00     0.074 A 
ATOM     53  C   UNL A   1      46.373  31.054  30.841  1.00  0.00     0.029 A 
ATOM     54  N   UNL A   1      45.130  29.397  30.028  1.00  0.00    -0.354 N 
ATOM     55  N   UNL A   1      44.650  26.660  29.033  1.00  0.00    -0.248 NA
ATOM     56  C   UNL A   1      45.456  24.541  28.465  1.00  0.00     0.031 C 
ATOM     57  C   UNL A   1      47.195  29.941  30.636  1.00  0.00     0.029 A 
ATOM     58  C   UNL A   1      46.416  28.903  30.148  1.00  0.00     0.049 A 
ATOM     59  H   UNL A   1      44.358  28.888  29.690  1.00  0.00     0.167 HD
ATOM     60  C   UNL A   1      46.010  26.599  29.316  1.00  0.00     0.074 A 
ATOM     61  C   UNL A   1      46.450  25.264  28.966  1.00  0.00     0.031 C 
ATOM     62  C   UNL A   1      46.821  27.560  29.820  1.00  0.00     0.037 A 
BRANCH  49  63
ATOM     63  C   UNL A   1      44.014  32.957  30.929  1.00  0.00     0.058 A 
ATOM     64  C   UNL A   1      44.288  33.992  30.020  1.00  0.00     0.135 A 
ATOM     65  C   UNL A   1      43.844  33.299  32.280  1.00  0.00     0.135 A 
ATOM     66  F   UNL A   1      44.481  33.716  28.721  1.00  0.00    -0.206 F 
ATOM     67  C   UNL A   1      44.430  35.310  30.440  1.00  0.00     0.059 A 
ATOM     68  C   UNL A   1      43.953  34.616  32.718  1.00  0.00     0.059 A 
ATOM     69  F   UNL A   1      43.583  32.348  33.191  1.00  0.00    -0.206 F 
ATOM     70  C   UNL A   1      44.264  35.611  31.792  1.00  0.00     0.060 A 
BRANCH  70  71
ATOM     71  S   UNL A   1      44.459  37.324  32.326  1.00  0.00     0.124 S 
ATOM     72  O   UNL A   1      44.083  38.048  31.116  1.00  0.00    -0.237 OA
ATOM     73  O   UNL A   1      43.519  37.417  33.438  1.00  0.00    -0.237 OA
ATOM     74  O   UNL A   1      45.870  37.404  32.694  1.00  0.00    -0.744 OA
ENDBRANCH  70  71
ENDBRANCH  49  63
BRANCH  50  75
ATOM     75  C   UNL A   1      42.819  23.598  27.583  1.00  0.00     0.058 A 
ATOM     76  C   UNL A   1      42.500  22.532  28.437  1.00  0.00     0.135 A 
ATOM     77  C   UNL A   1      42.963  23.320  26.216  1.00  0.00     0.135 A 
ATOM     78  F   UNL A   1      42.357  22.748  29.753  1.00  0.00    -0.206 F 
ATOM     79  C   UNL A   1      42.343  21.236  27.958  1.00  0.00     0.059 A 
ATOM     80  C   UNL A   1      42.791  22.034  25.709  1.00  0.00     0.059 A 
ATOM     81  F   UNL A   1      43.250  24.309  25.354  1.00  0.00    -0.206 F 
ATOM     82  C   UNL A   1      42.490  20.997  26.590  1.00  0.00     0.060 A 
BRANCH  82  83
ATOM     83  S   UNL A   1      42.232  19.319  25.971  1.00  0.00     0.124 S 
ATOM     84  O   UNL A   1      42.740  18.517  27.076  1.00  0.00    -0.237 OA
ATOM     85  O   UNL A   1      40.786  19.284  25.768  1.00  0.00    -0.237 OA
ATOM     86  O   UNL A   1      43.028  19.290  24.747  1.00  0.00    -0.744 OA
ENDBRANCH  82  83
ENDBRANCH  50  75
BRANCH  62  87
ATOM     87  C   UNL A   1      48.254  27.196  30.075  1.00  0.00     0.058 A 
ATOM     88  C   UNL A   1      49.249  27.414  29.111  1.00  0.00     0.135 A 
ATOM     89  C   UNL A   1      48.645  26.709  31.332  1.00  0.00     0.135 A 
ATOM     90  F   UNL A   1      48.923  27.872  27.893  1.00  0.00    -0.206 F 
ATOM     91  C   UNL A   1      50.588  27.154  29.384  1.00  0.00     0.059 A 
ATOM     92  C   UNL A   1      49.979  26.462  31.634  1.00  0.00     0.059 A 
ATOM     93  F   UNL A   1      47.727  26.495  32.289  1.00  0.00    -0.206 F 
ATOM     94  C   UNL A   1      50.943  26.684  30.651  1.00  0.00     0.060 A 
BRANCH  94  95
ATOM     95  S   UNL A   1      52.690  26.414  31.017  1.00  0.00     0.124 S 
ATOM     96  O   UNL A   1      53.258  26.309  29.677  1.00  0.00    -0.237 OA
ATOM     97  O   UNL A   1      53.045  27.617  31.764  1.00  0.00    -0.237 OA
ATOM     98  O   UNL A   1      52.685  25.180  31.798  1.00  0.00    -0.744 OA
ENDBRANCH  94  95
ENDBRANCH  62  87
ENDBRANCH  36  37
ENDBRANCH  28  31
ENDBRANCH  26  27
ENDBRANCH  25  26
ENDBRANCH   1  25
TORSDOF 17
ENDMDL
MODEL 2
REMARK VINA RESULT:     -11.5      3.220      9.730
REMARK SMILES C[C@H](c1ccncc1)[N@H+]1[C@@H]2CC[C@H]1C[C@H](CC(=O)NCCCCNC(=O)c1ccc(-c3c4nc(c(-c5c(F)cc(S(=O)(=O)[O-])cc5F)c5ccc([nH]5)c(-c5c(F)cc(S(=O)(=O)[O-])cc5F)c5nc(c(-c6c(F)cc(S(=O)(=O)[O-])cc6F)c6ccc3[nH]6)C=C5)C=C4)cc1)C2
REMARK SMILES IDX 21 1 20 2 19 3 17 4 18 5 16 7 15 8 9 9 10 10 13 11 11 13
REMARK SMILES IDX 93 14 12 15 14 16 2 17 1 18 3 19 4 20 8 21 5 22 7 23 6 24
REMARK SMILES IDX 22 25 23 26 24 27 25 28 26 30 27 31 28 32 92 33 29 34 91 35
REMARK SMILES IDX 30 36 31 37 32 38 85 39 33 40 90 41 84 42 86 43 34 44 89 45
REMARK SMILES IDX 83 46 82 47 35 49 69 50 48 51 68 52 49 53 52 54 67 55 87 56
REMARK SMILES IDX 50 57 51 58 66 60 88 61 53 62 36 63 37 64 46 65 38 66 39 67
REMARK SMILES IDX 45 68 47 69 40 70 41 71 42 72 43 73 44 74 70 75 71 76 80 77
REMARK SMILES IDX 72 78 73 79 79 80 81 81 74 82 75 83 76 84 77 85 78 86 54 87
REMARK SMILES IDX 55 88 64 89 56 90 57 91 63 92 65 93 58 94 59 95 60 96 61 97
REMARK SMILES IDX 62 98
REMARK H PARENT 19 6 9 12 24 29 86 48 52 59
REMARK Flexibility Score: inf
ROOT
ATOM      1  C   UNL A   1      35.120  21.779  25.601  1.00  0.00     0.023 C 
ENDROOT
BRANCH   1   2
ATOM      2  C   UNL A   1      33.636  21.657  25.238  1.00  0.00     0.116 C 
BRANCH   2   3
ATOM      3  N   UNL A   1      32.784  22.077  26.341  1.00  0.00    -0.356 N 
ATOM      4  C   UNL A   1      32.105  23.239  26.561  1.00  0.00     0.220 C 
ATOM      5  O   UNL A   1      31.503  23.371  27.628  1.00  0.00    -0.275 OA
ATOM      6  H   UNL A   1      32.679  21.403  27.052  1.00  0.00     0.163 HD
BRANCH   4   7
ATOM      7  C   UNL A   1      32.073  24.351  25.524  1.00  0.00     0.104 C 
BRANCH   7   8
ATOM      8  C   UNL A   1      32.449  25.745  26.084  1.00  0.00     0.010 C 
ATOM      9  N   UNL A   1      31.959  28.432  24.879  1.00  0.00    -0.324 N 
ATOM     10  C   UNL A   1      31.362  28.096  26.188  1.00  0.00     0.185 C 
ATOM     11  C   UNL A   1      33.343  27.978  25.052  1.00  0.00     0.185 C 
ATOM     12  H   UNL A   1      31.905  29.425  24.648  1.00  0.00     0.349 HD
ATOM     13  C   UNL A   1      32.412  28.657  27.159  1.00  0.00     0.071 C 
ATOM     14  C   UNL A   1      31.180  26.575  26.376  1.00  0.00     0.069 C 
ATOM     15  C   UNL A   1      33.723  28.613  26.384  1.00  0.00     0.071 C 
ATOM     16  C   UNL A   1      33.419  26.456  25.133  1.00  0.00     0.069 C 
BRANCH   9  17
ATOM     17  C   UNL A   1      31.234  27.918  23.697  1.00  0.00     0.212 C 
ATOM     18  C   UNL A   1      32.035  28.028  22.384  1.00  0.00     0.081 C 
BRANCH  17  19
ATOM     19  C   UNL A   1      29.904  28.640  23.527  1.00  0.00     0.012 A 
ATOM     20  C   UNL A   1      28.719  27.930  23.303  1.00  0.00     0.030 A 
ATOM     21  C   UNL A   1      29.843  30.037  23.545  1.00  0.00     0.030 A 
ATOM     22  C   UNL A   1      27.544  28.638  23.110  1.00  0.00     0.111 A 
ATOM     23  C   UNL A   1      28.619  30.653  23.335  1.00  0.00     0.111 A 
ATOM     24  N   UNL A   1      27.466  29.986  23.120  1.00  0.00    -0.265 NA
ENDBRANCH  17  19
ENDBRANCH   9  17
ENDBRANCH   7   8
ENDBRANCH   4   7
ENDBRANCH   2   3
ENDBRANCH   1   2
BRANCH   1  25
ATOM     25  C   UNL A   1      35.971  22.605  24.656  1.00  0.00     0.023 C 
BRANCH  25  26
ATOM     26  C   UNL A   1      37.093  23.357  25.338  1.00  0.00     0.116 C 
BRANCH  26  27
ATOM     27  N   UNL A   1      38.323  22.583  25.481  1.00  0.00    -0.352 N 
ATOM     28  C   UNL A   1      39.487  22.955  26.124  1.00  0.00     0.251 C 
ATOM     29  H   UNL A   1      38.321  21.689  25.069  1.00  0.00     0.163 HD
ATOM     30  O   UNL A   1      40.472  22.240  26.114  1.00  0.00    -0.269 OA
BRANCH  28  31
ATOM     31  C   UNL A   1      39.510  24.282  26.777  1.00  0.00     0.039 A 
ATOM     32  C   UNL A   1      38.937  24.426  28.042  1.00  0.00     0.014 A 
ATOM     33  C   UNL A   1      40.250  25.316  26.201  1.00  0.00     0.014 A 
ATOM     34  C   UNL A   1      39.196  25.584  28.778  1.00  0.00     0.010 A 
ATOM     35  C   UNL A   1      40.594  26.411  26.977  1.00  0.00     0.010 A 
ATOM     36  C   UNL A   1      40.074  26.557  28.275  1.00  0.00    -0.014 A 
BRANCH  36  37
ATOM     37  C   UNL A   1      40.465  27.756  29.057  1.00  0.00     0.031 A 
ATOM     38  C   UNL A   1      41.762  27.735  29.817  1.00  0.00     0.074 A 
ATOM     39  C   UNL A   1      39.617  28.796  29.183  1.00  0.00     0.049 A 
ATOM     40  N   UNL A   1      42.205  28.566  30.722  1.00  0.00    -0.248 NA
ATOM     41  C   UNL A   1      42.656  26.592  29.562  1.00  0.00     0.031 C 
ATOM     42  C   UNL A   1      38.304  28.911  28.540  1.00  0.00     0.029 A 
ATOM     43  N   UNL A   1      39.725  29.952  29.915  1.00  0.00    -0.354 N 
ATOM     44  C   UNL A   1      43.400  28.022  31.178  1.00  0.00     0.074 A 
ATOM     45  C   UNL A   1      43.588  26.766  30.486  1.00  0.00     0.031 C 
ATOM     46  C   UNL A   1      37.742  30.080  28.891  1.00  0.00     0.029 A 
ATOM     47  C   UNL A   1      38.630  30.778  29.815  1.00  0.00     0.049 A 
ATOM     48  H   UNL A   1      40.514  30.169  30.463  1.00  0.00     0.167 HD
ATOM     49  C   UNL A   1      44.275  28.534  32.073  1.00  0.00     0.037 A 
ATOM     50  C   UNL A   1      38.370  31.959  30.409  1.00  0.00     0.037 A 
ATOM     51  C   UNL A   1      44.116  29.817  32.700  1.00  0.00     0.049 A 
ATOM     52  C   UNL A   1      39.389  32.542  31.351  1.00  0.00     0.074 A 
ATOM     53  C   UNL A   1      44.976  30.464  33.569  1.00  0.00     0.029 A 
ATOM     54  N   UNL A   1      43.031  30.659  32.507  1.00  0.00    -0.354 N 
ATOM     55  N   UNL A   1      40.531  32.031  31.745  1.00  0.00    -0.248 NA
ATOM     56  C   UNL A   1      39.087  33.860  31.928  1.00  0.00     0.031 C 
ATOM     57  C   UNL A   1      44.404  31.692  33.913  1.00  0.00     0.029 A 
ATOM     58  C   UNL A   1      43.201  31.822  33.236  1.00  0.00     0.049 A 
ATOM     59  H   UNL A   1      42.254  30.458  31.936  1.00  0.00     0.167 HD
ATOM     60  C   UNL A   1      41.100  32.978  32.589  1.00  0.00     0.074 A 
ATOM     61  C   UNL A   1      40.177  34.092  32.649  1.00  0.00     0.031 C 
ATOM     62  C   UNL A   1      42.279  32.929  33.254  1.00  0.00     0.037 A 
BRANCH  49  63
ATOM     63  C   UNL A   1      45.484  27.709  32.407  1.00  0.00     0.058 A 
ATOM     64  C   UNL A   1      46.689  27.849  31.699  1.00  0.00     0.135 A 
ATOM     65  C   UNL A   1      45.441  26.766  33.447  1.00  0.00     0.135 A 
ATOM     66  F   UNL A   1      46.777  28.720  30.682  1.00  0.00    -0.206 F 
ATOM     67  C   UNL A   1      47.796  27.057  31.983  1.00  0.00     0.059 A 
ATOM     68  C   UNL A   1      46.546  25.983  33.768  1.00  0.00     0.059 A 
ATOM     69  F   UNL A   1      44.314  26.590  34.154  1.00  0.00    -0.206 F 
ATOM     70  C   UNL A   1      47.713  26.124  33.017  1.00  0.00     0.060 A 
BRANCH  70  71
ATOM     71  S   UNL A   1      49.153  25.096  33.370  1.00  0.00     0.124 S 
ATOM     72  O   UNL A   1      49.927  25.973  34.243  1.00  0.00    -0.237 OA
ATOM     73  O   UNL A   1      48.558  23.929  34.012  1.00  0.00    -0.237 OA
ATOM     74  O   UNL A   1      49.728  24.856  32.049  1.00  0.00    -0.744 OA
ENDBRANCH  70  71
ENDBRANCH  49  63
BRANCH  50  75
ATOM     75  C   UNL A   1      37.109  32.685  30.104  1.00  0.00     0.058 A 
ATOM     76  C   UNL A   1      37.073  33.669  29.104  1.00  0.00     0.135 A 
ATOM     77  C   UNL A   1      35.917  32.407  30.789  1.00  0.00     0.135 A 
ATOM     78  F   UNL A   1      38.189  33.973  28.425  1.00  0.00    -0.206 F 
ATOM     79  C   UNL A   1      35.905  34.359  28.801  1.00  0.00     0.059 A 
ATOM     80  C   UNL A   1      34.729  33.070  30.491  1.00  0.00     0.059 A 
ATOM     81  F   UNL A   1      35.894  31.462  31.743  1.00  0.00    -0.206 F 
ATOM     82  C   UNL A   1      34.736  34.052  29.501  1.00  0.00     0.060 A 
BRANCH  82  83
ATOM     83  S   UNL A   1      33.212  34.918  29.065  1.00  0.00     0.124 S 
ATOM     84  O   UNL A   1      32.609  33.990  28.116  1.00  0.00    -0.237 OA
ATOM     85  O   UNL A   1      32.542  35.035  30.357  1.00  0.00    -0.237 OA
ATOM     86  O   UNL A   1      33.693  36.177  28.502  1.00  0.00    -0.744 OA
ENDBRANCH  82  83
ENDBRANCH  50  75
BRANCH  62  87
ATOM     87  C   UNL A   1      42.670  34.130  34.065  1.00  0.00     0.058 A 
ATOM     88  C   UNL A   1      42.407  34.205  35.440  1.00  0.00     0.135 A 
ATOM     89  C   UNL A   1      43.396  35.175  33.472  1.00  0.00     0.135 A 
ATOM     90  F   UNL A   1      41.711  33.233  36.049  1.00  0.00    -0.206 F 
ATOM     91  C   UNL A   1      42.847  35.282  36.202  1.00  0.00     0.059 A 
ATOM     92  C   UNL A   1      43.863  36.251  34.217  1.00  0.00     0.059 A 
ATOM     93  F   UNL A   1      43.680  35.140  32.159  1.00  0.00    -0.206 F 
ATOM     94  C   UNL A   1      43.580  36.297  35.582  1.00  0.00     0.060 A 
BRANCH  94  95
ATOM     95  S   UNL A   1      44.203  37.658  36.592  1.00  0.00     0.124 S 
ATOM     96  O   UNL A   1      43.249  37.665  37.696  1.00  0.00    -0.237 OA
ATOM     97  O   UNL A   1      45.553  37.210  36.923  1.00  0.00    -0.237 OA
ATOM     98  O   UNL A   1      44.136  38.805  35.693  1.00  0.00    -0.744 OA
ENDBRANCH  94  95
ENDBRANCH  62  87
ENDBRANCH  36  37
ENDBRANCH  28  31
ENDBRANCH  26  27
ENDBRANCH  25  26
ENDBRANCH   1  25
TORSDOF 17
ENDMDL
MODEL 3
REMARK VINA RESULT:     -11.1      5.070     10.421
REMARK SMILES C[C@H](c1ccncc1)[N@H+]1[C@@H]2CC[C@H]1C[C@H](CC(=O)NCCCCNC(=O)c1ccc(-c3c4nc(c(-c5c(F)cc(S(=O)(=O)[O-])cc5F)c5ccc([nH]5)c(-c5c(F)cc(S(=O)(=O)[O-])cc5F)c5nc(c(-c6c(F)cc(S(=O)(=O)[O-])cc6F)c6ccc3[nH]6)C=C5)C=C4)cc1)C2
REMARK SMILES IDX 21 1 20 2 19 3 17 4 18 5 16 7 15 8 9 9 10 10 13 11 11 13
REMARK SMILES IDX 93 14 12 15 14 16 2 17 1 18 3 19 4 20 8 21 5 22 7 23 6 24
REMARK SMILES IDX 22 25 23 26 24 27 25 28 26 30 27 31 28 32 92 33 29 34 91 35
REMARK SMILES IDX 30 36 31 37 32 38 85 39 33 40 90 41 84 42 86 43 34 44 89 45
REMARK SMILES IDX 83 46 82 47 35 49 69 50 48 51 68 52 49 53 52 54 67 55 87 56
REMARK SMILES IDX 50 57 51 58 66 60 88 61 53 62 36 63 37 64 46 65 38 66 39 67
REMARK SMILES IDX 45 68 47 69 40 70 41 71 42 72 43 73 44 74 70 75 71 76 80 77
REMARK SMILES IDX 72 78 73 79 79 80 81 81 74 82 75 83 76 84 77 85 78 86 54 87
REMARK SMILES IDX 55 88 64 89 56 90 57 91 63 92 65 93 58 94 59 95 60 96 61 97
REMARK SMILES IDX 62 98
REMARK H PARENT 19 6 9 12 24 29 86 48 52 59
REMARK Flexibility Score: inf
ROOT
ATOM      1  C   UNL A   1      40.111  21.804  26.623  1.00  0.00     0.023 C 
ENDROOT
BRANCH   1   2
ATOM      2  C   UNL A   1      38.819  22.605  26.431  1.00  0.00     0.116 C 
BRANCH   2   3
ATOM      3  N   UNL A   1      38.128  22.213  25.211  1.00  0.00    -0.356 N 
ATOM      4  C   UNL A   1      37.009  22.710  24.612  1.00  0.00     0.220 C 
ATOM      5  O   UNL A   1      36.584  22.141  23.605  1.00  0.00    -0.275 OA
ATOM      6  H   UNL A   1      38.543  21.456  24.736  1.00  0.00     0.163 HD
BRANCH   4   7
ATOM      7  C   UNL A   1      36.295  23.939  25.153  1.00  0.00     0.104 C 
BRANCH   7   8
ATOM      8  C   UNL A   1      35.104  23.616  26.087  1.00  0.00     0.010 C 
ATOM      9  N   UNL A   1      32.923  21.613  25.703  1.00  0.00    -0.324 N 
ATOM     10  C   UNL A   1      33.831  21.495  26.862  1.00  0.00     0.185 C 
ATOM     11  C   UNL A   1      32.575  23.037  25.735  1.00  0.00     0.185 C 
ATOM     12  H   UNL A   1      32.100  21.013  25.766  1.00  0.00     0.349 HD
ATOM     13  C   UNL A   1      33.040  22.236  27.951  1.00  0.00     0.071 C 
ATOM     14  C   UNL A   1      35.198  22.165  26.608  1.00  0.00     0.069 C 
ATOM     15  C   UNL A   1      32.175  23.235  27.193  1.00  0.00     0.071 C 
ATOM     16  C   UNL A   1      33.776  23.908  25.377  1.00  0.00     0.069 C 
BRANCH   9  17
ATOM     17  C   UNL A   1      33.449  21.087  24.425  1.00  0.00     0.212 C 
ATOM     18  C   UNL A   1      32.578  21.444  23.203  1.00  0.00     0.081 C 
BRANCH  17  19
ATOM     19  C   UNL A   1      33.611  19.574  24.493  1.00  0.00     0.012 A 
ATOM     20  C   UNL A   1      34.878  18.984  24.554  1.00  0.00     0.030 A 
ATOM     21  C   UNL A   1      32.493  18.734  24.448  1.00  0.00     0.030 A 
ATOM     22  C   UNL A   1      34.970  17.602  24.568  1.00  0.00     0.111 A 
ATOM     23  C   UNL A   1      32.690  17.362  24.461  1.00  0.00     0.111 A 
ATOM     24  N   UNL A   1      33.903  16.775  24.523  1.00  0.00    -0.265 NA
ENDBRANCH  17  19
ENDBRANCH   9  17
ENDBRANCH   7   8
ENDBRANCH   4   7
ENDBRANCH   2   3
ENDBRANCH   1   2
BRANCH   1  25
ATOM     25  C   UNL A   1      41.016  22.259  27.752  1.00  0.00     0.023 C 
BRANCH  25  26
ATOM     26  C   UNL A   1      42.178  23.115  27.301  1.00  0.00     0.116 C 
BRANCH  26  27
ATOM     27  N   UNL A   1      41.884  23.946  26.137  1.00  0.00    -0.352 N 
ATOM     28  C   UNL A   1      41.595  25.296  26.112  1.00  0.00     0.251 C 
ATOM     29  H   UNL A   1      41.894  23.488  25.265  1.00  0.00     0.163 HD
ATOM     30  O   UNL A   1      41.301  25.861  25.074  1.00  0.00    -0.269 OA
BRANCH  28  31
ATOM     31  C   UNL A   1      41.601  26.018  27.402  1.00  0.00     0.039 A 
ATOM     32  C   UNL A   1      42.662  26.878  27.694  1.00  0.00     0.014 A 
ATOM     33  C   UNL A   1      40.474  25.963  28.223  1.00  0.00     0.014 A 
ATOM     34  C   UNL A   1      42.542  27.766  28.765  1.00  0.00     0.010 A 
ATOM     35  C   UNL A   1      40.315  26.919  29.214  1.00  0.00     0.010 A 
ATOM     36  C   UNL A   1      41.345  27.833  29.495  1.00  0.00    -0.014 A 
BRANCH  36  37
ATOM     37  C   UNL A   1      41.127  28.826  30.575  1.00  0.00     0.031 A 
ATOM     38  C   UNL A   1      41.954  28.730  31.828  1.00  0.00     0.074 A 
ATOM     39  C   UNL A   1      40.124  29.723  30.487  1.00  0.00     0.049 A 
ATOM     40  N   UNL A   1      41.800  29.343  32.971  1.00  0.00    -0.248 NA
ATOM     41  C   UNL A   1      43.072  27.770  31.805  1.00  0.00     0.031 C 
ATOM     42  C   UNL A   1      39.216  29.880  29.347  1.00  0.00     0.029 A 
ATOM     43  N   UNL A   1      39.686  30.663  31.387  1.00  0.00    -0.354 N 
ATOM     44  C   UNL A   1      42.767  28.808  33.815  1.00  0.00     0.074 A 
ATOM     45  C   UNL A   1      43.468  27.788  33.068  1.00  0.00     0.031 C 
ATOM     46  C   UNL A   1      38.345  30.869  29.610  1.00  0.00     0.029 A 
ATOM     47  C   UNL A   1      38.602  31.388  30.949  1.00  0.00     0.049 A 
ATOM     48  H   UNL A   1      40.108  30.804  32.265  1.00  0.00     0.167 HD
ATOM     49  C   UNL A   1      43.060  29.154  35.089  1.00  0.00     0.037 A 
ATOM     50  C   UNL A   1      37.893  32.355  31.564  1.00  0.00     0.037 A 
ATOM     51  C   UNL A   1      42.407  30.220  35.798  1.00  0.00     0.049 A 
ATOM     52  C   UNL A   1      38.281  32.770  32.958  1.00  0.00     0.074 A 
ATOM     53  C   UNL A   1      42.673  30.701  37.067  1.00  0.00     0.029 A 
ATOM     54  N   UNL A   1      41.368  30.984  35.287  1.00  0.00    -0.354 N 
ATOM     55  N   UNL A   1      39.221  32.279  33.730  1.00  0.00    -0.248 NA
ATOM     56  C   UNL A   1      37.516  33.869  33.564  1.00  0.00     0.031 C 
ATOM     57  C   UNL A   1      41.785  31.748  37.329  1.00  0.00     0.029 A 
ATOM     58  C   UNL A   1      40.985  31.937  36.213  1.00  0.00     0.049 A 
ATOM     59  H   UNL A   1      40.963  30.866  34.397  1.00  0.00     0.167 HD
ATOM     60  C   UNL A   1      39.182  33.030  34.900  1.00  0.00     0.074 A 
ATOM     61  C   UNL A   1      38.127  34.008  34.734  1.00  0.00     0.031 C 
ATOM     62  C   UNL A   1      39.951  32.919  36.010  1.00  0.00     0.037 A 
BRANCH  49  63
ATOM     63  C   UNL A   1      44.145  28.381  35.782  1.00  0.00     0.058 A 
ATOM     64  C   UNL A   1      43.857  27.257  36.574  1.00  0.00     0.135 A 
ATOM     65  C   UNL A   1      45.489  28.767  35.656  1.00  0.00     0.135 A 
ATOM     66  F   UNL A   1      42.586  26.860  36.746  1.00  0.00    -0.206 F 
ATOM     67  C   UNL A   1      44.858  26.566  37.247  1.00  0.00     0.059 A 
ATOM     68  C   UNL A   1      46.510  28.072  36.297  1.00  0.00     0.059 A 
ATOM     69  F   UNL A   1      45.820  29.835  34.913  1.00  0.00    -0.206 F 
ATOM     70  C   UNL A   1      46.181  26.984  37.105  1.00  0.00     0.060 A 
BRANCH  70  71
ATOM     71  S   UNL A   1      47.471  26.084  37.992  1.00  0.00     0.124 S 
ATOM     72  O   UNL A   1      46.700  25.453  39.059  1.00  0.00    -0.237 OA
ATOM     73  O   UNL A   1      47.989  25.185  36.967  1.00  0.00    -0.237 OA
ATOM     74  O   UNL A   1      48.386  27.139  38.418  1.00  0.00    -0.744 OA
ENDBRANCH  70  71
ENDBRANCH  49  63
BRANCH  50  75
ATOM     75  C   UNL A   1      36.769  33.021  30.854  1.00  0.00     0.058 A 
ATOM     76  C   UNL A   1      35.440  32.780  31.235  1.00  0.00     0.135 A 
ATOM     77  C   UNL A   1      36.995  33.916  29.798  1.00  0.00     0.135 A 
ATOM     78  F   UNL A   1      35.174  31.928  32.236  1.00  0.00    -0.206 F 
ATOM     79  C   UNL A   1      34.373  33.393  30.586  1.00  0.00     0.059 A 
ATOM     80  C   UNL A   1      35.944  34.557  29.146  1.00  0.00     0.059 A 
ATOM     81  F   UNL A   1      38.249  34.194  29.408  1.00  0.00    -0.206 F 
ATOM     82  C   UNL A   1      34.636  34.282  29.542  1.00  0.00     0.060 A 
BRANCH  82  83
ATOM     83  S   UNL A   1      33.246  35.112  28.741  1.00  0.00     0.124 S 
ATOM     84  O   UNL A   1      33.922  36.179  28.012  1.00  0.00    -0.237 OA
ATOM     85  O   UNL A   1      32.676  34.043  27.926  1.00  0.00    -0.237 OA
ATOM     86  O   UNL A   1      32.420  35.539  29.866  1.00  0.00    -0.744 OA
ENDBRANCH  82  83
ENDBRANCH  50  75
BRANCH  62  87
ATOM     87  C   UNL A   1      39.721  33.908  37.115  1.00  0.00     0.058 A 
ATOM     88  C   UNL A   1      38.859  33.626  38.185  1.00  0.00     0.135 A 
ATOM     89  C   UNL A   1      40.442  35.111  37.146  1.00  0.00     0.135 A 
ATOM     90  F   UNL A   1      38.144  32.491  38.196  1.00  0.00    -0.206 F 
ATOM     91  C   UNL A   1      38.715  34.510  39.249  1.00  0.00     0.059 A 
ATOM     92  C   UNL A   1      40.329  36.000  38.208  1.00  0.00     0.059 A 
ATOM     93  F   UNL A   1      41.286  35.419  36.147  1.00  0.00    -0.206 F 
ATOM     94  C   UNL A   1      39.460  35.692  39.254  1.00  0.00     0.060 A 
BRANCH  94  95
ATOM     95  S   UNL A   1      39.317  36.801  40.671  1.00  0.00     0.124 S 
ATOM     96  O   UNL A   1      38.574  37.918  40.096  1.00  0.00    -0.237 OA
ATOM     97  O   UNL A   1      38.587  35.985  41.637  1.00  0.00    -0.237 OA
ATOM     98  O   UNL A   1      40.705  37.082  41.023  1.00  0.00    -0.744 OA
ENDBRANCH  94  95
ENDBRANCH  62  87
ENDBRANCH  36  37
ENDBRANCH  28  31
ENDBRANCH  26  27
ENDBRANCH  25  26
ENDBRANCH   1  25
TORSDOF 17
ENDMDL
