MODEL 1
REMARK VINA RESULT:     -11.5      0.000      0.000
REMARK SMILES O=C(NCCCCNC(=O)[C@H]1[C@H]2C[C@@H]3[C@@H](OC(=O)[C@@H]31)[C@@H]2Sc1ccccc1)c1ccc(-c2c3nc(c(-c4c(F)cc(S(=O)(=O)[O-])cc4F)c4ccc([nH]4)c(-c4c(F)cc(S(=O)(=O)[O-])cc4F)c4nc(c(-c5c(F)cc(S(=O)(=O)[O-])cc5F)c5ccc2[nH]5)C=C4)C=C3)cc1
REMARK SMILES IDX 5 1 4 2 3 3 1 4 2 5 28 7 29 8 93 9 30 10 92 11 31 12 32 13
REMARK SMILES IDX 33 14 86 15 34 16 91 17 85 18 87 19 35 20 90 21 84 22 83 23
REMARK SMILES IDX 36 25 70 26 49 27 69 28 50 29 53 30 68 31 88 32 51 33 52 34
REMARK SMILES IDX 67 36 89 37 54 38 37 39 38 40 47 41 39 42 40 43 46 44 48 45
REMARK SMILES IDX 41 46 42 47 43 48 44 49 45 50 71 51 72 52 81 53 73 54 74 55
REMARK SMILES IDX 80 56 82 57 75 58 76 59 77 60 78 61 79 62 55 63 56 64 65 65
REMARK SMILES IDX 57 66 58 67 64 68 66 69 59 70 60 71 61 72 62 73 63 74 6 75
REMARK SMILES IDX 7 76 8 77 9 78 10 80 11 81 12 82 19 83 13 84 20 85 14 86
REMARK SMILES IDX 17 87 15 88 16 89 18 90 21 91 22 92 23 93 27 94 24 95 26 96
REMARK SMILES IDX 25 97
REMARK H PARENT 3 6 87 24 53 35 8 79
REMARK Flexibility Score: inf
ROOT
ATOM      1  C   UNL A   1      33.638  27.680  26.585  1.00  0.00     0.023 C 
ENDROOT
BRANCH   1   2
ATOM      2  C   UNL A   1      34.447  28.894  26.154  1.00  0.00     0.116 C 
BRANCH   2   3
ATOM      3  N   UNL A   1      33.880  30.153  26.612  1.00  0.00    -0.352 N 
ATOM      4  O   UNL A   1      33.719  31.928  28.009  1.00  0.00    -0.269 OA
ATOM      5  C   UNL A   1      34.352  30.952  27.625  1.00  0.00     0.251 C 
ATOM      6  H   UNL A   1      33.071  30.467  26.145  1.00  0.00     0.163 HD
BRANCH   5   7
ATOM      7  C   UNL A   1      35.630  30.571  28.251  1.00  0.00     0.039 A 
ATOM      8  C   UNL A   1      36.824  31.046  27.701  1.00  0.00     0.014 A 
ATOM      9  C   UNL A   1      35.635  29.675  29.318  1.00  0.00     0.014 A 
ATOM     10  C   UNL A   1      38.031  30.532  28.145  1.00  0.00     0.010 A 
ATOM     11  C   UNL A   1      36.856  29.234  29.829  1.00  0.00     0.010 A 
ATOM     12  C   UNL A   1      38.060  29.656  29.242  1.00  0.00    -0.014 A 
BRANCH  12  13
ATOM     13  C   UNL A   1      39.365  29.326  29.859  1.00  0.00     0.031 A 
ATOM     14  C   UNL A   1      40.250  28.250  29.304  1.00  0.00     0.074 A 
ATOM     15  C   UNL A   1      39.719  30.020  30.960  1.00  0.00     0.049 A 
ATOM     16  N   UNL A   1      41.387  27.808  29.774  1.00  0.00    -0.248 NA
ATOM     17  C   UNL A   1      39.807  27.576  28.073  1.00  0.00     0.031 C 
ATOM     18  C   UNL A   1      38.911  31.075  31.585  1.00  0.00     0.029 A 
ATOM     19  N   UNL A   1      40.832  29.947  31.754  1.00  0.00    -0.354 N 
ATOM     20  C   UNL A   1      41.784  26.787  28.921  1.00  0.00     0.074 A 
ATOM     21  C   UNL A   1      40.764  26.671  27.900  1.00  0.00     0.031 C 
ATOM     22  C   UNL A   1      39.564  31.563  32.648  1.00  0.00     0.029 A 
ATOM     23  C   UNL A   1      40.789  30.800  32.832  1.00  0.00     0.049 A 
ATOM     24  H   UNL A   1      41.589  29.345  31.571  1.00  0.00     0.167 HD
ATOM     25  C   UNL A   1      42.898  26.022  28.998  1.00  0.00     0.037 A 
ATOM     26  C   UNL A   1      41.614  30.920  33.886  1.00  0.00     0.037 A 
ATOM     27  C   UNL A   1      43.909  26.176  30.015  1.00  0.00     0.049 A 
ATOM     28  C   UNL A   1      42.820  30.029  33.956  1.00  0.00     0.074 A 
ATOM     29  C   UNL A   1      45.115  25.506  30.131  1.00  0.00     0.029 A 
ATOM     30  N   UNL A   1      43.825  27.039  31.097  1.00  0.00    -0.354 N 
ATOM     31  N   UNL A   1      43.222  29.125  33.096  1.00  0.00    -0.248 NA
ATOM     32  C   UNL A   1      43.677  30.164  35.141  1.00  0.00     0.031 C 
ATOM     33  C   UNL A   1      45.727  25.913  31.320  1.00  0.00     0.029 A 
ATOM     34  C   UNL A   1      44.934  26.881  31.914  1.00  0.00     0.049 A 
ATOM     35  H   UNL A   1      43.088  27.670  31.262  1.00  0.00     0.167 HD
ATOM     36  C   UNL A   1      44.383  28.586  33.632  1.00  0.00     0.074 A 
ATOM     37  C   UNL A   1      44.636  29.289  34.873  1.00  0.00     0.031 C 
ATOM     38  C   UNL A   1      45.165  27.592  33.147  1.00  0.00     0.037 A 
BRANCH  25  39
ATOM     39  C   UNL A   1      43.097  24.927  27.984  1.00  0.00     0.058 A 
ATOM     40  C   UNL A   1      43.647  25.175  26.719  1.00  0.00     0.135 A 
ATOM     41  C   UNL A   1      42.848  23.590  28.339  1.00  0.00     0.135 A 
ATOM     42  F   UNL A   1      43.891  26.435  26.322  1.00  0.00    -0.206 F 
ATOM     43  C   UNL A   1      43.947  24.138  25.841  1.00  0.00     0.059 A 
ATOM     44  C   UNL A   1      43.161  22.535  27.487  1.00  0.00     0.059 A 
ATOM     45  F   UNL A   1      42.318  23.297  29.538  1.00  0.00    -0.206 F 
ATOM     46  C   UNL A   1      43.712  22.819  26.239  1.00  0.00     0.060 A 
BRANCH  46  47
ATOM     47  S   UNL A   1      44.164  21.483  25.111  1.00  0.00     0.124 S 
ATOM     48  O   UNL A   1      43.128  20.496  25.397  1.00  0.00    -0.237 OA
ATOM     49  O   UNL A   1      44.075  22.135  23.809  1.00  0.00    -0.237 OA
ATOM     50  O   UNL A   1      45.511  21.117  25.536  1.00  0.00    -0.744 OA
ENDBRANCH  46  47
ENDBRANCH  25  39
BRANCH  26  51
ATOM     51  C   UNL A   1      41.289  31.869  34.983  1.00  0.00     0.058 A 
ATOM     52  C   UNL A   1      40.413  31.514  36.017  1.00  0.00     0.135 A 
ATOM     53  C   UNL A   1      41.848  33.158  35.013  1.00  0.00     0.135 A 
ATOM     54  F   UNL A   1      39.856  30.293  36.034  1.00  0.00    -0.206 F 
ATOM     55  C   UNL A   1      40.073  32.413  37.022  1.00  0.00     0.059 A 
ATOM     56  C   UNL A   1      41.553  34.062  36.025  1.00  0.00     0.059 A 
ATOM     57  F   UNL A   1      42.713  33.541  34.059  1.00  0.00    -0.206 F 
ATOM     58  C   UNL A   1      40.646  33.686  37.014  1.00  0.00     0.060 A 
BRANCH  58  59
ATOM     59  S   UNL A   1      40.197  34.847  38.321  1.00  0.00     0.124 S 
ATOM     60  O   UNL A   1      38.746  34.703  38.351  1.00  0.00    -0.237 OA
ATOM     61  O   UNL A   1      40.917  34.309  39.470  1.00  0.00    -0.237 OA
ATOM     62  O   UNL A   1      40.695  36.124  37.820  1.00  0.00    -0.744 OA
ENDBRANCH  58  59
ENDBRANCH  26  51
BRANCH  38  63
ATOM     63  C   UNL A   1      46.370  27.209  33.959  1.00  0.00     0.058 A 
ATOM     64  C   UNL A   1      46.302  26.210  34.940  1.00  0.00     0.135 A 
ATOM     65  C   UNL A   1      47.616  27.806  33.710  1.00  0.00     0.135 A 
ATOM     66  F   UNL A   1      45.130  25.621  35.226  1.00  0.00    -0.206 F 
ATOM     67  C   UNL A   1      47.427  25.820  35.657  1.00  0.00     0.059 A 
ATOM     68  C   UNL A   1      48.761  27.410  34.393  1.00  0.00     0.059 A 
ATOM     69  F   UNL A   1      47.735  28.764  32.778  1.00  0.00    -0.206 F 
ATOM     70  C   UNL A   1      48.655  26.420  35.370  1.00  0.00     0.060 A 
BRANCH  70  71
ATOM     71  S   UNL A   1      50.117  25.860  36.266  1.00  0.00     0.124 S 
ATOM     72  O   UNL A   1      51.184  26.203  35.332  1.00  0.00    -0.237 OA
ATOM     73  O   UNL A   1      50.059  26.660  37.486  1.00  0.00    -0.237 OA
ATOM     74  O   UNL A   1      49.878  24.431  36.449  1.00  0.00    -0.744 OA
ENDBRANCH  70  71
ENDBRANCH  38  63
ENDBRANCH  12  13
ENDBRANCH   5   7
ENDBRANCH   2   3
ENDBRANCH   1   2
BRANCH   1  75
ATOM     75  C   UNL A   1      32.208  28.002  27.024  1.00  0.00     0.023 C 
BRANCH  75  76
ATOM     76  C   UNL A   1      31.145  27.156  26.319  1.00  0.00     0.116 C 
BRANCH  76  77
ATOM     77  N   UNL A   1      31.115  25.803  26.831  1.00  0.00    -0.356 N 
ATOM     78  C   UNL A   1      31.756  24.657  26.528  1.00  0.00     0.224 C 
ATOM     79  H   UNL A   1      30.477  25.694  27.573  1.00  0.00     0.163 HD
ATOM     80  O   UNL A   1      31.487  23.693  27.259  1.00  0.00    -0.275 OA
BRANCH  78  81
ATOM     81  C   UNL A   1      32.757  24.436  25.393  1.00  0.00     0.097 C 
ATOM     82  C   UNL A   1      33.368  22.986  25.527  1.00  0.00     0.020 C 
ATOM     83  C   UNL A   1      32.370  24.461  23.905  1.00  0.00     0.119 C 
ATOM     84  C   UNL A   1      32.350  22.208  24.697  1.00  0.00     0.014 C 
ATOM     85  C   UNL A   1      34.659  22.923  24.665  1.00  0.00     0.097 C 
ATOM     86  C   UNL A   1      32.588  23.025  23.444  1.00  0.00     0.047 C 
ATOM     87  C   UNL A   1      33.401  25.211  23.114  1.00  0.00     0.310 C 
ATOM     88  C   UNL A   1      34.098  23.051  23.230  1.00  0.00     0.194 C 
ATOM     89  O   UNL A   1      34.367  24.348  22.686  1.00  0.00    -0.461 OA
ATOM     90  O   UNL A   1      33.417  26.418  22.923  1.00  0.00    -0.252 OA
BRANCH  85  91
ATOM     91  S   UNL A   1      35.818  21.506  24.917  1.00  0.00    -0.119 SA
BRANCH  91  92
ATOM     92  C   UNL A   1      37.297  22.219  25.606  1.00  0.00     0.008 A 
ATOM     93  C   UNL A   1      37.271  23.555  26.019  1.00  0.00     0.015 A 
ATOM     94  C   UNL A   1      38.496  21.504  25.706  1.00  0.00     0.015 A 
ATOM     95  C   UNL A   1      38.406  24.145  26.583  1.00  0.00     0.001 A 
ATOM     96  C   UNL A   1      39.621  22.082  26.300  1.00  0.00     0.001 A 
ATOM     97  C   UNL A   1      39.574  23.402  26.742  1.00  0.00     0.000 A 
ENDBRANCH  91  92
ENDBRANCH  85  91
ENDBRANCH  78  81
ENDBRANCH  76  77
ENDBRANCH  75  76
ENDBRANCH   1  75
TORSDOF 16
ENDMDL
MODEL 2
REMARK VINA RESULT:     -11.4      2.869      3.544
REMARK SMILES O=C(NCCCCNC(=O)[C@H]1[C@H]2C[C@@H]3[C@@H](OC(=O)[C@@H]31)[C@@H]2Sc1ccccc1)c1ccc(-c2c3nc(c(-c4c(F)cc(S(=O)(=O)[O-])cc4F)c4ccc([nH]4)c(-c4c(F)cc(S(=O)(=O)[O-])cc4F)c4nc(c(-c5c(F)cc(S(=O)(=O)[O-])cc5F)c5ccc2[nH]5)C=C4)C=C3)cc1
REMARK SMILES IDX 5 1 4 2 3 3 1 4 2 5 28 7 29 8 93 9 30 10 92 11 31 12 32 13
REMARK SMILES IDX 33 14 86 15 34 16 91 17 85 18 87 19 35 20 90 21 84 22 83 23
REMARK SMILES IDX 36 25 70 26 49 27 69 28 50 29 53 30 68 31 88 32 51 33 52 34
REMARK SMILES IDX 67 36 89 37 54 38 37 39 38 40 47 41 39 42 40 43 46 44 48 45
REMARK SMILES IDX 41 46 42 47 43 48 44 49 45 50 71 51 72 52 81 53 73 54 74 55
REMARK SMILES IDX 80 56 82 57 75 58 76 59 77 60 78 61 79 62 55 63 56 64 65 65
REMARK SMILES IDX 57 66 58 67 64 68 66 69 59 70 60 71 61 72 62 73 63 74 6 75
REMARK SMILES IDX 7 76 8 77 9 78 10 80 11 81 12 82 19 83 13 84 20 85 14 86
REMARK SMILES IDX 17 87 15 88 16 89 18 90 21 91 22 92 23 93 27 94 24 95 26 96
REMARK SMILES IDX 25 97
REMARK H PARENT 3 6 87 24 53 35 8 79
REMARK Flexibility Score: inf
ROOT
ATOM      1  C   UNL A   1      33.066  27.903  26.920  1.00  0.00     0.023 C 
ENDROOT
BRANCH   1   2
ATOM      2  C   UNL A   1      34.292  28.743  27.244  1.00  0.00     0.116 C 
BRANCH   2   3
ATOM      3  N   UNL A   1      33.964  30.040  27.816  1.00  0.00    -0.352 N 
ATOM      4  O   UNL A   1      34.366  31.859  29.104  1.00  0.00    -0.269 OA
ATOM      5  C   UNL A   1      34.789  30.843  28.565  1.00  0.00     0.251 C 
ATOM      6  H   UNL A   1      33.054  30.378  27.649  1.00  0.00     0.163 HD
BRANCH   5   7
ATOM      7  C   UNL A   1      36.192  30.421  28.719  1.00  0.00     0.039 A 
ATOM      8  C   UNL A   1      37.078  30.603  27.653  1.00  0.00     0.014 A 
ATOM      9  C   UNL A   1      36.591  29.768  29.885  1.00  0.00     0.014 A 
ATOM     10  C   UNL A   1      38.336  30.024  27.706  1.00  0.00     0.010 A 
ATOM     11  C   UNL A   1      37.892  29.272  29.974  1.00  0.00     0.010 A 
ATOM     12  C   UNL A   1      38.769  29.393  28.883  1.00  0.00    -0.014 A 
BRANCH  12  13
ATOM     13  C   UNL A   1      40.196  29.015  29.007  1.00  0.00     0.031 A 
ATOM     14  C   UNL A   1      40.694  27.667  28.577  1.00  0.00     0.074 A 
ATOM     15  C   UNL A   1      41.030  29.926  29.547  1.00  0.00     0.049 A 
ATOM     16  N   UNL A   1      41.900  27.173  28.683  1.00  0.00    -0.248 NA
ATOM     17  C   UNL A   1      39.723  26.752  27.956  1.00  0.00     0.031 C 
ATOM     18  C   UNL A   1      40.631  31.260  30.014  1.00  0.00     0.029 A 
ATOM     19  N   UNL A   1      42.374  29.879  29.804  1.00  0.00    -0.354 N 
ATOM     20  C   UNL A   1      41.832  25.883  28.174  1.00  0.00     0.074 A 
ATOM     21  C   UNL A   1      40.462  25.666  27.757  1.00  0.00     0.031 C 
ATOM     22  C   UNL A   1      41.706  31.908  30.477  1.00  0.00     0.029 A 
ATOM     23  C   UNL A   1      42.850  31.010  30.423  1.00  0.00     0.049 A 
ATOM     24  H   UNL A   1      42.944  29.112  29.567  1.00  0.00     0.167 HD
ATOM     25  C   UNL A   1      42.829  24.972  28.075  1.00  0.00     0.037 A 
ATOM     26  C   UNL A   1      44.060  31.279  30.944  1.00  0.00     0.037 A 
ATOM     27  C   UNL A   1      44.190  25.225  28.479  1.00  0.00     0.049 A 
ATOM     28  C   UNL A   1      45.130  30.232  30.848  1.00  0.00     0.074 A 
ATOM     29  C   UNL A   1      45.291  24.397  28.341  1.00  0.00     0.029 A 
ATOM     30  N   UNL A   1      44.632  26.375  29.114  1.00  0.00    -0.354 N 
ATOM     31  N   UNL A   1      45.069  29.048  30.288  1.00  0.00    -0.248 NA
ATOM     32  C   UNL A   1      46.426  30.548  31.461  1.00  0.00     0.031 C 
ATOM     33  C   UNL A   1      46.382  25.016  28.956  1.00  0.00     0.029 A 
ATOM     34  C   UNL A   1      45.978  26.257  29.422  1.00  0.00     0.049 A 
ATOM     35  H   UNL A   1      44.073  27.159  29.317  1.00  0.00     0.167 HD
ATOM     36  C   UNL A   1      46.321  28.478  30.476  1.00  0.00     0.074 A 
ATOM     37  C   UNL A   1      47.127  29.461  31.171  1.00  0.00     0.031 C 
ATOM     38  C   UNL A   1      46.762  27.249  30.117  1.00  0.00     0.037 A 
BRANCH  25  39
ATOM     39  C   UNL A   1      42.509  23.604  27.535  1.00  0.00     0.058 A 
ATOM     40  C   UNL A   1      42.530  23.322  26.162  1.00  0.00     0.135 A 
ATOM     41  C   UNL A   1      42.303  22.532  28.420  1.00  0.00     0.135 A 
ATOM     42  F   UNL A   1      42.707  24.310  25.270  1.00  0.00    -0.206 F 
ATOM     43  C   UNL A   1      42.362  22.026  25.684  1.00  0.00     0.059 A 
ATOM     44  C   UNL A   1      42.157  21.224  27.967  1.00  0.00     0.059 A 
ATOM     45  F   UNL A   1      42.271  22.747  29.745  1.00  0.00    -0.206 F 
ATOM     46  C   UNL A   1      42.188  20.980  26.595  1.00  0.00     0.060 A 
BRANCH  46  47
ATOM     47  S   UNL A   1      42.033  19.298  25.959  1.00  0.00     0.124 S 
ATOM     48  O   UNL A   1      40.599  19.215  25.697  1.00  0.00    -0.237 OA
ATOM     49  O   UNL A   1      42.890  19.333  24.779  1.00  0.00    -0.237 OA
ATOM     50  O   UNL A   1      42.517  18.470  27.059  1.00  0.00    -0.744 OA
ENDBRANCH  46  47
ENDBRANCH  25  39
BRANCH  26  51
ATOM     51  C   UNL A   1      44.296  32.562  31.657  1.00  0.00     0.058 A 
ATOM     52  C   UNL A   1      44.009  32.701  33.021  1.00  0.00     0.135 A 
ATOM     53  C   UNL A   1      44.811  33.681  30.980  1.00  0.00     0.135 A 
ATOM     54  F   UNL A   1      43.518  31.661  33.712  1.00  0.00    -0.206 F 
ATOM     55  C   UNL A   1      44.188  33.911  33.682  1.00  0.00     0.059 A 
ATOM     56  C   UNL A   1      45.033  34.891  31.625  1.00  0.00     0.059 A 
ATOM     57  F   UNL A   1      45.126  33.595  29.677  1.00  0.00    -0.206 F 
ATOM     58  C   UNL A   1      44.697  35.002  32.973  1.00  0.00     0.060 A 
BRANCH  58  59
ATOM     59  S   UNL A   1      44.924  36.569  33.838  1.00  0.00     0.124 S 
ATOM     60  O   UNL A   1      43.548  36.916  34.176  1.00  0.00    -0.237 OA
ATOM     61  O   UNL A   1      45.778  36.181  34.956  1.00  0.00    -0.237 OA
ATOM     62  O   UNL A   1      45.561  37.416  32.836  1.00  0.00    -0.744 OA
ENDBRANCH  58  59
ENDBRANCH  26  51
BRANCH  38  63
ATOM     63  C   UNL A   1      48.181  26.900  30.463  1.00  0.00     0.058 A 
ATOM     64  C   UNL A   1      49.242  27.220  29.604  1.00  0.00     0.135 A 
ATOM     65  C   UNL A   1      48.487  26.294  31.692  1.00  0.00     0.135 A 
ATOM     66  F   UNL A   1      49.000  27.785  28.411  1.00  0.00    -0.206 F 
ATOM     67  C   UNL A   1      50.561  26.943  29.946  1.00  0.00     0.059 A 
ATOM     68  C   UNL A   1      49.801  26.036  32.069  1.00  0.00     0.059 A 
ATOM     69  F   UNL A   1      47.508  25.972  32.552  1.00  0.00    -0.206 F 
ATOM     70  C   UNL A   1      50.830  26.359  31.185  1.00  0.00     0.060 A 
BRANCH  70  71
ATOM     71  S   UNL A   1      52.550  26.062  31.640  1.00  0.00     0.124 S 
ATOM     72  O   UNL A   1      52.488  24.700  32.159  1.00  0.00    -0.237 OA
ATOM     73  O   UNL A   1      53.242  26.224  30.364  1.00  0.00    -0.237 OA
ATOM     74  O   UNL A   1      52.825  27.099  32.630  1.00  0.00    -0.744 OA
ENDBRANCH  70  71
ENDBRANCH  38  63
ENDBRANCH  12  13
ENDBRANCH   5   7
ENDBRANCH   2   3
ENDBRANCH   1   2
BRANCH   1  75
ATOM     75  C   UNL A   1      31.819  28.720  26.576  1.00  0.00     0.023 C 
BRANCH  75  76
ATOM     76  C   UNL A   1      31.748  29.142  25.106  1.00  0.00     0.116 C 
BRANCH  76  77
ATOM     77  N   UNL A   1      30.677  28.465  24.408  1.00  0.00    -0.356 N 
ATOM     78  C   UNL A   1      30.551  27.282  23.776  1.00  0.00     0.224 C 
ATOM     79  H   UNL A   1      29.846  28.993  24.390  1.00  0.00     0.163 HD
ATOM     80  O   UNL A   1      29.418  27.034  23.341  1.00  0.00    -0.275 OA
BRANCH  78  81
ATOM     81  C   UNL A   1      31.649  26.242  23.546  1.00  0.00     0.097 C 
ATOM     82  C   UNL A   1      31.763  25.330  24.830  1.00  0.00     0.020 C 
ATOM     83  C   UNL A   1      31.593  25.183  22.432  1.00  0.00     0.119 C 
ATOM     84  C   UNL A   1      30.750  24.250  24.462  1.00  0.00     0.014 C 
ATOM     85  C   UNL A   1      33.125  24.582  24.772  1.00  0.00     0.097 C 
ATOM     86  C   UNL A   1      31.465  23.864  23.184  1.00  0.00     0.047 C 
ATOM     87  C   UNL A   1      32.936  25.048  21.777  1.00  0.00     0.310 C 
ATOM     88  C   UNL A   1      32.926  23.641  23.561  1.00  0.00     0.194 C 
ATOM     89  O   UNL A   1      33.669  24.099  22.426  1.00  0.00    -0.461 OA
ATOM     90  O   UNL A   1      33.346  25.720  20.842  1.00  0.00    -0.252 OA
BRANCH  85  91
ATOM     91  S   UNL A   1      33.738  23.749  26.304  1.00  0.00    -0.119 SA
BRANCH  91  92
ATOM     92  C   UNL A   1      35.296  23.015  25.852  1.00  0.00     0.008 A 
ATOM     93  C   UNL A   1      36.446  23.811  25.866  1.00  0.00     0.015 A 
ATOM     94  C   UNL A   1      35.403  21.681  25.441  1.00  0.00     0.015 A 
ATOM     95  C   UNL A   1      37.690  23.266  25.536  1.00  0.00     0.001 A 
ATOM     96  C   UNL A   1      36.651  21.127  25.144  1.00  0.00     0.001 A 
ATOM     97  C   UNL A   1      37.796  21.920  25.196  1.00  0.00     0.000 A 
ENDBRANCH  91  92
ENDBRANCH  85  91
ENDBRANCH  78  81
ENDBRANCH  76  77
ENDBRANCH  75  76
ENDBRANCH   1  75
TORSDOF 16
ENDMDL
MODEL 3
REMARK VINA RESULT:     -11.4      0.663      8.149
REMARK SMILES O=C(NCCCCNC(=O)[C@H]1[C@H]2C[C@@H]3[C@@H](OC(=O)[C@@H]31)[C@@H]2Sc1ccccc1)c1ccc(-c2c3nc(c(-c4c(F)cc(S(=O)(=O)[O-])cc4F)c4ccc([nH]4)c(-c4c(F)cc(S(=O)(=O)[O-])cc4F)c4nc(c(-c5c(F)cc(S(=O)(=O)[O-])cc5F)c5ccc2[nH]5)C=C4)C=C3)cc1
REMARK SMILES IDX 5 1 4 2 3 3 1 4 2 5 28 7 29 8 93 9 30 10 92 11 31 12 32 13
REMARK SMILES IDX 33 14 86 15 34 16 91 17 85 18 87 19 35 20 90 21 84 22 83 23
REMARK SMILES IDX 36 25 70 26 49 27 69 28 50 29 53 30 68 31 88 32 51 33 52 34
REMARK SMILES IDX 67 36 89 37 54 38 37 39 38 40 47 41 39 42 40 43 46 44 48 45
REMARK SMILES IDX 41 46 42 47 43 48 44 49 45 50 71 51 72 52 81 53 73 54 74 55
REMARK SMILES IDX 80 56 82 57 75 58 76 59 77 60 78 61 79 62 55 63 56 64 65 65
REMARK SMILES IDX 57 66 58 67 64 68 66 69 59 70 60 71 61 72 62 73 63 74 6 75
REMARK SMILES IDX 7 76 8 77 9 78 10 80 11 81 12 82 19 83 13 84 20 85 14 86
REMARK SMILES IDX 17 87 15 88 16 89 18 90 21 91 22 92 23 93 27 94 24 95 26 96
REMARK SMILES IDX 25 97
REMARK H PARENT 3 6 87 24 53 35 8 79
REMARK Flexibility Score: inf
ROOT
ATOM      1  C   UNL A   1      33.327  27.630  25.894  1.00  0.00     0.023 C 
ENDROOT
BRANCH   1   2
ATOM      2  C   UNL A   1      34.422  28.542  26.426  1.00  0.00     0.116 C 
BRANCH   2   3
ATOM      3  N   UNL A   1      33.982  29.916  26.616  1.00  0.00    -0.352 N 
ATOM      4  O   UNL A   1      33.991  31.935  27.641  1.00  0.00    -0.269 OA
ATOM      5  C   UNL A   1      34.524  30.846  27.470  1.00  0.00     0.251 C 
ATOM      6  H   UNL A   1      33.214  30.211  26.075  1.00  0.00     0.163 HD
BRANCH   5   7
ATOM      7  C   UNL A   1      35.751  30.470  28.194  1.00  0.00     0.039 A 
ATOM      8  C   UNL A   1      36.992  30.815  27.652  1.00  0.00     0.014 A 
ATOM      9  C   UNL A   1      35.660  29.701  29.353  1.00  0.00     0.014 A 
ATOM     10  C   UNL A   1      38.149  30.290  28.206  1.00  0.00     0.010 A 
ATOM     11  C   UNL A   1      36.831  29.255  29.966  1.00  0.00     0.010 A 
ATOM     12  C   UNL A   1      38.080  29.543  29.393  1.00  0.00    -0.014 A 
BRANCH  12  13
ATOM     13  C   UNL A   1      39.338  29.215  30.104  1.00  0.00     0.031 A 
ATOM     14  C   UNL A   1      39.804  30.009  31.288  1.00  0.00     0.074 A 
ATOM     15  C   UNL A   1      40.064  28.184  29.628  1.00  0.00     0.049 A 
ATOM     16  N   UNL A   1      40.912  29.880  31.970  1.00  0.00    -0.248 NA
ATOM     17  C   UNL A   1      38.927  31.089  31.768  1.00  0.00     0.031 C 
ATOM     18  C   UNL A   1      39.699  27.364  28.466  1.00  0.00     0.029 A 
ATOM     19  N   UNL A   1      41.254  27.649  30.045  1.00  0.00    -0.354 N 
ATOM     20  C   UNL A   1      40.885  30.875  32.939  1.00  0.00     0.074 A 
ATOM     21  C   UNL A   1      39.647  31.605  32.757  1.00  0.00     0.031 C 
ATOM     22  C   UNL A   1      40.630  26.420  28.278  1.00  0.00     0.029 A 
ATOM     23  C   UNL A   1      41.698  26.621  29.246  1.00  0.00     0.049 A 
ATOM     24  H   UNL A   1      41.742  27.967  30.838  1.00  0.00     0.167 HD
ATOM     25  C   UNL A   1      41.817  31.145  33.882  1.00  0.00     0.037 A 
ATOM     26  C   UNL A   1      42.862  25.949  29.253  1.00  0.00     0.037 A 
ATOM     27  C   UNL A   1      43.031  30.386  34.052  1.00  0.00     0.049 A 
ATOM     28  C   UNL A   1      43.886  26.301  30.291  1.00  0.00     0.074 A 
ATOM     29  C   UNL A   1      43.998  30.527  35.032  1.00  0.00     0.029 A 
ATOM     30  N   UNL A   1      43.454  29.363  33.218  1.00  0.00    -0.354 N 
ATOM     31  N   UNL A   1      43.807  27.190  31.251  1.00  0.00    -0.248 NA
ATOM     32  C   UNL A   1      45.158  25.571  30.243  1.00  0.00     0.031 C 
ATOM     33  C   UNL A   1      45.039  29.638  34.749  1.00  0.00     0.029 A 
ATOM     34  C   UNL A   1      44.693  28.899  33.629  1.00  0.00     0.049 A 
ATOM     35  H   UNL A   1      42.949  29.016  32.447  1.00  0.00     0.167 HD
ATOM     36  C   UNL A   1      45.018  27.123  31.926  1.00  0.00     0.074 A 
ATOM     37  C   UNL A   1      45.797  26.083  31.285  1.00  0.00     0.031 C 
ATOM     38  C   UNL A   1      45.452  27.862  32.975  1.00  0.00     0.037 A 
BRANCH  25  39
ATOM     39  C   UNL A   1      41.599  32.318  34.800  1.00  0.00     0.058 A 
ATOM     40  C   UNL A   1      41.979  33.620  34.447  1.00  0.00     0.135 A 
ATOM     41  C   UNL A   1      40.882  32.148  35.997  1.00  0.00     0.135 A 
ATOM     42  F   UNL A   1      42.679  33.840  33.322  1.00  0.00    -0.206 F 
ATOM     43  C   UNL A   1      41.655  34.714  35.245  1.00  0.00     0.059 A 
ATOM     44  C   UNL A   1      40.526  33.228  36.799  1.00  0.00     0.059 A 
ATOM     45  F   UNL A   1      40.496  30.921  36.384  1.00  0.00    -0.206 F 
ATOM     46  C   UNL A   1      40.916  34.509  36.414  1.00  0.00     0.060 A 
BRANCH  46  47
ATOM     47  S   UNL A   1      40.453  35.946  37.404  1.00  0.00     0.124 S 
ATOM     48  O   UNL A   1      39.803  36.791  36.407  1.00  0.00    -0.237 OA
ATOM     49  O   UNL A   1      39.570  35.359  38.407  1.00  0.00    -0.237 OA
ATOM     50  O   UNL A   1      41.730  36.441  37.907  1.00  0.00    -0.744 OA
ENDBRANCH  46  47
ENDBRANCH  25  39
BRANCH  26  51
ATOM     51  C   UNL A   1      43.140  24.931  28.205  1.00  0.00     0.058 A 
ATOM     52  C   UNL A   1      42.935  23.566  28.444  1.00  0.00     0.135 A 
ATOM     53  C   UNL A   1      43.623  25.309  26.941  1.00  0.00     0.135 A 
ATOM     54  F   UNL A   1      42.472  23.156  29.635  1.00  0.00    -0.206 F 
ATOM     55  C   UNL A   1      43.233  22.608  27.482  1.00  0.00     0.059 A 
ATOM     56  C   UNL A   1      43.895  24.374  25.950  1.00  0.00     0.059 A 
ATOM     57  F   UNL A   1      43.814  26.607  26.651  1.00  0.00    -0.206 F 
ATOM     58  C   UNL A   1      43.717  23.022  26.239  1.00  0.00     0.060 A 
BRANCH  58  59
ATOM     59  S   UNL A   1      44.104  21.772  24.997  1.00  0.00     0.124 S 
ATOM     60  O   UNL A   1      43.914  22.522  23.761  1.00  0.00    -0.237 OA
ATOM     61  O   UNL A   1      45.482  21.426  25.329  1.00  0.00    -0.237 OA
ATOM     62  O   UNL A   1      43.122  20.724  25.258  1.00  0.00    -0.744 OA
ENDBRANCH  58  59
ENDBRANCH  26  51
BRANCH  38  63
ATOM     63  C   UNL A   1      46.830  27.568  33.499  1.00  0.00     0.058 A 
ATOM     64  C   UNL A   1      47.042  26.601  34.492  1.00  0.00     0.135 A 
ATOM     65  C   UNL A   1      47.951  28.216  32.959  1.00  0.00     0.135 A 
ATOM     66  F   UNL A   1      46.000  25.966  35.052  1.00  0.00    -0.206 F 
ATOM     67  C   UNL A   1      48.320  26.293  34.942  1.00  0.00     0.059 A 
ATOM     68  C   UNL A   1      49.242  27.902  33.371  1.00  0.00     0.059 A 
ATOM     69  F   UNL A   1      47.802  29.147  32.003  1.00  0.00    -0.206 F 
ATOM     70  C   UNL A   1      49.415  26.943  34.369  1.00  0.00     0.060 A 
BRANCH  70  71
ATOM     71  S   UNL A   1      51.071  26.487  34.920  1.00  0.00     0.124 S 
ATOM     72  O   UNL A   1      51.902  27.398  34.140  1.00  0.00    -0.237 OA
ATOM     73  O   UNL A   1      51.007  26.756  36.353  1.00  0.00    -0.237 OA
ATOM     74  O   UNL A   1      51.175  25.077  34.557  1.00  0.00    -0.744 OA
ENDBRANCH  70  71
ENDBRANCH  38  63
ENDBRANCH  12  13
ENDBRANCH   5   7
ENDBRANCH   2   3
ENDBRANCH   1   2
BRANCH   1  75
ATOM     75  C   UNL A   1      32.069  27.586  26.763  1.00  0.00     0.023 C 
BRANCH  75  76
ATOM     76  C   UNL A   1      31.004  26.612  26.252  1.00  0.00     0.116 C 
BRANCH  76  77
ATOM     77  N   UNL A   1      31.147  25.304  26.852  1.00  0.00    -0.356 N 
ATOM     78  C   UNL A   1      31.897  24.214  26.593  1.00  0.00     0.224 C 
ATOM     79  H   UNL A   1      30.559  25.180  27.633  1.00  0.00     0.163 HD
ATOM     80  O   UNL A   1      31.769  23.282  27.398  1.00  0.00    -0.275 OA
BRANCH  78  81
ATOM     81  C   UNL A   1      32.864  24.022  25.424  1.00  0.00     0.097 C 
ATOM     82  C   UNL A   1      33.551  22.606  25.559  1.00  0.00     0.020 C 
ATOM     83  C   UNL A   1      32.420  23.999  23.952  1.00  0.00     0.119 C 
ATOM     84  C   UNL A   1      32.544  21.763  24.782  1.00  0.00     0.014 C 
ATOM     85  C   UNL A   1      34.811  22.591  24.649  1.00  0.00     0.097 C 
ATOM     86  C   UNL A   1      32.692  22.567  23.507  1.00  0.00     0.047 C 
ATOM     87  C   UNL A   1      33.382  24.784  23.108  1.00  0.00     0.310 C 
ATOM     88  C   UNL A   1      34.190  22.664  23.234  1.00  0.00     0.194 C 
ATOM     89  O   UNL A   1      34.372  23.962  22.658  1.00  0.00    -0.461 OA
ATOM     90  O   UNL A   1      33.329  25.986  22.897  1.00  0.00    -0.252 OA
BRANCH  85  91
ATOM     91  S   UNL A   1      36.048  21.238  24.879  1.00  0.00    -0.119 SA
BRANCH  91  92
ATOM     92  C   UNL A   1      37.485  22.024  25.579  1.00  0.00     0.008 A 
ATOM     93  C   UNL A   1      37.405  23.372  25.944  1.00  0.00     0.015 A 
ATOM     94  C   UNL A   1      38.704  21.353  25.734  1.00  0.00     0.015 A 
ATOM     95  C   UNL A   1      38.506  24.018  26.514  1.00  0.00     0.001 A 
ATOM     96  C   UNL A   1      39.794  21.989  26.334  1.00  0.00     0.001 A 
ATOM     97  C   UNL A   1      39.692  23.322  26.728  1.00  0.00     0.000 A 
ENDBRANCH  91  92
ENDBRANCH  85  91
ENDBRANCH  78  81
ENDBRANCH  76  77
ENDBRANCH  75  76
ENDBRANCH   1  75
TORSDOF 16
ENDMDL
