MODEL 1
REMARK VINA RESULT:     -10.8      0.000      0.000
REMARK SMILES CC[C@@H](C)N(C)c1ccc(/C=C/C(=O)NCCCCNC(=O)c2ccc(-c3c4nc(c(-c5c(F)cc(S(=O)(=O)[O-])cc5F)c5ccc([nH]5)c(-c5c(F)cc(S(=O)(=O)[O-])cc5F)c5nc(c(-c6c(F)cc(S(=O)(=O)[O-])cc6F)c6ccc3[nH]6)C=C5)C=C4)cc2)cc1F
REMARK SMILES IDX 17 1 16 2 15 3 13 4 14 5 12 7 11 8 10 9 7 10 8 11 90 12 9 13
REMARK SMILES IDX 89 14 91 15 5 16 6 17 3 18 4 19 2 20 1 21 18 22 19 23 20 24
REMARK SMILES IDX 21 25 22 27 23 28 24 29 88 30 25 31 87 32 26 33 27 34 28 35
REMARK SMILES IDX 81 36 29 37 86 38 80 39 82 40 30 41 85 42 79 43 78 44 31 46
REMARK SMILES IDX 65 47 44 48 64 49 45 50 48 51 63 52 83 53 46 54 47 55 62 57
REMARK SMILES IDX 84 58 49 59 32 60 33 61 42 62 34 63 35 64 41 65 43 66 36 67
REMARK SMILES IDX 37 68 38 69 39 70 40 71 66 72 67 73 76 74 68 75 69 76 75 77
REMARK SMILES IDX 77 78 70 79 71 80 72 81 73 82 74 83 50 84 51 85 60 86 52 87
REMARK SMILES IDX 53 88 59 89 61 90 54 91 55 92 56 93 57 94 58 95
REMARK H PARENT 15 6 20 26 82 45 48 56
REMARK Flexibility Score: inf
ROOT
ATOM      1  C   UNL A   1      43.437  22.943  28.338  1.00  0.00     0.023 C 
ENDROOT
BRANCH   1   2
ATOM      2  C   UNL A   1      42.218  22.060  28.071  1.00  0.00     0.116 C 
BRANCH   2   3
ATOM      3  N   UNL A   1      42.524  21.002  27.122  1.00  0.00    -0.353 N 
ATOM      4  C   UNL A   1      41.704  20.336  26.261  1.00  0.00     0.243 C 
ATOM      5  O   UNL A   1      42.170  19.549  25.443  1.00  0.00    -0.270 OA
ATOM      6  H   UNL A   1      43.468  20.724  27.098  1.00  0.00     0.163 HD
BRANCH   4   7
ATOM      7  C   UNL A   1      40.253  20.626  26.246  1.00  0.00     0.072 C 
ATOM      8  C   UNL A   1      39.755  21.796  25.822  1.00  0.00     0.014 C 
BRANCH   8   9
ATOM      9  C   UNL A   1      38.326  22.118  25.754  1.00  0.00    -0.022 A 
ATOM     10  C   UNL A   1      35.535  22.659  25.491  1.00  0.00     0.073 A 
ATOM     11  C   UNL A   1      36.439  23.642  25.927  1.00  0.00     0.029 A 
ATOM     12  C   UNL A   1      36.082  21.403  25.179  1.00  0.00     0.147 A 
ATOM     13  C   UNL A   1      37.813  23.381  26.054  1.00  0.00     0.010 A 
ATOM     14  C   UNL A   1      37.445  21.131  25.309  1.00  0.00     0.049 A 
ATOM     15  F   UNL A   1      35.312  20.428  24.675  1.00  0.00    -0.205 F 
BRANCH  10  16
ATOM     16  N   UNL A   1      34.179  22.943  25.343  1.00  0.00    -0.370 N 
ATOM     17  C   UNL A   1      33.832  24.202  24.695  1.00  0.00     0.144 C 
BRANCH  16  18
ATOM     18  C   UNL A   1      33.150  22.294  26.189  1.00  0.00     0.078 C 
ATOM     19  C   UNL A   1      32.288  21.325  25.375  1.00  0.00     0.031 C 
BRANCH  18  20
ATOM     20  C   UNL A   1      32.318  23.317  26.976  1.00  0.00     0.021 C 
ATOM     21  C   UNL A   1      30.823  23.232  26.693  1.00  0.00     0.006 C 
ENDBRANCH  18  20
ENDBRANCH  16  18
ENDBRANCH  10  16
ENDBRANCH   8   9
ENDBRANCH   4   7
ENDBRANCH   2   3
ENDBRANCH   1   2
BRANCH   1  22
ATOM     22  C   UNL A   1      44.360  23.136  27.131  1.00  0.00     0.023 C 
BRANCH  22  23
ATOM     23  C   UNL A   1      44.355  24.536  26.524  1.00  0.00     0.116 C 
BRANCH  23  24
ATOM     24  N   UNL A   1      43.240  24.770  25.620  1.00  0.00    -0.352 N 
ATOM     25  C   UNL A   1      42.116  25.536  25.829  1.00  0.00     0.251 C 
ATOM     26  H   UNL A   1      43.296  24.321  24.745  1.00  0.00     0.163 HD
ATOM     27  O   UNL A   1      41.216  25.550  25.000  1.00  0.00    -0.269 OA
BRANCH  25  28
ATOM     28  C   UNL A   1      41.992  26.308  27.085  1.00  0.00     0.039 A 
ATOM     29  C   UNL A   1      42.710  27.499  27.215  1.00  0.00     0.014 A 
ATOM     30  C   UNL A   1      41.142  25.878  28.107  1.00  0.00     0.014 A 
ATOM     31  C   UNL A   1      42.518  28.298  28.344  1.00  0.00     0.010 A 
ATOM     32  C   UNL A   1      40.904  26.706  29.199  1.00  0.00     0.010 A 
ATOM     33  C   UNL A   1      41.585  27.926  29.326  1.00  0.00    -0.014 A 
BRANCH  33  34
ATOM     34  C   UNL A   1      41.292  28.808  30.482  1.00  0.00     0.031 A 
ATOM     35  C   UNL A   1      42.110  28.706  31.739  1.00  0.00     0.074 A 
ATOM     36  C   UNL A   1      40.243  29.651  30.424  1.00  0.00     0.049 A 
ATOM     37  N   UNL A   1      41.964  29.344  32.871  1.00  0.00    -0.248 NA
ATOM     38  C   UNL A   1      43.219  27.740  31.730  1.00  0.00     0.031 C 
ATOM     39  C   UNL A   1      39.345  29.804  29.278  1.00  0.00     0.029 A 
ATOM     40  N   UNL A   1      39.748  30.533  31.353  1.00  0.00    -0.354 N 
ATOM     41  C   UNL A   1      42.951  28.847  33.713  1.00  0.00     0.074 A 
ATOM     42  C   UNL A   1      43.656  27.819  32.978  1.00  0.00     0.031 C 
ATOM     43  C   UNL A   1      38.429  30.743  29.559  1.00  0.00     0.029 A 
ATOM     44  C   UNL A   1      38.650  31.234  30.917  1.00  0.00     0.049 A 
ATOM     45  H   UNL A   1      40.144  30.651  32.247  1.00  0.00     0.167 HD
ATOM     46  C   UNL A   1      43.255  29.230  34.976  1.00  0.00     0.037 A 
ATOM     47  C   UNL A   1      37.903  32.168  31.539  1.00  0.00     0.037 A 
ATOM     48  C   UNL A   1      42.565  30.272  35.691  1.00  0.00     0.049 A 
ATOM     49  C   UNL A   1      38.260  32.585  32.936  1.00  0.00     0.074 A 
ATOM     50  C   UNL A   1      42.842  30.780  36.947  1.00  0.00     0.029 A 
ATOM     51  N   UNL A   1      41.463  30.966  35.212  1.00  0.00    -0.354 N 
ATOM     52  N   UNL A   1      39.234  32.147  33.700  1.00  0.00    -0.248 NA
ATOM     53  C   UNL A   1      37.425  33.620  33.559  1.00  0.00     0.031 C 
ATOM     54  C   UNL A   1      41.881  31.754  37.246  1.00  0.00     0.029 A 
ATOM     55  C   UNL A   1      41.033  31.882  36.158  1.00  0.00     0.049 A 
ATOM     56  H   UNL A   1      41.047  30.827  34.331  1.00  0.00     0.167 HD
ATOM     57  C   UNL A   1      39.138  32.862  34.887  1.00  0.00     0.074 A 
ATOM     58  C   UNL A   1      38.017  33.770  34.737  1.00  0.00     0.031 C 
ATOM     59  C   UNL A   1      39.910  32.775  35.998  1.00  0.00     0.037 A 
BRANCH  46  60
ATOM     60  C   UNL A   1      44.387  28.516  35.662  1.00  0.00     0.058 A 
ATOM     61  C   UNL A   1      45.688  29.042  35.628  1.00  0.00     0.135 A 
ATOM     62  C   UNL A   1      44.188  27.304  36.341  1.00  0.00     0.135 A 
ATOM     63  F   UNL A   1      45.935  30.200  34.995  1.00  0.00    -0.206 F 
ATOM     64  C   UNL A   1      46.751  28.393  36.248  1.00  0.00     0.059 A 
ATOM     65  C   UNL A   1      45.232  26.652  36.992  1.00  0.00     0.059 A 
ATOM     66  F   UNL A   1      42.960  26.769  36.422  1.00  0.00    -0.206 F 
ATOM     67  C   UNL A   1      46.512  27.200  36.933  1.00  0.00     0.060 A 
BRANCH  67  68
ATOM     68  S   UNL A   1      47.883  26.410  37.803  1.00  0.00     0.124 S 
ATOM     69  O   UNL A   1      48.517  25.649  36.733  1.00  0.00    -0.237 OA
ATOM     70  O   UNL A   1      48.635  27.558  38.301  1.00  0.00    -0.237 OA
ATOM     71  O   UNL A   1      47.216  25.618  38.832  1.00  0.00    -0.744 OA
ENDBRANCH  67  68
ENDBRANCH  46  60
BRANCH  47  72
ATOM     72  C   UNL A   1      36.775  32.797  30.804  1.00  0.00     0.058 A 
ATOM     73  C   UNL A   1      36.988  33.841  29.892  1.00  0.00     0.135 A 
ATOM     74  C   UNL A   1      35.450  32.423  31.076  1.00  0.00     0.135 A 
ATOM     75  F   UNL A   1      38.237  34.241  29.606  1.00  0.00    -0.206 F 
ATOM     76  C   UNL A   1      35.927  34.522  29.306  1.00  0.00     0.059 A 
ATOM     77  C   UNL A   1      34.372  33.076  30.487  1.00  0.00     0.059 A 
ATOM     78  F   UNL A   1      35.200  31.421  31.933  1.00  0.00    -0.206 F 
ATOM     79  C   UNL A   1      34.622  34.142  29.623  1.00  0.00     0.060 A 
BRANCH  79  80
ATOM     80  S   UNL A   1      33.257  35.087  28.911  1.00  0.00     0.124 S 
ATOM     81  O   UNL A   1      33.967  36.209  28.305  1.00  0.00    -0.237 OA
ATOM     82  O   UNL A   1      32.672  34.127  27.981  1.00  0.00    -0.237 OA
ATOM     83  O   UNL A   1      32.434  35.418  30.070  1.00  0.00    -0.744 OA
ENDBRANCH  79  80
ENDBRANCH  47  72
BRANCH  59  84
ATOM     84  C   UNL A   1      39.582  33.684  37.149  1.00  0.00     0.058 A 
ATOM     85  C   UNL A   1      40.151  34.965  37.229  1.00  0.00     0.135 A 
ATOM     86  C   UNL A   1      38.778  33.255  38.216  1.00  0.00     0.135 A 
ATOM     87  F   UNL A   1      40.931  35.422  36.237  1.00  0.00    -0.206 F 
ATOM     88  C   UNL A   1      39.954  35.780  38.338  1.00  0.00     0.059 A 
ATOM     89  C   UNL A   1      38.547  34.063  39.325  1.00  0.00     0.059 A 
ATOM     90  F   UNL A   1      38.201  32.043  38.180  1.00  0.00    -0.206 F 
ATOM     91  C   UNL A   1      39.156  35.317  39.386  1.00  0.00     0.060 A 
BRANCH  91  92
ATOM     92  S   UNL A   1      38.912  36.386  40.819  1.00  0.00     0.124 S 
ATOM     93  O   UNL A   1      38.548  37.650  40.191  1.00  0.00    -0.237 OA
ATOM     94  O   UNL A   1      37.841  35.701  41.538  1.00  0.00    -0.237 OA
ATOM     95  O   UNL A   1      40.214  36.365  41.482  1.00  0.00    -0.744 OA
ENDBRANCH  91  92
ENDBRANCH  59  84
ENDBRANCH  33  34
ENDBRANCH  25  28
ENDBRANCH  23  24
ENDBRANCH  22  23
ENDBRANCH   1  22
TORSDOF 18
ENDMDL
MODEL 2
REMARK VINA RESULT:     -10.5      4.823     10.944
REMARK SMILES CC[C@@H](C)N(C)c1ccc(/C=C/C(=O)NCCCCNC(=O)c2ccc(-c3c4nc(c(-c5c(F)cc(S(=O)(=O)[O-])cc5F)c5ccc([nH]5)c(-c5c(F)cc(S(=O)(=O)[O-])cc5F)c5nc(c(-c6c(F)cc(S(=O)(=O)[O-])cc6F)c6ccc3[nH]6)C=C5)C=C4)cc2)cc1F
REMARK SMILES IDX 17 1 16 2 15 3 13 4 14 5 12 7 11 8 10 9 7 10 8 11 90 12 9 13
REMARK SMILES IDX 89 14 91 15 5 16 6 17 3 18 4 19 2 20 1 21 18 22 19 23 20 24
REMARK SMILES IDX 21 25 22 27 23 28 24 29 88 30 25 31 87 32 26 33 27 34 28 35
REMARK SMILES IDX 81 36 29 37 86 38 80 39 82 40 30 41 85 42 79 43 78 44 31 46
REMARK SMILES IDX 65 47 44 48 64 49 45 50 48 51 63 52 83 53 46 54 47 55 62 57
REMARK SMILES IDX 84 58 49 59 32 60 33 61 42 62 34 63 35 64 41 65 43 66 36 67
REMARK SMILES IDX 37 68 38 69 39 70 40 71 66 72 67 73 76 74 68 75 69 76 75 77
REMARK SMILES IDX 77 78 70 79 71 80 72 81 73 82 74 83 50 84 51 85 60 86 52 87
REMARK SMILES IDX 53 88 59 89 61 90 54 91 55 92 56 93 57 94 58 95
REMARK H PARENT 15 6 20 26 82 45 48 56
REMARK Flexibility Score: inf
ROOT
ATOM      1  C   UNL A   1      31.653  29.551  25.774  1.00  0.00     0.023 C 
ENDROOT
BRANCH   1   2
ATOM      2  C   UNL A   1      31.580  29.555  24.247  1.00  0.00     0.116 C 
BRANCH   2   3
ATOM      3  N   UNL A   1      30.278  29.114  23.775  1.00  0.00    -0.353 N 
ATOM      4  C   UNL A   1      29.787  27.853  23.614  1.00  0.00     0.243 C 
ATOM      5  O   UNL A   1      28.610  27.678  23.313  1.00  0.00    -0.270 OA
ATOM      6  H   UNL A   1      29.655  29.838  23.533  1.00  0.00     0.163 HD
BRANCH   4   7
ATOM      7  C   UNL A   1      30.648  26.682  23.889  1.00  0.00     0.072 C 
ATOM      8  C   UNL A   1      30.510  25.926  24.987  1.00  0.00     0.014 C 
BRANCH   8   9
ATOM      9  C   UNL A   1      31.313  24.736  25.287  1.00  0.00    -0.022 A 
ATOM     10  C   UNL A   1      32.978  22.467  25.765  1.00  0.00     0.073 A 
ATOM     11  C   UNL A   1      31.576  22.368  25.768  1.00  0.00     0.029 A 
ATOM     12  C   UNL A   1      33.511  23.740  25.501  1.00  0.00     0.147 A 
ATOM     13  C   UNL A   1      30.754  23.480  25.530  1.00  0.00     0.010 A 
ATOM     14  C   UNL A   1      32.703  24.854  25.270  1.00  0.00     0.049 A 
ATOM     15  F   UNL A   1      34.837  23.916  25.393  1.00  0.00    -0.205 F 
BRANCH  10  16
ATOM     16  N   UNL A   1      33.780  21.347  25.975  1.00  0.00    -0.370 N 
ATOM     17  C   UNL A   1      34.387  21.206  27.293  1.00  0.00     0.144 C 
BRANCH  16  18
ATOM     18  C   UNL A   1      34.389  20.601  24.850  1.00  0.00     0.078 C 
ATOM     19  C   UNL A   1      33.628  19.304  24.563  1.00  0.00     0.031 C 
BRANCH  18  20
ATOM     20  C   UNL A   1      35.895  20.379  25.050  1.00  0.00     0.021 C 
ATOM     21  C   UNL A   1      36.751  21.543  24.566  1.00  0.00     0.006 C 
ENDBRANCH  18  20
ENDBRANCH  16  18
ENDBRANCH  10  16
ENDBRANCH   8   9
ENDBRANCH   4   7
ENDBRANCH   2   3
ENDBRANCH   1   2
BRANCH   1  22
ATOM     22  C   UNL A   1      32.476  28.405  26.369  1.00  0.00     0.023 C 
BRANCH  22  23
ATOM     23  C   UNL A   1      33.726  28.830  27.134  1.00  0.00     0.116 C 
BRANCH  23  24
ATOM     24  N   UNL A   1      33.636  30.172  27.689  1.00  0.00    -0.352 N 
ATOM     25  C   UNL A   1      34.595  30.876  28.381  1.00  0.00     0.251 C 
ATOM     26  H   UNL A   1      32.778  30.636  27.552  1.00  0.00     0.163 HD
ATOM     27  O   UNL A   1      34.326  31.965  28.872  1.00  0.00    -0.269 OA
BRANCH  25  28
ATOM     28  C   UNL A   1      35.938  30.284  28.559  1.00  0.00     0.039 A 
ATOM     29  C   UNL A   1      36.844  30.341  27.498  1.00  0.00     0.014 A 
ATOM     30  C   UNL A   1      36.311  29.714  29.779  1.00  0.00     0.014 A 
ATOM     31  C   UNL A   1      38.152  29.890  27.685  1.00  0.00     0.010 A 
ATOM     32  C   UNL A   1      37.632  29.326  29.983  1.00  0.00     0.010 A 
ATOM     33  C   UNL A   1      38.565  29.414  28.940  1.00  0.00    -0.014 A 
BRANCH  33  34
ATOM     34  C   UNL A   1      39.975  29.025  29.189  1.00  0.00     0.031 A 
ATOM     35  C   UNL A   1      40.935  30.007  29.801  1.00  0.00     0.074 A 
ATOM     36  C   UNL A   1      40.408  27.811  28.797  1.00  0.00     0.049 A 
ATOM     37  N   UNL A   1      42.214  29.873  30.035  1.00  0.00    -0.248 NA
ATOM     38  C   UNL A   1      40.389  31.321  30.173  1.00  0.00     0.031 C 
ATOM     39  C   UNL A   1      39.584  26.791  28.147  1.00  0.00     0.029 A 
ATOM     40  N   UNL A   1      41.649  27.231  28.881  1.00  0.00    -0.354 N 
ATOM     41  C   UNL A   1      42.630  31.088  30.565  1.00  0.00     0.074 A 
ATOM     42  C   UNL A   1      41.478  31.962  30.573  1.00  0.00     0.031 C 
ATOM     43  C   UNL A   1      40.333  25.702  27.918  1.00  0.00     0.029 A 
ATOM     44  C   UNL A   1      41.698  25.957  28.370  1.00  0.00     0.049 A 
ATOM     45  H   UNL A   1      42.431  27.686  29.270  1.00  0.00     0.167 HD
ATOM     46  C   UNL A   1      43.856  31.433  31.026  1.00  0.00     0.037 A 
ATOM     47  C   UNL A   1      42.725  25.089  28.276  1.00  0.00     0.037 A 
ATOM     48  C   UNL A   1      44.991  30.547  31.039  1.00  0.00     0.049 A 
ATOM     49  C   UNL A   1      44.075  25.487  28.799  1.00  0.00     0.074 A 
ATOM     50  C   UNL A   1      46.256  30.780  31.548  1.00  0.00     0.029 A 
ATOM     51  N   UNL A   1      44.999  29.260  30.522  1.00  0.00    -0.354 N 
ATOM     52  N   UNL A   1      44.439  26.619  29.353  1.00  0.00    -0.248 NA
ATOM     53  C   UNL A   1      45.153  24.496  28.689  1.00  0.00     0.031 C 
ATOM     54  C   UNL A   1      47.042  29.648  31.301  1.00  0.00     0.029 A 
ATOM     55  C   UNL A   1      46.253  28.694  30.678  1.00  0.00     0.049 A 
ATOM     56  H   UNL A   1      44.226  28.815  30.104  1.00  0.00     0.167 HD
ATOM     57  C   UNL A   1      45.784  26.473  29.670  1.00  0.00     0.074 A 
ATOM     58  C   UNL A   1      46.167  25.138  29.256  1.00  0.00     0.031 C 
ATOM     59  C   UNL A   1      46.623  27.365  30.253  1.00  0.00     0.037 A 
BRANCH  46  60
ATOM     60  C   UNL A   1      44.028  32.829  31.556  1.00  0.00     0.058 A 
ATOM     61  C   UNL A   1      43.773  33.118  32.906  1.00  0.00     0.135 A 
ATOM     62  C   UNL A   1      44.431  33.887  30.725  1.00  0.00     0.135 A 
ATOM     63  F   UNL A   1      43.387  32.145  33.746  1.00  0.00    -0.206 F 
ATOM     64  C   UNL A   1      43.917  34.405  33.415  1.00  0.00     0.059 A 
ATOM     65  C   UNL A   1      44.609  35.177  31.219  1.00  0.00     0.059 A 
ATOM     66  F   UNL A   1      44.709  33.661  29.431  1.00  0.00    -0.206 F 
ATOM     67  C   UNL A   1      44.341  35.428  32.564  1.00  0.00     0.060 A 
BRANCH  67  68
ATOM     68  S   UNL A   1      44.603  37.076  33.253  1.00  0.00     0.124 S 
ATOM     69  O   UNL A   1      44.016  36.942  34.581  1.00  0.00    -0.237 OA
ATOM     70  O   UNL A   1      46.057  37.202  33.208  1.00  0.00    -0.237 OA
ATOM     71  O   UNL A   1      43.881  37.945  32.328  1.00  0.00    -0.744 OA
ENDBRANCH  67  68
ENDBRANCH  46  60
BRANCH  47  72
ATOM     72  C   UNL A   1      42.480  23.741  27.702  1.00  0.00     0.058 A 
ATOM     73  C   UNL A   1      42.311  22.616  28.523  1.00  0.00     0.135 A 
ATOM     74  C   UNL A   1      42.506  23.541  26.313  1.00  0.00     0.135 A 
ATOM     75  F   UNL A   1      42.288  22.754  29.858  1.00  0.00    -0.206 F 
ATOM     76  C   UNL A   1      42.218  21.335  27.991  1.00  0.00     0.059 A 
ATOM     77  C   UNL A   1      42.396  22.271  25.756  1.00  0.00     0.059 A 
ATOM     78  F   UNL A   1      42.655  24.590  25.490  1.00  0.00    -0.206 F 
ATOM     79  C   UNL A   1      42.278  21.171  26.606  1.00  0.00     0.060 A 
BRANCH  79  80
ATOM     80  S   UNL A   1      42.231  19.494  25.937  1.00  0.00     0.124 S 
ATOM     81  O   UNL A   1      42.749  18.720  27.061  1.00  0.00    -0.237 OA
ATOM     82  O   UNL A   1      40.812  19.320  25.646  1.00  0.00    -0.237 OA
ATOM     83  O   UNL A   1      43.106  19.571  24.771  1.00  0.00    -0.744 OA
ENDBRANCH  79  80
ENDBRANCH  47  72
BRANCH  59  84
ATOM     84  C   UNL A   1      48.043  26.935  30.489  1.00  0.00     0.058 A 
ATOM     85  C   UNL A   1      48.398  26.267  31.671  1.00  0.00     0.135 A 
ATOM     86  C   UNL A   1      49.067  27.265  29.587  1.00  0.00     0.135 A 
ATOM     87  F   UNL A   1      47.458  25.932  32.568  1.00  0.00    -0.206 F 
ATOM     88  C   UNL A   1      49.723  25.960  31.963  1.00  0.00     0.059 A 
ATOM     89  C   UNL A   1      50.397  26.947  29.848  1.00  0.00     0.059 A 
ATOM     90  F   UNL A   1      48.776  27.893  28.437  1.00  0.00    -0.206 F 
ATOM     91  C   UNL A   1      50.717  26.312  31.048  1.00  0.00     0.060 A 
BRANCH  91  92
ATOM     92  S   UNL A   1      52.432  25.910  31.443  1.00  0.00     0.124 S 
ATOM     93  O   UNL A   1      52.772  26.959  32.399  1.00  0.00    -0.237 OA
ATOM     94  O   UNL A   1      52.315  24.563  31.994  1.00  0.00    -0.237 OA
ATOM     95  O   UNL A   1      53.106  25.994  30.151  1.00  0.00    -0.744 OA
ENDBRANCH  91  92
ENDBRANCH  59  84
ENDBRANCH  33  34
ENDBRANCH  25  28
ENDBRANCH  23  24
ENDBRANCH  22  23
ENDBRANCH   1  22
TORSDOF 18
ENDMDL
MODEL 3
REMARK VINA RESULT:     -10.5      3.663     10.154
REMARK SMILES CC[C@@H](C)N(C)c1ccc(/C=C/C(=O)NCCCCNC(=O)c2ccc(-c3c4nc(c(-c5c(F)cc(S(=O)(=O)[O-])cc5F)c5ccc([nH]5)c(-c5c(F)cc(S(=O)(=O)[O-])cc5F)c5nc(c(-c6c(F)cc(S(=O)(=O)[O-])cc6F)c6ccc3[nH]6)C=C5)C=C4)cc2)cc1F
REMARK SMILES IDX 17 1 16 2 15 3 13 4 14 5 12 7 11 8 10 9 7 10 8 11 90 12 9 13
REMARK SMILES IDX 89 14 91 15 5 16 6 17 3 18 4 19 2 20 1 21 18 22 19 23 20 24
REMARK SMILES IDX 21 25 22 27 23 28 24 29 88 30 25 31 87 32 26 33 27 34 28 35
REMARK SMILES IDX 81 36 29 37 86 38 80 39 82 40 30 41 85 42 79 43 78 44 31 46
REMARK SMILES IDX 65 47 44 48 64 49 45 50 48 51 63 52 83 53 46 54 47 55 62 57
REMARK SMILES IDX 84 58 49 59 32 60 33 61 42 62 34 63 35 64 41 65 43 66 36 67
REMARK SMILES IDX 37 68 38 69 39 70 40 71 66 72 67 73 76 74 68 75 69 76 75 77
REMARK SMILES IDX 77 78 70 79 71 80 72 81 73 82 74 83 50 84 51 85 60 86 52 87
REMARK SMILES IDX 53 88 59 89 61 90 54 91 55 92 56 93 57 94 58 95
REMARK H PARENT 15 6 20 26 82 45 48 56
REMARK Flexibility Score: inf
ROOT
ATOM      1  C   UNL A   1      31.621  29.085  25.323  1.00  0.00     0.023 C 
ENDROOT
BRANCH   1   2
ATOM      2  C   UNL A   1      31.308  28.956  23.832  1.00  0.00     0.116 C 
BRANCH   2   3
ATOM      3  N   UNL A   1      29.923  28.575  23.610  1.00  0.00    -0.353 N 
ATOM      4  C   UNL A   1      29.358  27.338  23.528  1.00  0.00     0.243 C 
ATOM      5  O   UNL A   1      28.139  27.215  23.454  1.00  0.00    -0.270 OA
ATOM      6  H   UNL A   1      29.296  29.327  23.500  1.00  0.00     0.163 HD
BRANCH   4   7
ATOM      7  C   UNL A   1      30.207  26.129  23.619  1.00  0.00     0.072 C 
ATOM      8  C   UNL A   1      30.104  25.249  24.625  1.00  0.00     0.014 C 
BRANCH   8   9
ATOM      9  C   UNL A   1      30.894  24.020  24.742  1.00  0.00    -0.022 A 
ATOM     10  C   UNL A   1      32.366  21.576  24.838  1.00  0.00     0.073 A 
ATOM     11  C   UNL A   1      31.854  22.174  26.001  1.00  0.00     0.029 A 
ATOM     12  C   UNL A   1      32.103  22.238  23.628  1.00  0.00     0.147 A 
ATOM     13  C   UNL A   1      31.126  23.374  25.957  1.00  0.00     0.010 A 
ATOM     14  C   UNL A   1      31.386  23.435  23.574  1.00  0.00     0.049 A 
ATOM     15  F   UNL A   1      32.478  21.700  22.458  1.00  0.00    -0.205 F 
BRANCH  10  16
ATOM     16  N   UNL A   1      33.063  20.370  24.896  1.00  0.00    -0.370 N 
ATOM     17  C   UNL A   1      34.512  20.434  24.749  1.00  0.00     0.144 C 
BRANCH  16  18
ATOM     18  C   UNL A   1      32.398  19.072  24.634  1.00  0.00     0.078 C 
ATOM     19  C   UNL A   1      32.719  18.050  25.728  1.00  0.00     0.031 C 
BRANCH  18  20
ATOM     20  C   UNL A   1      32.689  18.546  23.221  1.00  0.00     0.021 C 
ATOM     21  C   UNL A   1      33.342  17.170  23.207  1.00  0.00     0.006 C 
ENDBRANCH  18  20
ENDBRANCH  16  18
ENDBRANCH  10  16
ENDBRANCH   8   9
ENDBRANCH   4   7
ENDBRANCH   2   3
ENDBRANCH   1   2
BRANCH   1  22
ATOM     22  C   UNL A   1      32.697  28.122  25.833  1.00  0.00     0.023 C 
BRANCH  22  23
ATOM     23  C   UNL A   1      34.020  28.773  26.227  1.00  0.00     0.116 C 
BRANCH  23  24
ATOM     24  N   UNL A   1      33.888  30.175  26.592  1.00  0.00    -0.352 N 
ATOM     25  C   UNL A   1      34.684  30.917  27.433  1.00  0.00     0.251 C 
ATOM     26  H   UNL A   1      33.131  30.655  26.183  1.00  0.00     0.163 HD
ATOM     27  O   UNL A   1      34.378  32.068  27.717  1.00  0.00    -0.269 OA
BRANCH  25  28
ATOM     28  C   UNL A   1      35.888  30.294  28.024  1.00  0.00     0.039 A 
ATOM     29  C   UNL A   1      37.092  30.357  27.318  1.00  0.00     0.014 A 
ATOM     30  C   UNL A   1      35.836  29.690  29.282  1.00  0.00     0.014 A 
ATOM     31  C   UNL A   1      38.262  29.876  27.908  1.00  0.00     0.010 A 
ATOM     32  C   UNL A   1      37.013  29.271  29.895  1.00  0.00     0.010 A 
ATOM     33  C   UNL A   1      38.237  29.364  29.216  1.00  0.00    -0.014 A 
BRANCH  33  34
ATOM     34  C   UNL A   1      39.484  28.941  29.900  1.00  0.00     0.031 A 
ATOM     35  C   UNL A   1      39.924  29.626  31.164  1.00  0.00     0.074 A 
ATOM     36  C   UNL A   1      40.257  27.989  29.343  1.00  0.00     0.049 A 
ATOM     37  N   UNL A   1      41.011  29.441  31.867  1.00  0.00    -0.248 NA
ATOM     38  C   UNL A   1      39.038  30.675  31.691  1.00  0.00     0.031 C 
ATOM     39  C   UNL A   1      39.962  27.288  28.093  1.00  0.00     0.029 A 
ATOM     40  N   UNL A   1      41.453  27.452  29.750  1.00  0.00    -0.354 N 
ATOM     41  C   UNL A   1      40.948  30.359  32.908  1.00  0.00     0.074 A 
ATOM     42  C   UNL A   1      39.741  31.133  32.716  1.00  0.00     0.031 C 
ATOM     43  C   UNL A   1      40.932  26.394  27.851  1.00  0.00     0.029 A 
ATOM     44  C   UNL A   1      41.938  26.482  28.907  1.00  0.00     0.049 A 
ATOM     45  H   UNL A   1      41.919  27.736  30.570  1.00  0.00     0.167 HD
ATOM     46  C   UNL A   1      41.807  30.524  33.942  1.00  0.00     0.037 A 
ATOM     47  C   UNL A   1      43.064  25.745  28.974  1.00  0.00     0.037 A 
ATOM     48  C   UNL A   1      42.992  29.731  34.139  1.00  0.00     0.049 A 
ATOM     49  C   UNL A   1      44.001  25.937  30.132  1.00  0.00     0.074 A 
ATOM     50  C   UNL A   1      43.890  29.775  35.191  1.00  0.00     0.029 A 
ATOM     51  N   UNL A   1      43.445  28.751  33.267  1.00  0.00    -0.354 N 
ATOM     52  N   UNL A   1      43.898  26.769  31.141  1.00  0.00    -0.248 NA
ATOM     53  C   UNL A   1      45.203  25.095  30.166  1.00  0.00     0.031 C 
ATOM     54  C   UNL A   1      44.909  28.850  34.935  1.00  0.00     0.029 A 
ATOM     55  C   UNL A   1      44.622  28.199  33.746  1.00  0.00     0.049 A 
ATOM     56  H   UNL A   1      42.997  28.488  32.432  1.00  0.00     0.167 HD
ATOM     57  C   UNL A   1      45.013  26.542  31.938  1.00  0.00     0.074 A 
ATOM     58  C   UNL A   1      45.773  25.485  31.299  1.00  0.00     0.031 C 
ATOM     59  C   UNL A   1      45.373  27.152  33.094  1.00  0.00     0.037 A 
BRANCH  46  60
ATOM     60  C   UNL A   1      41.490  31.604  34.939  1.00  0.00     0.058 A 
ATOM     61  C   UNL A   1      40.552  31.381  35.958  1.00  0.00     0.135 A 
ATOM     62  C   UNL A   1      42.105  32.865  34.878  1.00  0.00     0.135 A 
ATOM     63  F   UNL A   1      39.936  30.194  36.066  1.00  0.00    -0.206 F 
ATOM     64  C   UNL A   1      40.237  32.370  36.886  1.00  0.00     0.059 A 
ATOM     65  C   UNL A   1      41.827  33.859  35.811  1.00  0.00     0.059 A 
ATOM     66  F   UNL A   1      43.025  33.122  33.935  1.00  0.00    -0.206 F 
ATOM     67  C   UNL A   1      40.885  33.605  36.807  1.00  0.00     0.060 A 
BRANCH  67  68
ATOM     68  S   UNL A   1      40.529  34.851  38.065  1.00  0.00     0.124 S 
ATOM     69  O   UNL A   1      40.490  34.047  39.281  1.00  0.00    -0.237 OA
ATOM     70  O   UNL A   1      41.667  35.755  37.934  1.00  0.00    -0.237 OA
ATOM     71  O   UNL A   1      39.249  35.407  37.634  1.00  0.00    -0.744 OA
ENDBRANCH  67  68
ENDBRANCH  46  60
BRANCH  47  72
ATOM     72  C   UNL A   1      43.323  24.726  27.925  1.00  0.00     0.058 A 
ATOM     73  C   UNL A   1      42.946  23.385  28.099  1.00  0.00     0.135 A 
ATOM     74  C   UNL A   1      44.040  25.060  26.766  1.00  0.00     0.135 A 
ATOM     75  F   UNL A   1      42.267  23.014  29.195  1.00  0.00    -0.206 F 
ATOM     76  C   UNL A   1      43.307  22.404  27.182  1.00  0.00     0.059 A 
ATOM     77  C   UNL A   1      44.396  24.100  25.825  1.00  0.00     0.059 A 
ATOM     78  F   UNL A   1      44.411  26.332  26.554  1.00  0.00    -0.206 F 
ATOM     79  C   UNL A   1      44.047  22.769  26.056  1.00  0.00     0.060 A 
BRANCH  79  80
ATOM     80  S   UNL A   1      44.570  21.470  24.915  1.00  0.00     0.124 S 
ATOM     81  O   UNL A   1      45.906  21.165  25.419  1.00  0.00    -0.237 OA
ATOM     82  O   UNL A   1      43.557  20.444  25.135  1.00  0.00    -0.237 OA
ATOM     83  O   UNL A   1      44.526  22.126  23.613  1.00  0.00    -0.744 OA
ENDBRANCH  79  80
ENDBRANCH  47  72
BRANCH  59  84
ATOM     84  C   UNL A   1      46.642  26.698  33.757  1.00  0.00     0.058 A 
ATOM     85  C   UNL A   1      47.873  27.279  33.414  1.00  0.00     0.135 A 
ATOM     86  C   UNL A   1      46.651  25.626  34.664  1.00  0.00     0.135 A 
ATOM     87  F   UNL A   1      47.920  28.304  32.549  1.00  0.00    -0.206 F 
ATOM     88  C   UNL A   1      49.072  26.799  33.930  1.00  0.00     0.059 A 
ATOM     89  C   UNL A   1      47.837  25.145  35.210  1.00  0.00     0.059 A 
ATOM     90  F   UNL A   1      45.499  25.046  35.033  1.00  0.00    -0.206 F 
ATOM     91  C   UNL A   1      49.045  25.726  34.822  1.00  0.00     0.060 A 
BRANCH  91  92
ATOM     92  S   UNL A   1      50.610  25.113  35.479  1.00  0.00     0.124 S 
ATOM     93  O   UNL A   1      51.182  26.320  36.064  1.00  0.00    -0.237 OA
ATOM     94  O   UNL A   1      50.170  24.094  36.428  1.00  0.00    -0.237 OA
ATOM     95  O   UNL A   1      51.297  24.602  34.296  1.00  0.00    -0.744 OA
ENDBRANCH  91  92
ENDBRANCH  59  84
ENDBRANCH  33  34
ENDBRANCH  25  28
ENDBRANCH  23  24
ENDBRANCH  22  23
ENDBRANCH   1  22
TORSDOF 18
ENDMDL
