MODEL 1
REMARK VINA RESULT:     -10.6      0.000      0.000
REMARK SMILES CC(C)[C@H](CO)NS(=O)(=O)c1ccc(C(=O)NCCCCNC(=O)c2ccc(-c3c4nc(c(-c5c(F)cc(S(=O)(=O)[O-])cc5F)c5ccc([nH]5)c(-c5c(F)cc(S(=O)(=O)[O-])cc5F)c5nc(c(-c6c(F)cc(S(=O)(=O)[O-])cc6F)c6ccc3[nH]6)C=C5)C=C4)cc2)cn1
REMARK SMILES IDX 18 1 17 2 15 3 16 4 14 6 11 7 12 8 92 9 13 10 91 11 8 12
REMARK SMILES IDX 9 13 10 14 7 15 4 17 2 18 1 19 3 20 5 21 6 22 19 24 20 25
REMARK SMILES IDX 21 26 22 27 23 28 24 30 25 31 26 32 90 33 27 34 89 35 28 36
REMARK SMILES IDX 29 37 30 38 83 39 31 40 88 41 82 42 84 43 32 44 87 45 81 46
REMARK SMILES IDX 80 47 33 49 67 50 46 51 66 52 47 53 50 54 65 55 85 56 48 57
REMARK SMILES IDX 49 58 64 60 86 61 51 62 34 63 35 64 44 65 36 66 37 67 43 68
REMARK SMILES IDX 45 69 38 70 39 71 40 72 41 73 42 74 68 75 69 76 78 77 70 78
REMARK SMILES IDX 71 79 77 80 79 81 72 82 73 83 74 84 75 85 76 86 52 87 53 88
REMARK SMILES IDX 62 89 54 90 55 91 61 92 63 93 56 94 57 95 58 96 59 97 60 98
REMARK H PARENT 17 5 7 16 6 23 22 29 84 48 50 59
REMARK Flexibility Score: inf
ROOT
ATOM      1  C   UNL A   1      31.423  29.228  25.017  1.00  0.00     0.116 C 
ENDROOT
BRANCH   1   2
ATOM      2  N   UNL A   1      30.830  29.252  23.693  1.00  0.00    -0.352 N 
ATOM      3  C   UNL A   1      30.654  28.275  22.747  1.00  0.00     0.252 C 
ATOM      4  O   UNL A   1      30.014  28.557  21.734  1.00  0.00    -0.269 OA
ATOM      5  H   UNL A   1      30.491  30.136  23.423  1.00  0.00     0.163 HD
BRANCH   3   6
ATOM      6  C   UNL A   1      31.155  26.888  22.897  1.00  0.00     0.058 A 
ATOM      7  C   UNL A   1      31.840  24.268  23.308  1.00  0.00     0.170 A 
ATOM      8  C   UNL A   1      32.598  25.010  22.415  1.00  0.00     0.043 A 
ATOM      9  N   UNL A   1      30.783  24.747  24.019  1.00  0.00    -0.243 NA
ATOM     10  C   UNL A   1      32.229  26.336  22.198  1.00  0.00     0.018 A 
ATOM     11  C   UNL A   1      30.456  26.043  23.766  1.00  0.00     0.126 A 
BRANCH   7  12
ATOM     12  S   UNL A   1      32.262  22.556  23.611  1.00  0.00     0.258 S 
ATOM     13  O   UNL A   1      31.795  21.794  22.468  1.00  0.00    -0.205 OA
ATOM     14  O   UNL A   1      31.828  22.227  24.949  1.00  0.00    -0.205 OA
BRANCH  12  15
ATOM     15  N   UNL A   1      33.942  22.502  23.619  1.00  0.00    -0.204 NA
ATOM     16  H   UNL A   1      34.200  21.614  23.187  1.00  0.00     0.141 HD
BRANCH  15  17
ATOM     17  C   UNL A   1      34.736  22.597  24.868  1.00  0.00     0.098 C 
BRANCH  17  18
ATOM     18  C   UNL A   1      35.533  23.919  24.978  1.00  0.00     0.003 C 
ATOM     19  C   UNL A   1      34.674  25.069  25.516  1.00  0.00     0.009 C 
ATOM     20  C   UNL A   1      36.808  23.813  25.823  1.00  0.00     0.009 C 
ENDBRANCH  17  18
BRANCH  17  21
ATOM     21  C   UNL A   1      35.618  21.326  24.922  1.00  0.00     0.176 C 
BRANCH  21  22
ATOM     22  O   UNL A   1      34.827  20.192  25.300  1.00  0.00    -0.395 OA
ATOM     23  H   UNL A   1      34.370  20.380  26.134  1.00  0.00     0.210 HD
ENDBRANCH  21  22
ENDBRANCH  17  21
ENDBRANCH  15  17
ENDBRANCH  12  15
ENDBRANCH   7  12
ENDBRANCH   3   6
ENDBRANCH   1   2
BRANCH   1  24
ATOM     24  C   UNL A   1      32.935  29.450  24.950  1.00  0.00     0.023 C 
BRANCH  24  25
ATOM     25  C   UNL A   1      33.759  28.471  25.793  1.00  0.00     0.023 C 
BRANCH  25  26
ATOM     26  C   UNL A   1      33.576  28.592  27.303  1.00  0.00     0.116 C 
BRANCH  26  27
ATOM     27  N   UNL A   1      33.533  29.971  27.772  1.00  0.00    -0.352 N 
ATOM     28  C   UNL A   1      34.534  30.703  28.368  1.00  0.00     0.251 C 
ATOM     29  H   UNL A   1      32.677  30.439  27.646  1.00  0.00     0.163 HD
ATOM     30  O   UNL A   1      34.304  31.831  28.792  1.00  0.00    -0.269 OA
BRANCH  28  31
ATOM     31  C   UNL A   1      35.871  30.098  28.530  1.00  0.00     0.039 A 
ATOM     32  C   UNL A   1      36.751  30.111  27.446  1.00  0.00     0.014 A 
ATOM     33  C   UNL A   1      36.273  29.583  29.766  1.00  0.00     0.014 A 
ATOM     34  C   UNL A   1      38.069  29.688  27.627  1.00  0.00     0.010 A 
ATOM     35  C   UNL A   1      37.602  29.217  29.958  1.00  0.00     0.010 A 
ATOM     36  C   UNL A   1      38.517  29.287  28.896  1.00  0.00    -0.014 A 
BRANCH  36  37
ATOM     37  C   UNL A   1      39.951  28.996  29.150  1.00  0.00     0.031 A 
ATOM     38  C   UNL A   1      40.861  30.062  29.690  1.00  0.00     0.074 A 
ATOM     39  C   UNL A   1      40.445  27.790  28.808  1.00  0.00     0.049 A 
ATOM     40  N   UNL A   1      42.152  30.016  29.894  1.00  0.00    -0.248 NA
ATOM     41  C   UNL A   1      40.244  31.356  30.019  1.00  0.00     0.031 C 
ATOM     42  C   UNL A   1      39.670  26.691  28.225  1.00  0.00     0.029 A 
ATOM     43  N   UNL A   1      41.720  27.288  28.886  1.00  0.00    -0.354 N 
ATOM     44  C   UNL A   1      42.506  31.274  30.367  1.00  0.00     0.074 A 
ATOM     45  C   UNL A   1      41.301  32.075  30.374  1.00  0.00     0.031 C 
ATOM     46  C   UNL A   1      40.481  25.643  28.013  1.00  0.00     0.029 A 
ATOM     47  C   UNL A   1      41.839  26.003  28.408  1.00  0.00     0.049 A 
ATOM     48  H   UNL A   1      42.479  27.798  29.252  1.00  0.00     0.167 HD
ATOM     49  C   UNL A   1      43.720  31.712  30.776  1.00  0.00     0.037 A 
ATOM     50  C   UNL A   1      42.920  25.210  28.287  1.00  0.00     0.037 A 
ATOM     51  C   UNL A   1      44.911  30.903  30.782  1.00  0.00     0.049 A 
ATOM     52  C   UNL A   1      44.259  25.723  28.739  1.00  0.00     0.074 A 
ATOM     53  C   UNL A   1      46.175  31.234  31.239  1.00  0.00     0.029 A 
ATOM     54  N   UNL A   1      44.990  29.603  30.302  1.00  0.00    -0.354 N 
ATOM     55  N   UNL A   1      44.563  26.892  29.250  1.00  0.00    -0.248 NA
ATOM     56  C   UNL A   1      45.403  24.811  28.599  1.00  0.00     0.031 C 
ATOM     57  C   UNL A   1      47.027  30.151  30.996  1.00  0.00     0.029 A 
ATOM     58  C   UNL A   1      46.286  29.128  30.428  1.00  0.00     0.049 A 
ATOM     59  H   UNL A   1      44.235  29.093  29.927  1.00  0.00     0.167 HD
ATOM     60  C   UNL A   1      45.928  26.851  29.509  1.00  0.00     0.074 A 
ATOM     61  C   UNL A   1      46.388  25.535  29.114  1.00  0.00     0.031 C 
ATOM     62  C   UNL A   1      46.729  27.816  30.025  1.00  0.00     0.037 A 
BRANCH  49  63
ATOM     63  C   UNL A   1      43.822  33.134  31.257  1.00  0.00     0.058 A 
ATOM     64  C   UNL A   1      43.816  33.448  32.625  1.00  0.00     0.135 A 
ATOM     65  C   UNL A   1      43.964  34.189  30.342  1.00  0.00     0.135 A 
ATOM     66  F   UNL A   1      43.669  32.479  33.541  1.00  0.00    -0.206 F 
ATOM     67  C   UNL A   1      43.920  34.763  33.069  1.00  0.00     0.059 A 
ATOM     68  C   UNL A   1      44.096  35.509  30.765  1.00  0.00     0.059 A 
ATOM     69  F   UNL A   1      43.975  33.945  29.023  1.00  0.00    -0.206 F 
ATOM     70  C   UNL A   1      44.058  35.787  32.131  1.00  0.00     0.060 A 
BRANCH  70  71
ATOM     71  S   UNL A   1      44.194  37.486  32.724  1.00  0.00     0.124 S 
ATOM     72  O   UNL A   1      44.189  38.232  31.469  1.00  0.00    -0.237 OA
ATOM     73  O   UNL A   1      42.999  37.627  33.549  1.00  0.00    -0.237 OA
ATOM     74  O   UNL A   1      45.460  37.492  33.452  1.00  0.00    -0.744 OA
ENDBRANCH  70  71
ENDBRANCH  49  63
BRANCH  50  75
ATOM     75  C   UNL A   1      42.778  23.841  27.724  1.00  0.00     0.058 A 
ATOM     76  C   UNL A   1      42.615  22.730  28.564  1.00  0.00     0.135 A 
ATOM     77  C   UNL A   1      42.783  23.619  26.338  1.00  0.00     0.135 A 
ATOM     78  F   UNL A   1      42.610  22.892  29.896  1.00  0.00    -0.206 F 
ATOM     79  C   UNL A   1      42.476  21.444  28.053  1.00  0.00     0.059 A 
ATOM     80  C   UNL A   1      42.621  22.345  25.801  1.00  0.00     0.059 A 
ATOM     81  F   UNL A   1      42.917  24.651  25.491  1.00  0.00    -0.206 F 
ATOM     82  C   UNL A   1      42.478  21.262  26.669  1.00  0.00     0.060 A 
BRANCH  82  83
ATOM     83  S   UNL A   1      42.241  19.596  26.013  1.00  0.00     0.124 S 
ATOM     84  O   UNL A   1      42.622  18.775  27.156  1.00  0.00    -0.237 OA
ATOM     85  O   UNL A   1      40.822  19.599  25.673  1.00  0.00    -0.237 OA
ATOM     86  O   UNL A   1      43.151  19.554  24.873  1.00  0.00    -0.744 OA
ENDBRANCH  82  83
ENDBRANCH  50  75
BRANCH  62  87
ATOM     87  C   UNL A   1      48.183  27.481  30.205  1.00  0.00     0.058 A 
ATOM     88  C   UNL A   1      48.627  26.693  31.277  1.00  0.00     0.135 A 
ATOM     89  C   UNL A   1      49.135  27.913  29.268  1.00  0.00     0.135 A 
ATOM     90  F   UNL A   1      47.758  26.262  32.205  1.00  0.00    -0.206 F 
ATOM     91  C   UNL A   1      49.970  26.363  31.428  1.00  0.00     0.059 A 
ATOM     92  C   UNL A   1      50.479  27.573  29.384  1.00  0.00     0.059 A 
ATOM     93  F   UNL A   1      48.760  28.660  28.218  1.00  0.00    -0.206 F 
ATOM     94  C   UNL A   1      50.889  26.807  30.474  1.00  0.00     0.060 A 
BRANCH  94  95
ATOM     95  S   UNL A   1      52.623  26.343  30.663  1.00  0.00     0.124 S 
ATOM     96  O   UNL A   1      52.527  25.214  31.581  1.00  0.00    -0.237 OA
ATOM     97  O   UNL A   1      53.011  26.016  29.293  1.00  0.00    -0.237 OA
ATOM     98  O   UNL A   1      53.239  27.547  31.210  1.00  0.00    -0.744 OA
ENDBRANCH  94  95
ENDBRANCH  62  87
ENDBRANCH  36  37
ENDBRANCH  28  31
ENDBRANCH  26  27
ENDBRANCH  25  26
ENDBRANCH  24  25
ENDBRANCH   1  24
TORSDOF 20
ENDMDL
MODEL 2
REMARK VINA RESULT:     -10.4      2.662      3.545
REMARK SMILES CC(C)[C@H](CO)NS(=O)(=O)c1ccc(C(=O)NCCCCNC(=O)c2ccc(-c3c4nc(c(-c5c(F)cc(S(=O)(=O)[O-])cc5F)c5ccc([nH]5)c(-c5c(F)cc(S(=O)(=O)[O-])cc5F)c5nc(c(-c6c(F)cc(S(=O)(=O)[O-])cc6F)c6ccc3[nH]6)C=C5)C=C4)cc2)cn1
REMARK SMILES IDX 18 1 17 2 15 3 16 4 14 6 11 7 12 8 92 9 13 10 91 11 8 12
REMARK SMILES IDX 9 13 10 14 7 15 4 17 2 18 1 19 3 20 5 21 6 22 19 24 20 25
REMARK SMILES IDX 21 26 22 27 23 28 24 30 25 31 26 32 90 33 27 34 89 35 28 36
REMARK SMILES IDX 29 37 30 38 83 39 31 40 88 41 82 42 84 43 32 44 87 45 81 46
REMARK SMILES IDX 80 47 33 49 67 50 46 51 66 52 47 53 50 54 65 55 85 56 48 57
REMARK SMILES IDX 49 58 64 60 86 61 51 62 34 63 35 64 44 65 36 66 37 67 43 68
REMARK SMILES IDX 45 69 38 70 39 71 40 72 41 73 42 74 68 75 69 76 78 77 70 78
REMARK SMILES IDX 71 79 77 80 79 81 72 82 73 83 74 84 75 85 76 86 52 87 53 88
REMARK SMILES IDX 62 89 54 90 55 91 61 92 63 93 56 94 57 95 58 96 59 97 60 98
REMARK H PARENT 17 5 7 16 6 23 22 29 84 48 50 59
REMARK Flexibility Score: inf
ROOT
ATOM      1  C   UNL A   1      32.118  30.010  26.621  1.00  0.00     0.116 C 
ENDROOT
BRANCH   1   2
ATOM      2  N   UNL A   1      31.598  29.727  25.297  1.00  0.00    -0.352 N 
ATOM      3  C   UNL A   1      31.229  28.558  24.685  1.00  0.00     0.252 C 
ATOM      4  O   UNL A   1      30.712  28.623  23.569  1.00  0.00    -0.269 OA
ATOM      5  H   UNL A   1      31.489  30.526  24.732  1.00  0.00     0.163 HD
BRANCH   3   6
ATOM      6  C   UNL A   1      31.379  27.221  25.310  1.00  0.00     0.058 A 
ATOM      7  C   UNL A   1      31.391  24.705  26.389  1.00  0.00     0.170 A 
ATOM      8  C   UNL A   1      32.604  25.359  26.244  1.00  0.00     0.043 A 
ATOM      9  N   UNL A   1      30.179  25.225  26.053  1.00  0.00    -0.243 NA
ATOM     10  C   UNL A   1      32.590  26.631  25.676  1.00  0.00     0.018 A 
ATOM     11  C   UNL A   1      30.218  26.464  25.494  1.00  0.00     0.126 A 
BRANCH   7  12
ATOM     12  S   UNL A   1      31.355  23.062  27.100  1.00  0.00     0.258 S 
ATOM     13  O   UNL A   1      30.057  22.899  27.727  1.00  0.00    -0.205 OA
ATOM     14  O   UNL A   1      32.572  22.885  27.857  1.00  0.00    -0.205 OA
BRANCH  12  15
ATOM     15  N   UNL A   1      31.437  22.006  25.795  1.00  0.00    -0.204 NA
ATOM     16  H   UNL A   1      31.133  21.098  26.145  1.00  0.00     0.141 HD
BRANCH  15  17
ATOM     17  C   UNL A   1      32.695  21.760  25.048  1.00  0.00     0.098 C 
BRANCH  17  18
ATOM     18  C   UNL A   1      32.871  22.703  23.834  1.00  0.00     0.003 C 
ATOM     19  C   UNL A   1      34.313  23.205  23.696  1.00  0.00     0.009 C 
ATOM     20  C   UNL A   1      32.427  22.094  22.499  1.00  0.00     0.009 C 
ENDBRANCH  17  18
BRANCH  17  21
ATOM     21  C   UNL A   1      32.696  20.257  24.680  1.00  0.00     0.176 C 
BRANCH  21  22
ATOM     22  O   UNL A   1      32.077  19.492  25.723  1.00  0.00    -0.395 OA
ATOM     23  H   UNL A   1      31.987  20.042  26.516  1.00  0.00     0.210 HD
ENDBRANCH  21  22
ENDBRANCH  17  21
ENDBRANCH  15  17
ENDBRANCH  12  15
ENDBRANCH   7  12
ENDBRANCH   3   6
ENDBRANCH   1   2
BRANCH   1  24
ATOM     24  C   UNL A   1      33.630  30.240  26.584  1.00  0.00     0.023 C 
BRANCH  24  25
ATOM     25  C   UNL A   1      34.446  29.235  27.404  1.00  0.00     0.023 C 
BRANCH  25  26
ATOM     26  C   UNL A   1      35.674  29.806  28.107  1.00  0.00     0.116 C 
BRANCH  26  27
ATOM     27  N   UNL A   1      35.467  30.047  29.529  1.00  0.00    -0.352 N 
ATOM     28  C   UNL A   1      36.409  30.134  30.528  1.00  0.00     0.251 C 
ATOM     29  H   UNL A   1      34.531  30.163  29.812  1.00  0.00     0.163 HD
ATOM     30  O   UNL A   1      36.058  30.248  31.697  1.00  0.00    -0.269 OA
BRANCH  28  31
ATOM     31  C   UNL A   1      37.841  30.041  30.178  1.00  0.00     0.039 A 
ATOM     32  C   UNL A   1      38.763  29.766  31.190  1.00  0.00     0.014 A 
ATOM     33  C   UNL A   1      38.257  30.160  28.849  1.00  0.00     0.014 A 
ATOM     34  C   UNL A   1      40.096  29.519  30.856  1.00  0.00     0.010 A 
ATOM     35  C   UNL A   1      39.574  29.856  28.513  1.00  0.00     0.010 A 
ATOM     36  C   UNL A   1      40.499  29.513  29.510  1.00  0.00    -0.014 A 
BRANCH  36  37
ATOM     37  C   UNL A   1      41.867  29.088  29.120  1.00  0.00     0.031 A 
ATOM     38  C   UNL A   1      42.993  30.081  29.085  1.00  0.00     0.074 A 
ATOM     39  C   UNL A   1      42.068  27.818  28.714  1.00  0.00     0.049 A 
ATOM     40  N   UNL A   1      44.228  29.911  28.691  1.00  0.00    -0.248 NA
ATOM     41  C   UNL A   1      42.684  31.450  29.527  1.00  0.00     0.031 C 
ATOM     42  C   UNL A   1      41.040  26.776  28.653  1.00  0.00     0.029 A 
ATOM     43  N   UNL A   1      43.200  27.190  28.260  1.00  0.00    -0.354 N 
ATOM     44  C   UNL A   1      44.844  31.150  28.828  1.00  0.00     0.074 A 
ATOM     45  C   UNL A   1      43.832  32.073  29.297  1.00  0.00     0.031 C 
ATOM     46  C   UNL A   1      41.591  25.638  28.203  1.00  0.00     0.029 A 
ATOM     47  C   UNL A   1      43.000  25.875  27.909  1.00  0.00     0.049 A 
ATOM     48  H   UNL A   1      44.075  27.638  28.193  1.00  0.00     0.167 HD
ATOM     49  C   UNL A   1      46.138  31.480  28.602  1.00  0.00     0.037 A 
ATOM     50  C   UNL A   1      43.851  24.967  27.394  1.00  0.00     0.037 A 
ATOM     51  C   UNL A   1      47.142  30.552  28.153  1.00  0.00     0.049 A 
ATOM     52  C   UNL A   1      45.280  25.361  27.143  1.00  0.00     0.074 A 
ATOM     53  C   UNL A   1      48.494  30.774  27.958  1.00  0.00     0.029 A 
ATOM     54  N   UNL A   1      46.904  29.226  27.819  1.00  0.00    -0.354 N 
ATOM     55  N   UNL A   1      45.862  26.519  27.345  1.00  0.00    -0.248 NA
ATOM     56  C   UNL A   1      46.169  24.327  26.595  1.00  0.00     0.031 C 
ATOM     57  C   UNL A   1      49.066  29.595  27.466  1.00  0.00     0.029 A 
ATOM     58  C   UNL A   1      48.079  28.625  27.396  1.00  0.00     0.049 A 
ATOM     59  H   UNL A   1      46.029  28.777  27.876  1.00  0.00     0.167 HD
ATOM     60  C   UNL A   1      47.189  26.350  26.965  1.00  0.00     0.074 A 
ATOM     61  C   UNL A   1      47.327  24.972  26.538  1.00  0.00     0.031 C 
ATOM     62  C   UNL A   1      48.200  27.253  26.969  1.00  0.00     0.037 A 
BRANCH  49  63
ATOM     63  C   UNL A   1      46.543  32.908  28.843  1.00  0.00     0.058 A 
ATOM     64  C   UNL A   1      46.491  33.869  27.820  1.00  0.00     0.135 A 
ATOM     65  C   UNL A   1      46.953  33.330  30.117  1.00  0.00     0.135 A 
ATOM     66  F   UNL A   1      46.121  33.517  26.579  1.00  0.00    -0.206 F 
ATOM     67  C   UNL A   1      46.858  35.192  28.046  1.00  0.00     0.059 A 
ATOM     68  C   UNL A   1      47.300  34.654  30.372  1.00  0.00     0.059 A 
ATOM     69  F   UNL A   1      47.022  32.453  31.131  1.00  0.00    -0.206 F 
ATOM     70  C   UNL A   1      47.262  35.575  29.325  1.00  0.00     0.060 A 
BRANCH  70  71
ATOM     71  S   UNL A   1      47.731  37.296  29.602  1.00  0.00     0.124 S 
ATOM     72  O   UNL A   1      47.416  37.893  28.307  1.00  0.00    -0.237 OA
ATOM     73  O   UNL A   1      46.861  37.684  30.707  1.00  0.00    -0.237 OA
ATOM     74  O   UNL A   1      49.152  37.213  29.925  1.00  0.00    -0.744 OA
ENDBRANCH  70  71
ENDBRANCH  49  63
BRANCH  50  75
ATOM     75  C   UNL A   1      43.375  23.591  27.093  1.00  0.00     0.058 A 
ATOM     76  C   UNL A   1      43.034  23.216  25.786  1.00  0.00     0.135 A 
ATOM     77  C   UNL A   1      43.269  22.620  28.102  1.00  0.00     0.135 A 
ATOM     78  F   UNL A   1      43.113  24.111  24.789  1.00  0.00    -0.206 F 
ATOM     79  C   UNL A   1      42.591  21.931  25.488  1.00  0.00     0.059 A 
ATOM     80  C   UNL A   1      42.852  21.321  27.825  1.00  0.00     0.059 A 
ATOM     81  F   UNL A   1      43.600  22.923  29.366  1.00  0.00    -0.206 F 
ATOM     82  C   UNL A   1      42.506  20.990  26.515  1.00  0.00     0.060 A 
BRANCH  82  83
ATOM     83  S   UNL A   1      41.983  19.309  26.109  1.00  0.00     0.124 S 
ATOM     84  O   UNL A   1      40.550  19.487  25.913  1.00  0.00    -0.237 OA
ATOM     85  O   UNL A   1      42.763  19.027  24.908  1.00  0.00    -0.237 OA
ATOM     86  O   UNL A   1      42.370  18.545  27.291  1.00  0.00    -0.744 OA
ENDBRANCH  82  83
ENDBRANCH  50  75
BRANCH  62  87
ATOM     87  C   UNL A   1      49.549  26.777  26.508  1.00  0.00     0.058 A 
ATOM     88  C   UNL A   1      50.429  26.112  27.376  1.00  0.00     0.135 A 
ATOM     89  C   UNL A   1      49.947  26.947  25.172  1.00  0.00     0.135 A 
ATOM     90  F   UNL A   1      50.099  25.932  28.665  1.00  0.00    -0.206 F 
ATOM     91  C   UNL A   1      51.666  25.650  26.941  1.00  0.00     0.059 A 
ATOM     92  C   UNL A   1      51.169  26.470  24.709  1.00  0.00     0.059 A 
ATOM     93  F   UNL A   1      49.138  27.567  24.299  1.00  0.00    -0.206 F 
ATOM     94  C   UNL A   1      52.028  25.833  25.604  1.00  0.00     0.060 A 
BRANCH  94  95
ATOM     95  S   UNL A   1      53.622  25.199  25.044  1.00  0.00     0.124 S 
ATOM     96  O   UNL A   1      54.542  25.872  25.956  1.00  0.00    -0.237 OA
ATOM     97  O   UNL A   1      53.475  23.760  25.241  1.00  0.00    -0.237 OA
ATOM     98  O   UNL A   1      53.690  25.631  23.652  1.00  0.00    -0.744 OA
ENDBRANCH  94  95
ENDBRANCH  62  87
ENDBRANCH  36  37
ENDBRANCH  28  31
ENDBRANCH  26  27
ENDBRANCH  25  26
ENDBRANCH  24  25
ENDBRANCH   1  24
TORSDOF 20
ENDMDL
MODEL 3
REMARK VINA RESULT:     -10.3      4.713     10.491
REMARK SMILES CC(C)[C@H](CO)NS(=O)(=O)c1ccc(C(=O)NCCCCNC(=O)c2ccc(-c3c4nc(c(-c5c(F)cc(S(=O)(=O)[O-])cc5F)c5ccc([nH]5)c(-c5c(F)cc(S(=O)(=O)[O-])cc5F)c5nc(c(-c6c(F)cc(S(=O)(=O)[O-])cc6F)c6ccc3[nH]6)C=C5)C=C4)cc2)cn1
REMARK SMILES IDX 18 1 17 2 15 3 16 4 14 6 11 7 12 8 92 9 13 10 91 11 8 12
REMARK SMILES IDX 9 13 10 14 7 15 4 17 2 18 1 19 3 20 5 21 6 22 19 24 20 25
REMARK SMILES IDX 21 26 22 27 23 28 24 30 25 31 26 32 90 33 27 34 89 35 28 36
REMARK SMILES IDX 29 37 30 38 83 39 31 40 88 41 82 42 84 43 32 44 87 45 81 46
REMARK SMILES IDX 80 47 33 49 67 50 46 51 66 52 47 53 50 54 65 55 85 56 48 57
REMARK SMILES IDX 49 58 64 60 86 61 51 62 34 63 35 64 44 65 36 66 37 67 43 68
REMARK SMILES IDX 45 69 38 70 39 71 40 72 41 73 42 74 68 75 69 76 78 77 70 78
REMARK SMILES IDX 71 79 77 80 79 81 72 82 73 83 74 84 75 85 76 86 52 87 53 88
REMARK SMILES IDX 62 89 54 90 55 91 61 92 63 93 56 94 57 95 58 96 59 97 60 98
REMARK H PARENT 17 5 7 16 6 23 22 29 84 48 50 59
REMARK Flexibility Score: inf
ROOT
ATOM      1  C   UNL A   1      36.974  21.579  24.784  1.00  0.00     0.116 C 
ENDROOT
BRANCH   1   2
ATOM      2  N   UNL A   1      35.777  21.313  25.560  1.00  0.00    -0.352 N 
ATOM      3  C   UNL A   1      34.491  21.774  25.452  1.00  0.00     0.252 C 
ATOM      4  O   UNL A   1      33.636  21.292  26.196  1.00  0.00    -0.269 OA
ATOM      5  H   UNL A   1      35.915  20.683  26.304  1.00  0.00     0.163 HD
BRANCH   3   6
ATOM      6  C   UNL A   1      34.064  22.789  24.459  1.00  0.00     0.058 A 
ATOM      7  C   UNL A   1      33.441  24.846  22.761  1.00  0.00     0.170 A 
ATOM      8  C   UNL A   1      33.076  23.560  22.393  1.00  0.00     0.043 A 
ATOM      9  N   UNL A   1      34.074  25.174  23.920  1.00  0.00    -0.243 NA
ATOM     10  C   UNL A   1      33.414  22.518  23.254  1.00  0.00     0.018 A 
ATOM     11  C   UNL A   1      34.392  24.123  24.723  1.00  0.00     0.126 A 
BRANCH   7  12
ATOM     12  S   UNL A   1      33.042  26.218  21.684  1.00  0.00     0.258 S 
ATOM     13  O   UNL A   1      32.937  25.685  20.338  1.00  0.00    -0.205 OA
ATOM     14  O   UNL A   1      33.956  27.294  21.987  1.00  0.00    -0.205 OA
BRANCH  12  15
ATOM     15  N   UNL A   1      31.514  26.732  22.158  1.00  0.00    -0.204 NA
ATOM     16  H   UNL A   1      31.195  27.380  21.438  1.00  0.00     0.141 HD
BRANCH  15  17
ATOM     17  C   UNL A   1      31.268  27.407  23.456  1.00  0.00     0.098 C 
BRANCH  17  18
ATOM     18  C   UNL A   1      30.195  26.694  24.314  1.00  0.00     0.003 C 
ATOM     19  C   UNL A   1      28.798  26.793  23.691  1.00  0.00     0.009 C 
ATOM     20  C   UNL A   1      30.506  25.222  24.608  1.00  0.00     0.009 C 
ENDBRANCH  17  18
BRANCH  17  21
ATOM     21  C   UNL A   1      30.927  28.880  23.124  1.00  0.00     0.176 C 
BRANCH  21  22
ATOM     22  O   UNL A   1      31.806  29.372  22.104  1.00  0.00    -0.395 OA
ATOM     23  H   UNL A   1      31.606  30.305  21.928  1.00  0.00     0.210 HD
ENDBRANCH  21  22
ENDBRANCH  17  21
ENDBRANCH  15  17
ENDBRANCH  12  15
ENDBRANCH   7  12
ENDBRANCH   3   6
ENDBRANCH   1   2
BRANCH   1  24
ATOM     24  C   UNL A   1      38.205  21.687  25.686  1.00  0.00     0.023 C 
BRANCH  24  25
ATOM     25  C   UNL A   1      38.548  23.115  26.124  1.00  0.00     0.023 C 
BRANCH  25  26
ATOM     26  C   UNL A   1      39.792  23.252  26.997  1.00  0.00     0.116 C 
BRANCH  26  27
ATOM     27  N   UNL A   1      41.000  23.552  26.241  1.00  0.00    -0.352 N 
ATOM     28  C   UNL A   1      41.762  24.697  26.265  1.00  0.00     0.251 C 
ATOM     29  H   UNL A   1      41.311  22.843  25.633  1.00  0.00     0.163 HD
ATOM     30  O   UNL A   1      42.704  24.827  25.491  1.00  0.00    -0.269 OA
BRANCH  28  31
ATOM     31  C   UNL A   1      41.404  25.782  27.201  1.00  0.00     0.039 A 
ATOM     32  C   UNL A   1      40.452  25.529  28.191  1.00  0.00     0.014 A 
ATOM     33  C   UNL A   1      42.054  27.017  27.139  1.00  0.00     0.014 A 
ATOM     34  C   UNL A   1      40.217  26.487  29.179  1.00  0.00     0.010 A 
ATOM     35  C   UNL A   1      41.861  27.947  28.157  1.00  0.00     0.010 A 
ATOM     36  C   UNL A   1      40.957  27.681  29.197  1.00  0.00    -0.014 A 
BRANCH  36  37
ATOM     37  C   UNL A   1      40.847  28.636  30.329  1.00  0.00     0.031 A 
ATOM     38  C   UNL A   1      41.728  28.493  31.537  1.00  0.00     0.074 A 
ATOM     39  C   UNL A   1      39.888  29.583  30.296  1.00  0.00     0.049 A 
ATOM     40  N   UNL A   1      41.717  29.178  32.650  1.00  0.00    -0.248 NA
ATOM     41  C   UNL A   1      42.737  27.422  31.498  1.00  0.00     0.031 C 
ATOM     42  C   UNL A   1      38.937  29.786  29.201  1.00  0.00     0.029 A 
ATOM     43  N   UNL A   1      39.542  30.541  31.215  1.00  0.00    -0.354 N 
ATOM     44  C   UNL A   1      42.707  28.620  33.450  1.00  0.00     0.074 A 
ATOM     45  C   UNL A   1      43.268  27.509  32.711  1.00  0.00     0.031 C 
ATOM     46  C   UNL A   1      38.127  30.813  29.505  1.00  0.00     0.029 A 
ATOM     47  C   UNL A   1      38.473  31.317  30.829  1.00  0.00     0.049 A 
ATOM     48  H   UNL A   1      40.014  30.663  32.071  1.00  0.00     0.167 HD
ATOM     49  C   UNL A   1      43.123  29.012  34.677  1.00  0.00     0.037 A 
ATOM     50  C   UNL A   1      37.835  32.312  31.474  1.00  0.00     0.037 A 
ATOM     51  C   UNL A   1      42.572  30.130  35.398  1.00  0.00     0.049 A 
ATOM     52  C   UNL A   1      38.310  32.723  32.840  1.00  0.00     0.074 A 
ATOM     53  C   UNL A   1      42.969  30.648  36.619  1.00  0.00     0.029 A 
ATOM     54  N   UNL A   1      41.499  30.900  34.969  1.00  0.00    -0.354 N 
ATOM     55  N   UNL A   1      39.295  32.229  33.552  1.00  0.00    -0.248 NA
ATOM     56  C   UNL A   1      37.589  33.825  33.492  1.00  0.00     0.031 C 
ATOM     57  C   UNL A   1      42.111  31.702  36.948  1.00  0.00     0.029 A 
ATOM     58  C   UNL A   1      41.205  31.871  35.913  1.00  0.00     0.049 A 
ATOM     59  H   UNL A   1      41.019  30.774  34.119  1.00  0.00     0.167 HD
ATOM     60  C   UNL A   1      39.323  32.970  34.728  1.00  0.00     0.074 A 
ATOM     61  C   UNL A   1      38.267  33.957  34.624  1.00  0.00     0.031 C 
ATOM     62  C   UNL A   1      40.147  32.844  35.797  1.00  0.00     0.037 A 
BRANCH  49  63
ATOM     63  C   UNL A   1      44.234  28.227  35.319  1.00  0.00     0.058 A 
ATOM     64  C   UNL A   1      43.970  27.127  36.150  1.00  0.00     0.135 A 
ATOM     65  C   UNL A   1      45.576  28.555  35.072  1.00  0.00     0.135 A 
ATOM     66  F   UNL A   1      42.705  26.779  36.431  1.00  0.00    -0.206 F 
ATOM     67  C   UNL A   1      44.999  26.395  36.737  1.00  0.00     0.059 A 
ATOM     68  C   UNL A   1      46.621  27.821  35.627  1.00  0.00     0.059 A 
ATOM     69  F   UNL A   1      45.884  29.598  34.286  1.00  0.00    -0.206 F 
ATOM     70  C   UNL A   1      46.321  26.752  36.470  1.00  0.00     0.060 A 
BRANCH  70  71
ATOM     71  S   UNL A   1      47.643  25.791  37.236  1.00  0.00     0.124 S 
ATOM     72  O   UNL A   1      48.613  25.713  36.146  1.00  0.00    -0.237 OA
ATOM     73  O   UNL A   1      48.027  26.630  38.366  1.00  0.00    -0.237 OA
ATOM     74  O   UNL A   1      46.991  24.533  37.585  1.00  0.00    -0.744 OA
ENDBRANCH  70  71
ENDBRANCH  49  63
BRANCH  50  75
ATOM     75  C   UNL A   1      36.686  32.999  30.827  1.00  0.00     0.058 A 
ATOM     76  C   UNL A   1      35.371  32.748  31.242  1.00  0.00     0.135 A 
ATOM     77  C   UNL A   1      36.880  33.930  29.795  1.00  0.00     0.135 A 
ATOM     78  F   UNL A   1      35.134  31.860  32.221  1.00  0.00    -0.206 F 
ATOM     79  C   UNL A   1      34.285  33.385  30.651  1.00  0.00     0.059 A 
ATOM     80  C   UNL A   1      35.812  34.599  29.203  1.00  0.00     0.059 A 
ATOM     81  F   UNL A   1      38.121  34.219  29.373  1.00  0.00    -0.206 F 
ATOM     82  C   UNL A   1      34.517  34.312  29.633  1.00  0.00     0.060 A 
BRANCH  82  83
ATOM     83  S   UNL A   1      33.105  35.175  28.909  1.00  0.00     0.124 S 
ATOM     84  O   UNL A   1      32.284  35.433  30.085  1.00  0.00    -0.237 OA
ATOM     85  O   UNL A   1      33.738  36.342  28.302  1.00  0.00    -0.237 OA
ATOM     86  O   UNL A   1      32.568  34.202  27.963  1.00  0.00    -0.744 OA
ENDBRANCH  82  83
ENDBRANCH  50  75
BRANCH  62  87
ATOM     87  C   UNL A   1      39.948  33.805  36.936  1.00  0.00     0.058 A 
ATOM     88  C   UNL A   1      40.572  35.061  36.953  1.00  0.00     0.135 A 
ATOM     89  C   UNL A   1      39.090  33.482  37.999  1.00  0.00     0.135 A 
ATOM     90  F   UNL A   1      41.409  35.414  35.965  1.00  0.00    -0.206 F 
ATOM     91  C   UNL A   1      40.367  35.959  37.996  1.00  0.00     0.059 A 
ATOM     92  C   UNL A   1      38.850  34.375  39.039  1.00  0.00     0.059 A 
ATOM     93  F   UNL A   1      38.461  32.297  38.025  1.00  0.00    -0.206 F 
ATOM     94  C   UNL A   1      39.502  35.607  39.034  1.00  0.00     0.060 A 
BRANCH  94  95
ATOM     95  S   UNL A   1      39.219  36.793  40.365  1.00  0.00     0.124 S 
ATOM     96  O   UNL A   1      38.331  36.041  41.245  1.00  0.00    -0.237 OA
ATOM     97  O   UNL A   1      40.568  37.024  40.872  1.00  0.00    -0.237 OA
ATOM     98  O   UNL A   1      38.611  37.930  39.682  1.00  0.00    -0.744 OA
ENDBRANCH  94  95
ENDBRANCH  62  87
ENDBRANCH  36  37
ENDBRANCH  28  31
ENDBRANCH  26  27
ENDBRANCH  25  26
ENDBRANCH  24  25
ENDBRANCH   1  24
TORSDOF 20
ENDMDL
