MODEL 1
REMARK VINA RESULT:     -11.4      0.000      0.000
REMARK SMILES CCCC[C@H](C(=O)NCCCCNC(=O)c1ccc(-c2c3nc(c(-c4c(F)cc(S(=O)(=O)[O-])cc4F)c4ccc([nH]4)c(-c4c(F)cc(S(=O)(=O)[O-])cc4F)c4nc(c(-c5c(F)cc(S(=O)(=O)[O-])cc5F)c5ccc2[nH]5)C=C4)C=C3)cc1)[C@](C)(O)c1ccc(Cl)c(Cl)c1
REMARK SMILES IDX 10 1 9 2 8 3 6 4 7 5 5 7 4 8 3 9 2 10 1 11 82 12 83 13 84 14
REMARK SMILES IDX 85 16 86 17 92 18 87 19 90 20 88 21 91 22 89 23 11 24 12 25
REMARK SMILES IDX 13 26 14 27 15 29 16 30 17 31 81 32 18 33 80 34 19 35 20 36
REMARK SMILES IDX 21 37 74 38 22 39 79 40 73 41 75 42 23 43 78 44 72 45 71 46
REMARK SMILES IDX 24 48 58 49 37 50 57 51 38 52 41 53 56 54 76 55 39 56 40 57
REMARK SMILES IDX 55 59 77 60 42 61 25 62 26 63 35 64 27 65 28 66 34 67 36 68
REMARK SMILES IDX 29 69 30 70 31 71 32 72 33 73 59 74 60 75 69 76 61 77 62 78
REMARK SMILES IDX 68 79 70 80 63 81 64 82 65 83 66 84 67 85 43 86 44 87 53 88
REMARK SMILES IDX 45 89 46 90 52 91 54 92 47 93 48 94 49 95 50 96 51 97
REMARK H PARENT 8 6 84 15 13 28 75 47 41 58
REMARK Flexibility Score: inf
ROOT
ATOM      1  C   UNL A   1      36.585  23.320  24.859  1.00  0.00     0.023 C 
ENDROOT
BRANCH   1   2
ATOM      2  C   UNL A   1      35.634  22.202  24.438  1.00  0.00     0.116 C 
BRANCH   2   3
ATOM      3  N   UNL A   1      34.661  22.600  23.441  1.00  0.00    -0.356 N 
ATOM      4  C   UNL A   1      33.336  22.326  23.333  1.00  0.00     0.226 C 
ATOM      5  O   UNL A   1      32.737  22.862  22.393  1.00  0.00    -0.275 OA
ATOM      6  H   UNL A   1      35.022  23.165  22.720  1.00  0.00     0.163 HD
BRANCH   4   7
ATOM      7  C   UNL A   1      32.555  21.432  24.302  1.00  0.00     0.114 C 
BRANCH   7   8
ATOM      8  C   UNL A   1      33.107  19.987  24.418  1.00  0.00     0.017 C 
BRANCH   8   9
ATOM      9  C   UNL A   1      32.585  18.953  23.403  1.00  0.00     0.001 C 
BRANCH   9  10
ATOM     10  C   UNL A   1      32.909  17.486  23.698  1.00  0.00    -0.003 C 
ATOM     11  C   UNL A   1      34.324  17.063  23.318  1.00  0.00     0.004 C 
ENDBRANCH   9  10
ENDBRANCH   8   9
ENDBRANCH   7   8
BRANCH   7  12
ATOM     12  C   UNL A   1      32.231  22.129  25.678  1.00  0.00     0.098 C 
ATOM     13  C   UNL A   1      33.269  21.743  26.755  1.00  0.00     0.048 C 
BRANCH  12  14
ATOM     14  O   UNL A   1      30.927  21.711  26.115  1.00  0.00    -0.385 OA
ATOM     15  H   UNL A   1      30.271  22.381  25.863  1.00  0.00     0.211 HD
ENDBRANCH  12  14
BRANCH  12  16
ATOM     16  C   UNL A   1      32.115  23.669  25.658  1.00  0.00    -0.014 A 
ATOM     17  C   UNL A   1      33.116  24.542  26.108  1.00  0.00     0.008 A 
ATOM     18  C   UNL A   1      30.928  24.256  25.158  1.00  0.00     0.028 A 
ATOM     19  C   UNL A   1      32.955  25.933  26.019  1.00  0.00     0.022 A 
ATOM     20  C   UNL A   1      30.754  25.642  25.088  1.00  0.00     0.060 A 
ATOM     21  C   UNL A   1      31.779  26.485  25.511  1.00  0.00     0.059 A 
ATOM     22  Cl  UNL A   1      29.251  26.236  24.475  1.00  0.00    -0.083 Cl
ATOM     23  Cl  UNL A   1      31.656  28.207  25.438  1.00  0.00    -0.083 Cl
ENDBRANCH  12  16
ENDBRANCH   7  12
ENDBRANCH   4   7
ENDBRANCH   2   3
ENDBRANCH   1   2
BRANCH   1  24
ATOM     24  C   UNL A   1      37.751  22.900  25.739  1.00  0.00     0.023 C 
BRANCH  24  25
ATOM     25  C   UNL A   1      38.482  24.065  26.378  1.00  0.00     0.116 C 
BRANCH  25  26
ATOM     26  N   UNL A   1      39.921  24.003  26.145  1.00  0.00    -0.352 N 
ATOM     27  C   UNL A   1      40.920  24.865  26.534  1.00  0.00     0.251 C 
ATOM     28  H   UNL A   1      40.224  23.222  25.629  1.00  0.00     0.163 HD
ATOM     29  O   UNL A   1      42.034  24.770  26.035  1.00  0.00    -0.269 OA
BRANCH  27  30
ATOM     30  C   UNL A   1      40.634  25.914  27.536  1.00  0.00     0.039 A 
ATOM     31  C   UNL A   1      39.641  25.698  28.493  1.00  0.00     0.014 A 
ATOM     32  C   UNL A   1      41.367  27.100  27.543  1.00  0.00     0.014 A 
ATOM     33  C   UNL A   1      39.448  26.641  29.503  1.00  0.00     0.010 A 
ATOM     34  C   UNL A   1      41.273  27.962  28.626  1.00  0.00     0.010 A 
ATOM     35  C   UNL A   1      40.299  27.755  29.609  1.00  0.00    -0.014 A 
BRANCH  35  36
ATOM     36  C   UNL A   1      40.180  28.716  30.736  1.00  0.00     0.031 A 
ATOM     37  C   UNL A   1      41.044  28.561  31.960  1.00  0.00     0.074 A 
ATOM     38  C   UNL A   1      39.248  29.687  30.679  1.00  0.00     0.049 A 
ATOM     39  N   UNL A   1      41.072  29.288  33.048  1.00  0.00    -0.248 NA
ATOM     40  C   UNL A   1      41.971  27.416  31.988  1.00  0.00     0.031 C 
ATOM     41  C   UNL A   1      38.290  29.879  29.585  1.00  0.00     0.029 A 
ATOM     42  N   UNL A   1      38.949  30.697  31.557  1.00  0.00    -0.354 N 
ATOM     43  C   UNL A   1      41.999  28.681  33.886  1.00  0.00     0.074 A 
ATOM     44  C   UNL A   1      42.456  27.484  33.218  1.00  0.00     0.031 C 
ATOM     45  C   UNL A   1      37.547  30.969  29.836  1.00  0.00     0.029 A 
ATOM     46  C   UNL A   1      37.944  31.528  31.122  1.00  0.00     0.049 A 
ATOM     47  H   UNL A   1      39.411  30.815  32.419  1.00  0.00     0.167 HD
ATOM     48  C   UNL A   1      42.456  29.101  35.090  1.00  0.00     0.037 A 
ATOM     49  C   UNL A   1      37.407  32.623  31.694  1.00  0.00     0.037 A 
ATOM     50  C   UNL A   1      42.016  30.312  35.731  1.00  0.00     0.049 A 
ATOM     51  C   UNL A   1      37.957  33.095  33.011  1.00  0.00     0.074 A 
ATOM     52  C   UNL A   1      42.465  30.874  36.912  1.00  0.00     0.029 A 
ATOM     53  N   UNL A   1      41.020  31.147  35.244  1.00  0.00    -0.354 N 
ATOM     54  N   UNL A   1      38.899  32.557  33.751  1.00  0.00    -0.248 NA
ATOM     55  C   UNL A   1      37.383  34.326  33.565  1.00  0.00     0.031 C 
ATOM     56  C   UNL A   1      41.704  32.019  37.167  1.00  0.00     0.029 A 
ATOM     57  C   UNL A   1      40.823  32.206  36.113  1.00  0.00     0.049 A 
ATOM     58  H   UNL A   1      40.528  31.007  34.403  1.00  0.00     0.167 HD
ATOM     59  C   UNL A   1      39.047  33.398  34.848  1.00  0.00     0.074 A 
ATOM     60  C   UNL A   1      38.112  34.489  34.661  1.00  0.00     0.031 C 
ATOM     61  C   UNL A   1      39.879  33.278  35.914  1.00  0.00     0.037 A 
BRANCH  48  62
ATOM     62  C   UNL A   1      43.486  28.247  35.782  1.00  0.00     0.058 A 
ATOM     63  C   UNL A   1      44.862  28.402  35.544  1.00  0.00     0.135 A 
ATOM     64  C   UNL A   1      43.094  27.269  36.711  1.00  0.00     0.135 A 
ATOM     65  F   UNL A   1      45.297  29.308  34.653  1.00  0.00    -0.206 F 
ATOM     66  C   UNL A   1      45.807  27.595  36.169  1.00  0.00     0.059 A 
ATOM     67  C   UNL A   1      44.024  26.474  37.374  1.00  0.00     0.059 A 
ATOM     68  F   UNL A   1      41.793  27.073  36.979  1.00  0.00    -0.206 F 
ATOM     69  C   UNL A   1      45.378  26.633  37.083  1.00  0.00     0.060 A 
BRANCH  69  70
ATOM     70  S   UNL A   1      46.618  25.596  37.887  1.00  0.00     0.124 S 
ATOM     71  O   UNL A   1      45.777  24.632  38.591  1.00  0.00    -0.237 OA
ATOM     72  O   UNL A   1      47.369  25.071  36.751  1.00  0.00    -0.237 OA
ATOM     73  O   UNL A   1      47.345  26.532  38.739  1.00  0.00    -0.744 OA
ENDBRANCH  69  70
ENDBRANCH  48  62
BRANCH  49  74
ATOM     74  C   UNL A   1      36.319  33.363  30.999  1.00  0.00     0.058 A 
ATOM     75  C   UNL A   1      35.000  33.335  31.478  1.00  0.00     0.135 A 
ATOM     76  C   UNL A   1      36.582  34.143  29.861  1.00  0.00     0.135 A 
ATOM     77  F   UNL A   1      34.697  32.602  32.560  1.00  0.00    -0.206 F 
ATOM     78  C   UNL A   1      33.980  34.041  30.850  1.00  0.00     0.059 A 
ATOM     79  C   UNL A   1      35.583  34.880  29.232  1.00  0.00     0.059 A 
ATOM     80  F   UNL A   1      37.830  34.220  29.374  1.00  0.00    -0.206 F 
ATOM     81  C   UNL A   1      34.283  34.817  29.729  1.00  0.00     0.060 A 
BRANCH  81  82
ATOM     82  S   UNL A   1      32.963  35.782  28.961  1.00  0.00     0.124 S 
ATOM     83  O   UNL A   1      33.719  36.838  28.298  1.00  0.00    -0.237 OA
ATOM     84  O   UNL A   1      32.335  34.797  28.086  1.00  0.00    -0.237 OA
ATOM     85  O   UNL A   1      32.153  36.205  30.099  1.00  0.00    -0.744 OA
ENDBRANCH  81  82
ENDBRANCH  49  74
BRANCH  61  86
ATOM     86  C   UNL A   1      39.829  34.372  36.945  1.00  0.00     0.058 A 
ATOM     87  C   UNL A   1      40.620  35.528  36.838  1.00  0.00     0.135 A 
ATOM     88  C   UNL A   1      38.962  34.271  38.047  1.00  0.00     0.135 A 
ATOM     89  F   UNL A   1      41.466  35.674  35.806  1.00  0.00    -0.206 F 
ATOM     90  C   UNL A   1      40.589  36.521  37.811  1.00  0.00     0.059 A 
ATOM     91  C   UNL A   1      38.890  35.269  39.012  1.00  0.00     0.059 A 
ATOM     92  F   UNL A   1      38.171  33.195  38.189  1.00  0.00    -0.206 F 
ATOM     93  C   UNL A   1      39.723  36.381  38.897  1.00  0.00     0.060 A 
BRANCH  93  94
ATOM     94  S   UNL A   1      39.696  37.673  40.155  1.00  0.00     0.124 S 
ATOM     95  O   UNL A   1      39.179  36.946  41.309  1.00  0.00    -0.237 OA
ATOM     96  O   UNL A   1      41.099  38.066  40.229  1.00  0.00    -0.237 OA
ATOM     97  O   UNL A   1      38.799  38.677  39.591  1.00  0.00    -0.744 OA
ENDBRANCH  93  94
ENDBRANCH  61  86
ENDBRANCH  35  36
ENDBRANCH  27  30
ENDBRANCH  25  26
ENDBRANCH  24  25
ENDBRANCH   1  24
TORSDOF 20
ENDMDL
MODEL 2
REMARK VINA RESULT:     -11.4      3.567      9.575
REMARK SMILES CCCC[C@H](C(=O)NCCCCNC(=O)c1ccc(-c2c3nc(c(-c4c(F)cc(S(=O)(=O)[O-])cc4F)c4ccc([nH]4)c(-c4c(F)cc(S(=O)(=O)[O-])cc4F)c4nc(c(-c5c(F)cc(S(=O)(=O)[O-])cc5F)c5ccc2[nH]5)C=C4)C=C3)cc1)[C@](C)(O)c1ccc(Cl)c(Cl)c1
REMARK SMILES IDX 10 1 9 2 8 3 6 4 7 5 5 7 4 8 3 9 2 10 1 11 82 12 83 13 84 14
REMARK SMILES IDX 85 16 86 17 92 18 87 19 90 20 88 21 91 22 89 23 11 24 12 25
REMARK SMILES IDX 13 26 14 27 15 29 16 30 17 31 81 32 18 33 80 34 19 35 20 36
REMARK SMILES IDX 21 37 74 38 22 39 79 40 73 41 75 42 23 43 78 44 72 45 71 46
REMARK SMILES IDX 24 48 58 49 37 50 57 51 38 52 41 53 56 54 76 55 39 56 40 57
REMARK SMILES IDX 55 59 77 60 42 61 25 62 26 63 35 64 27 65 28 66 34 67 36 68
REMARK SMILES IDX 29 69 30 70 31 71 32 72 33 73 59 74 60 75 69 76 61 77 62 78
REMARK SMILES IDX 68 79 70 80 63 81 64 82 65 83 66 84 67 85 43 86 44 87 53 88
REMARK SMILES IDX 45 89 46 90 52 91 54 92 47 93 48 94 49 95 50 96 51 97
REMARK H PARENT 8 6 84 15 13 28 75 47 41 58
REMARK Flexibility Score: inf
ROOT
ATOM      1  C   UNL A   1      31.662  27.568  26.091  1.00  0.00     0.023 C 
ENDROOT
BRANCH   1   2
ATOM      2  C   UNL A   1      30.883  26.331  25.647  1.00  0.00     0.116 C 
BRANCH   2   3
ATOM      3  N   UNL A   1      31.000  25.205  26.551  1.00  0.00    -0.356 N 
ATOM      4  C   UNL A   1      31.897  24.188  26.591  1.00  0.00     0.226 C 
ATOM      5  O   UNL A   1      31.784  23.390  27.529  1.00  0.00    -0.275 OA
ATOM      6  H   UNL A   1      30.312  25.172  27.254  1.00  0.00     0.163 HD
BRANCH   4   7
ATOM      7  C   UNL A   1      33.031  23.993  25.578  1.00  0.00     0.114 C 
BRANCH   7   8
ATOM      8  C   UNL A   1      34.410  23.689  26.219  1.00  0.00     0.017 C 
BRANCH   8   9
ATOM      9  C   UNL A   1      35.631  24.430  25.642  1.00  0.00     0.001 C 
BRANCH   9  10
ATOM     10  C   UNL A   1      36.908  23.605  25.468  1.00  0.00    -0.003 C 
ATOM     11  C   UNL A   1      38.065  24.035  26.362  1.00  0.00     0.004 C 
ENDBRANCH   9  10
ENDBRANCH   8   9
ENDBRANCH   7   8
BRANCH   7  12
ATOM     12  C   UNL A   1      32.641  23.058  24.371  1.00  0.00     0.098 C 
ATOM     13  C   UNL A   1      33.190  23.615  23.038  1.00  0.00     0.048 C 
BRANCH  12  14
ATOM     14  O   UNL A   1      31.208  22.978  24.288  1.00  0.00    -0.385 OA
ATOM     15  H   UNL A   1      30.958  22.284  23.657  1.00  0.00     0.211 HD
ENDBRANCH  12  14
BRANCH  12  16
ATOM     16  C   UNL A   1      33.067  21.578  24.481  1.00  0.00    -0.014 A 
ATOM     17  C   UNL A   1      32.177  20.495  24.463  1.00  0.00     0.008 A 
ATOM     18  C   UNL A   1      34.444  21.275  24.611  1.00  0.00     0.028 A 
ATOM     19  C   UNL A   1      32.644  19.174  24.525  1.00  0.00     0.022 A 
ATOM     20  C   UNL A   1      34.913  19.960  24.697  1.00  0.00     0.060 A 
ATOM     21  C   UNL A   1      34.008  18.903  24.642  1.00  0.00     0.059 A 
ATOM     22  Cl  UNL A   1      36.616  19.721  24.873  1.00  0.00    -0.083 Cl
ATOM     23  Cl  UNL A   1      34.504  17.250  24.717  1.00  0.00    -0.083 Cl
ENDBRANCH  12  16
ENDBRANCH   7  12
ENDBRANCH   4   7
ENDBRANCH   2   3
ENDBRANCH   1   2
BRANCH   1  24
ATOM     24  C   UNL A   1      32.791  28.004  25.171  1.00  0.00     0.023 C 
BRANCH  24  25
ATOM     25  C   UNL A   1      34.001  28.544  25.908  1.00  0.00     0.116 C 
BRANCH  25  26
ATOM     26  N   UNL A   1      33.802  29.918  26.355  1.00  0.00    -0.352 N 
ATOM     27  C   UNL A   1      34.453  30.637  27.331  1.00  0.00     0.251 C 
ATOM     28  H   UNL A   1      33.091  30.409  25.884  1.00  0.00     0.163 HD
ATOM     29  O   UNL A   1      33.980  31.695  27.725  1.00  0.00    -0.269 OA
BRANCH  27  30
ATOM     30  C   UNL A   1      35.708  30.113  27.911  1.00  0.00     0.039 A 
ATOM     31  C   UNL A   1      36.922  30.369  27.271  1.00  0.00     0.014 A 
ATOM     32  C   UNL A   1      35.685  29.389  29.104  1.00  0.00     0.014 A 
ATOM     33  C   UNL A   1      38.113  29.969  27.878  1.00  0.00     0.010 A 
ATOM     34  C   UNL A   1      36.870  29.122  29.771  1.00  0.00     0.010 A 
ATOM     35  C   UNL A   1      38.100  29.390  29.159  1.00  0.00    -0.014 A 
BRANCH  35  36
ATOM     36  C   UNL A   1      39.360  29.052  29.868  1.00  0.00     0.031 A 
ATOM     37  C   UNL A   1      39.755  29.802  31.114  1.00  0.00     0.074 A 
ATOM     38  C   UNL A   1      40.177  28.113  29.351  1.00  0.00     0.049 A 
ATOM     39  N   UNL A   1      40.822  29.660  31.858  1.00  0.00    -0.248 NA
ATOM     40  C   UNL A   1      38.857  30.880  31.562  1.00  0.00     0.031 C 
ATOM     41  C   UNL A   1      39.946  27.385  28.099  1.00  0.00     0.029 A 
ATOM     42  N   UNL A   1      41.367  27.607  29.809  1.00  0.00    -0.354 N 
ATOM     43  C   UNL A   1      40.729  30.636  32.844  1.00  0.00     0.074 A 
ATOM     44  C   UNL A   1      39.545  31.413  32.560  1.00  0.00     0.031 C 
ATOM     45  C   UNL A   1      40.933  26.495  27.917  1.00  0.00     0.029 A 
ATOM     46  C   UNL A   1      41.888  26.614  29.014  1.00  0.00     0.049 A 
ATOM     47  H   UNL A   1      41.806  27.925  30.631  1.00  0.00     0.167 HD
ATOM     48  C   UNL A   1      41.537  30.844  33.910  1.00  0.00     0.037 A 
ATOM     49  C   UNL A   1      43.007  25.878  29.154  1.00  0.00     0.037 A 
ATOM     50  C   UNL A   1      42.697  30.042  34.199  1.00  0.00     0.049 A 
ATOM     51  C   UNL A   1      43.868  26.098  30.367  1.00  0.00     0.074 A 
ATOM     52  C   UNL A   1      43.544  30.115  35.290  1.00  0.00     0.029 A 
ATOM     53  N   UNL A   1      43.175  29.023  33.388  1.00  0.00    -0.354 N 
ATOM     54  N   UNL A   1      43.717  26.968  31.339  1.00  0.00    -0.248 NA
ATOM     55  C   UNL A   1      45.044  25.231  30.509  1.00  0.00     0.031 C 
ATOM     56  C   UNL A   1      44.565  29.175  35.112  1.00  0.00     0.029 A 
ATOM     57  C   UNL A   1      44.319  28.475  33.941  1.00  0.00     0.049 A 
ATOM     58  H   UNL A   1      42.761  28.732  32.544  1.00  0.00     0.167 HD
ATOM     59  C   UNL A   1      44.766  26.737  32.222  1.00  0.00     0.074 A 
ATOM     60  C   UNL A   1      45.529  25.632  31.677  1.00  0.00     0.031 C 
ATOM     61  C   UNL A   1      45.072  27.381  33.377  1.00  0.00     0.037 A 
BRANCH  48  62
ATOM     62  C   UNL A   1      41.189  31.977  34.839  1.00  0.00     0.058 A 
ATOM     63  C   UNL A   1      41.728  33.265  34.676  1.00  0.00     0.135 A 
ATOM     64  C   UNL A   1      40.289  31.780  35.899  1.00  0.00     0.135 A 
ATOM     65  F   UNL A   1      42.608  33.511  33.691  1.00  0.00    -0.206 F 
ATOM     66  C   UNL A   1      41.420  34.302  35.551  1.00  0.00     0.059 A 
ATOM     67  C   UNL A   1      39.940  32.812  36.766  1.00  0.00     0.059 A 
ATOM     68  F   UNL A   1      39.742  30.571  36.106  1.00  0.00    -0.206 F 
ATOM     69  C   UNL A   1      40.525  34.066  36.593  1.00  0.00     0.060 A 
BRANCH  69  70
ATOM     70  S   UNL A   1      40.135  35.423  37.718  1.00  0.00     0.124 S 
ATOM     71  O   UNL A   1      39.914  36.521  36.781  1.00  0.00    -0.237 OA
ATOM     72  O   UNL A   1      38.946  34.927  38.404  1.00  0.00    -0.237 OA
ATOM     73  O   UNL A   1      41.332  35.536  38.544  1.00  0.00    -0.744 OA
ENDBRANCH  69  70
ENDBRANCH  48  62
BRANCH  49  74
ATOM     74  C   UNL A   1      43.344  24.842  28.142  1.00  0.00     0.058 A 
ATOM     75  C   UNL A   1      44.102  25.159  27.003  1.00  0.00     0.135 A 
ATOM     76  C   UNL A   1      42.947  23.506  28.309  1.00  0.00     0.135 A 
ATOM     77  F   UNL A   1      44.503  26.422  26.796  1.00  0.00    -0.206 F 
ATOM     78  C   UNL A   1      44.442  24.193  26.062  1.00  0.00     0.059 A 
ATOM     79  C   UNL A   1      43.299  22.517  27.395  1.00  0.00     0.059 A 
ATOM     80  F   UNL A   1      42.239  23.146  29.390  1.00  0.00    -0.206 F 
ATOM     81  C   UNL A   1      44.042  22.872  26.270  1.00  0.00     0.060 A 
BRANCH  81  82
ATOM     82  S   UNL A   1      44.546  21.616  25.074  1.00  0.00     0.124 S 
ATOM     83  O   UNL A   1      44.403  22.336  23.814  1.00  0.00    -0.237 OA
ATOM     84  O   UNL A   1      45.913  21.325  25.494  1.00  0.00    -0.237 OA
ATOM     85  O   UNL A   1      43.587  20.538  25.297  1.00  0.00    -0.744 OA
ENDBRANCH  81  82
ENDBRANCH  49  74
BRANCH  61  86
ATOM     86  C   UNL A   1      46.270  26.884  34.139  1.00  0.00     0.058 A 
ATOM     87  C   UNL A   1      46.160  25.897  35.131  1.00  0.00     0.135 A 
ATOM     88  C   UNL A   1      47.550  27.391  33.858  1.00  0.00     0.135 A 
ATOM     89  F   UNL A   1      44.960  25.380  35.440  1.00  0.00    -0.206 F 
ATOM     90  C   UNL A   1      47.268  25.464  35.850  1.00  0.00     0.059 A 
ATOM     91  C   UNL A   1      48.677  26.948  34.541  1.00  0.00     0.059 A 
ATOM     92  F   UNL A   1      47.715  28.325  32.907  1.00  0.00    -0.206 F 
ATOM     93  C   UNL A   1      48.523  25.999  35.551  1.00  0.00     0.060 A 
BRANCH  93  94
ATOM     94  S   UNL A   1      49.952  25.434  36.495  1.00  0.00     0.124 S 
ATOM     95  O   UNL A   1      50.121  26.524  37.450  1.00  0.00    -0.237 OA
ATOM     96  O   UNL A   1      49.479  24.171  37.053  1.00  0.00    -0.237 OA
ATOM     97  O   UNL A   1      51.000  25.314  35.486  1.00  0.00    -0.744 OA
ENDBRANCH  93  94
ENDBRANCH  61  86
ENDBRANCH  35  36
ENDBRANCH  27  30
ENDBRANCH  25  26
ENDBRANCH  24  25
ENDBRANCH   1  24
TORSDOF 20
ENDMDL
MODEL 3
REMARK VINA RESULT:     -11.2      4.808     10.347
REMARK SMILES CCCC[C@H](C(=O)NCCCCNC(=O)c1ccc(-c2c3nc(c(-c4c(F)cc(S(=O)(=O)[O-])cc4F)c4ccc([nH]4)c(-c4c(F)cc(S(=O)(=O)[O-])cc4F)c4nc(c(-c5c(F)cc(S(=O)(=O)[O-])cc5F)c5ccc2[nH]5)C=C4)C=C3)cc1)[C@](C)(O)c1ccc(Cl)c(Cl)c1
REMARK SMILES IDX 10 1 9 2 8 3 6 4 7 5 5 7 4 8 3 9 2 10 1 11 82 12 83 13 84 14
REMARK SMILES IDX 85 16 86 17 92 18 87 19 90 20 88 21 91 22 89 23 11 24 12 25
REMARK SMILES IDX 13 26 14 27 15 29 16 30 17 31 81 32 18 33 80 34 19 35 20 36
REMARK SMILES IDX 21 37 74 38 22 39 79 40 73 41 75 42 23 43 78 44 72 45 71 46
REMARK SMILES IDX 24 48 58 49 37 50 57 51 38 52 41 53 56 54 76 55 39 56 40 57
REMARK SMILES IDX 55 59 77 60 42 61 25 62 26 63 35 64 27 65 28 66 34 67 36 68
REMARK SMILES IDX 29 69 30 70 31 71 32 72 33 73 59 74 60 75 69 76 61 77 62 78
REMARK SMILES IDX 68 79 70 80 63 81 64 82 65 83 66 84 67 85 43 86 44 87 53 88
REMARK SMILES IDX 45 89 46 90 52 91 54 92 47 93 48 94 49 95 50 96 51 97
REMARK H PARENT 8 6 84 15 13 28 75 47 41 58
REMARK Flexibility Score: inf
ROOT
ATOM      1  C   UNL A   1      31.757  26.599  26.641  1.00  0.00     0.023 C 
ENDROOT
BRANCH   1   2
ATOM      2  C   UNL A   1      32.755  25.454  26.482  1.00  0.00     0.116 C 
BRANCH   2   3
ATOM      3  N   UNL A   1      32.141  24.145  26.393  1.00  0.00    -0.356 N 
ATOM      4  C   UNL A   1      32.431  23.079  25.605  1.00  0.00     0.226 C 
ATOM      5  O   UNL A   1      31.764  22.055  25.795  1.00  0.00    -0.275 OA
ATOM      6  H   UNL A   1      31.385  24.006  27.008  1.00  0.00     0.163 HD
BRANCH   4   7
ATOM      7  C   UNL A   1      33.530  23.066  24.537  1.00  0.00     0.114 C 
BRANCH   7   8
ATOM      8  C   UNL A   1      34.434  21.807  24.572  1.00  0.00     0.017 C 
BRANCH   8   9
ATOM      9  C   UNL A   1      35.900  22.007  25.000  1.00  0.00     0.001 C 
BRANCH   9  10
ATOM     10  C   UNL A   1      36.487  23.404  24.786  1.00  0.00    -0.003 C 
ATOM     11  C   UNL A   1      37.540  23.811  25.810  1.00  0.00     0.004 C 
ENDBRANCH   9  10
ENDBRANCH   8   9
ENDBRANCH   7   8
BRANCH   7  12
ATOM     12  C   UNL A   1      33.018  23.474  23.103  1.00  0.00     0.098 C 
ATOM     13  C   UNL A   1      31.956  22.476  22.588  1.00  0.00     0.048 C 
BRANCH  12  14
ATOM     14  O   UNL A   1      34.132  23.480  22.196  1.00  0.00    -0.385 OA
ATOM     15  H   UNL A   1      34.960  23.491  22.700  1.00  0.00     0.211 HD
ENDBRANCH  12  14
BRANCH  12  16
ATOM     16  C   UNL A   1      32.441  24.899  22.959  1.00  0.00    -0.014 A 
ATOM     17  C   UNL A   1      33.168  26.002  22.488  1.00  0.00     0.008 A 
ATOM     18  C   UNL A   1      31.092  25.128  23.323  1.00  0.00     0.028 A 
ATOM     19  C   UNL A   1      32.563  27.259  22.345  1.00  0.00     0.022 A 
ATOM     20  C   UNL A   1      30.491  26.385  23.203  1.00  0.00     0.060 A 
ATOM     21  C   UNL A   1      31.228  27.454  22.700  1.00  0.00     0.059 A 
ATOM     22  Cl  UNL A   1      28.842  26.540  23.698  1.00  0.00    -0.083 Cl
ATOM     23  Cl  UNL A   1      30.556  29.033  22.498  1.00  0.00    -0.083 Cl
ENDBRANCH  12  16
ENDBRANCH   7  12
ENDBRANCH   4   7
ENDBRANCH   2   3
ENDBRANCH   1   2
BRANCH   1  24
ATOM     24  C   UNL A   1      32.279  27.984  26.296  1.00  0.00     0.023 C 
BRANCH  24  25
ATOM     25  C   UNL A   1      33.524  28.376  27.069  1.00  0.00     0.116 C 
BRANCH  25  26
ATOM     26  N   UNL A   1      33.495  29.774  27.483  1.00  0.00    -0.352 N 
ATOM     27  C   UNL A   1      34.436  30.521  28.153  1.00  0.00     0.251 C 
ATOM     28  H   UNL A   1      32.673  30.259  27.245  1.00  0.00     0.163 HD
ATOM     29  O   UNL A   1      34.128  31.608  28.623  1.00  0.00    -0.269 OA
BRANCH  27  30
ATOM     30  C   UNL A   1      35.808  29.993  28.318  1.00  0.00     0.039 A 
ATOM     31  C   UNL A   1      36.716  30.098  27.264  1.00  0.00     0.014 A 
ATOM     32  C   UNL A   1      36.200  29.417  29.526  1.00  0.00     0.014 A 
ATOM     33  C   UNL A   1      38.039  29.699  27.459  1.00  0.00     0.010 A 
ATOM     34  C   UNL A   1      37.542  29.157  29.762  1.00  0.00     0.010 A 
ATOM     35  C   UNL A   1      38.475  29.276  28.727  1.00  0.00    -0.014 A 
BRANCH  35  36
ATOM     36  C   UNL A   1      39.901  28.947  28.985  1.00  0.00     0.031 A 
ATOM     37  C   UNL A   1      40.821  29.977  29.586  1.00  0.00     0.074 A 
ATOM     38  C   UNL A   1      40.377  27.741  28.616  1.00  0.00     0.049 A 
ATOM     39  N   UNL A   1      42.095  29.880  29.868  1.00  0.00    -0.248 NA
ATOM     40  C   UNL A   1      40.249  31.304  29.871  1.00  0.00     0.031 C 
ATOM     41  C   UNL A   1      39.603  26.695  27.940  1.00  0.00     0.029 A 
ATOM     42  N   UNL A   1      41.623  27.187  28.757  1.00  0.00    -0.354 N 
ATOM     43  C   UNL A   1      42.474  31.130  30.344  1.00  0.00     0.074 A 
ATOM     44  C   UNL A   1      41.319  31.991  30.241  1.00  0.00     0.031 C 
ATOM     45  C   UNL A   1      40.378  25.612  27.771  1.00  0.00     0.029 A 
ATOM     46  C   UNL A   1      41.711  25.898  28.287  1.00  0.00     0.049 A 
ATOM     47  H   UNL A   1      42.384  27.668  29.157  1.00  0.00     0.167 HD
ATOM     48  C   UNL A   1      43.667  31.517  30.854  1.00  0.00     0.037 A 
ATOM     49  C   UNL A   1      42.749  25.040  28.278  1.00  0.00     0.037 A 
ATOM     50  C   UNL A   1      44.802  30.640  30.981  1.00  0.00     0.049 A 
ATOM     51  C   UNL A   1      44.053  25.476  28.887  1.00  0.00     0.074 A 
ATOM     52  C   UNL A   1      46.034  30.903  31.551  1.00  0.00     0.029 A 
ATOM     53  N   UNL A   1      44.843  29.330  30.524  1.00  0.00    -0.354 N 
ATOM     54  N   UNL A   1      44.369  26.636  29.415  1.00  0.00    -0.248 NA
ATOM     55  C   UNL A   1      45.136  24.486  28.910  1.00  0.00     0.031 C 
ATOM     56  C   UNL A   1      46.838  29.769  31.392  1.00  0.00     0.029 A 
ATOM     57  C   UNL A   1      46.087  28.779  30.778  1.00  0.00     0.049 A 
ATOM     58  H   UNL A   1      44.096  28.862  30.086  1.00  0.00     0.167 HD
ATOM     59  C   UNL A   1      45.681  26.508  29.855  1.00  0.00     0.074 A 
ATOM     60  C   UNL A   1      46.089  25.151  29.549  1.00  0.00     0.031 C 
ATOM     61  C   UNL A   1      46.477  27.428  30.456  1.00  0.00     0.037 A 
BRANCH  48  62
ATOM     62  C   UNL A   1      43.799  32.945  31.316  1.00  0.00     0.058 A 
ATOM     63  C   UNL A   1      43.483  33.333  32.629  1.00  0.00     0.135 A 
ATOM     64  C   UNL A   1      44.263  33.938  30.439  1.00  0.00     0.135 A 
ATOM     65  F   UNL A   1      43.017  32.430  33.509  1.00  0.00    -0.206 F 
ATOM     66  C   UNL A   1      43.585  34.657  33.044  1.00  0.00     0.059 A 
ATOM     67  C   UNL A   1      44.406  35.263  30.843  1.00  0.00     0.059 A 
ATOM     68  F   UNL A   1      44.579  33.629  29.172  1.00  0.00    -0.206 F 
ATOM     69  C   UNL A   1      44.047  35.615  32.143  1.00  0.00     0.060 A 
BRANCH  69  70
ATOM     70  S   UNL A   1      44.176  37.328  32.699  1.00  0.00     0.124 S 
ATOM     71  O   UNL A   1      44.032  38.053  31.439  1.00  0.00    -0.237 OA
ATOM     72  O   UNL A   1      43.053  37.440  33.625  1.00  0.00    -0.237 OA
ATOM     73  O   UNL A   1      45.499  37.390  33.310  1.00  0.00    -0.744 OA
ENDBRANCH  69  70
ENDBRANCH  48  62
BRANCH  49  74
ATOM     74  C   UNL A   1      42.576  23.675  27.712  1.00  0.00     0.058 A 
ATOM     75  C   UNL A   1      42.638  23.450  26.328  1.00  0.00     0.135 A 
ATOM     76  C   UNL A   1      42.383  22.561  28.545  1.00  0.00     0.135 A 
ATOM     77  F   UNL A   1      42.817  24.481  25.489  1.00  0.00    -0.206 F 
ATOM     78  C   UNL A   1      42.500  22.175  25.789  1.00  0.00     0.059 A 
ATOM     79  C   UNL A   1      42.271  21.273  28.031  1.00  0.00     0.059 A 
ATOM     80  F   UNL A   1      42.338  22.718  29.877  1.00  0.00    -0.206 F 
ATOM     81  C   UNL A   1      42.324  21.090  26.651  1.00  0.00     0.060 A 
BRANCH  81  82
ATOM     82  S   UNL A   1      42.213  19.432  25.943  1.00  0.00     0.124 S 
ATOM     83  O   UNL A   1      42.725  18.611  27.035  1.00  0.00    -0.237 OA
ATOM     84  O   UNL A   1      40.785  19.312  25.668  1.00  0.00    -0.237 OA
ATOM     85  O   UNL A   1      43.067  19.514  24.762  1.00  0.00    -0.744 OA
ENDBRANCH  81  82
ENDBRANCH  49  74
BRANCH  61  86
ATOM     86  C   UNL A   1      47.861  26.985  30.844  1.00  0.00     0.058 A 
ATOM     87  C   UNL A   1      48.114  26.319  32.054  1.00  0.00     0.135 A 
ATOM     88  C   UNL A   1      48.948  27.213  29.982  1.00  0.00     0.135 A 
ATOM     89  F   UNL A   1      47.112  26.078  32.914  1.00  0.00    -0.206 F 
ATOM     90  C   UNL A   1      49.401  25.938  32.418  1.00  0.00     0.059 A 
ATOM     91  C   UNL A   1      50.237  26.809  30.311  1.00  0.00     0.059 A 
ATOM     92  F   UNL A   1      48.760  27.830  28.805  1.00  0.00    -0.206 F 
ATOM     93  C   UNL A   1      50.457  26.191  31.541  1.00  0.00     0.060 A 
BRANCH  93  94
ATOM     94  S   UNL A   1      52.123  25.697  32.027  1.00  0.00     0.124 S 
ATOM     95  O   UNL A   1      52.463  26.734  32.996  1.00  0.00    -0.237 OA
ATOM     96  O   UNL A   1      51.905  24.363  32.576  1.00  0.00    -0.237 OA
ATOM     97  O   UNL A   1      52.869  25.739  30.773  1.00  0.00    -0.744 OA
ENDBRANCH  93  94
ENDBRANCH  61  86
ENDBRANCH  35  36
ENDBRANCH  27  30
ENDBRANCH  25  26
ENDBRANCH  24  25
ENDBRANCH   1  24
TORSDOF 20
ENDMDL
