MODEL 1
REMARK VINA RESULT:     -12.7      0.000      0.000
REMARK SMILES C[N@@H+]1CCN(C(=O)c2cnn3c2CCCC3)C[C@@H]1C(=O)NCCCCNC(=O)c1ccc(-c2c3nc(c(-c4c(F)cc(S(=O)(=O)[O-])cc4F)c4ccc([nH]4)c(-c4c(F)cc(S(=O)(=O)[O-])cc4F)c4nc(c(-c5c(F)cc(S(=O)(=O)[O-])cc5F)c5ccc2[nH]5)C=C4)C=C3)cc1
REMARK SMILES IDX 24 1 23 2 22 3 21 4 19 5 20 6 18 8 1 9 2 10 3 11 4 13 17 14
REMARK SMILES IDX 5 15 6 16 7 17 8 18 9 19 12 20 10 21 11 22 13 23 16 24 14 25
REMARK SMILES IDX 15 26 25 27 26 28 27 29 28 31 29 32 30 33 94 34 31 35 93 36
REMARK SMILES IDX 32 37 33 38 34 39 87 40 35 41 92 42 86 43 88 44 36 45 91 46
REMARK SMILES IDX 85 47 84 48 37 50 71 51 50 52 70 53 51 54 54 55 69 56 89 57
REMARK SMILES IDX 52 58 53 59 68 61 90 62 55 63 38 64 39 65 48 66 40 67 41 68
REMARK SMILES IDX 47 69 49 70 42 71 43 72 44 73 45 74 46 75 72 76 73 77 82 78
REMARK SMILES IDX 74 79 75 80 81 81 83 82 76 83 77 84 78 85 79 86 80 87 56 88
REMARK SMILES IDX 57 89 66 90 58 91 59 92 65 93 67 94 60 95 61 96 62 97 63 98
REMARK SMILES IDX 64 99
REMARK H PARENT 21 7 2 12 26 30 88 49 54 60
REMARK Flexibility Score: inf
ROOT
ATOM      1  C   UNL A   1      39.585  22.230  26.389  1.00  0.00     0.023 C 
ENDROOT
BRANCH   1   2
ATOM      2  C   UNL A   1      39.113  23.681  26.551  1.00  0.00     0.023 C 
BRANCH   2   3
ATOM      3  C   UNL A   1      37.649  23.971  26.192  1.00  0.00     0.116 C 
BRANCH   3   4
ATOM      4  N   UNL A   1      37.333  23.651  24.814  1.00  0.00    -0.351 N 
ATOM      5  C   UNL A   1      36.146  23.408  24.183  1.00  0.00     0.280 C 
ATOM      6  O   UNL A   1      36.220  23.191  22.970  1.00  0.00    -0.268 OA
ATOM      7  H   UNL A   1      38.119  23.600  24.223  1.00  0.00     0.163 HD
BRANCH   5   8
ATOM      8  C   UNL A   1      34.800  23.387  24.951  1.00  0.00     0.293 C 
ATOM      9  C   UNL A   1      34.368  20.963  24.681  1.00  0.00     0.333 C 
ATOM     10  N   UNL A   1      33.863  22.309  24.503  1.00  0.00    -0.324 N 
ATOM     11  C   UNL A   1      33.435  22.524  23.108  1.00  0.00     0.284 C 
ATOM     12  H   UNL A   1      33.056  22.384  25.121  1.00  0.00     0.348 HD
ATOM     13  C   UNL A   1      32.735  23.875  22.929  1.00  0.00     0.181 C 
ATOM     14  C   UNL A   1      34.098  24.766  24.792  1.00  0.00     0.195 C 
ATOM     15  N   UNL A   1      33.531  24.981  23.448  1.00  0.00    -0.326 N 
BRANCH  15  16
ATOM     16  C   UNL A   1      33.566  26.163  22.715  1.00  0.00     0.257 C 
ATOM     17  O   UNL A   1      33.895  26.180  21.528  1.00  0.00    -0.269 OA
BRANCH  16  18
ATOM     18  C   UNL A   1      33.089  27.371  23.353  1.00  0.00     0.081 A 
ATOM     19  C   UNL A   1      33.779  28.356  24.092  1.00  0.00     0.149 A 
ATOM     20  C   UNL A   1      31.788  27.837  23.302  1.00  0.00     0.051 A 
ATOM     21  N   UNL A   1      32.968  29.308  24.559  1.00  0.00    -0.180 NA
ATOM     22  N   UNL A   1      31.784  29.015  24.000  1.00  0.00    -0.269 N 
ATOM     23  C   UNL A   1      30.570  27.312  22.632  1.00  0.00     0.057 C 
ATOM     24  C   UNL A   1      30.619  29.851  24.227  1.00  0.00     0.144 C 
ATOM     25  C   UNL A   1      29.300  27.963  23.181  1.00  0.00     0.008 C 
ATOM     26  C   UNL A   1      29.468  29.483  23.285  1.00  0.00     0.024 C 
ENDBRANCH  16  18
ENDBRANCH  15  16
ENDBRANCH   5   8
ENDBRANCH   3   4
ENDBRANCH   2   3
ENDBRANCH   1   2
BRANCH   1  27
ATOM     27  C   UNL A   1      40.923  21.948  27.048  1.00  0.00     0.116 C 
BRANCH  27  28
ATOM     28  N   UNL A   1      41.999  21.793  26.069  1.00  0.00    -0.352 N 
ATOM     29  C   UNL A   1      42.757  22.782  25.466  1.00  0.00     0.251 C 
ATOM     30  H   UNL A   1      42.210  20.868  25.805  1.00  0.00     0.163 HD
ATOM     31  O   UNL A   1      43.374  22.562  24.441  1.00  0.00    -0.269 OA
BRANCH  29  32
ATOM     32  C   UNL A   1      42.793  24.109  26.105  1.00  0.00     0.039 A 
ATOM     33  C   UNL A   1      42.149  25.210  25.532  1.00  0.00     0.014 A 
ATOM     34  C   UNL A   1      43.438  24.213  27.332  1.00  0.00     0.014 A 
ATOM     35  C   UNL A   1      42.089  26.400  26.253  1.00  0.00     0.010 A 
ATOM     36  C   UNL A   1      43.238  25.327  28.104  1.00  0.00     0.010 A 
ATOM     37  C   UNL A   1      42.620  26.444  27.549  1.00  0.00    -0.014 A 
BRANCH  37  38
ATOM     38  C   UNL A   1      42.437  27.614  28.406  1.00  0.00     0.031 A 
ATOM     39  C   UNL A   1      43.517  28.638  28.294  1.00  0.00     0.074 A 
ATOM     40  C   UNL A   1      41.254  27.864  29.012  1.00  0.00     0.049 A 
ATOM     41  N   UNL A   1      44.348  29.031  29.204  1.00  0.00    -0.248 NA
ATOM     42  C   UNL A   1      43.811  29.187  26.958  1.00  0.00     0.031 C 
ATOM     43  C   UNL A   1      40.007  27.091  28.908  1.00  0.00     0.029 A 
ATOM     44  N   UNL A   1      40.862  28.945  29.734  1.00  0.00    -0.354 N 
ATOM     45  C   UNL A   1      45.094  30.059  28.622  1.00  0.00     0.074 A 
ATOM     46  C   UNL A   1      44.881  29.944  27.206  1.00  0.00     0.031 C 
ATOM     47  C   UNL A   1      38.966  27.854  29.304  1.00  0.00     0.029 A 
ATOM     48  C   UNL A   1      39.482  29.090  29.858  1.00  0.00     0.049 A 
ATOM     49  H   UNL A   1      41.501  29.575  30.137  1.00  0.00     0.167 HD
ATOM     50  C   UNL A   1      45.597  31.081  29.375  1.00  0.00     0.037 A 
ATOM     51  C   UNL A   1      38.814  30.166  30.344  1.00  0.00     0.037 A 
ATOM     52  C   UNL A   1      45.584  30.731  30.776  1.00  0.00     0.049 A 
ATOM     53  C   UNL A   1      39.796  30.952  31.139  1.00  0.00     0.074 A 
ATOM     54  C   UNL A   1      46.132  29.715  31.536  1.00  0.00     0.029 A 
ATOM     55  N   UNL A   1      44.600  31.289  31.559  1.00  0.00    -0.354 N 
ATOM     56  N   UNL A   1      40.360  30.516  32.234  1.00  0.00    -0.248 NA
ATOM     57  C   UNL A   1      40.504  32.025  30.460  1.00  0.00     0.031 C 
ATOM     58  C   UNL A   1      45.135  29.403  32.507  1.00  0.00     0.029 A 
ATOM     59  C   UNL A   1      44.073  30.294  32.338  1.00  0.00     0.049 A 
ATOM     60  H   UNL A   1      44.324  32.235  31.559  1.00  0.00     0.167 HD
ATOM     61  C   UNL A   1      41.678  30.944  32.151  1.00  0.00     0.074 A 
ATOM     62  C   UNL A   1      41.683  31.942  31.082  1.00  0.00     0.031 C 
ATOM     63  C   UNL A   1      42.687  30.245  32.751  1.00  0.00     0.037 A 
BRANCH  50  64
ATOM     64  C   UNL A   1      45.697  32.531  28.921  1.00  0.00     0.058 A 
ATOM     65  C   UNL A   1      46.915  33.219  29.127  1.00  0.00     0.135 A 
ATOM     66  C   UNL A   1      44.596  33.354  28.596  1.00  0.00     0.135 A 
ATOM     67  F   UNL A   1      48.045  32.547  29.404  1.00  0.00    -0.206 F 
ATOM     68  C   UNL A   1      46.997  34.612  29.154  1.00  0.00     0.059 A 
ATOM     69  C   UNL A   1      44.668  34.742  28.566  1.00  0.00     0.059 A 
ATOM     70  F   UNL A   1      43.369  32.873  28.374  1.00  0.00    -0.206 F 
ATOM     71  C   UNL A   1      45.857  35.364  28.902  1.00  0.00     0.060 A 
BRANCH  71  72
ATOM     72  S   UNL A   1      45.920  37.155  29.077  1.00  0.00     0.124 S 
ATOM     73  O   UNL A   1      44.586  37.440  29.591  1.00  0.00    -0.237 OA
ATOM     74  O   UNL A   1      47.020  37.326  30.022  1.00  0.00    -0.237 OA
ATOM     75  O   UNL A   1      46.189  37.615  27.719  1.00  0.00    -0.744 OA
ENDBRANCH  71  72
ENDBRANCH  50  64
BRANCH  51  76
ATOM     76  C   UNL A   1      37.506  30.720  29.896  1.00  0.00     0.058 A 
ATOM     77  C   UNL A   1      36.653  31.389  30.792  1.00  0.00     0.135 A 
ATOM     78  C   UNL A   1      37.187  30.850  28.527  1.00  0.00     0.135 A 
ATOM     79  F   UNL A   1      36.889  31.337  32.111  1.00  0.00    -0.206 F 
ATOM     80  C   UNL A   1      35.578  32.175  30.357  1.00  0.00     0.059 A 
ATOM     81  C   UNL A   1      36.115  31.621  28.070  1.00  0.00     0.059 A 
ATOM     82  F   UNL A   1      37.964  30.297  27.583  1.00  0.00    -0.206 F 
ATOM     83  C   UNL A   1      35.329  32.301  28.990  1.00  0.00     0.060 A 
BRANCH  83  84
ATOM     84  S   UNL A   1      34.039  33.442  28.427  1.00  0.00     0.124 S 
ATOM     85  O   UNL A   1      33.570  34.014  29.686  1.00  0.00    -0.237 OA
ATOM     86  O   UNL A   1      34.784  34.346  27.559  1.00  0.00    -0.237 OA
ATOM     87  O   UNL A   1      33.083  32.575  27.746  1.00  0.00    -0.744 OA
ENDBRANCH  83  84
ENDBRANCH  51  76
BRANCH  63  88
ATOM     88  C   UNL A   1      42.329  29.187  33.764  1.00  0.00     0.058 A 
ATOM     89  C   UNL A   1      42.193  27.817  33.480  1.00  0.00     0.135 A 
ATOM     90  C   UNL A   1      42.290  29.566  35.115  1.00  0.00     0.135 A 
ATOM     91  F   UNL A   1      42.321  27.355  32.230  1.00  0.00    -0.206 F 
ATOM     92  C   UNL A   1      41.990  26.873  34.490  1.00  0.00     0.059 A 
ATOM     93  C   UNL A   1      42.121  28.639  36.139  1.00  0.00     0.059 A 
ATOM     94  F   UNL A   1      42.478  30.851  35.459  1.00  0.00    -0.206 F 
ATOM     95  C   UNL A   1      41.959  27.293  35.819  1.00  0.00     0.060 A 
BRANCH  95  96
ATOM     96  S   UNL A   1      41.776  26.065  37.129  1.00  0.00     0.124 S 
ATOM     97  O   UNL A   1      40.408  26.298  37.580  1.00  0.00    -0.237 OA
ATOM     98  O   UNL A   1      42.006  24.808  36.423  1.00  0.00    -0.237 OA
ATOM     99  O   UNL A   1      42.818  26.430  38.087  1.00  0.00    -0.744 OA
ENDBRANCH  95  96
ENDBRANCH  63  88
ENDBRANCH  37  38
ENDBRANCH  29  32
ENDBRANCH  27  28
ENDBRANCH   1  27
TORSDOF 16
ENDMDL
MODEL 2
REMARK VINA RESULT:     -12.5      2.836      9.028
REMARK SMILES C[N@@H+]1CCN(C(=O)c2cnn3c2CCCC3)C[C@@H]1C(=O)NCCCCNC(=O)c1ccc(-c2c3nc(c(-c4c(F)cc(S(=O)(=O)[O-])cc4F)c4ccc([nH]4)c(-c4c(F)cc(S(=O)(=O)[O-])cc4F)c4nc(c(-c5c(F)cc(S(=O)(=O)[O-])cc5F)c5ccc2[nH]5)C=C4)C=C3)cc1
REMARK SMILES IDX 24 1 23 2 22 3 21 4 19 5 20 6 18 8 1 9 2 10 3 11 4 13 17 14
REMARK SMILES IDX 5 15 6 16 7 17 8 18 9 19 12 20 10 21 11 22 13 23 16 24 14 25
REMARK SMILES IDX 15 26 25 27 26 28 27 29 28 31 29 32 30 33 94 34 31 35 93 36
REMARK SMILES IDX 32 37 33 38 34 39 87 40 35 41 92 42 86 43 88 44 36 45 91 46
REMARK SMILES IDX 85 47 84 48 37 50 71 51 50 52 70 53 51 54 54 55 69 56 89 57
REMARK SMILES IDX 52 58 53 59 68 61 90 62 55 63 38 64 39 65 48 66 40 67 41 68
REMARK SMILES IDX 47 69 49 70 42 71 43 72 44 73 45 74 46 75 72 76 73 77 82 78
REMARK SMILES IDX 74 79 75 80 81 81 83 82 76 83 77 84 78 85 79 86 80 87 56 88
REMARK SMILES IDX 57 89 66 90 58 91 59 92 65 93 67 94 60 95 61 96 62 97 63 98
REMARK SMILES IDX 64 99
REMARK H PARENT 21 7 2 12 26 30 88 49 54 60
REMARK Flexibility Score: inf
ROOT
ATOM      1  C   UNL A   1      33.763  32.322  27.822  1.00  0.00     0.023 C 
ENDROOT
BRANCH   1   2
ATOM      2  C   UNL A   1      34.452  30.986  28.132  1.00  0.00     0.023 C 
BRANCH   2   3
ATOM      3  C   UNL A   1      34.161  29.824  27.172  1.00  0.00     0.116 C 
BRANCH   3   4
ATOM      4  N   UNL A   1      33.028  29.022  27.587  1.00  0.00    -0.351 N 
ATOM      5  C   UNL A   1      32.347  28.015  26.964  1.00  0.00     0.280 C 
ATOM      6  O   UNL A   1      31.428  27.508  27.615  1.00  0.00    -0.268 OA
ATOM      7  H   UNL A   1      32.685  29.243  28.483  1.00  0.00     0.163 HD
BRANCH   5   8
ATOM      8  C   UNL A   1      32.697  27.557  25.526  1.00  0.00     0.293 C 
ATOM      9  C   UNL A   1      31.019  28.967  24.372  1.00  0.00     0.333 C 
ATOM     10  N   UNL A   1      31.549  27.633  24.568  1.00  0.00    -0.324 N 
ATOM     11  C   UNL A   1      30.475  26.698  24.951  1.00  0.00     0.284 C 
ATOM     12  H   UNL A   1      31.935  27.356  23.667  1.00  0.00     0.348 HD
ATOM     13  C   UNL A   1      30.970  25.248  24.994  1.00  0.00     0.181 C 
ATOM     14  C   UNL A   1      33.223  26.093  25.568  1.00  0.00     0.195 C 
ATOM     15  N   UNL A   1      32.164  25.098  25.817  1.00  0.00    -0.326 N 
BRANCH  15  16
ATOM     16  C   UNL A   1      32.257  23.978  26.637  1.00  0.00     0.257 C 
ATOM     17  O   UNL A   1      31.417  23.740  27.506  1.00  0.00    -0.269 OA
BRANCH  16  18
ATOM     18  C   UNL A   1      33.312  23.026  26.366  1.00  0.00     0.081 A 
ATOM     19  C   UNL A   1      34.642  22.966  26.836  1.00  0.00     0.149 A 
ATOM     20  C   UNL A   1      33.179  21.891  25.587  1.00  0.00     0.051 A 
ATOM     21  N   UNL A   1      35.324  21.944  26.316  1.00  0.00    -0.180 NA
ATOM     22  N   UNL A   1      34.394  21.263  25.628  1.00  0.00    -0.269 N 
ATOM     23  C   UNL A   1      32.019  21.322  24.851  1.00  0.00     0.057 C 
ATOM     24  C   UNL A   1      34.726  20.032  24.932  1.00  0.00     0.144 C 
ATOM     25  C   UNL A   1      32.462  20.271  23.832  1.00  0.00     0.008 C 
ATOM     26  C   UNL A   1      33.469  19.298  24.453  1.00  0.00     0.024 C 
ENDBRANCH  16  18
ENDBRANCH  15  16
ENDBRANCH   5   8
ENDBRANCH   3   4
ENDBRANCH   2   3
ENDBRANCH   1   2
BRANCH   1  27
ATOM     27  C   UNL A   1      34.590  33.537  28.203  1.00  0.00     0.116 C 
BRANCH  27  28
ATOM     28  N   UNL A   1      34.086  34.190  29.410  1.00  0.00    -0.352 N 
ATOM     29  C   UNL A   1      34.389  33.903  30.730  1.00  0.00     0.251 C 
ATOM     30  H   UNL A   1      33.449  34.928  29.266  1.00  0.00     0.163 HD
ATOM     31  O   UNL A   1      33.667  34.278  31.635  1.00  0.00    -0.269 OA
BRANCH  29  32
ATOM     32  C   UNL A   1      35.614  33.131  31.003  1.00  0.00     0.039 A 
ATOM     33  C   UNL A   1      35.559  31.773  31.333  1.00  0.00     0.014 A 
ATOM     34  C   UNL A   1      36.831  33.787  30.861  1.00  0.00     0.014 A 
ATOM     35  C   UNL A   1      36.751  31.061  31.433  1.00  0.00     0.010 A 
ATOM     36  C   UNL A   1      37.986  33.054  30.799  1.00  0.00     0.010 A 
ATOM     37  C   UNL A   1      37.962  31.705  31.144  1.00  0.00    -0.014 A 
BRANCH  37  38
ATOM     38  C   UNL A   1      39.219  30.964  31.074  1.00  0.00     0.031 A 
ATOM     39  C   UNL A   1      39.875  30.730  32.395  1.00  0.00     0.074 A 
ATOM     40  C   UNL A   1      39.586  30.307  29.951  1.00  0.00     0.049 A 
ATOM     41  N   UNL A   1      41.019  31.166  32.811  1.00  0.00    -0.248 NA
ATOM     42  C   UNL A   1      39.091  30.052  33.443  1.00  0.00     0.031 C 
ATOM     43  C   UNL A   1      38.837  30.186  28.691  1.00  0.00     0.029 A 
ATOM     44  N   UNL A   1      40.640  29.478  29.738  1.00  0.00    -0.354 N 
ATOM     45  C   UNL A   1      41.207  30.601  34.075  1.00  0.00     0.074 A 
ATOM     46  C   UNL A   1      39.914  30.132  34.490  1.00  0.00     0.031 C 
ATOM     47  C   UNL A   1      39.314  29.145  27.977  1.00  0.00     0.029 A 
ATOM     48  C   UNL A   1      40.507  28.644  28.630  1.00  0.00     0.049 A 
ATOM     49  H   UNL A   1      41.434  29.466  30.319  1.00  0.00     0.167 HD
ATOM     50  C   UNL A   1      42.457  30.319  34.544  1.00  0.00     0.037 A 
ATOM     51  C   UNL A   1      41.299  27.593  28.299  1.00  0.00     0.037 A 
ATOM     52  C   UNL A   1      43.458  31.017  33.770  1.00  0.00     0.049 A 
ATOM     53  C   UNL A   1      42.575  27.771  29.042  1.00  0.00     0.074 A 
ATOM     54  C   UNL A   1      43.714  32.343  33.473  1.00  0.00     0.029 A 
ATOM     55  N   UNL A   1      44.171  30.287  32.850  1.00  0.00    -0.354 N 
ATOM     56  N   UNL A   1      43.404  28.759  28.835  1.00  0.00    -0.248 NA
ATOM     57  C   UNL A   1      42.696  27.119  30.336  1.00  0.00     0.031 C 
ATOM     58  C   UNL A   1      44.152  32.336  32.116  1.00  0.00     0.029 A 
ATOM     59  C   UNL A   1      44.214  31.009  31.687  1.00  0.00     0.049 A 
ATOM     60  H   UNL A   1      44.577  29.402  32.999  1.00  0.00     0.167 HD
ATOM     61  C   UNL A   1      43.842  29.128  30.100  1.00  0.00     0.074 A 
ATOM     62  C   UNL A   1      43.441  28.026  30.974  1.00  0.00     0.031 C 
ATOM     63  C   UNL A   1      44.226  30.412  30.369  1.00  0.00     0.037 A 
BRANCH  50  64
ATOM     64  C   UNL A   1      42.817  29.110  35.396  1.00  0.00     0.058 A 
ATOM     65  C   UNL A   1      43.642  29.305  36.529  1.00  0.00     0.135 A 
ATOM     66  C   UNL A   1      42.665  27.764  34.996  1.00  0.00     0.135 A 
ATOM     67  F   UNL A   1      43.835  30.534  37.034  1.00  0.00    -0.206 F 
ATOM     68  C   UNL A   1      44.369  28.269  37.118  1.00  0.00     0.059 A 
ATOM     69  C   UNL A   1      43.341  26.710  35.602  1.00  0.00     0.059 A 
ATOM     70  F   UNL A   1      41.927  27.397  33.944  1.00  0.00    -0.206 F 
ATOM     71  C   UNL A   1      44.233  26.978  36.624  1.00  0.00     0.060 A 
BRANCH  71  72
ATOM     72  S   UNL A   1      45.274  25.664  37.280  1.00  0.00     0.124 S 
ATOM     73  O   UNL A   1      46.513  26.385  37.546  1.00  0.00    -0.237 OA
ATOM     74  O   UNL A   1      44.517  25.238  38.453  1.00  0.00    -0.237 OA
ATOM     75  O   UNL A   1      45.323  24.698  36.187  1.00  0.00    -0.744 OA
ENDBRANCH  71  72
ENDBRANCH  50  64
BRANCH  51  76
ATOM     76  C   UNL A   1      40.904  26.304  27.665  1.00  0.00     0.058 A 
ATOM     77  C   UNL A   1      41.662  25.743  26.621  1.00  0.00     0.135 A 
ATOM     78  C   UNL A   1      39.937  25.457  28.248  1.00  0.00     0.135 A 
ATOM     79  F   UNL A   1      42.618  26.467  26.020  1.00  0.00    -0.206 F 
ATOM     80  C   UNL A   1      41.504  24.412  26.212  1.00  0.00     0.059 A 
ATOM     81  C   UNL A   1      39.755  24.130  27.851  1.00  0.00     0.059 A 
ATOM     82  F   UNL A   1      39.195  25.872  29.286  1.00  0.00    -0.206 F 
ATOM     83  C   UNL A   1      40.560  23.606  26.848  1.00  0.00     0.060 A 
BRANCH  83  84
ATOM     84  S   UNL A   1      40.470  21.847  26.425  1.00  0.00     0.124 S 
ATOM     85  O   UNL A   1      39.216  21.778  25.681  1.00  0.00    -0.237 OA
ATOM     86  O   UNL A   1      41.684  21.656  25.640  1.00  0.00    -0.237 OA
ATOM     87  O   UNL A   1      40.457  21.179  27.723  1.00  0.00    -0.744 OA
ENDBRANCH  83  84
ENDBRANCH  51  76
BRANCH  63  88
ATOM     88  C   UNL A   1      44.472  31.348  29.214  1.00  0.00     0.058 A 
ATOM     89  C   UNL A   1      45.610  31.324  28.388  1.00  0.00     0.135 A 
ATOM     90  C   UNL A   1      43.422  32.196  28.828  1.00  0.00     0.135 A 
ATOM     91  F   UNL A   1      46.614  30.470  28.623  1.00  0.00    -0.206 F 
ATOM     92  C   UNL A   1      45.714  32.132  27.254  1.00  0.00     0.059 A 
ATOM     93  C   UNL A   1      43.491  32.986  27.684  1.00  0.00     0.059 A 
ATOM     94  F   UNL A   1      42.281  32.219  29.537  1.00  0.00    -0.206 F 
ATOM     95  C   UNL A   1      44.646  32.959  26.907  1.00  0.00     0.060 A 
BRANCH  95  96
ATOM     96  S   UNL A   1      44.747  33.945  25.398  1.00  0.00     0.124 S 
ATOM     97  O   UNL A   1      43.827  35.041  25.685  1.00  0.00    -0.237 OA
ATOM     98  O   UNL A   1      46.162  34.302  25.345  1.00  0.00    -0.237 OA
ATOM     99  O   UNL A   1      44.308  33.020  24.356  1.00  0.00    -0.744 OA
ENDBRANCH  95  96
ENDBRANCH  63  88
ENDBRANCH  37  38
ENDBRANCH  29  32
ENDBRANCH  27  28
ENDBRANCH   1  27
TORSDOF 16
ENDMDL
MODEL 3
REMARK VINA RESULT:     -12.4      1.102      1.587
REMARK SMILES C[N@@H+]1CCN(C(=O)c2cnn3c2CCCC3)C[C@@H]1C(=O)NCCCCNC(=O)c1ccc(-c2c3nc(c(-c4c(F)cc(S(=O)(=O)[O-])cc4F)c4ccc([nH]4)c(-c4c(F)cc(S(=O)(=O)[O-])cc4F)c4nc(c(-c5c(F)cc(S(=O)(=O)[O-])cc5F)c5ccc2[nH]5)C=C4)C=C3)cc1
REMARK SMILES IDX 24 1 23 2 22 3 21 4 19 5 20 6 18 8 1 9 2 10 3 11 4 13 17 14
REMARK SMILES IDX 5 15 6 16 7 17 8 18 9 19 12 20 10 21 11 22 13 23 16 24 14 25
REMARK SMILES IDX 15 26 25 27 26 28 27 29 28 31 29 32 30 33 94 34 31 35 93 36
REMARK SMILES IDX 32 37 33 38 34 39 87 40 35 41 92 42 86 43 88 44 36 45 91 46
REMARK SMILES IDX 85 47 84 48 37 50 71 51 50 52 70 53 51 54 54 55 69 56 89 57
REMARK SMILES IDX 52 58 53 59 68 61 90 62 55 63 38 64 39 65 48 66 40 67 41 68
REMARK SMILES IDX 47 69 49 70 42 71 43 72 44 73 45 74 46 75 72 76 73 77 82 78
REMARK SMILES IDX 74 79 75 80 81 81 83 82 76 83 77 84 78 85 79 86 80 87 56 88
REMARK SMILES IDX 57 89 66 90 58 91 59 92 65 93 67 94 60 95 61 96 62 97 63 98
REMARK SMILES IDX 64 99
REMARK H PARENT 21 7 2 12 26 30 88 49 54 60
REMARK Flexibility Score: inf
ROOT
ATOM      1  C   UNL A   1      39.678  22.206  26.566  1.00  0.00     0.023 C 
ENDROOT
BRANCH   1   2
ATOM      2  C   UNL A   1      38.673  21.452  25.686  1.00  0.00     0.023 C 
BRANCH   2   3
ATOM      3  C   UNL A   1      37.246  22.015  25.636  1.00  0.00     0.116 C 
BRANCH   3   4
ATOM      4  N   UNL A   1      36.856  22.445  24.308  1.00  0.00    -0.351 N 
ATOM      5  C   UNL A   1      35.679  22.929  23.815  1.00  0.00     0.280 C 
ATOM      6  O   UNL A   1      35.685  23.238  22.620  1.00  0.00    -0.268 OA
ATOM      7  H   UNL A   1      37.574  22.376  23.637  1.00  0.00     0.163 HD
BRANCH   5   8
ATOM      8  C   UNL A   1      34.413  23.061  24.701  1.00  0.00     0.293 C 
ATOM      9  C   UNL A   1      33.593  20.750  24.353  1.00  0.00     0.333 C 
ATOM     10  N   UNL A   1      33.288  22.164  24.287  1.00  0.00    -0.324 N 
ATOM     11  C   UNL A   1      32.784  22.527  22.949  1.00  0.00     0.284 C 
ATOM     12  H   UNL A   1      32.556  22.320  24.979  1.00  0.00     0.348 HD
ATOM     13  C   UNL A   1      32.287  23.975  22.901  1.00  0.00     0.181 C 
ATOM     14  C   UNL A   1      33.920  24.536  24.673  1.00  0.00     0.195 C 
ATOM     15  N   UNL A   1      33.284  24.916  23.398  1.00  0.00    -0.326 N 
BRANCH  15  16
ATOM     16  C   UNL A   1      33.439  26.123  22.724  1.00  0.00     0.257 C 
ATOM     17  O   UNL A   1      33.837  26.167  21.559  1.00  0.00    -0.269 OA
BRANCH  16  18
ATOM     18  C   UNL A   1      33.006  27.332  23.390  1.00  0.00     0.081 A 
ATOM     19  C   UNL A   1      33.717  28.241  24.203  1.00  0.00     0.149 A 
ATOM     20  C   UNL A   1      31.741  27.883  23.296  1.00  0.00     0.051 A 
ATOM     21  N   UNL A   1      32.944  29.223  24.672  1.00  0.00    -0.180 NA
ATOM     22  N   UNL A   1      31.774  29.030  24.043  1.00  0.00    -0.269 N 
ATOM     23  C   UNL A   1      30.528  27.465  22.545  1.00  0.00     0.057 C 
ATOM     24  C   UNL A   1      30.653  29.929  24.249  1.00  0.00     0.144 C 
ATOM     25  C   UNL A   1      29.275  28.174  23.059  1.00  0.00     0.008 C 
ATOM     26  C   UNL A   1      29.531  29.674  23.237  1.00  0.00     0.024 C 
ENDBRANCH  16  18
ENDBRANCH  15  16
ENDBRANCH   5   8
ENDBRANCH   3   4
ENDBRANCH   2   3
ENDBRANCH   1   2
BRANCH   1  27
ATOM     27  C   UNL A   1      40.635  21.297  27.316  1.00  0.00     0.116 C 
BRANCH  27  28
ATOM     28  N   UNL A   1      41.805  20.945  26.513  1.00  0.00    -0.352 N 
ATOM     29  C   UNL A   1      42.755  21.791  25.967  1.00  0.00     0.251 C 
ATOM     30  H   UNL A   1      41.934  19.985  26.338  1.00  0.00     0.163 HD
ATOM     31  O   UNL A   1      43.473  21.424  25.056  1.00  0.00    -0.269 OA
BRANCH  29  32
ATOM     32  C   UNL A   1      42.868  23.151  26.524  1.00  0.00     0.039 A 
ATOM     33  C   UNL A   1      42.401  24.266  25.822  1.00  0.00     0.014 A 
ATOM     34  C   UNL A   1      43.401  23.278  27.802  1.00  0.00     0.014 A 
ATOM     35  C   UNL A   1      42.398  25.505  26.459  1.00  0.00     0.010 A 
ATOM     36  C   UNL A   1      43.246  24.458  28.480  1.00  0.00     0.010 A 
ATOM     37  C   UNL A   1      42.804  25.589  27.798  1.00  0.00    -0.014 A 
BRANCH  37  38
ATOM     38  C   UNL A   1      42.664  26.828  28.559  1.00  0.00     0.031 A 
ATOM     39  C   UNL A   1      43.773  27.807  28.358  1.00  0.00     0.074 A 
ATOM     40  C   UNL A   1      41.494  27.162  29.149  1.00  0.00     0.049 A 
ATOM     41  N   UNL A   1      44.623  28.246  29.227  1.00  0.00    -0.248 NA
ATOM     42  C   UNL A   1      44.071  28.237  26.979  1.00  0.00     0.031 C 
ATOM     43  C   UNL A   1      40.223  26.422  29.116  1.00  0.00     0.029 A 
ATOM     44  N   UNL A   1      41.141  28.309  29.784  1.00  0.00    -0.354 N 
ATOM     45  C   UNL A   1      45.395  29.200  28.560  1.00  0.00     0.074 A 
ATOM     46  C   UNL A   1      45.166  28.979  27.159  1.00  0.00     0.031 C 
ATOM     47  C   UNL A   1      39.209  27.245  29.455  1.00  0.00     0.029 A 
ATOM     48  C   UNL A   1      39.767  28.506  29.904  1.00  0.00     0.049 A 
ATOM     49  H   UNL A   1      41.801  28.951  30.131  1.00  0.00     0.167 HD
ATOM     50  C   UNL A   1      45.934  30.264  29.225  1.00  0.00     0.037 A 
ATOM     51  C   UNL A   1      39.135  29.637  30.306  1.00  0.00     0.037 A 
ATOM     52  C   UNL A   1      45.922  30.029  30.650  1.00  0.00     0.049 A 
ATOM     53  C   UNL A   1      40.147  30.454  31.029  1.00  0.00     0.074 A 
ATOM     54  C   UNL A   1      46.446  29.061  31.486  1.00  0.00     0.029 A 
ATOM     55  N   UNL A   1      44.962  30.678  31.391  1.00  0.00    -0.354 N 
ATOM     56  N   UNL A   1      40.707  30.091  32.151  1.00  0.00    -0.248 NA
ATOM     57  C   UNL A   1      40.881  31.447  30.261  1.00  0.00     0.031 C 
ATOM     58  C   UNL A   1      45.449  28.860  32.485  1.00  0.00     0.029 A 
ATOM     59  C   UNL A   1      44.413  29.766  32.251  1.00  0.00     0.049 A 
ATOM     60  H   UNL A   1      44.715  31.628  31.316  1.00  0.00     0.167 HD
ATOM     61  C   UNL A   1      42.036  30.471  32.027  1.00  0.00     0.074 A 
ATOM     62  C   UNL A   1      42.062  31.379  30.881  1.00  0.00     0.031 C 
ATOM     63  C   UNL A   1      43.030  29.792  32.675  1.00  0.00     0.037 A 
BRANCH  50  64
ATOM     64  C   UNL A   1      46.073  31.669  28.655  1.00  0.00     0.058 A 
ATOM     65  C   UNL A   1      44.941  32.267  28.051  1.00  0.00     0.135 A 
ATOM     66  C   UNL A   1      47.300  32.316  28.391  1.00  0.00     0.135 A 
ATOM     67  F   UNL A   1      43.711  31.770  28.257  1.00  0.00    -0.206 F 
ATOM     68  C   UNL A   1      45.043  33.325  27.146  1.00  0.00     0.059 A 
ATOM     69  C   UNL A   1      47.416  33.405  27.532  1.00  0.00     0.059 A 
ATOM     70  F   UNL A   1      48.468  31.885  28.875  1.00  0.00    -0.206 F 
ATOM     71  C   UNL A   1      46.292  33.865  26.871  1.00  0.00     0.060 A 
BRANCH  71  72
ATOM     72  S   UNL A   1      46.450  35.130  25.599  1.00  0.00     0.124 S 
ATOM     73  O   UNL A   1      45.647  34.557  24.524  1.00  0.00    -0.237 OA
ATOM     74  O   UNL A   1      45.886  36.299  26.266  1.00  0.00    -0.237 OA
ATOM     75  O   UNL A   1      47.888  35.184  25.357  1.00  0.00    -0.744 OA
ENDBRANCH  71  72
ENDBRANCH  50  64
BRANCH  51  76
ATOM     76  C   UNL A   1      37.841  30.193  29.823  1.00  0.00     0.058 A 
ATOM     77  C   UNL A   1      36.915  30.765  30.713  1.00  0.00     0.135 A 
ATOM     78  C   UNL A   1      37.601  30.426  28.451  1.00  0.00     0.135 A 
ATOM     79  F   UNL A   1      37.073  30.611  32.037  1.00  0.00    -0.206 F 
ATOM     80  C   UNL A   1      35.845  31.557  30.276  1.00  0.00     0.059 A 
ATOM     81  C   UNL A   1      36.536  31.205  27.991  1.00  0.00     0.059 A 
ATOM     82  F   UNL A   1      38.451  29.972  27.517  1.00  0.00    -0.206 F 
ATOM     83  C   UNL A   1      35.676  31.788  28.911  1.00  0.00     0.060 A 
BRANCH  83  84
ATOM     84  S   UNL A   1      34.389  32.938  28.362  1.00  0.00     0.124 S 
ATOM     85  O   UNL A   1      35.151  33.882  27.550  1.00  0.00    -0.237 OA
ATOM     86  O   UNL A   1      33.482  32.061  27.631  1.00  0.00    -0.237 OA
ATOM     87  O   UNL A   1      33.856  33.482  29.607  1.00  0.00    -0.744 OA
ENDBRANCH  83  84
ENDBRANCH  51  76
BRANCH  63  88
ATOM     88  C   UNL A   1      42.649  28.831  33.773  1.00  0.00     0.058 A 
ATOM     89  C   UNL A   1      42.368  27.466  33.583  1.00  0.00     0.135 A 
ATOM     90  C   UNL A   1      42.739  29.286  35.097  1.00  0.00     0.135 A 
ATOM     91  F   UNL A   1      42.366  26.926  32.358  1.00  0.00    -0.206 F 
ATOM     92  C   UNL A   1      42.152  26.603  34.660  1.00  0.00     0.059 A 
ATOM     93  C   UNL A   1      42.559  28.437  36.185  1.00  0.00     0.059 A 
ATOM     94  F   UNL A   1      43.066  30.564  35.348  1.00  0.00    -0.206 F 
ATOM     95  C   UNL A   1      42.253  27.097  35.960  1.00  0.00     0.060 A 
BRANCH  95  96
ATOM     96  S   UNL A   1      42.051  25.967  37.352  1.00  0.00     0.124 S 
ATOM     97  O   UNL A   1      40.642  26.139  37.687  1.00  0.00    -0.237 OA
ATOM     98  O   UNL A   1      42.412  24.677  36.771  1.00  0.00    -0.237 OA
ATOM     99  O   UNL A   1      42.994  26.476  38.345  1.00  0.00    -0.744 OA
ENDBRANCH  95  96
ENDBRANCH  63  88
ENDBRANCH  37  38
ENDBRANCH  29  32
ENDBRANCH  27  28
ENDBRANCH   1  27
TORSDOF 16
ENDMDL
