MODEL 1
REMARK VINA RESULT:     -13.4      0.000      0.000
REMARK SMILES O=C(NCCCCNC(=O)c1nccnc1C(=O)Nc1ccc(-n2cncn2)c(Cl)c1)c1ccc(-c2c3nc(c(-c4c(F)cc(S(=O)(=O)[O-])cc4F)c4ccc([nH]4)c(-c4c(F)cc(S(=O)(=O)[O-])cc4F)c4nc(c(-c5c(F)cc(S(=O)(=O)[O-])cc5F)c5ccc2[nH]5)C=C4)C=C3)cc1
REMARK SMILES IDX 5 1 4 2 3 3 1 4 2 5 32 7 33 8 97 9 34 10 96 11 35 12 36 13
REMARK SMILES IDX 37 14 90 15 38 16 95 17 89 18 91 19 39 20 94 21 88 22 87 23
REMARK SMILES IDX 40 25 74 26 53 27 73 28 54 29 57 30 72 31 92 32 55 33 56 34
REMARK SMILES IDX 71 36 93 37 58 38 41 39 42 40 51 41 43 42 44 43 50 44 52 45
REMARK SMILES IDX 45 46 46 47 47 48 48 49 49 50 75 51 76 52 85 53 77 54 78 55
REMARK SMILES IDX 84 56 86 57 79 58 80 59 81 60 82 61 83 62 59 63 60 64 69 65
REMARK SMILES IDX 61 66 62 67 68 68 70 69 63 70 64 71 65 72 66 73 67 74 6 75
REMARK SMILES IDX 7 76 8 77 9 78 10 80 11 81 12 82 16 83 13 84 15 85 14 86
REMARK SMILES IDX 17 87 18 88 19 89 20 91 21 92 31 93 22 94 29 95 23 96 30 97
REMARK SMILES IDX 24 98 25 99 28 100 26 101 27 102
REMARK H PARENT 3 6 91 24 57 35 8 79 19 90
REMARK Flexibility Score: inf
ROOT
ATOM      1  C   UNL A   1      37.175  22.901  24.222  1.00  0.00     0.023 C 
ENDROOT
BRANCH   1   2
ATOM      2  C   UNL A   1      37.516  22.192  25.528  1.00  0.00     0.116 C 
BRANCH   2   3
ATOM      3  N   UNL A   1      38.895  21.782  25.661  1.00  0.00    -0.352 N 
ATOM      4  O   UNL A   1      40.977  21.523  26.310  1.00  0.00    -0.269 OA
ATOM      5  C   UNL A   1      39.997  22.274  26.301  1.00  0.00     0.251 C 
ATOM      6  H   UNL A   1      39.086  20.949  25.174  1.00  0.00     0.163 HD
BRANCH   5   7
ATOM      7  C   UNL A   1      40.123  23.620  26.930  1.00  0.00     0.039 A 
ATOM      8  C   UNL A   1      39.250  24.698  26.774  1.00  0.00     0.014 A 
ATOM      9  C   UNL A   1      41.242  23.789  27.772  1.00  0.00     0.014 A 
ATOM     10  C   UNL A   1      39.515  25.920  27.404  1.00  0.00     0.010 A 
ATOM     11  C   UNL A   1      41.505  25.000  28.406  1.00  0.00     0.010 A 
ATOM     12  C   UNL A   1      40.654  26.082  28.205  1.00  0.00    -0.014 A 
BRANCH  12  13
ATOM     13  C   UNL A   1      40.854  27.353  28.911  1.00  0.00     0.031 A 
ATOM     14  C   UNL A   1      41.954  28.224  28.391  1.00  0.00     0.074 A 
ATOM     15  C   UNL A   1      40.019  27.848  29.851  1.00  0.00     0.049 A 
ATOM     16  N   UNL A   1      43.012  28.647  29.006  1.00  0.00    -0.248 NA
ATOM     17  C   UNL A   1      41.889  28.628  26.978  1.00  0.00     0.031 C 
ATOM     18  C   UNL A   1      38.711  27.332  30.263  1.00  0.00     0.029 A 
ATOM     19  N   UNL A   1      40.136  29.001  30.576  1.00  0.00    -0.354 N 
ATOM     20  C   UNL A   1      43.658  29.515  28.124  1.00  0.00     0.074 A 
ATOM     21  C   UNL A   1      42.987  29.373  26.857  1.00  0.00     0.031 C 
ATOM     22  C   UNL A   1      38.074  28.269  31.002  1.00  0.00     0.029 A 
ATOM     23  C   UNL A   1      38.976  29.383  31.238  1.00  0.00     0.049 A 
ATOM     24  H   UNL A   1      40.973  29.517  30.626  1.00  0.00     0.167 HD
ATOM     25  C   UNL A   1      44.596  30.417  28.534  1.00  0.00     0.037 A 
ATOM     26  C   UNL A   1      38.755  30.552  31.892  1.00  0.00     0.037 A 
ATOM     27  C   UNL A   1      45.110  30.095  29.838  1.00  0.00     0.049 A 
ATOM     28  C   UNL A   1      40.077  31.137  32.223  1.00  0.00     0.074 A 
ATOM     29  C   UNL A   1      45.776  29.015  30.382  1.00  0.00     0.029 A 
ATOM     30  N   UNL A   1      44.680  30.839  30.908  1.00  0.00    -0.354 N 
ATOM     31  N   UNL A   1      40.921  30.622  33.075  1.00  0.00    -0.248 NA
ATOM     32  C   UNL A   1      40.635  32.120  31.309  1.00  0.00     0.031 C 
ATOM     33  C   UNL A   1      45.275  28.904  31.710  1.00  0.00     0.029 A 
ATOM     34  C   UNL A   1      44.371  29.950  31.905  1.00  0.00     0.049 A 
ATOM     35  H   UNL A   1      44.607  31.820  30.951  1.00  0.00     0.167 HD
ATOM     36  C   UNL A   1      42.172  30.897  32.545  1.00  0.00     0.074 A 
ATOM     37  C   UNL A   1      41.935  31.905  31.518  1.00  0.00     0.031 C 
ATOM     38  C   UNL A   1      43.245  30.093  32.802  1.00  0.00     0.037 A 
BRANCH  25  39
ATOM     39  C   UNL A   1      44.845  31.760  27.885  1.00  0.00     0.058 A 
ATOM     40  C   UNL A   1      46.061  32.000  27.208  1.00  0.00     0.135 A 
ATOM     41  C   UNL A   1      44.058  32.903  28.141  1.00  0.00     0.135 A 
ATOM     42  F   UNL A   1      46.897  30.988  26.922  1.00  0.00    -0.206 F 
ATOM     43  C   UNL A   1      46.492  33.285  26.873  1.00  0.00     0.059 A 
ATOM     44  C   UNL A   1      44.443  34.187  27.770  1.00  0.00     0.059 A 
ATOM     45  F   UNL A   1      42.925  32.837  28.852  1.00  0.00    -0.206 F 
ATOM     46  C   UNL A   1      45.682  34.375  27.175  1.00  0.00     0.060 A 
BRANCH  46  47
ATOM     47  S   UNL A   1      46.285  36.043  26.853  1.00  0.00     0.124 S 
ATOM     48  O   UNL A   1      45.036  36.790  26.757  1.00  0.00    -0.237 OA
ATOM     49  O   UNL A   1      47.099  36.306  28.035  1.00  0.00    -0.237 OA
ATOM     50  O   UNL A   1      47.031  35.894  25.606  1.00  0.00    -0.744 OA
ENDBRANCH  46  47
ENDBRANCH  25  39
BRANCH  26  51
ATOM     51  C   UNL A   1      37.499  31.346  31.974  1.00  0.00     0.058 A 
ATOM     52  C   UNL A   1      36.969  31.752  33.212  1.00  0.00     0.135 A 
ATOM     53  C   UNL A   1      36.957  31.970  30.833  1.00  0.00     0.135 A 
ATOM     54  F   UNL A   1      37.442  31.228  34.354  1.00  0.00    -0.206 F 
ATOM     55  C   UNL A   1      35.998  32.754  33.317  1.00  0.00     0.059 A 
ATOM     56  C   UNL A   1      35.981  32.964  30.912  1.00  0.00     0.059 A 
ATOM     57  F   UNL A   1      37.431  31.701  29.608  1.00  0.00    -0.206 F 
ATOM     58  C   UNL A   1      35.524  33.370  32.160  1.00  0.00     0.060 A 
BRANCH  58  59
ATOM     59  S   UNL A   1      34.405  34.784  32.299  1.00  0.00     0.124 S 
ATOM     60  O   UNL A   1      33.243  34.187  32.947  1.00  0.00    -0.237 OA
ATOM     61  O   UNL A   1      35.181  35.714  33.111  1.00  0.00    -0.237 OA
ATOM     62  O   UNL A   1      34.204  35.194  30.911  1.00  0.00    -0.744 OA
ENDBRANCH  58  59
ENDBRANCH  26  51
BRANCH  38  63
ATOM     63  C   UNL A   1      43.154  29.096  33.925  1.00  0.00     0.058 A 
ATOM     64  C   UNL A   1      43.433  29.390  35.271  1.00  0.00     0.135 A 
ATOM     65  C   UNL A   1      42.572  27.848  33.648  1.00  0.00     0.135 A 
ATOM     66  F   UNL A   1      43.900  30.594  35.633  1.00  0.00    -0.206 F 
ATOM     67  C   UNL A   1      43.161  28.478  36.292  1.00  0.00     0.059 A 
ATOM     68  C   UNL A   1      42.266  26.935  34.653  1.00  0.00     0.059 A 
ATOM     69  F   UNL A   1      42.232  27.530  32.388  1.00  0.00    -0.206 F 
ATOM     70  C   UNL A   1      42.565  27.256  35.975  1.00  0.00     0.060 A 
BRANCH  70  71
ATOM     71  S   UNL A   1      42.085  26.135  37.308  1.00  0.00     0.124 S 
ATOM     72  O   UNL A   1      43.094  26.421  38.327  1.00  0.00    -0.237 OA
ATOM     73  O   UNL A   1      40.727  26.581  37.624  1.00  0.00    -0.237 OA
ATOM     74  O   UNL A   1      42.169  24.818  36.697  1.00  0.00    -0.744 OA
ENDBRANCH  70  71
ENDBRANCH  38  63
ENDBRANCH  12  13
ENDBRANCH   5   7
ENDBRANCH   2   3
ENDBRANCH   1   2
BRANCH   1  75
ATOM     75  C   UNL A   1      35.695  22.979  23.821  1.00  0.00     0.023 C 
BRANCH  75  76
ATOM     76  C   UNL A   1      34.899  24.250  24.125  1.00  0.00     0.116 C 
BRANCH  76  77
ATOM     77  N   UNL A   1      34.080  24.768  23.043  1.00  0.00    -0.351 N 
ATOM     78  C   UNL A   1      33.299  25.905  23.007  1.00  0.00     0.272 C 
ATOM     79  H   UNL A   1      34.082  24.231  22.217  1.00  0.00     0.163 HD
ATOM     80  O   UNL A   1      33.060  26.461  21.936  1.00  0.00    -0.267 OA
BRANCH  78  81
ATOM     81  C   UNL A   1      32.854  26.562  24.237  1.00  0.00     0.159 A 
ATOM     82  N   UNL A   1      33.797  27.486  24.651  1.00  0.00    -0.247 NA
ATOM     83  C   UNL A   1      31.604  26.431  24.832  1.00  0.00     0.159 A 
ATOM     84  C   UNL A   1      33.461  28.283  25.679  1.00  0.00     0.132 A 
ATOM     85  N   UNL A   1      31.321  27.269  25.895  1.00  0.00    -0.247 NA
ATOM     86  C   UNL A   1      32.241  28.174  26.293  1.00  0.00     0.132 A 
BRANCH  83  87
ATOM     87  C   UNL A   1      30.406  25.525  24.582  1.00  0.00     0.276 C 
ATOM     88  O   UNL A   1      29.300  26.085  24.479  1.00  0.00    -0.267 OA
ATOM     89  N   UNL A   1      30.317  24.166  24.361  1.00  0.00    -0.321 N 
ATOM     90  H   UNL A   1      29.406  23.871  24.131  1.00  0.00     0.170 HD
BRANCH  89  91
ATOM     91  C   UNL A   1      31.234  23.133  24.394  1.00  0.00     0.043 A 
ATOM     92  C   UNL A   1      31.591  22.480  23.221  1.00  0.00     0.028 A 
ATOM     93  C   UNL A   1      31.893  22.844  25.586  1.00  0.00     0.049 A 
ATOM     94  C   UNL A   1      32.395  21.341  23.300  1.00  0.00     0.032 A 
ATOM     95  C   UNL A   1      32.659  21.678  25.678  1.00  0.00     0.068 A 
ATOM     96  C   UNL A   1      32.773  20.844  24.560  1.00  0.00     0.085 A 
ATOM     97  Cl  UNL A   1      33.461  21.390  27.181  1.00  0.00    -0.082 Cl
BRANCH  96  98
ATOM     98  N   UNL A   1      32.984  19.441  24.662  1.00  0.00    -0.220 N 
ATOM     99  C   UNL A   1      34.119  18.711  24.384  1.00  0.00     0.226 A 
ATOM    100  N   UNL A   1      32.130  18.650  25.371  1.00  0.00    -0.155 NA
ATOM    101  N   UNL A   1      34.003  17.478  24.824  1.00  0.00    -0.223 NA
ATOM    102  C   UNL A   1      32.784  17.489  25.421  1.00  0.00     0.246 A 
ENDBRANCH  96  98
ENDBRANCH  89  91
ENDBRANCH  83  87
ENDBRANCH  78  81
ENDBRANCH  76  77
ENDBRANCH  75  76
ENDBRANCH   1  75
TORSDOF 17
ENDMDL
MODEL 2
REMARK VINA RESULT:     -13.3      3.147      9.573
REMARK SMILES O=C(NCCCCNC(=O)c1nccnc1C(=O)Nc1ccc(-n2cncn2)c(Cl)c1)c1ccc(-c2c3nc(c(-c4c(F)cc(S(=O)(=O)[O-])cc4F)c4ccc([nH]4)c(-c4c(F)cc(S(=O)(=O)[O-])cc4F)c4nc(c(-c5c(F)cc(S(=O)(=O)[O-])cc5F)c5ccc2[nH]5)C=C4)C=C3)cc1
REMARK SMILES IDX 5 1 4 2 3 3 1 4 2 5 32 7 33 8 97 9 34 10 96 11 35 12 36 13
REMARK SMILES IDX 37 14 90 15 38 16 95 17 89 18 91 19 39 20 94 21 88 22 87 23
REMARK SMILES IDX 40 25 74 26 53 27 73 28 54 29 57 30 72 31 92 32 55 33 56 34
REMARK SMILES IDX 71 36 93 37 58 38 41 39 42 40 51 41 43 42 44 43 50 44 52 45
REMARK SMILES IDX 45 46 46 47 47 48 48 49 49 50 75 51 76 52 85 53 77 54 78 55
REMARK SMILES IDX 84 56 86 57 79 58 80 59 81 60 82 61 83 62 59 63 60 64 69 65
REMARK SMILES IDX 61 66 62 67 68 68 70 69 63 70 64 71 65 72 66 73 67 74 6 75
REMARK SMILES IDX 7 76 8 77 9 78 10 80 11 81 12 82 16 83 13 84 15 85 14 86
REMARK SMILES IDX 17 87 18 88 19 89 20 91 21 92 31 93 22 94 29 95 23 96 30 97
REMARK SMILES IDX 24 98 25 99 28 100 26 101 27 102
REMARK H PARENT 3 6 91 24 57 35 8 79 19 90
REMARK Flexibility Score: inf
ROOT
ATOM      1  C   UNL A   1      32.249  29.225  26.487  1.00  0.00     0.023 C 
ENDROOT
BRANCH   1   2
ATOM      2  C   UNL A   1      33.654  29.676  26.868  1.00  0.00     0.116 C 
BRANCH   2   3
ATOM      3  N   UNL A   1      33.712  30.782  27.795  1.00  0.00    -0.352 N 
ATOM      4  O   UNL A   1      34.359  32.453  29.066  1.00  0.00    -0.269 OA
ATOM      5  C   UNL A   1      34.703  31.415  28.493  1.00  0.00     0.251 C 
ATOM      6  H   UNL A   1      32.826  31.175  27.965  1.00  0.00     0.163 HD
BRANCH   5   7
ATOM      7  C   UNL A   1      36.108  30.943  28.651  1.00  0.00     0.039 A 
ATOM      8  C   UNL A   1      37.210  31.716  29.018  1.00  0.00     0.014 A 
ATOM      9  C   UNL A   1      36.312  29.569  28.410  1.00  0.00     0.014 A 
ATOM     10  C   UNL A   1      38.484  31.140  29.095  1.00  0.00     0.010 A 
ATOM     11  C   UNL A   1      37.576  28.990  28.493  1.00  0.00     0.010 A 
ATOM     12  C   UNL A   1      38.675  29.781  28.813  1.00  0.00    -0.014 A 
BRANCH  12  13
ATOM     13  C   UNL A   1      40.012  29.198  28.982  1.00  0.00     0.031 A 
ATOM     14  C   UNL A   1      40.491  29.060  30.393  1.00  0.00     0.074 A 
ATOM     15  C   UNL A   1      40.734  28.635  27.989  1.00  0.00     0.049 A 
ATOM     16  N   UNL A   1      41.535  29.586  30.950  1.00  0.00    -0.248 NA
ATOM     17  C   UNL A   1      39.660  28.272  31.316  1.00  0.00     0.031 C 
ATOM     18  C   UNL A   1      40.318  28.355  26.613  1.00  0.00     0.029 A 
ATOM     19  N   UNL A   1      41.989  28.096  28.045  1.00  0.00    -0.354 N 
ATOM     20  C   UNL A   1      41.599  29.058  32.241  1.00  0.00     0.074 A 
ATOM     21  C   UNL A   1      40.360  28.351  32.448  1.00  0.00     0.031 C 
ATOM     22  C   UNL A   1      41.214  27.523  26.034  1.00  0.00     0.029 A 
ATOM     23  C   UNL A   1      42.335  27.329  26.940  1.00  0.00     0.049 A 
ATOM     24  H   UNL A   1      42.598  28.240  28.805  1.00  0.00     0.167 HD
ATOM     25  C   UNL A   1      42.734  29.097  32.996  1.00  0.00     0.037 A 
ATOM     26  C   UNL A   1      43.438  26.551  26.796  1.00  0.00     0.037 A 
ATOM     27  C   UNL A   1      43.676  30.059  32.493  1.00  0.00     0.049 A 
ATOM     28  C   UNL A   1      44.451  27.027  27.769  1.00  0.00     0.074 A 
ATOM     29  C   UNL A   1      43.656  31.425  32.286  1.00  0.00     0.029 A 
ATOM     30  N   UNL A   1      44.771  29.600  31.804  1.00  0.00    -0.354 N 
ATOM     31  N   UNL A   1      45.050  28.186  27.706  1.00  0.00    -0.248 NA
ATOM     32  C   UNL A   1      44.531  26.353  29.055  1.00  0.00     0.031 C 
ATOM     33  C   UNL A   1      44.416  31.629  31.100  1.00  0.00     0.029 A 
ATOM     34  C   UNL A   1      44.888  30.382  30.685  1.00  0.00     0.049 A 
ATOM     35  H   UNL A   1      45.358  28.853  32.064  1.00  0.00     0.167 HD
ATOM     36  C   UNL A   1      45.218  28.570  29.027  1.00  0.00     0.074 A 
ATOM     37  C   UNL A   1      44.975  27.361  29.808  1.00  0.00     0.031 C 
ATOM     38  C   UNL A   1      45.278  29.886  29.383  1.00  0.00     0.037 A 
BRANCH  25  39
ATOM     39  C   UNL A   1      43.124  28.058  34.023  1.00  0.00     0.058 A 
ATOM     40  C   UNL A   1      43.325  28.440  35.368  1.00  0.00     0.135 A 
ATOM     41  C   UNL A   1      43.576  26.765  33.685  1.00  0.00     0.135 A 
ATOM     42  F   UNL A   1      42.946  29.654  35.800  1.00  0.00    -0.206 F 
ATOM     43  C   UNL A   1      43.986  27.623  36.288  1.00  0.00     0.059 A 
ATOM     44  C   UNL A   1      44.191  25.914  34.599  1.00  0.00     0.059 A 
ATOM     45  F   UNL A   1      43.532  26.305  32.428  1.00  0.00    -0.206 F 
ATOM     46  C   UNL A   1      44.431  26.367  35.887  1.00  0.00     0.060 A 
BRANCH  46  47
ATOM     47  S   UNL A   1      45.390  25.360  37.035  1.00  0.00     0.124 S 
ATOM     48  O   UNL A   1      45.886  24.309  36.153  1.00  0.00    -0.237 OA
ATOM     49  O   UNL A   1      46.384  26.311  37.519  1.00  0.00    -0.237 OA
ATOM     50  O   UNL A   1      44.398  24.942  38.022  1.00  0.00    -0.744 OA
ENDBRANCH  46  47
ENDBRANCH  25  39
BRANCH  26  51
ATOM     51  C   UNL A   1      43.566  25.240  26.104  1.00  0.00     0.058 A 
ATOM     52  C   UNL A   1      44.621  24.984  25.210  1.00  0.00     0.135 A 
ATOM     53  C   UNL A   1      42.826  24.119  26.528  1.00  0.00     0.135 A 
ATOM     54  F   UNL A   1      45.395  25.989  24.772  1.00  0.00    -0.206 F 
ATOM     55  C   UNL A   1      44.958  23.687  24.803  1.00  0.00     0.059 A 
ATOM     56  C   UNL A   1      43.136  22.819  26.127  1.00  0.00     0.059 A 
ATOM     57  F   UNL A   1      41.836  24.243  27.425  1.00  0.00    -0.206 F 
ATOM     58  C   UNL A   1      44.219  22.608  25.284  1.00  0.00     0.060 A 
BRANCH  58  59
ATOM     59  S   UNL A   1      44.758  20.922  24.905  1.00  0.00     0.124 S 
ATOM     60  O   UNL A   1      44.565  20.862  23.461  1.00  0.00    -0.237 OA
ATOM     61  O   UNL A   1      46.141  20.929  25.365  1.00  0.00    -0.237 OA
ATOM     62  O   UNL A   1      43.848  20.092  25.692  1.00  0.00    -0.744 OA
ENDBRANCH  58  59
ENDBRANCH  26  51
BRANCH  38  63
ATOM     63  C   UNL A   1      45.495  30.920  28.311  1.00  0.00     0.058 A 
ATOM     64  C   UNL A   1      44.479  31.427  27.482  1.00  0.00     0.135 A 
ATOM     65  C   UNL A   1      46.745  31.558  28.259  1.00  0.00     0.135 A 
ATOM     66  F   UNL A   1      43.232  30.938  27.538  1.00  0.00    -0.206 F 
ATOM     67  C   UNL A   1      44.703  32.510  26.629  1.00  0.00     0.059 A 
ATOM     68  C   UNL A   1      46.981  32.656  27.439  1.00  0.00     0.059 A 
ATOM     69  F   UNL A   1      47.740  31.153  29.067  1.00  0.00    -0.206 F 
ATOM     70  C   UNL A   1      45.954  33.127  26.623  1.00  0.00     0.060 A 
BRANCH  70  71
ATOM     71  S   UNL A   1      46.202  34.612  25.626  1.00  0.00     0.124 S 
ATOM     72  O   UNL A   1      47.619  34.515  25.278  1.00  0.00    -0.237 OA
ATOM     73  O   UNL A   1      45.267  34.411  24.518  1.00  0.00    -0.237 OA
ATOM     74  O   UNL A   1      45.854  35.697  26.530  1.00  0.00    -0.744 OA
ENDBRANCH  70  71
ENDBRANCH  38  63
ENDBRANCH  12  13
ENDBRANCH   5   7
ENDBRANCH   2   3
ENDBRANCH   1   2
BRANCH   1  75
ATOM     75  C   UNL A   1      31.753  27.887  27.057  1.00  0.00     0.023 C 
BRANCH  75  76
ATOM     76  C   UNL A   1      32.312  26.578  26.495  1.00  0.00     0.116 C 
BRANCH  76  77
ATOM     77  N   UNL A   1      31.484  25.398  26.677  1.00  0.00    -0.351 N 
ATOM     78  C   UNL A   1      31.827  24.066  26.570  1.00  0.00     0.272 C 
ATOM     79  H   UNL A   1      30.542  25.574  26.909  1.00  0.00     0.163 HD
ATOM     80  O   UNL A   1      31.199  23.210  27.192  1.00  0.00    -0.267 OA
BRANCH  78  81
ATOM     81  C   UNL A   1      33.025  23.645  25.841  1.00  0.00     0.159 A 
ATOM     82  N   UNL A   1      34.120  23.638  26.687  1.00  0.00    -0.247 NA
ATOM     83  C   UNL A   1      33.063  23.151  24.541  1.00  0.00     0.159 A 
ATOM     84  C   UNL A   1      35.261  23.122  26.202  1.00  0.00     0.132 A 
ATOM     85  N   UNL A   1      34.270  22.646  24.094  1.00  0.00    -0.247 NA
ATOM     86  C   UNL A   1      35.336  22.635  24.924  1.00  0.00     0.132 A 
BRANCH  83  87
ATOM     87  C   UNL A   1      32.033  23.035  23.425  1.00  0.00     0.276 C 
ATOM     88  O   UNL A   1      31.927  21.921  22.883  1.00  0.00    -0.267 OA
ATOM     89  N   UNL A   1      31.108  23.935  22.938  1.00  0.00    -0.321 N 
ATOM     90  H   UNL A   1      30.503  23.542  22.268  1.00  0.00     0.170 HD
BRANCH  89  91
ATOM     91  C   UNL A   1      30.852  25.269  23.189  1.00  0.00     0.043 A 
ATOM     92  C   UNL A   1      29.679  25.645  23.831  1.00  0.00     0.028 A 
ATOM     93  C   UNL A   1      31.835  26.216  22.914  1.00  0.00     0.049 A 
ATOM     94  C   UNL A   1      29.369  27.002  23.933  1.00  0.00     0.032 A 
ATOM     95  C   UNL A   1      31.511  27.575  22.970  1.00  0.00     0.068 A 
ATOM     96  C   UNL A   1      30.212  27.954  23.331  1.00  0.00     0.085 A 
ATOM     97  Cl  UNL A   1      32.783  28.694  22.633  1.00  0.00    -0.082 Cl
BRANCH  96  98
ATOM     98  N   UNL A   1      29.605  29.157  22.876  1.00  0.00    -0.220 N 
ATOM     99  C   UNL A   1      29.396  30.337  23.556  1.00  0.00     0.226 A 
ATOM    100  N   UNL A   1      29.417  29.392  21.546  1.00  0.00    -0.155 NA
ATOM    101  N   UNL A   1      29.024  31.293  22.736  1.00  0.00    -0.223 NA
ATOM    102  C   UNL A   1      29.057  30.675  21.526  1.00  0.00     0.246 A 
ENDBRANCH  96  98
ENDBRANCH  89  91
ENDBRANCH  83  87
ENDBRANCH  78  81
ENDBRANCH  76  77
ENDBRANCH  75  76
ENDBRANCH   1  75
TORSDOF 17
ENDMDL
MODEL 3
REMARK VINA RESULT:     -12.6      2.103      4.192
REMARK SMILES O=C(NCCCCNC(=O)c1nccnc1C(=O)Nc1ccc(-n2cncn2)c(Cl)c1)c1ccc(-c2c3nc(c(-c4c(F)cc(S(=O)(=O)[O-])cc4F)c4ccc([nH]4)c(-c4c(F)cc(S(=O)(=O)[O-])cc4F)c4nc(c(-c5c(F)cc(S(=O)(=O)[O-])cc5F)c5ccc2[nH]5)C=C4)C=C3)cc1
REMARK SMILES IDX 5 1 4 2 3 3 1 4 2 5 32 7 33 8 97 9 34 10 96 11 35 12 36 13
REMARK SMILES IDX 37 14 90 15 38 16 95 17 89 18 91 19 39 20 94 21 88 22 87 23
REMARK SMILES IDX 40 25 74 26 53 27 73 28 54 29 57 30 72 31 92 32 55 33 56 34
REMARK SMILES IDX 71 36 93 37 58 38 41 39 42 40 51 41 43 42 44 43 50 44 52 45
REMARK SMILES IDX 45 46 46 47 47 48 48 49 49 50 75 51 76 52 85 53 77 54 78 55
REMARK SMILES IDX 84 56 86 57 79 58 80 59 81 60 82 61 83 62 59 63 60 64 69 65
REMARK SMILES IDX 61 66 62 67 68 68 70 69 63 70 64 71 65 72 66 73 67 74 6 75
REMARK SMILES IDX 7 76 8 77 9 78 10 80 11 81 12 82 16 83 13 84 15 85 14 86
REMARK SMILES IDX 17 87 18 88 19 89 20 91 21 92 31 93 22 94 29 95 23 96 30 97
REMARK SMILES IDX 24 98 25 99 28 100 26 101 27 102
REMARK H PARENT 3 6 91 24 57 35 8 79 19 90
REMARK Flexibility Score: inf
ROOT
ATOM      1  C   UNL A   1      39.569  20.735  26.115  1.00  0.00     0.023 C 
ENDROOT
BRANCH   1   2
ATOM      2  C   UNL A   1      40.950  21.184  26.578  1.00  0.00     0.116 C 
BRANCH   2   3
ATOM      3  N   UNL A   1      41.782  21.767  25.550  1.00  0.00    -0.352 N 
ATOM      4  O   UNL A   1      43.200  23.004  24.416  1.00  0.00    -0.269 OA
ATOM      5  C   UNL A   1      42.440  22.954  25.389  1.00  0.00     0.251 C 
ATOM      6  H   UNL A   1      41.903  21.165  24.781  1.00  0.00     0.163 HD
BRANCH   5   7
ATOM      7  C   UNL A   1      42.286  24.169  26.239  1.00  0.00     0.039 A 
ATOM      8  C   UNL A   1      42.759  24.341  27.541  1.00  0.00     0.014 A 
ATOM      9  C   UNL A   1      41.597  25.241  25.635  1.00  0.00     0.014 A 
ATOM     10  C   UNL A   1      42.509  25.533  28.232  1.00  0.00     0.010 A 
ATOM     11  C   UNL A   1      41.353  26.431  26.317  1.00  0.00     0.010 A 
ATOM     12  C   UNL A   1      41.788  26.573  27.631  1.00  0.00    -0.014 A 
BRANCH  12  13
ATOM     13  C   UNL A   1      41.616  27.835  28.360  1.00  0.00     0.031 A 
ATOM     14  C   UNL A   1      42.718  28.836  28.205  1.00  0.00     0.074 A 
ATOM     15  C   UNL A   1      40.482  28.206  28.994  1.00  0.00     0.049 A 
ATOM     16  N   UNL A   1      43.480  29.351  29.116  1.00  0.00    -0.248 NA
ATOM     17  C   UNL A   1      43.045  29.276  26.840  1.00  0.00     0.031 C 
ATOM     18  C   UNL A   1      39.178  27.539  28.982  1.00  0.00     0.029 A 
ATOM     19  N   UNL A   1      40.239  29.341  29.717  1.00  0.00    -0.354 N 
ATOM     20  C   UNL A   1      44.264  30.312  28.475  1.00  0.00     0.074 A 
ATOM     21  C   UNL A   1      44.036  30.140  27.063  1.00  0.00     0.031 C 
ATOM     22  C   UNL A   1      38.242  28.377  29.485  1.00  0.00     0.029 A 
ATOM     23  C   UNL A   1      38.896  29.574  29.986  1.00  0.00     0.049 A 
ATOM     24  H   UNL A   1      40.956  29.942  30.023  1.00  0.00     0.167 HD
ATOM     25  C   UNL A   1      44.922  31.296  29.154  1.00  0.00     0.037 A 
ATOM     26  C   UNL A   1      38.354  30.690  30.536  1.00  0.00     0.037 A 
ATOM     27  C   UNL A   1      45.042  30.990  30.553  1.00  0.00     0.049 A 
ATOM     28  C   UNL A   1      39.435  31.404  31.259  1.00  0.00     0.074 A 
ATOM     29  C   UNL A   1      45.626  29.970  31.280  1.00  0.00     0.029 A 
ATOM     30  N   UNL A   1      44.222  31.647  31.436  1.00  0.00    -0.354 N 
ATOM     31  N   UNL A   1      40.028  30.955  32.332  1.00  0.00    -0.248 NA
ATOM     32  C   UNL A   1      40.133  32.471  30.560  1.00  0.00     0.031 C 
ATOM     33  C   UNL A   1      44.755  29.763  32.388  1.00  0.00     0.029 A 
ATOM     34  C   UNL A   1      43.723  30.698  32.290  1.00  0.00     0.049 A 
ATOM     35  H   UNL A   1      44.029  32.612  31.451  1.00  0.00     0.167 HD
ATOM     36  C   UNL A   1      41.341  31.380  32.215  1.00  0.00     0.074 A 
ATOM     37  C   UNL A   1      41.321  32.391  31.162  1.00  0.00     0.031 C 
ATOM     38  C   UNL A   1      42.367  30.690  32.793  1.00  0.00     0.037 A 
BRANCH  25  39
ATOM     39  C   UNL A   1      45.205  32.678  28.610  1.00  0.00     0.058 A 
ATOM     40  C   UNL A   1      46.540  33.122  28.477  1.00  0.00     0.135 A 
ATOM     41  C   UNL A   1      44.218  33.678  28.480  1.00  0.00     0.135 A 
ATOM     42  F   UNL A   1      47.563  32.260  28.595  1.00  0.00    -0.206 F 
ATOM     43  C   UNL A   1      46.868  34.467  28.295  1.00  0.00     0.059 A 
ATOM     44  C   UNL A   1      44.520  35.016  28.247  1.00  0.00     0.059 A 
ATOM     45  F   UNL A   1      42.918  33.418  28.671  1.00  0.00    -0.206 F 
ATOM     46  C   UNL A   1      45.849  35.410  28.200  1.00  0.00     0.060 A 
BRANCH  46  47
ATOM     47  S   UNL A   1      46.269  37.159  28.087  1.00  0.00     0.124 S 
ATOM     48  O   UNL A   1      47.563  37.190  28.760  1.00  0.00    -0.237 OA
ATOM     49  O   UNL A   1      46.293  37.375  26.644  1.00  0.00    -0.237 OA
ATOM     50  O   UNL A   1      45.172  37.813  28.795  1.00  0.00    -0.744 OA
ENDBRANCH  46  47
ENDBRANCH  25  39
BRANCH  26  51
ATOM     51  C   UNL A   1      37.053  31.341  30.223  1.00  0.00     0.058 A 
ATOM     52  C   UNL A   1      36.198  31.796  31.243  1.00  0.00     0.135 A 
ATOM     53  C   UNL A   1      36.760  31.792  28.921  1.00  0.00     0.135 A 
ATOM     54  F   UNL A   1      36.415  31.436  32.518  1.00  0.00    -0.206 F 
ATOM     55  C   UNL A   1      35.147  32.687  30.996  1.00  0.00     0.059 A 
ATOM     56  C   UNL A   1      35.712  32.671  28.649  1.00  0.00     0.059 A 
ATOM     57  F   UNL A   1      37.546  31.466  27.884  1.00  0.00    -0.206 F 
ATOM     58  C   UNL A   1      34.925  33.136  29.695  1.00  0.00     0.060 A 
BRANCH  58  59
ATOM     59  S   UNL A   1      33.687  34.421  29.397  1.00  0.00     0.124 S 
ATOM     60  O   UNL A   1      33.298  34.785  30.754  1.00  0.00    -0.237 OA
ATOM     61  O   UNL A   1      34.450  35.421  28.661  1.00  0.00    -0.237 OA
ATOM     62  O   UNL A   1      32.662  33.729  28.618  1.00  0.00    -0.744 OA
ENDBRANCH  58  59
ENDBRANCH  26  51
BRANCH  38  63
ATOM     63  C   UNL A   1      42.047  29.653  33.836  1.00  0.00     0.058 A 
ATOM     64  C   UNL A   1      41.613  28.347  33.549  1.00  0.00     0.135 A 
ATOM     65  C   UNL A   1      42.384  29.938  35.169  1.00  0.00     0.135 A 
ATOM     66  F   UNL A   1      41.362  27.964  32.289  1.00  0.00    -0.206 F 
ATOM     67  C   UNL A   1      41.504  27.375  34.546  1.00  0.00     0.059 A 
ATOM     68  C   UNL A   1      42.311  28.978  36.173  1.00  0.00     0.059 A 
ATOM     69  F   UNL A   1      42.857  31.153  35.497  1.00  0.00    -0.206 F 
ATOM     70  C   UNL A   1      41.867  27.696  35.854  1.00  0.00     0.060 A 
BRANCH  70  71
ATOM     71  S   UNL A   1      41.860  26.403  37.115  1.00  0.00     0.124 S 
ATOM     72  O   UNL A   1      42.987  26.794  37.961  1.00  0.00    -0.237 OA
ATOM     73  O   UNL A   1      40.535  26.557  37.721  1.00  0.00    -0.237 OA
ATOM     74  O   UNL A   1      42.045  25.178  36.354  1.00  0.00    -0.744 OA
ENDBRANCH  70  71
ENDBRANCH  38  63
ENDBRANCH  12  13
ENDBRANCH   5   7
ENDBRANCH   2   3
ENDBRANCH   1   2
BRANCH   1  75
ATOM     75  C   UNL A   1      38.608  21.814  25.596  1.00  0.00     0.023 C 
BRANCH  75  76
ATOM     76  C   UNL A   1      37.103  21.534  25.579  1.00  0.00     0.116 C 
BRANCH  76  77
ATOM     77  N   UNL A   1      36.274  22.440  26.356  1.00  0.00    -0.351 N 
ATOM     78  C   UNL A   1      34.899  22.537  26.408  1.00  0.00     0.272 C 
ATOM     79  H   UNL A   1      36.764  23.075  26.928  1.00  0.00     0.163 HD
ATOM     80  O   UNL A   1      34.344  22.982  27.411  1.00  0.00    -0.267 OA
BRANCH  78  81
ATOM     81  C   UNL A   1      34.057  21.987  25.344  1.00  0.00     0.159 A 
ATOM     82  N   UNL A   1      33.262  20.970  25.843  1.00  0.00    -0.247 NA
ATOM     83  C   UNL A   1      33.921  22.498  24.057  1.00  0.00     0.159 A 
ATOM     84  C   UNL A   1      32.322  20.473  25.024  1.00  0.00     0.132 A 
ATOM     85  N   UNL A   1      32.945  21.935  23.256  1.00  0.00    -0.247 NA
ATOM     86  C   UNL A   1      32.166  20.947  23.748  1.00  0.00     0.132 A 
BRANCH  83  87
ATOM     87  C   UNL A   1      34.640  23.587  23.273  1.00  0.00     0.276 C 
ATOM     88  O   UNL A   1      35.750  23.288  22.799  1.00  0.00    -0.267 OA
ATOM     89  N   UNL A   1      34.250  24.858  22.906  1.00  0.00    -0.321 N 
ATOM     90  H   UNL A   1      34.895  25.304  22.310  1.00  0.00     0.170 HD
BRANCH  89  91
ATOM     91  C   UNL A   1      33.147  25.638  23.197  1.00  0.00     0.043 A 
ATOM     92  C   UNL A   1      31.871  25.188  22.881  1.00  0.00     0.028 A 
ATOM     93  C   UNL A   1      33.315  26.812  23.927  1.00  0.00     0.049 A 
ATOM     94  C   UNL A   1      30.790  26.057  23.039  1.00  0.00     0.032 A 
ATOM     95  C   UNL A   1      32.245  27.704  24.045  1.00  0.00     0.068 A 
ATOM     96  C   UNL A   1      31.018  27.382  23.453  1.00  0.00     0.085 A 
ATOM     97  Cl  UNL A   1      32.519  29.132  24.978  1.00  0.00    -0.082 Cl
BRANCH  96  98
ATOM     98  N   UNL A   1      30.101  28.367  22.993  1.00  0.00    -0.220 N 
ATOM     99  C   UNL A   1      30.303  29.389  22.092  1.00  0.00     0.226 A 
ATOM    100  N   UNL A   1      28.758  28.222  23.179  1.00  0.00    -0.155 NA
ATOM    101  N   UNL A   1      29.163  29.942  21.745  1.00  0.00    -0.223 NA
ATOM    102  C   UNL A   1      28.253  29.197  22.424  1.00  0.00     0.246 A 
ENDBRANCH  96  98
ENDBRANCH  89  91
ENDBRANCH  83  87
ENDBRANCH  78  81
ENDBRANCH  76  77
ENDBRANCH  75  76
ENDBRANCH   1  75
TORSDOF 17
ENDMDL
