MODEL 1
REMARK VINA RESULT:     -10.5      0.000      0.000
REMARK SMILES CC[C@H](NC(=O)NC[C@@]1(C)CCCO1)C(=O)NCCCCNC(=O)c1ccc(-c2c3nc(c(-c4c(F)cc(S(=O)(=O)[O-])cc4F)c4ccc([nH]4)c(-c4c(F)cc(S(=O)(=O)[O-])cc4F)c4nc(c(-c5c(F)cc(S(=O)(=O)[O-])cc5F)c5ccc2[nH]5)C=C4)C=C3)cc1
REMARK SMILES IDX 19 1 18 2 17 3 15 4 16 5 3 7 2 8 1 9 4 10 5 11 6 13 7 14
REMARK SMILES IDX 8 16 9 17 10 18 11 19 14 20 12 21 13 22 20 23 21 24 22 25
REMARK SMILES IDX 23 26 24 28 25 29 26 30 90 31 27 32 89 33 28 34 29 35 30 36
REMARK SMILES IDX 83 37 31 38 88 39 82 40 84 41 32 42 87 43 81 44 80 45 33 47
REMARK SMILES IDX 67 48 46 49 66 50 47 51 50 52 65 53 85 54 48 55 49 56 64 58
REMARK SMILES IDX 86 59 51 60 34 61 35 62 44 63 36 64 37 65 43 66 45 67 38 68
REMARK SMILES IDX 39 69 40 70 41 71 42 72 68 73 69 74 78 75 70 76 71 77 77 78
REMARK SMILES IDX 79 79 72 80 73 81 74 82 75 83 76 84 52 85 53 86 62 87 54 88
REMARK SMILES IDX 55 89 61 90 63 91 56 92 57 93 58 94 59 95 60 96
REMARK H PARENT 17 6 4 12 7 15 22 27 84 46 50 57
REMARK Flexibility Score: inf
ROOT
ATOM      1  C   UNL A   1      31.472  26.859  26.485  1.00  0.00     0.023 C 
ENDROOT
BRANCH   1   2
ATOM      2  C   UNL A   1      30.536  26.580  25.287  1.00  0.00     0.116 C 
BRANCH   2   3
ATOM      3  N   UNL A   1      30.290  27.503  24.185  1.00  0.00    -0.354 N 
ATOM      4  C   UNL A   1      30.917  27.688  22.974  1.00  0.00     0.242 C 
ATOM      5  O   UNL A   1      30.245  27.950  21.970  1.00  0.00    -0.273 OA
ATOM      6  H   UNL A   1      29.530  28.111  24.337  1.00  0.00     0.163 HD
BRANCH   4   7
ATOM      7  C   UNL A   1      32.386  27.455  22.747  1.00  0.00     0.172 C 
BRANCH   7   8
ATOM      8  C   UNL A   1      33.130  28.775  23.105  1.00  0.00     0.032 C 
ATOM      9  C   UNL A   1      34.639  28.836  22.820  1.00  0.00     0.006 C 
ENDBRANCH   7   8
BRANCH   7  10
ATOM     10  N   UNL A   1      32.596  26.854  21.458  1.00  0.00    -0.326 N 
ATOM     11  C   UNL A   1      32.632  25.549  21.123  1.00  0.00     0.315 C 
ATOM     12  H   UNL A   1      32.736  27.486  20.716  1.00  0.00     0.166 HD
ATOM     13  O   UNL A   1      32.965  25.296  19.960  1.00  0.00    -0.249 OA
ATOM     14  N   UNL A   1      32.213  24.513  21.891  1.00  0.00    -0.335 N 
ATOM     15  H   UNL A   1      31.804  23.819  21.326  1.00  0.00     0.165 HD
BRANCH  14  16
ATOM     16  C   UNL A   1      32.175  24.089  23.334  1.00  0.00     0.152 C 
BRANCH  16  17
ATOM     17  C   UNL A   1      33.480  23.595  24.136  1.00  0.00     0.083 C 
ATOM     18  C   UNL A   1      34.000  22.193  23.730  1.00  0.00     0.044 C 
ATOM     19  C   UNL A   1      34.606  24.602  24.243  1.00  0.00     0.039 C 
ATOM     20  O   UNL A   1      33.156  23.433  25.555  1.00  0.00    -0.373 OA
ATOM     21  C   UNL A   1      35.436  24.113  25.409  1.00  0.00     0.031 C 
ATOM     22  C   UNL A   1      34.404  23.449  26.297  1.00  0.00     0.161 C 
ENDBRANCH  16  17
ENDBRANCH  14  16
ENDBRANCH   7  10
ENDBRANCH   4   7
ENDBRANCH   2   3
ENDBRANCH   1   2
BRANCH   1  23
ATOM     23  C   UNL A   1      33.008  26.855  26.507  1.00  0.00     0.023 C 
BRANCH  23  24
ATOM     24  C   UNL A   1      33.873  28.105  26.314  1.00  0.00     0.116 C 
BRANCH  24  25
ATOM     25  N   UNL A   1      33.437  29.345  26.904  1.00  0.00    -0.352 N 
ATOM     26  C   UNL A   1      34.227  30.228  27.614  1.00  0.00     0.251 C 
ATOM     27  H   UNL A   1      32.490  29.585  26.791  1.00  0.00     0.163 HD
ATOM     28  O   UNL A   1      33.725  31.275  28.046  1.00  0.00    -0.269 OA
BRANCH  26  29
ATOM     29  C   UNL A   1      35.656  29.927  27.916  1.00  0.00     0.039 A 
ATOM     30  C   UNL A   1      35.996  29.504  29.203  1.00  0.00     0.014 A 
ATOM     31  C   UNL A   1      36.678  30.109  26.981  1.00  0.00     0.014 A 
ATOM     32  C   UNL A   1      37.335  29.238  29.537  1.00  0.00     0.010 A 
ATOM     33  C   UNL A   1      38.008  29.770  27.297  1.00  0.00     0.010 A 
ATOM     34  C   UNL A   1      38.367  29.347  28.587  1.00  0.00    -0.014 A 
BRANCH  34  35
ATOM     35  C   UNL A   1      39.791  29.045  28.971  1.00  0.00     0.031 A 
ATOM     36  C   UNL A   1      40.444  27.720  28.623  1.00  0.00     0.074 A 
ATOM     37  C   UNL A   1      40.533  29.968  29.623  1.00  0.00     0.049 A 
ATOM     38  N   UNL A   1      41.693  27.347  28.770  1.00  0.00    -0.248 NA
ATOM     39  C   UNL A   1      39.581  26.670  28.061  1.00  0.00     0.031 C 
ATOM     40  C   UNL A   1      40.038  31.260  30.103  1.00  0.00     0.029 A 
ATOM     41  N   UNL A   1      41.864  29.977  29.980  1.00  0.00    -0.354 N 
ATOM     42  C   UNL A   1      41.762  26.027  28.330  1.00  0.00     0.074 A 
ATOM     43  C   UNL A   1      40.414  25.643  27.973  1.00  0.00     0.031 C 
ATOM     44  C   UNL A   1      41.059  31.958  30.629  1.00  0.00     0.029 A 
ATOM     45  C   UNL A   1      42.279  31.159  30.555  1.00  0.00     0.049 A 
ATOM     46  H   UNL A   1      42.463  29.209  29.837  1.00  0.00     0.167 HD
ATOM     47  C   UNL A   1      42.842  25.214  28.198  1.00  0.00     0.037 A 
ATOM     48  C   UNL A   1      43.500  31.570  30.958  1.00  0.00     0.037 A 
ATOM     49  C   UNL A   1      44.194  25.597  28.521  1.00  0.00     0.049 A 
ATOM     50  C   UNL A   1      44.693  30.667  30.773  1.00  0.00     0.074 A 
ATOM     51  C   UNL A   1      45.360  24.868  28.347  1.00  0.00     0.029 A 
ATOM     52  N   UNL A   1      44.566  26.806  29.088  1.00  0.00    -0.354 N 
ATOM     53  N   UNL A   1      44.745  29.462  30.258  1.00  0.00    -0.248 NA
ATOM     54  C   UNL A   1      45.997  31.190  31.206  1.00  0.00     0.031 C 
ATOM     55  C   UNL A   1      46.428  25.613  28.858  1.00  0.00     0.029 A 
ATOM     56  C   UNL A   1      45.938  26.834  29.290  1.00  0.00     0.049 A 
ATOM     57  H   UNL A   1      43.947  27.538  29.314  1.00  0.00     0.167 HD
ATOM     58  C   UNL A   1      46.090  29.102  30.267  1.00  0.00     0.074 A 
ATOM     59  C   UNL A   1      46.818  30.219  30.830  1.00  0.00     0.031 C 
ATOM     60  C   UNL A   1      46.668  27.951  29.838  1.00  0.00     0.037 A 
BRANCH  47  61
ATOM     61  C   UNL A   1      42.613  23.819  27.669  1.00  0.00     0.058 A 
ATOM     62  C   UNL A   1      42.580  23.544  26.291  1.00  0.00     0.135 A 
ATOM     63  C   UNL A   1      42.468  22.734  28.551  1.00  0.00     0.135 A 
ATOM     64  F   UNL A   1      42.708  24.540  25.400  1.00  0.00    -0.206 F 
ATOM     65  C   UNL A   1      42.367  22.256  25.809  1.00  0.00     0.059 A 
ATOM     66  C   UNL A   1      42.288  21.432  28.089  1.00  0.00     0.059 A 
ATOM     67  F   UNL A   1      42.502  22.931  29.877  1.00  0.00    -0.206 F 
ATOM     68  C   UNL A   1      42.219  21.206  26.715  1.00  0.00     0.060 A 
BRANCH  68  69
ATOM     69  S   UNL A   1      41.931  19.544  26.072  1.00  0.00     0.124 S 
ATOM     70  O   UNL A   1      42.387  18.719  27.187  1.00  0.00    -0.237 OA
ATOM     71  O   UNL A   1      40.491  19.547  25.834  1.00  0.00    -0.237 OA
ATOM     72  O   UNL A   1      42.761  19.493  24.874  1.00  0.00    -0.744 OA
ENDBRANCH  68  69
ENDBRANCH  47  61
BRANCH  48  73
ATOM     73  C   UNL A   1      43.678  32.937  31.530  1.00  0.00     0.058 A 
ATOM     74  C   UNL A   1      44.044  34.023  30.717  1.00  0.00     0.135 A 
ATOM     75  C   UNL A   1      43.492  33.186  32.898  1.00  0.00     0.135 A 
ATOM     76  F   UNL A   1      44.247  33.837  29.403  1.00  0.00    -0.206 F 
ATOM     77  C   UNL A   1      44.237  35.297  31.239  1.00  0.00     0.059 A 
ATOM     78  C   UNL A   1      43.650  34.459  33.440  1.00  0.00     0.059 A 
ATOM     79  F   UNL A   1      43.130  32.188  33.719  1.00  0.00    -0.206 F 
ATOM     80  C   UNL A   1      44.034  35.506  32.604  1.00  0.00     0.060 A 
BRANCH  80  81
ATOM     81  S   UNL A   1      44.236  37.176  33.264  1.00  0.00     0.124 S 
ATOM     82  O   UNL A   1      43.832  37.994  32.126  1.00  0.00    -0.237 OA
ATOM     83  O   UNL A   1      43.320  37.168  34.401  1.00  0.00    -0.237 OA
ATOM     84  O   UNL A   1      45.653  37.230  33.610  1.00  0.00    -0.744 OA
ENDBRANCH  80  81
ENDBRANCH  48  73
BRANCH  60  85
ATOM     85  C   UNL A   1      48.171  27.855  29.898  1.00  0.00     0.058 A 
ATOM     86  C   UNL A   1      48.991  28.262  28.833  1.00  0.00     0.135 A 
ATOM     87  C   UNL A   1      48.801  27.370  31.057  1.00  0.00     0.135 A 
ATOM     88  F   UNL A   1      48.447  28.734  27.701  1.00  0.00    -0.206 F 
ATOM     89  C   UNL A   1      50.378  28.152  28.900  1.00  0.00     0.059 A 
ATOM     90  C   UNL A   1      50.186  27.283  31.157  1.00  0.00     0.059 A 
ATOM     91  F   UNL A   1      48.068  26.980  32.111  1.00  0.00    -0.206 F 
ATOM     92  C   UNL A   1      50.966  27.657  30.065  1.00  0.00     0.060 A 
BRANCH  92  93
ATOM     93  S   UNL A   1      52.766  27.522  30.141  1.00  0.00     0.124 S 
ATOM     94  O   UNL A   1      53.152  28.013  28.822  1.00  0.00    -0.237 OA
ATOM     95  O   UNL A   1      53.098  28.393  31.264  1.00  0.00    -0.237 OA
ATOM     96  O   UNL A   1      52.990  26.098  30.371  1.00  0.00    -0.744 OA
ENDBRANCH  92  93
ENDBRANCH  60  85
ENDBRANCH  34  35
ENDBRANCH  26  29
ENDBRANCH  24  25
ENDBRANCH  23  24
ENDBRANCH   1  23
TORSDOF 18
ENDMDL
MODEL 2
REMARK VINA RESULT:     -10.4      3.231      7.506
REMARK SMILES CC[C@H](NC(=O)NC[C@@]1(C)CCCO1)C(=O)NCCCCNC(=O)c1ccc(-c2c3nc(c(-c4c(F)cc(S(=O)(=O)[O-])cc4F)c4ccc([nH]4)c(-c4c(F)cc(S(=O)(=O)[O-])cc4F)c4nc(c(-c5c(F)cc(S(=O)(=O)[O-])cc5F)c5ccc2[nH]5)C=C4)C=C3)cc1
REMARK SMILES IDX 19 1 18 2 17 3 15 4 16 5 3 7 2 8 1 9 4 10 5 11 6 13 7 14
REMARK SMILES IDX 8 16 9 17 10 18 11 19 14 20 12 21 13 22 20 23 21 24 22 25
REMARK SMILES IDX 23 26 24 28 25 29 26 30 90 31 27 32 89 33 28 34 29 35 30 36
REMARK SMILES IDX 83 37 31 38 88 39 82 40 84 41 32 42 87 43 81 44 80 45 33 47
REMARK SMILES IDX 67 48 46 49 66 50 47 51 50 52 65 53 85 54 48 55 49 56 64 58
REMARK SMILES IDX 86 59 51 60 34 61 35 62 44 63 36 64 37 65 43 66 45 67 38 68
REMARK SMILES IDX 39 69 40 70 41 71 42 72 68 73 69 74 78 75 70 76 71 77 77 78
REMARK SMILES IDX 79 79 72 80 73 81 74 82 75 83 76 84 52 85 53 86 62 87 54 88
REMARK SMILES IDX 55 89 61 90 63 91 56 92 57 93 58 94 59 95 60 96
REMARK H PARENT 17 6 4 12 7 15 22 27 84 46 50 57
REMARK Flexibility Score: inf
ROOT
ATOM      1  C   UNL A   1      34.190  24.816  25.365  1.00  0.00     0.023 C 
ENDROOT
BRANCH   1   2
ATOM      2  C   UNL A   1      33.839  26.306  25.150  1.00  0.00     0.116 C 
BRANCH   2   3
ATOM      3  N   UNL A   1      32.748  27.012  25.810  1.00  0.00    -0.354 N 
ATOM      4  C   UNL A   1      31.525  26.594  26.284  1.00  0.00     0.242 C 
ATOM      5  O   UNL A   1      31.081  27.064  27.337  1.00  0.00    -0.273 OA
ATOM      6  H   UNL A   1      32.918  27.972  25.944  1.00  0.00     0.163 HD
BRANCH   4   7
ATOM      7  C   UNL A   1      30.728  25.474  25.670  1.00  0.00     0.172 C 
BRANCH   7   8
ATOM      8  C   UNL A   1      29.786  26.104  24.601  1.00  0.00     0.032 C 
ATOM      9  C   UNL A   1      30.386  26.399  23.217  1.00  0.00     0.006 C 
ENDBRANCH   7   8
BRANCH   7  10
ATOM     10  N   UNL A   1      30.168  24.645  26.701  1.00  0.00    -0.326 N 
ATOM     11  C   UNL A   1      30.254  23.308  26.858  1.00  0.00     0.315 C 
ATOM     12  H   UNL A   1      29.647  25.119  27.389  1.00  0.00     0.166 HD
ATOM     13  O   UNL A   1      29.564  22.823  27.762  1.00  0.00    -0.249 OA
ATOM     14  N   UNL A   1      31.113  22.480  26.215  1.00  0.00    -0.335 N 
ATOM     15  H   UNL A   1      31.404  21.761  26.821  1.00  0.00     0.165 HD
BRANCH  14  16
ATOM     16  C   UNL A   1      31.764  22.312  24.870  1.00  0.00     0.152 C 
BRANCH  16  17
ATOM     17  C   UNL A   1      32.466  20.942  24.401  1.00  0.00     0.083 C 
ATOM     18  C   UNL A   1      32.208  20.552  22.923  1.00  0.00     0.044 C 
ATOM     19  C   UNL A   1      33.926  20.790  24.774  1.00  0.00     0.039 C 
ATOM     20  O   UNL A   1      31.901  19.816  25.147  1.00  0.00    -0.373 OA
ATOM     21  C   UNL A   1      34.182  19.302  24.685  1.00  0.00     0.031 C 
ATOM     22  C   UNL A   1      32.838  18.710  25.054  1.00  0.00     0.161 C 
ENDBRANCH  16  17
ENDBRANCH  14  16
ENDBRANCH   7  10
ENDBRANCH   4   7
ENDBRANCH   2   3
ENDBRANCH   1   2
BRANCH   1  23
ATOM     23  C   UNL A   1      35.536  24.116  25.124  1.00  0.00     0.023 C 
BRANCH  23  24
ATOM     24  C   UNL A   1      36.506  23.713  26.239  1.00  0.00     0.116 C 
BRANCH  24  25
ATOM     25  N   UNL A   1      37.481  22.687  25.971  1.00  0.00    -0.352 N 
ATOM     26  C   UNL A   1      38.830  22.755  26.257  1.00  0.00     0.251 C 
ATOM     27  H   UNL A   1      37.155  21.863  25.545  1.00  0.00     0.163 HD
ATOM     28  O   UNL A   1      39.553  21.784  25.995  1.00  0.00    -0.269 OA
BRANCH  26  29
ATOM     29  C   UNL A   1      39.447  23.988  26.828  1.00  0.00     0.039 A 
ATOM     30  C   UNL A   1      39.871  24.993  25.955  1.00  0.00     0.014 A 
ATOM     31  C   UNL A   1      39.672  24.152  28.197  1.00  0.00     0.014 A 
ATOM     32  C   UNL A   1      40.482  26.157  26.451  1.00  0.00     0.010 A 
ATOM     33  C   UNL A   1      40.217  25.352  28.695  1.00  0.00     0.010 A 
ATOM     34  C   UNL A   1      40.652  26.371  27.831  1.00  0.00    -0.014 A 
BRANCH  34  35
ATOM     35  C   UNL A   1      41.300  27.634  28.332  1.00  0.00     0.031 A 
ATOM     36  C   UNL A   1      42.789  27.880  28.172  1.00  0.00     0.074 A 
ATOM     37  C   UNL A   1      40.555  28.595  28.922  1.00  0.00     0.049 A 
ATOM     38  N   UNL A   1      43.483  28.962  28.435  1.00  0.00    -0.248 NA
ATOM     39  C   UNL A   1      43.608  26.764  27.679  1.00  0.00     0.031 C 
ATOM     40  C   UNL A   1      39.126  28.487  29.225  1.00  0.00     0.029 A 
ATOM     41  N   UNL A   1      40.884  29.861  29.356  1.00  0.00    -0.354 N 
ATOM     42  C   UNL A   1      44.811  28.654  28.148  1.00  0.00     0.074 A 
ATOM     43  C   UNL A   1      44.833  27.262  27.755  1.00  0.00     0.031 C 
ATOM     44  C   UNL A   1      38.691  29.653  29.732  1.00  0.00     0.029 A 
ATOM     45  C   UNL A   1      39.809  30.588  29.820  1.00  0.00     0.049 A 
ATOM     46  H   UNL A   1      41.803  30.213  29.335  1.00  0.00     0.167 HD
ATOM     47  C   UNL A   1      45.909  29.453  28.173  1.00  0.00     0.037 A 
ATOM     48  C   UNL A   1      39.719  31.865  30.248  1.00  0.00     0.037 A 
ATOM     49  C   UNL A   1      45.893  30.849  28.533  1.00  0.00     0.049 A 
ATOM     50  C   UNL A   1      40.942  32.748  30.237  1.00  0.00     0.074 A 
ATOM     51  C   UNL A   1      46.942  31.755  28.511  1.00  0.00     0.029 A 
ATOM     52  N   UNL A   1      44.781  31.543  28.985  1.00  0.00    -0.354 N 
ATOM     53  N   UNL A   1      42.165  32.459  29.863  1.00  0.00    -0.248 NA
ATOM     54  C   UNL A   1      40.766  34.135  30.688  1.00  0.00     0.031 C 
ATOM     55  C   UNL A   1      46.476  32.981  29.001  1.00  0.00     0.029 A 
ATOM     56  C   UNL A   1      45.123  32.857  29.265  1.00  0.00     0.049 A 
ATOM     57  H   UNL A   1      43.881  31.159  29.090  1.00  0.00     0.167 HD
ATOM     58  C   UNL A   1      42.892  33.639  29.993  1.00  0.00     0.074 A 
ATOM     59  C   UNL A   1      41.970  34.647  30.473  1.00  0.00     0.031 C 
ATOM     60  C   UNL A   1      44.203  33.867  29.729  1.00  0.00     0.037 A 
BRANCH  47  61
ATOM     61  C   UNL A   1      47.235  28.841  27.788  1.00  0.00     0.058 A 
ATOM     62  C   UNL A   1      48.112  28.309  28.749  1.00  0.00     0.135 A 
ATOM     63  C   UNL A   1      47.615  28.746  26.439  1.00  0.00     0.135 A 
ATOM     64  F   UNL A   1      47.806  28.375  30.054  1.00  0.00    -0.206 F 
ATOM     65  C   UNL A   1      49.334  27.748  28.390  1.00  0.00     0.059 A 
ATOM     66  C   UNL A   1      48.818  28.157  26.055  1.00  0.00     0.059 A 
ATOM     67  F   UNL A   1      46.814  29.225  25.475  1.00  0.00    -0.206 F 
ATOM     68  C   UNL A   1      49.680  27.678  27.040  1.00  0.00     0.060 A 
BRANCH  68  69
ATOM     69  S   UNL A   1      51.274  26.959  26.593  1.00  0.00     0.124 S 
ATOM     70  O   UNL A   1      52.154  27.559  27.594  1.00  0.00    -0.237 OA
ATOM     71  O   UNL A   1      51.025  25.529  26.747  1.00  0.00    -0.237 OA
ATOM     72  O   UNL A   1      51.482  27.412  25.223  1.00  0.00    -0.744 OA
ENDBRANCH  68  69
ENDBRANCH  47  61
BRANCH  48  73
ATOM     73  C   UNL A   1      38.401  32.420  30.676  1.00  0.00     0.058 A 
ATOM     74  C   UNL A   1      37.556  33.070  29.761  1.00  0.00     0.135 A 
ATOM     75  C   UNL A   1      37.961  32.316  32.004  1.00  0.00     0.135 A 
ATOM     76  F   UNL A   1      37.934  33.208  28.481  1.00  0.00    -0.206 F 
ATOM     77  C   UNL A   1      36.335  33.613  30.150  1.00  0.00     0.059 A 
ATOM     78  C   UNL A   1      36.730  32.824  32.411  1.00  0.00     0.059 A 
ATOM     79  F   UNL A   1      38.722  31.694  32.917  1.00  0.00    -0.206 F 
ATOM     80  C   UNL A   1      35.929  33.481  31.479  1.00  0.00     0.060 A 
BRANCH  80  81
ATOM     81  S   UNL A   1      34.319  34.144  31.962  1.00  0.00     0.124 S 
ATOM     82  O   UNL A   1      33.666  34.305  30.667  1.00  0.00    -0.237 OA
ATOM     83  O   UNL A   1      33.794  33.080  32.813  1.00  0.00    -0.237 OA
ATOM     84  O   UNL A   1      34.661  35.381  32.656  1.00  0.00    -0.744 OA
ENDBRANCH  80  81
ENDBRANCH  48  73
BRANCH  60  85
ATOM     85  C   UNL A   1      44.718  35.274  29.890  1.00  0.00     0.058 A 
ATOM     86  C   UNL A   1      45.315  35.723  31.079  1.00  0.00     0.135 A 
ATOM     87  C   UNL A   1      44.633  36.183  28.821  1.00  0.00     0.135 A 
ATOM     88  F   UNL A   1      45.424  34.901  32.134  1.00  0.00    -0.206 F 
ATOM     89  C   UNL A   1      45.771  37.032  31.215  1.00  0.00     0.059 A 
ATOM     90  C   UNL A   1      45.113  37.485  28.925  1.00  0.00     0.059 A 
ATOM     91  F   UNL A   1      44.085  35.806  27.656  1.00  0.00    -0.206 F 
ATOM     92  C   UNL A   1      45.662  37.907  30.133  1.00  0.00     0.060 A 
BRANCH  92  93
ATOM     93  S   UNL A   1      46.261  39.601  30.321  1.00  0.00     0.124 S 
ATOM     94  O   UNL A   1      45.015  40.359  30.269  1.00  0.00    -0.237 OA
ATOM     95  O   UNL A   1      46.922  39.557  31.621  1.00  0.00    -0.237 OA
ATOM     96  O   UNL A   1      47.151  39.776  29.177  1.00  0.00    -0.744 OA
ENDBRANCH  92  93
ENDBRANCH  60  85
ENDBRANCH  34  35
ENDBRANCH  26  29
ENDBRANCH  24  25
ENDBRANCH  23  24
ENDBRANCH   1  23
TORSDOF 18
ENDMDL
MODEL 3
REMARK VINA RESULT:     -10.4      5.228      9.928
REMARK SMILES CC[C@H](NC(=O)NC[C@@]1(C)CCCO1)C(=O)NCCCCNC(=O)c1ccc(-c2c3nc(c(-c4c(F)cc(S(=O)(=O)[O-])cc4F)c4ccc([nH]4)c(-c4c(F)cc(S(=O)(=O)[O-])cc4F)c4nc(c(-c5c(F)cc(S(=O)(=O)[O-])cc5F)c5ccc2[nH]5)C=C4)C=C3)cc1
REMARK SMILES IDX 19 1 18 2 17 3 15 4 16 5 3 7 2 8 1 9 4 10 5 11 6 13 7 14
REMARK SMILES IDX 8 16 9 17 10 18 11 19 14 20 12 21 13 22 20 23 21 24 22 25
REMARK SMILES IDX 23 26 24 28 25 29 26 30 90 31 27 32 89 33 28 34 29 35 30 36
REMARK SMILES IDX 83 37 31 38 88 39 82 40 84 41 32 42 87 43 81 44 80 45 33 47
REMARK SMILES IDX 67 48 46 49 66 50 47 51 50 52 65 53 85 54 48 55 49 56 64 58
REMARK SMILES IDX 86 59 51 60 34 61 35 62 44 63 36 64 37 65 43 66 45 67 38 68
REMARK SMILES IDX 39 69 40 70 41 71 42 72 68 73 69 74 78 75 70 76 71 77 77 78
REMARK SMILES IDX 79 79 72 80 73 81 74 82 75 83 76 84 52 85 53 86 62 87 54 88
REMARK SMILES IDX 55 89 61 90 63 91 56 92 57 93 58 94 59 95 60 96
REMARK H PARENT 17 6 4 12 7 15 22 27 84 46 50 57
REMARK Flexibility Score: inf
ROOT
ATOM      1  C   UNL A   1      38.023  23.871  26.480  1.00  0.00     0.023 C 
ENDROOT
BRANCH   1   2
ATOM      2  C   UNL A   1      36.688  23.629  25.739  1.00  0.00     0.116 C 
BRANCH   2   3
ATOM      3  N   UNL A   1      35.626  24.615  25.586  1.00  0.00    -0.354 N 
ATOM      4  C   UNL A   1      34.263  24.494  25.436  1.00  0.00     0.242 C 
ATOM      5  O   UNL A   1      33.511  25.303  25.990  1.00  0.00    -0.273 OA
ATOM      6  H   UNL A   1      35.944  25.547  25.591  1.00  0.00     0.163 HD
BRANCH   4   7
ATOM      7  C   UNL A   1      33.597  23.338  24.740  1.00  0.00     0.172 C 
BRANCH   7   8
ATOM      8  C   UNL A   1      33.714  23.585  23.207  1.00  0.00     0.032 C 
ATOM      9  C   UNL A   1      32.874  22.691  22.281  1.00  0.00     0.006 C 
ENDBRANCH   7   8
BRANCH   7  10
ATOM     10  N   UNL A   1      32.304  23.094  25.317  1.00  0.00    -0.326 N 
ATOM     11  C   UNL A   1      31.655  21.924  25.487  1.00  0.00     0.315 C 
ATOM     12  H   UNL A   1      31.823  23.894  25.632  1.00  0.00     0.166 HD
ATOM     13  O   UNL A   1      30.489  22.005  25.891  1.00  0.00    -0.249 OA
ATOM     14  N   UNL A   1      32.196  20.685  25.387  1.00  0.00    -0.335 N 
ATOM     15  H   UNL A   1      31.787  20.085  26.051  1.00  0.00     0.165 HD
BRANCH  14  16
ATOM     16  C   UNL A   1      33.225  19.939  24.584  1.00  0.00     0.152 C 
BRANCH  16  17
ATOM     17  C   UNL A   1      33.152  18.352  24.324  1.00  0.00     0.083 C 
ATOM     18  C   UNL A   1      32.540  17.945  22.960  1.00  0.00     0.044 C 
ATOM     19  C   UNL A   1      34.419  17.578  24.624  1.00  0.00     0.039 C 
ATOM     20  O   UNL A   1      32.248  17.733  25.295  1.00  0.00    -0.373 OA
ATOM     21  C   UNL A   1      33.954  16.149  24.787  1.00  0.00     0.031 C 
ATOM     22  C   UNL A   1      32.554  16.315  25.342  1.00  0.00     0.161 C 
ENDBRANCH  16  17
ENDBRANCH  14  16
ENDBRANCH   7  10
ENDBRANCH   4   7
ENDBRANCH   2   3
ENDBRANCH   1   2
BRANCH   1  23
ATOM     23  C   UNL A   1      39.274  22.979  26.493  1.00  0.00     0.023 C 
BRANCH  23  24
ATOM     24  C   UNL A   1      40.684  23.482  26.817  1.00  0.00     0.116 C 
BRANCH  24  25
ATOM     25  N   UNL A   1      41.423  24.177  25.794  1.00  0.00    -0.352 N 
ATOM     26  C   UNL A   1      41.924  25.460  25.885  1.00  0.00     0.251 C 
ATOM     27  H   UNL A   1      41.585  23.692  24.954  1.00  0.00     0.163 HD
ATOM     28  O   UNL A   1      42.567  25.926  24.934  1.00  0.00    -0.269 OA
BRANCH  26  29
ATOM     29  C   UNL A   1      41.669  26.316  27.079  1.00  0.00     0.039 A 
ATOM     30  C   UNL A   1      40.774  25.863  28.051  1.00  0.00     0.014 A 
ATOM     31  C   UNL A   1      42.243  27.580  27.236  1.00  0.00     0.014 A 
ATOM     32  C   UNL A   1      40.484  26.652  29.177  1.00  0.00     0.010 A 
ATOM     33  C   UNL A   1      42.007  28.335  28.402  1.00  0.00     0.010 A 
ATOM     34  C   UNL A   1      41.107  27.896  29.387  1.00  0.00    -0.014 A 
BRANCH  34  35
ATOM     35  C   UNL A   1      40.785  28.713  30.609  1.00  0.00     0.031 A 
ATOM     36  C   UNL A   1      41.598  28.592  31.884  1.00  0.00     0.074 A 
ATOM     37  C   UNL A   1      39.764  29.600  30.587  1.00  0.00     0.049 A 
ATOM     38  N   UNL A   1      41.532  29.308  32.982  1.00  0.00    -0.248 NA
ATOM     39  C   UNL A   1      42.595  27.513  31.947  1.00  0.00     0.031 C 
ATOM     40  C   UNL A   1      38.834  29.787  29.471  1.00  0.00     0.029 A 
ATOM     41  N   UNL A   1      39.346  30.527  31.516  1.00  0.00    -0.354 N 
ATOM     42  C   UNL A   1      42.466  28.764  33.860  1.00  0.00     0.074 A 
ATOM     43  C   UNL A   1      43.038  27.616  33.192  1.00  0.00     0.031 C 
ATOM     44  C   UNL A   1      38.002  30.803  29.753  1.00  0.00     0.029 A 
ATOM     45  C   UNL A   1      38.313  31.328  31.080  1.00  0.00     0.049 A 
ATOM     46  H   UNL A   1      39.749  30.609  32.411  1.00  0.00     0.167 HD
ATOM     47  C   UNL A   1      42.845  29.190  35.093  1.00  0.00     0.037 A 
ATOM     48  C   UNL A   1      37.696  32.379  31.661  1.00  0.00     0.037 A 
ATOM     49  C   UNL A   1      42.304  30.351  35.755  1.00  0.00     0.049 A 
ATOM     50  C   UNL A   1      38.152  32.859  33.016  1.00  0.00     0.074 A 
ATOM     51  C   UNL A   1      42.681  30.903  36.969  1.00  0.00     0.029 A 
ATOM     52  N   UNL A   1      41.269  31.136  35.270  1.00  0.00    -0.354 N 
ATOM     53  N   UNL A   1      39.109  32.389  33.780  1.00  0.00    -0.248 NA
ATOM     54  C   UNL A   1      37.457  34.026  33.578  1.00  0.00     0.031 C 
ATOM     55  C   UNL A   1      41.839  31.987  37.243  1.00  0.00     0.029 A 
ATOM     56  C   UNL A   1      40.981  32.152  36.168  1.00  0.00     0.049 A 
ATOM     57  H   UNL A   1      40.807  30.993  34.413  1.00  0.00     0.167 HD
ATOM     58  C   UNL A   1      39.157  33.228  34.890  1.00  0.00     0.074 A 
ATOM     59  C   UNL A   1      38.139  34.239  34.694  1.00  0.00     0.031 C 
ATOM     60  C   UNL A   1      39.977  33.169  35.969  1.00  0.00     0.037 A 
BRANCH  47  61
ATOM     61  C   UNL A   1      43.911  28.402  35.815  1.00  0.00     0.058 A 
ATOM     62  C   UNL A   1      43.590  27.358  36.699  1.00  0.00     0.135 A 
ATOM     63  C   UNL A   1      45.272  28.665  35.589  1.00  0.00     0.135 A 
ATOM     64  F   UNL A   1      42.306  27.062  36.959  1.00  0.00    -0.206 F 
ATOM     65  C   UNL A   1      44.576  26.634  37.363  1.00  0.00     0.059 A 
ATOM     66  C   UNL A   1      46.276  27.931  36.218  1.00  0.00     0.059 A 
ATOM     67  F   UNL A   1      45.642  29.642  34.747  1.00  0.00    -0.206 F 
ATOM     68  C   UNL A   1      45.917  26.930  37.119  1.00  0.00     0.060 A 
BRANCH  68  69
ATOM     69  S   UNL A   1      47.183  25.991  38.000  1.00  0.00     0.124 S 
ATOM     70  O   UNL A   1      47.984  27.063  38.585  1.00  0.00    -0.237 OA
ATOM     71  O   UNL A   1      46.390  25.206  38.941  1.00  0.00    -0.237 OA
ATOM     72  O   UNL A   1      47.836  25.226  36.944  1.00  0.00    -0.744 OA
ENDBRANCH  68  69
ENDBRANCH  47  61
BRANCH  48  73
ATOM     73  C   UNL A   1      36.606  33.099  30.941  1.00  0.00     0.058 A 
ATOM     74  C   UNL A   1      35.263  32.963  31.333  1.00  0.00     0.135 A 
ATOM     75  C   UNL A   1      36.880  33.932  29.846  1.00  0.00     0.135 A 
ATOM     76  F   UNL A   1      34.945  32.169  32.367  1.00  0.00    -0.206 F 
ATOM     77  C   UNL A   1      34.234  33.609  30.657  1.00  0.00     0.059 A 
ATOM     78  C   UNL A   1      35.870  34.613  29.171  1.00  0.00     0.059 A 
ATOM     79  F   UNL A   1      38.146  34.108  29.436  1.00  0.00    -0.206 F 
ATOM     80  C   UNL A   1      34.548  34.436  29.577  1.00  0.00     0.060 A 
BRANCH  80  81
ATOM     81  S   UNL A   1      33.208  35.312  28.738  1.00  0.00     0.124 S 
ATOM     82  O   UNL A   1      33.946  36.294  27.951  1.00  0.00    -0.237 OA
ATOM     83  O   UNL A   1      32.569  34.239  27.982  1.00  0.00    -0.237 OA
ATOM     84  O   UNL A   1      32.418  35.850  29.840  1.00  0.00    -0.744 OA
ENDBRANCH  80  81
ENDBRANCH  48  73
BRANCH  60  85
ATOM     85  C   UNL A   1      39.861  34.262  37.001  1.00  0.00     0.058 A 
ATOM     86  C   UNL A   1      40.496  35.505  36.852  1.00  0.00     0.135 A 
ATOM     87  C   UNL A   1      39.074  34.066  38.150  1.00  0.00     0.135 A 
ATOM     88  F   UNL A   1      41.260  35.750  35.776  1.00  0.00    -0.206 F 
ATOM     89  C   UNL A   1      40.390  36.498  37.823  1.00  0.00     0.059 A 
ATOM     90  C   UNL A   1      38.928  35.057  39.116  1.00  0.00     0.059 A 
ATOM     91  F   UNL A   1      38.433  32.903  38.339  1.00  0.00    -0.206 F 
ATOM     92  C   UNL A   1      39.606  36.263  38.954  1.00  0.00     0.060 A 
BRANCH  92  93
ATOM     93  S   UNL A   1      39.473  37.559  40.204  1.00  0.00     0.124 S 
ATOM     94  O   UNL A   1      38.534  38.480  39.573  1.00  0.00    -0.237 OA
ATOM     95  O   UNL A   1      38.965  36.828  41.360  1.00  0.00    -0.237 OA
ATOM     96  O   UNL A   1      40.843  38.049  40.332  1.00  0.00    -0.744 OA
ENDBRANCH  92  93
ENDBRANCH  60  85
ENDBRANCH  34  35
ENDBRANCH  26  29
ENDBRANCH  24  25
ENDBRANCH  23  24
ENDBRANCH   1  23
TORSDOF 18
ENDMDL
