MODEL 1
REMARK VINA RESULT:     -11.2      0.000      0.000
REMARK SMILES CC[NH2+][C@]1(C(=O)NCCCCNC(=O)c2ccc(-c3c4nc(c(-c5c(F)cc(S(=O)(=O)[O-])cc5F)c5ccc([nH]5)c(-c5c(F)cc(S(=O)(=O)[O-])cc5F)c5nc(c(-c6c(F)cc(S(=O)(=O)[O-])cc6F)c6ccc3[nH]6)C=C5)C=C4)cc2)CC[C@@H]([N@@H+](C)CC(C)(C)C)C1
REMARK SMILES IDX 9 1 8 2 7 3 5 4 6 5 4 7 81 8 91 9 82 10 83 11 3 12 2 15 1 16
REMARK SMILES IDX 84 17 85 18 86 20 87 21 88 22 89 23 90 24 10 25 11 26 12 27
REMARK SMILES IDX 13 28 14 30 15 31 16 32 80 33 17 34 79 35 18 36 19 37 20 38
REMARK SMILES IDX 73 39 21 40 78 41 72 42 74 43 22 44 77 45 71 46 70 47 23 49
REMARK SMILES IDX 57 50 36 51 56 52 37 53 40 54 55 55 75 56 38 57 39 58 54 60
REMARK SMILES IDX 76 61 41 62 24 63 25 64 34 65 26 66 27 67 33 68 35 69 28 70
REMARK SMILES IDX 29 71 30 72 31 73 32 74 58 75 59 76 68 77 60 78 61 79 67 80
REMARK SMILES IDX 69 81 62 82 63 83 64 84 65 85 66 86 42 87 43 88 52 89 44 90
REMARK SMILES IDX 45 91 51 92 53 93 46 94 47 95 48 96 49 97 50 98
REMARK H PARENT 7 6 3 13 3 14 84 19 12 29 74 48 40 59
REMARK Flexibility Score: inf
ROOT
ATOM      1  C   UNL A   1      39.034  22.883  26.549  1.00  0.00     0.023 C 
ENDROOT
BRANCH   1   2
ATOM      2  C   UNL A   1      38.341  21.771  25.764  1.00  0.00     0.116 C 
BRANCH   2   3
ATOM      3  N   UNL A   1      37.696  22.280  24.573  1.00  0.00    -0.351 N 
ATOM      4  C   UNL A   1      36.406  22.532  24.241  1.00  0.00     0.281 C 
ATOM      5  O   UNL A   1      36.219  22.879  23.065  1.00  0.00    -0.268 OA
ATOM      6  H   UNL A   1      38.329  22.488  23.849  1.00  0.00     0.163 HD
BRANCH   4   7
ATOM      7  C   UNL A   1      35.183  22.318  25.188  1.00  0.00     0.181 C 
ATOM      8  C   UNL A   1      34.944  23.321  26.312  1.00  0.00     0.085 C 
ATOM      9  C   UNL A   1      33.918  22.579  24.308  1.00  0.00     0.144 C 
ATOM     10  C   UNL A   1      33.457  23.283  26.600  1.00  0.00     0.072 C 
ATOM     11  C   UNL A   1      32.811  23.137  25.230  1.00  0.00     0.190 C 
BRANCH   7  12
ATOM     12  N   UNL A   1      35.179  20.906  25.675  1.00  0.00    -0.334 N 
ATOM     13  H   UNL A   1      36.141  20.626  25.870  1.00  0.00     0.347 HD
ATOM     14  H   UNL A   1      34.595  20.873  26.511  1.00  0.00     0.347 HD
BRANCH  12  15
ATOM     15  C   UNL A   1      34.609  19.964  24.706  1.00  0.00     0.257 C 
ATOM     16  C   UNL A   1      33.328  19.329  25.217  1.00  0.00     0.071 C 
ENDBRANCH  12  15
ENDBRANCH   7  12
BRANCH  11  17
ATOM     17  N   UNL A   1      32.075  24.315  24.763  1.00  0.00    -0.334 N 
ATOM     18  C   UNL A   1      30.990  24.000  23.849  1.00  0.00     0.332 C 
ATOM     19  H   UNL A   1      32.871  24.718  24.267  1.00  0.00     0.348 HD
BRANCH  17  20
ATOM     20  C   UNL A   1      31.934  25.555  25.529  1.00  0.00     0.268 C 
BRANCH  20  21
ATOM     21  C   UNL A   1      32.663  26.924  25.241  1.00  0.00     0.011 C 
ATOM     22  C   UNL A   1      33.334  27.527  26.482  1.00  0.00     0.017 C 
ATOM     23  C   UNL A   1      33.807  26.624  24.237  1.00  0.00     0.017 C 
ATOM     24  C   UNL A   1      31.771  28.003  24.616  1.00  0.00     0.017 C 
ENDBRANCH  20  21
ENDBRANCH  17  20
ENDBRANCH  11  17
ENDBRANCH   4   7
ENDBRANCH   2   3
ENDBRANCH   1   2
BRANCH   1  25
ATOM     25  C   UNL A   1      40.229  22.414  27.367  1.00  0.00     0.023 C 
BRANCH  25  26
ATOM     26  C   UNL A   1      41.547  23.107  27.064  1.00  0.00     0.116 C 
BRANCH  26  27
ATOM     27  N   UNL A   1      41.507  24.032  25.938  1.00  0.00    -0.352 N 
ATOM     28  C   UNL A   1      41.483  25.408  26.002  1.00  0.00     0.251 C 
ATOM     29  H   UNL A   1      41.497  23.631  25.038  1.00  0.00     0.163 HD
ATOM     30  O   UNL A   1      41.421  26.096  24.990  1.00  0.00    -0.269 OA
BRANCH  28  31
ATOM     31  C   UNL A   1      41.472  26.021  27.345  1.00  0.00     0.039 A 
ATOM     32  C   UNL A   1      42.543  26.831  27.724  1.00  0.00     0.014 A 
ATOM     33  C   UNL A   1      40.307  25.959  28.114  1.00  0.00     0.014 A 
ATOM     34  C   UNL A   1      42.406  27.661  28.836  1.00  0.00     0.010 A 
ATOM     35  C   UNL A   1      40.140  26.857  29.159  1.00  0.00     0.010 A 
ATOM     36  C   UNL A   1      41.184  27.722  29.528  1.00  0.00    -0.014 A 
BRANCH  36  37
ATOM     37  C   UNL A   1      40.970  28.683  30.641  1.00  0.00     0.031 A 
ATOM     38  C   UNL A   1      41.816  28.577  31.881  1.00  0.00     0.074 A 
ATOM     39  C   UNL A   1      39.970  29.585  30.575  1.00  0.00     0.049 A 
ATOM     40  N   UNL A   1      41.725  29.243  33.002  1.00  0.00    -0.248 NA
ATOM     41  C   UNL A   1      42.874  27.553  31.875  1.00  0.00     0.031 C 
ATOM     42  C   UNL A   1      39.029  29.736  29.461  1.00  0.00     0.029 A 
ATOM     43  N   UNL A   1      39.570  30.543  31.473  1.00  0.00    -0.354 N 
ATOM     44  C   UNL A   1      42.689  28.697  33.841  1.00  0.00     0.074 A 
ATOM     45  C   UNL A   1      43.308  27.606  33.124  1.00  0.00     0.031 C 
ATOM     46  C   UNL A   1      38.187  30.749  29.727  1.00  0.00     0.029 A 
ATOM     47  C   UNL A   1      38.505  31.300  31.041  1.00  0.00     0.049 A 
ATOM     48  H   UNL A   1      40.006  30.679  32.345  1.00  0.00     0.167 HD
ATOM     49  C   UNL A   1      43.050  29.089  35.085  1.00  0.00     0.037 A 
ATOM     50  C   UNL A   1      37.863  32.324  31.636  1.00  0.00     0.037 A 
ATOM     51  C   UNL A   1      42.476  30.217  35.767  1.00  0.00     0.049 A 
ATOM     52  C   UNL A   1      38.325  32.787  32.991  1.00  0.00     0.074 A 
ATOM     53  C   UNL A   1      42.824  30.749  36.995  1.00  0.00     0.029 A 
ATOM     54  N   UNL A   1      41.443  30.998  35.268  1.00  0.00    -0.354 N 
ATOM     55  N   UNL A   1      39.282  32.300  33.745  1.00  0.00    -0.248 NA
ATOM     56  C   UNL A   1      37.632  33.946  33.572  1.00  0.00     0.031 C 
ATOM     57  C   UNL A   1      41.986  31.841  37.249  1.00  0.00     0.029 A 
ATOM     58  C   UNL A   1      41.139  32.006  36.165  1.00  0.00     0.049 A 
ATOM     59  H   UNL A   1      40.994  30.854  34.404  1.00  0.00     0.167 HD
ATOM     60  C   UNL A   1      39.322  33.105  34.877  1.00  0.00     0.074 A 
ATOM     61  C   UNL A   1      38.301  34.118  34.705  1.00  0.00     0.031 C 
ATOM     62  C   UNL A   1      40.129  33.014  35.962  1.00  0.00     0.037 A 
BRANCH  49  63
ATOM     63  C   UNL A   1      44.134  28.303  35.768  1.00  0.00     0.058 A 
ATOM     64  C   UNL A   1      43.833  27.224  36.616  1.00  0.00     0.135 A 
ATOM     65  C   UNL A   1      45.485  28.631  35.576  1.00  0.00     0.135 A 
ATOM     66  F   UNL A   1      42.556  26.883  36.848  1.00  0.00    -0.206 F 
ATOM     67  C   UNL A   1      44.831  26.524  37.283  1.00  0.00     0.059 A 
ATOM     68  C   UNL A   1      46.502  27.924  36.210  1.00  0.00     0.059 A 
ATOM     69  F   UNL A   1      45.827  29.653  34.776  1.00  0.00    -0.206 F 
ATOM     70  C   UNL A   1      46.163  26.885  37.077  1.00  0.00     0.060 A 
BRANCH  70  71
ATOM     71  S   UNL A   1      47.449  25.975  37.958  1.00  0.00     0.124 S 
ATOM     72  O   UNL A   1      47.784  24.937  36.988  1.00  0.00    -0.237 OA
ATOM     73  O   UNL A   1      48.470  26.997  38.169  1.00  0.00    -0.237 OA
ATOM     74  O   UNL A   1      46.771  25.512  39.165  1.00  0.00    -0.744 OA
ENDBRANCH  70  71
ENDBRANCH  49  63
BRANCH  50  75
ATOM     75  C   UNL A   1      36.745  33.013  30.937  1.00  0.00     0.058 A 
ATOM     76  C   UNL A   1      35.420  32.844  31.365  1.00  0.00     0.135 A 
ATOM     77  C   UNL A   1      36.975  33.857  29.839  1.00  0.00     0.135 A 
ATOM     78  F   UNL A   1      35.150  32.043  32.407  1.00  0.00    -0.206 F 
ATOM     79  C   UNL A   1      34.359  33.473  30.722  1.00  0.00     0.059 A 
ATOM     80  C   UNL A   1      35.932  34.513  29.192  1.00  0.00     0.059 A 
ATOM     81  F   UNL A   1      38.226  34.065  29.402  1.00  0.00    -0.206 F 
ATOM     82  C   UNL A   1      34.626  34.307  29.635  1.00  0.00     0.060 A 
BRANCH  82  83
ATOM     83  S   UNL A   1      33.247  35.160  28.837  1.00  0.00     0.124 S 
ATOM     84  O   UNL A   1      32.643  34.082  28.063  1.00  0.00    -0.237 OA
ATOM     85  O   UNL A   1      32.475  35.636  29.981  1.00  0.00    -0.237 OA
ATOM     86  O   UNL A   1      33.907  36.205  28.060  1.00  0.00    -0.744 OA
ENDBRANCH  82  83
ENDBRANCH  50  75
BRANCH  62  87
ATOM     87  C   UNL A   1      39.966  34.054  37.032  1.00  0.00     0.058 A 
ATOM     88  C   UNL A   1      40.591  35.307  36.939  1.00  0.00     0.135 A 
ATOM     89  C   UNL A   1      39.124  33.816  38.131  1.00  0.00     0.135 A 
ATOM     90  F   UNL A   1      41.409  35.579  35.910  1.00  0.00    -0.206 F 
ATOM     91  C   UNL A   1      40.400  36.284  37.909  1.00  0.00     0.059 A 
ATOM     92  C   UNL A   1      38.901  34.788  39.100  1.00  0.00     0.059 A 
ATOM     93  F   UNL A   1      38.496  32.637  38.258  1.00  0.00    -0.206 F 
ATOM     94  C   UNL A   1      39.552  36.016  38.985  1.00  0.00     0.060 A 
BRANCH  94  95
ATOM     95  S   UNL A   1      39.276  37.308  40.216  1.00  0.00     0.124 S 
ATOM     96  O   UNL A   1      38.559  36.574  41.254  1.00  0.00    -0.237 OA
ATOM     97  O   UNL A   1      40.636  37.716  40.554  1.00  0.00    -0.237 OA
ATOM     98  O   UNL A   1      38.491  38.303  39.492  1.00  0.00    -0.744 OA
ENDBRANCH  94  95
ENDBRANCH  62  87
ENDBRANCH  36  37
ENDBRANCH  28  31
ENDBRANCH  26  27
ENDBRANCH  25  26
ENDBRANCH   1  25
TORSDOF 19
ENDMDL
MODEL 2
REMARK VINA RESULT:     -10.9      0.815      1.932
REMARK SMILES CC[NH2+][C@]1(C(=O)NCCCCNC(=O)c2ccc(-c3c4nc(c(-c5c(F)cc(S(=O)(=O)[O-])cc5F)c5ccc([nH]5)c(-c5c(F)cc(S(=O)(=O)[O-])cc5F)c5nc(c(-c6c(F)cc(S(=O)(=O)[O-])cc6F)c6ccc3[nH]6)C=C5)C=C4)cc2)CC[C@@H]([N@@H+](C)CC(C)(C)C)C1
REMARK SMILES IDX 9 1 8 2 7 3 5 4 6 5 4 7 81 8 91 9 82 10 83 11 3 12 2 15 1 16
REMARK SMILES IDX 84 17 85 18 86 20 87 21 88 22 89 23 90 24 10 25 11 26 12 27
REMARK SMILES IDX 13 28 14 30 15 31 16 32 80 33 17 34 79 35 18 36 19 37 20 38
REMARK SMILES IDX 73 39 21 40 78 41 72 42 74 43 22 44 77 45 71 46 70 47 23 49
REMARK SMILES IDX 57 50 36 51 56 52 37 53 40 54 55 55 75 56 38 57 39 58 54 60
REMARK SMILES IDX 76 61 41 62 24 63 25 64 34 65 26 66 27 67 33 68 35 69 28 70
REMARK SMILES IDX 29 71 30 72 31 73 32 74 58 75 59 76 68 77 60 78 61 79 67 80
REMARK SMILES IDX 69 81 62 82 63 83 64 84 65 85 66 86 42 87 43 88 52 89 44 90
REMARK SMILES IDX 45 91 51 92 53 93 46 94 47 95 48 96 49 97 50 98
REMARK H PARENT 7 6 3 13 3 14 84 19 12 29 74 48 40 59
REMARK Flexibility Score: inf
ROOT
ATOM      1  C   UNL A   1      38.673  22.907  26.276  1.00  0.00     0.023 C 
ENDROOT
BRANCH   1   2
ATOM      2  C   UNL A   1      37.767  21.859  25.634  1.00  0.00     0.116 C 
BRANCH   2   3
ATOM      3  N   UNL A   1      37.408  22.220  24.280  1.00  0.00    -0.351 N 
ATOM      4  C   UNL A   1      36.349  22.864  23.731  1.00  0.00     0.281 C 
ATOM      5  O   UNL A   1      36.337  22.904  22.492  1.00  0.00    -0.268 OA
ATOM      6  H   UNL A   1      38.076  21.937  23.615  1.00  0.00     0.163 HD
BRANCH   4   7
ATOM      7  C   UNL A   1      35.143  23.442  24.536  1.00  0.00     0.181 C 
ATOM      8  C   UNL A   1      35.364  24.684  25.394  1.00  0.00     0.085 C 
ATOM      9  C   UNL A   1      34.158  24.015  23.466  1.00  0.00     0.144 C 
ATOM     10  C   UNL A   1      34.018  25.374  25.489  1.00  0.00     0.072 C 
ATOM     11  C   UNL A   1      33.409  25.205  24.105  1.00  0.00     0.190 C 
BRANCH   7  12
ATOM     12  N   UNL A   1      34.481  22.337  25.293  1.00  0.00    -0.334 N 
ATOM     13  H   UNL A   1      35.189  21.853  25.846  1.00  0.00     0.347 HD
ATOM     14  H   UNL A   1      33.760  22.758  25.879  1.00  0.00     0.347 HD
BRANCH  12  15
ATOM     15  C   UNL A   1      33.820  21.358  24.424  1.00  0.00     0.257 C 
ATOM     16  C   UNL A   1      34.303  19.943  24.692  1.00  0.00     0.071 C 
ENDBRANCH  12  15
ENDBRANCH   7  12
BRANCH  11  17
ATOM     17  N   UNL A   1      33.305  26.437  23.319  1.00  0.00    -0.334 N 
ATOM     18  C   UNL A   1      33.111  26.207  21.897  1.00  0.00     0.332 C 
ATOM     19  H   UNL A   1      34.258  26.742  23.517  1.00  0.00     0.348 HD
BRANCH  17  20
ATOM     20  C   UNL A   1      32.796  27.707  23.842  1.00  0.00     0.268 C 
BRANCH  20  21
ATOM     21  C   UNL A   1      31.394  27.946  24.524  1.00  0.00     0.011 C 
ATOM     22  C   UNL A   1      30.856  29.370  24.325  1.00  0.00     0.017 C 
ATOM     23  C   UNL A   1      30.383  27.003  23.821  1.00  0.00     0.017 C 
ATOM     24  C   UNL A   1      31.352  27.633  26.024  1.00  0.00     0.017 C 
ENDBRANCH  20  21
ENDBRANCH  17  20
ENDBRANCH  11  17
ENDBRANCH   4   7
ENDBRANCH   2   3
ENDBRANCH   1   2
BRANCH   1  25
ATOM     25  C   UNL A   1      39.965  22.344  26.851  1.00  0.00     0.023 C 
BRANCH  25  26
ATOM     26  C   UNL A   1      41.093  23.345  27.040  1.00  0.00     0.116 C 
BRANCH  26  27
ATOM     27  N   UNL A   1      41.276  24.276  25.935  1.00  0.00    -0.352 N 
ATOM     28  C   UNL A   1      41.443  25.642  26.026  1.00  0.00     0.251 C 
ATOM     29  H   UNL A   1      41.282  23.890  25.028  1.00  0.00     0.163 HD
ATOM     30  O   UNL A   1      41.561  26.341  25.027  1.00  0.00    -0.269 OA
BRANCH  28  31
ATOM     31  C   UNL A   1      41.412  26.236  27.377  1.00  0.00     0.039 A 
ATOM     32  C   UNL A   1      42.480  27.035  27.785  1.00  0.00     0.014 A 
ATOM     33  C   UNL A   1      40.234  26.169  28.125  1.00  0.00     0.014 A 
ATOM     34  C   UNL A   1      42.328  27.851  28.907  1.00  0.00     0.010 A 
ATOM     35  C   UNL A   1      40.052  27.053  29.179  1.00  0.00     0.010 A 
ATOM     36  C   UNL A   1      41.094  27.908  29.578  1.00  0.00    -0.014 A 
BRANCH  36  37
ATOM     37  C   UNL A   1      40.866  28.855  30.700  1.00  0.00     0.031 A 
ATOM     38  C   UNL A   1      41.695  28.733  31.950  1.00  0.00     0.074 A 
ATOM     39  C   UNL A   1      39.867  29.758  30.633  1.00  0.00     0.049 A 
ATOM     40  N   UNL A   1      41.589  29.384  33.078  1.00  0.00    -0.248 NA
ATOM     41  C   UNL A   1      42.753  27.709  31.945  1.00  0.00     0.031 C 
ATOM     42  C   UNL A   1      38.941  29.924  29.509  1.00  0.00     0.029 A 
ATOM     43  N   UNL A   1      39.455  30.705  31.537  1.00  0.00    -0.354 N 
ATOM     44  C   UNL A   1      42.542  28.827  33.923  1.00  0.00     0.074 A 
ATOM     45  C   UNL A   1      43.170  27.745  33.200  1.00  0.00     0.031 C 
ATOM     46  C   UNL A   1      38.095  30.933  29.776  1.00  0.00     0.029 A 
ATOM     47  C   UNL A   1      38.396  31.467  31.101  1.00  0.00     0.049 A 
ATOM     48  H   UNL A   1      39.879  30.829  32.417  1.00  0.00     0.167 HD
ATOM     49  C   UNL A   1      42.886  29.203  35.176  1.00  0.00     0.037 A 
ATOM     50  C   UNL A   1      37.746  32.484  31.700  1.00  0.00     0.037 A 
ATOM     51  C   UNL A   1      42.304  30.322  35.865  1.00  0.00     0.049 A 
ATOM     52  C   UNL A   1      38.191  32.930  33.067  1.00  0.00     0.074 A 
ATOM     53  C   UNL A   1      42.634  30.838  37.105  1.00  0.00     0.029 A 
ATOM     54  N   UNL A   1      41.277  31.110  35.362  1.00  0.00    -0.354 N 
ATOM     55  N   UNL A   1      39.137  32.432  33.827  1.00  0.00    -0.248 NA
ATOM     56  C   UNL A   1      37.490  34.081  33.654  1.00  0.00     0.031 C 
ATOM     57  C   UNL A   1      41.794  31.928  37.362  1.00  0.00     0.029 A 
ATOM     58  C   UNL A   1      40.962  32.107  36.268  1.00  0.00     0.049 A 
ATOM     59  H   UNL A   1      40.840  30.977  34.491  1.00  0.00     0.167 HD
ATOM     60  C   UNL A   1      39.162  33.223  34.971  1.00  0.00     0.074 A 
ATOM     61  C   UNL A   1      38.143  34.238  34.798  1.00  0.00     0.031 C 
ATOM     62  C   UNL A   1      39.954  33.117  36.065  1.00  0.00     0.037 A 
BRANCH  49  63
ATOM     63  C   UNL A   1      43.960  28.408  35.863  1.00  0.00     0.058 A 
ATOM     64  C   UNL A   1      45.321  28.713  35.693  1.00  0.00     0.135 A 
ATOM     65  C   UNL A   1      43.629  27.330  36.699  1.00  0.00     0.135 A 
ATOM     66  F   UNL A   1      45.692  29.721  34.888  1.00  0.00    -0.206 F 
ATOM     67  C   UNL A   1      46.317  27.951  36.292  1.00  0.00     0.059 A 
ATOM     68  C   UNL A   1      44.609  26.572  37.332  1.00  0.00     0.059 A 
ATOM     69  F   UNL A   1      42.344  26.996  36.895  1.00  0.00    -0.206 F 
ATOM     70  C   UNL A   1      45.951  26.879  37.107  1.00  0.00     0.060 A 
BRANCH  70  71
ATOM     71  S   UNL A   1      47.254  25.891  37.870  1.00  0.00     0.124 S 
ATOM     72  O   UNL A   1      46.731  24.539  37.695  1.00  0.00    -0.237 OA
ATOM     73  O   UNL A   1      48.420  26.227  37.060  1.00  0.00    -0.237 OA
ATOM     74  O   UNL A   1      47.287  26.378  39.246  1.00  0.00    -0.744 OA
ENDBRANCH  70  71
ENDBRANCH  49  63
BRANCH  50  75
ATOM     75  C   UNL A   1      36.638  33.182  30.996  1.00  0.00     0.058 A 
ATOM     76  C   UNL A   1      36.901  34.030  29.910  1.00  0.00     0.135 A 
ATOM     77  C   UNL A   1      35.300  33.013  31.383  1.00  0.00     0.135 A 
ATOM     78  F   UNL A   1      38.164  34.228  29.505  1.00  0.00    -0.206 F 
ATOM     79  C   UNL A   1      35.880  34.697  29.240  1.00  0.00     0.059 A 
ATOM     80  C   UNL A   1      34.259  33.654  30.717  1.00  0.00     0.059 A 
ATOM     81  F   UNL A   1      34.994  32.199  32.405  1.00  0.00    -0.206 F 
ATOM     82  C   UNL A   1      34.561  34.503  29.652  1.00  0.00     0.060 A 
BRANCH  82  83
ATOM     83  S   UNL A   1      33.238  35.334  28.746  1.00  0.00     0.124 S 
ATOM     84  O   UNL A   1      33.991  36.266  27.915  1.00  0.00    -0.237 OA
ATOM     85  O   UNL A   1      32.600  34.224  28.043  1.00  0.00    -0.237 OA
ATOM     86  O   UNL A   1      32.435  35.936  29.806  1.00  0.00    -0.744 OA
ENDBRANCH  82  83
ENDBRANCH  50  75
BRANCH  62  87
ATOM     87  C   UNL A   1      39.777  34.144  37.146  1.00  0.00     0.058 A 
ATOM     88  C   UNL A   1      39.000  33.884  38.285  1.00  0.00     0.135 A 
ATOM     89  C   UNL A   1      40.446  35.376  37.070  1.00  0.00     0.135 A 
ATOM     90  F   UNL A   1      38.337  32.722  38.400  1.00  0.00    -0.206 F 
ATOM     91  C   UNL A   1      38.877  34.820  39.305  1.00  0.00     0.059 A 
ATOM     92  C   UNL A   1      40.354  36.317  38.090  1.00  0.00     0.059 A 
ATOM     93  F   UNL A   1      41.209  35.666  36.005  1.00  0.00    -0.206 F 
ATOM     94  C   UNL A   1      39.559  36.034  39.199  1.00  0.00     0.060 A 
BRANCH  94  95
ATOM     95  S   UNL A   1      39.428  37.224  40.550  1.00  0.00     0.124 S 
ATOM     96  O   UNL A   1      38.697  38.313  39.910  1.00  0.00    -0.237 OA
ATOM     97  O   UNL A   1      38.689  36.474  41.561  1.00  0.00    -0.237 OA
ATOM     98  O   UNL A   1      40.819  37.511  40.884  1.00  0.00    -0.744 OA
ENDBRANCH  94  95
ENDBRANCH  62  87
ENDBRANCH  36  37
ENDBRANCH  28  31
ENDBRANCH  26  27
ENDBRANCH  25  26
ENDBRANCH   1  25
TORSDOF 19
ENDMDL
MODEL 3
REMARK VINA RESULT:     -10.6      0.961      3.106
REMARK SMILES CC[NH2+][C@]1(C(=O)NCCCCNC(=O)c2ccc(-c3c4nc(c(-c5c(F)cc(S(=O)(=O)[O-])cc5F)c5ccc([nH]5)c(-c5c(F)cc(S(=O)(=O)[O-])cc5F)c5nc(c(-c6c(F)cc(S(=O)(=O)[O-])cc6F)c6ccc3[nH]6)C=C5)C=C4)cc2)CC[C@@H]([N@@H+](C)CC(C)(C)C)C1
REMARK SMILES IDX 9 1 8 2 7 3 5 4 6 5 4 7 81 8 91 9 82 10 83 11 3 12 2 15 1 16
REMARK SMILES IDX 84 17 85 18 86 20 87 21 88 22 89 23 90 24 10 25 11 26 12 27
REMARK SMILES IDX 13 28 14 30 15 31 16 32 80 33 17 34 79 35 18 36 19 37 20 38
REMARK SMILES IDX 73 39 21 40 78 41 72 42 74 43 22 44 77 45 71 46 70 47 23 49
REMARK SMILES IDX 57 50 36 51 56 52 37 53 40 54 55 55 75 56 38 57 39 58 54 60
REMARK SMILES IDX 76 61 41 62 24 63 25 64 34 65 26 66 27 67 33 68 35 69 28 70
REMARK SMILES IDX 29 71 30 72 31 73 32 74 58 75 59 76 68 77 60 78 61 79 67 80
REMARK SMILES IDX 69 81 62 82 63 83 64 84 65 85 66 86 42 87 43 88 52 89 44 90
REMARK SMILES IDX 45 91 51 92 53 93 46 94 47 95 48 96 49 97 50 98
REMARK H PARENT 7 6 3 13 3 14 84 19 12 29 74 48 40 59
REMARK Flexibility Score: inf
ROOT
ATOM      1  C   UNL A   1      38.874  21.508  25.961  1.00  0.00     0.023 C 
ENDROOT
BRANCH   1   2
ATOM      2  C   UNL A   1      37.868  22.643  25.790  1.00  0.00     0.116 C 
BRANCH   2   3
ATOM      3  N   UNL A   1      37.581  22.897  24.396  1.00  0.00    -0.351 N 
ATOM      4  C   UNL A   1      36.434  22.996  23.678  1.00  0.00     0.281 C 
ATOM      5  O   UNL A   1      36.585  23.126  22.454  1.00  0.00    -0.268 OA
ATOM      6  H   UNL A   1      38.390  23.026  23.851  1.00  0.00     0.163 HD
BRANCH   4   7
ATOM      7  C   UNL A   1      34.997  22.855  24.270  1.00  0.00     0.181 C 
ATOM      8  C   UNL A   1      33.827  22.657  23.312  1.00  0.00     0.085 C 
ATOM      9  C   UNL A   1      34.982  21.480  25.015  1.00  0.00     0.144 C 
ATOM     10  C   UNL A   1      32.763  21.915  24.095  1.00  0.00     0.072 C 
ATOM     11  C   UNL A   1      33.543  20.924  24.946  1.00  0.00     0.190 C 
BRANCH   7  12
ATOM     12  N   UNL A   1      34.755  23.961  25.244  1.00  0.00    -0.334 N 
ATOM     13  H   UNL A   1      34.080  23.642  25.938  1.00  0.00     0.347 HD
ATOM     14  H   UNL A   1      35.654  24.198  25.665  1.00  0.00     0.347 HD
BRANCH  12  15
ATOM     15  C   UNL A   1      34.234  25.179  24.614  1.00  0.00     0.257 C 
ATOM     16  C   UNL A   1      33.987  26.282  25.628  1.00  0.00     0.071 C 
ENDBRANCH  12  15
ENDBRANCH   7  12
BRANCH  11  17
ATOM     17  N   UNL A   1      33.382  19.518  24.565  1.00  0.00    -0.334 N 
ATOM     18  C   UNL A   1      32.417  19.310  23.498  1.00  0.00     0.332 C 
ATOM     19  H   UNL A   1      33.003  19.230  25.467  1.00  0.00     0.348 HD
BRANCH  17  20
ATOM     20  C   UNL A   1      34.432  18.505  24.691  1.00  0.00     0.268 C 
BRANCH  20  21
ATOM     21  C   UNL A   1      34.241  16.941  24.609  1.00  0.00     0.011 C 
ATOM     22  C   UNL A   1      35.341  16.155  25.335  1.00  0.00     0.017 C 
ATOM     23  C   UNL A   1      32.917  16.608  25.346  1.00  0.00     0.017 C 
ATOM     24  C   UNL A   1      34.129  16.385  23.184  1.00  0.00     0.017 C 
ENDBRANCH  20  21
ENDBRANCH  17  20
ENDBRANCH  11  17
ENDBRANCH   4   7
ENDBRANCH   2   3
ENDBRANCH   1   2
BRANCH   1  25
ATOM     25  C   UNL A   1      40.079  21.869  26.819  1.00  0.00     0.023 C 
BRANCH  25  26
ATOM     26  C   UNL A   1      40.247  23.347  27.130  1.00  0.00     0.116 C 
BRANCH  26  27
ATOM     27  N   UNL A   1      40.797  24.143  26.041  1.00  0.00    -0.352 N 
ATOM     28  C   UNL A   1      41.348  25.403  26.138  1.00  0.00     0.251 C 
ATOM     29  H   UNL A   1      40.773  23.739  25.143  1.00  0.00     0.163 HD
ATOM     30  O   UNL A   1      41.759  26.000  25.149  1.00  0.00    -0.269 OA
BRANCH  28  31
ATOM     31  C   UNL A   1      41.368  26.031  27.473  1.00  0.00     0.039 A 
ATOM     32  C   UNL A   1      42.440  26.856  27.813  1.00  0.00     0.014 A 
ATOM     33  C   UNL A   1      40.226  25.964  28.275  1.00  0.00     0.014 A 
ATOM     34  C   UNL A   1      42.325  27.697  28.920  1.00  0.00     0.010 A 
ATOM     35  C   UNL A   1      40.078  26.872  29.315  1.00  0.00     0.010 A 
ATOM     36  C   UNL A   1      41.122  27.752  29.645  1.00  0.00    -0.014 A 
BRANCH  36  37
ATOM     37  C   UNL A   1      40.929  28.723  30.753  1.00  0.00     0.031 A 
ATOM     38  C   UNL A   1      41.806  28.636  31.972  1.00  0.00     0.074 A 
ATOM     39  C   UNL A   1      39.920  29.617  30.703  1.00  0.00     0.049 A 
ATOM     40  N   UNL A   1      41.738  29.314  33.088  1.00  0.00    -0.248 NA
ATOM     41  C   UNL A   1      42.872  27.621  31.950  1.00  0.00     0.031 C 
ATOM     42  C   UNL A   1      38.951  29.750  29.612  1.00  0.00     0.029 A 
ATOM     43  N   UNL A   1      39.536  30.582  31.601  1.00  0.00    -0.354 N 
ATOM     44  C   UNL A   1      42.727  28.783  33.909  1.00  0.00     0.074 A 
ATOM     45  C   UNL A   1      43.336  27.689  33.188  1.00  0.00     0.031 C 
ATOM     46  C   UNL A   1      38.107  30.759  29.889  1.00  0.00     0.029 A 
ATOM     47  C   UNL A   1      38.454  31.326  31.188  1.00  0.00     0.049 A 
ATOM     48  H   UNL A   1      39.992  30.729  32.461  1.00  0.00     0.167 HD
ATOM     49  C   UNL A   1      43.116  29.191  35.139  1.00  0.00     0.037 A 
ATOM     50  C   UNL A   1      37.819  32.351  31.788  1.00  0.00     0.037 A 
ATOM     51  C   UNL A   1      42.551  30.322  35.823  1.00  0.00     0.049 A 
ATOM     52  C   UNL A   1      38.312  32.832  33.126  1.00  0.00     0.074 A 
ATOM     53  C   UNL A   1      42.924  30.869  37.037  1.00  0.00     0.029 A 
ATOM     54  N   UNL A   1      41.500  31.089  35.343  1.00  0.00    -0.354 N 
ATOM     55  N   UNL A   1      39.291  32.359  33.861  1.00  0.00    -0.248 NA
ATOM     56  C   UNL A   1      37.625  33.991  33.713  1.00  0.00     0.031 C 
ATOM     57  C   UNL A   1      42.085  31.958  37.301  1.00  0.00     0.029 A 
ATOM     58  C   UNL A   1      41.210  32.105  36.237  1.00  0.00     0.049 A 
ATOM     59  H   UNL A   1      41.030  30.933  34.492  1.00  0.00     0.167 HD
ATOM     60  C   UNL A   1      39.353  33.177  34.984  1.00  0.00     0.074 A 
ATOM     61  C   UNL A   1      38.320  34.180  34.827  1.00  0.00     0.031 C 
ATOM     62  C   UNL A   1      40.187  33.103  36.049  1.00  0.00     0.037 A 
BRANCH  49  63
ATOM     63  C   UNL A   1      44.222  28.420  35.802  1.00  0.00     0.058 A 
ATOM     64  C   UNL A   1      45.573  28.724  35.564  1.00  0.00     0.135 A 
ATOM     65  C   UNL A   1      43.932  27.367  36.683  1.00  0.00     0.135 A 
ATOM     66  F   UNL A   1      45.904  29.709  34.714  1.00  0.00    -0.206 F 
ATOM     67  C   UNL A   1      46.597  27.984  36.142  1.00  0.00     0.059 A 
ATOM     68  C   UNL A   1      44.942  26.632  37.297  1.00  0.00     0.059 A 
ATOM     69  F   UNL A   1      42.658  27.035  36.946  1.00  0.00    -0.206 F 
ATOM     70  C   UNL A   1      46.271  26.935  37.004  1.00  0.00     0.060 A 
BRANCH  70  71
ATOM     71  S   UNL A   1      47.611  25.975  37.739  1.00  0.00     0.124 S 
ATOM     72  O   UNL A   1      48.769  26.496  37.019  1.00  0.00    -0.237 OA
ATOM     73  O   UNL A   1      47.525  26.343  39.149  1.00  0.00    -0.237 OA
ATOM     74  O   UNL A   1      47.248  24.595  37.430  1.00  0.00    -0.744 OA
ENDBRANCH  70  71
ENDBRANCH  49  63
BRANCH  50  75
ATOM     75  C   UNL A   1      36.679  33.024  31.111  1.00  0.00     0.058 A 
ATOM     76  C   UNL A   1      36.893  33.848  29.996  1.00  0.00     0.135 A 
ATOM     77  C   UNL A   1      35.358  32.854  31.554  1.00  0.00     0.135 A 
ATOM     78  F   UNL A   1      38.138  34.045  29.538  1.00  0.00    -0.206 F 
ATOM     79  C   UNL A   1      35.842  34.492  29.351  1.00  0.00     0.059 A 
ATOM     80  C   UNL A   1      34.288  33.472  30.914  1.00  0.00     0.059 A 
ATOM     81  F   UNL A   1      35.099  32.063  32.606  1.00  0.00    -0.206 F 
ATOM     82  C   UNL A   1      34.541  34.297  29.818  1.00  0.00     0.060 A 
BRANCH  82  83
ATOM     83  S   UNL A   1      33.177  35.097  28.945  1.00  0.00     0.124 S 
ATOM     84  O   UNL A   1      32.779  34.055  28.005  1.00  0.00    -0.237 OA
ATOM     85  O   UNL A   1      32.238  35.374  30.027  1.00  0.00    -0.237 OA
ATOM     86  O   UNL A   1      33.804  36.276  28.354  1.00  0.00    -0.744 OA
ENDBRANCH  82  83
ENDBRANCH  50  75
BRANCH  62  87
ATOM     87  C   UNL A   1      40.043  34.153  37.112  1.00  0.00     0.058 A 
ATOM     88  C   UNL A   1      40.587  35.436  36.954  1.00  0.00     0.135 A 
ATOM     89  C   UNL A   1      39.297  33.890  38.273  1.00  0.00     0.135 A 
ATOM     90  F   UNL A   1      41.313  35.734  35.864  1.00  0.00    -0.206 F 
ATOM     91  C   UNL A   1      40.412  36.420  37.921  1.00  0.00     0.059 A 
ATOM     92  C   UNL A   1      39.090  34.866  39.241  1.00  0.00     0.059 A 
ATOM     93  F   UNL A   1      38.749  32.680  38.464  1.00  0.00    -0.206 F 
ATOM     94  C   UNL A   1      39.660  36.126  39.060  1.00  0.00     0.060 A 
BRANCH  94  95
ATOM     95  S   UNL A   1      39.401  37.424  40.288  1.00  0.00     0.124 S 
ATOM     96  O   UNL A   1      38.682  38.425  39.508  1.00  0.00    -0.237 OA
ATOM     97  O   UNL A   1      38.621  36.737  41.313  1.00  0.00    -0.237 OA
ATOM     98  O   UNL A   1      40.758  37.791  40.684  1.00  0.00    -0.744 OA
ENDBRANCH  94  95
ENDBRANCH  62  87
ENDBRANCH  36  37
ENDBRANCH  28  31
ENDBRANCH  26  27
ENDBRANCH  25  26
ENDBRANCH   1  25
TORSDOF 19
ENDMDL
