MODEL 1
REMARK VINA RESULT:     -10.6      0.000      0.000
REMARK SMILES CC1=C[C@@H](CNS(=O)(=O)c2cccs2)[C@H](C(C)C)C[C@H]1CC(=O)NCCCCNC(=O)c1ccc(-c2c3nc(c(-c4c(F)cc(S(=O)(=O)[O-])cc4F)c4ccc([nH]4)c(-c4c(F)cc(S(=O)(=O)[O-])cc4F)c4nc(c(-c5c(F)cc(S(=O)(=O)[O-])cc5F)c5ccc2[nH]5)C=C4)C=C3)cc1
REMARK SMILES IDX 25 1 24 2 22 3 23 4 21 6 20 7 1 8 2 9 3 10 4 11 19 12 15 13
REMARK SMILES IDX 5 14 6 15 7 17 8 18 9 19 10 20 11 21 14 22 12 23 13 24 16 25
REMARK SMILES IDX 17 26 18 27 26 28 27 29 28 30 29 31 30 32 31 34 32 35 33 36
REMARK SMILES IDX 97 37 34 38 96 39 35 40 36 41 37 42 90 43 38 44 95 45 89 46
REMARK SMILES IDX 91 47 39 48 94 49 88 50 87 51 40 53 74 54 53 55 73 56 54 57
REMARK SMILES IDX 57 58 72 59 92 60 55 61 56 62 71 64 93 65 58 66 41 67 42 68
REMARK SMILES IDX 51 69 43 70 44 71 50 72 52 73 45 74 46 75 47 76 48 77 49 78
REMARK SMILES IDX 75 79 76 80 85 81 77 82 78 83 84 84 86 85 79 86 80 87 81 88
REMARK SMILES IDX 82 89 83 90 59 91 60 92 69 93 61 94 62 95 68 96 70 97 63 98
REMARK SMILES IDX 64 99 65 100 66 101 67 102
REMARK H PARENT 24 5 6 16 29 33 91 52 57 63
REMARK Flexibility Score: inf
ROOT
ATOM      1  C   UNL A   1      37.553  22.815  25.779  1.00  0.00     0.116 C 
ENDROOT
BRANCH   1   2
ATOM      2  N   UNL A   1      37.236  22.734  24.360  1.00  0.00    -0.356 N 
ATOM      3  C   UNL A   1      36.156  23.188  23.659  1.00  0.00     0.220 C 
ATOM      4  O   UNL A   1      36.109  22.980  22.445  1.00  0.00    -0.275 OA
ATOM      5  H   UNL A   1      37.914  22.275  23.815  1.00  0.00     0.163 HD
BRANCH   3   6
ATOM      6  C   UNL A   1      35.035  23.931  24.354  1.00  0.00     0.108 C 
BRANCH   6   7
ATOM      7  C   UNL A   1      34.404  25.082  23.530  1.00  0.00     0.024 C 
ATOM      8  C   UNL A   1      32.967  24.085  21.644  1.00  0.00     0.039 C 
ATOM      9  C   UNL A   1      33.021  24.730  23.011  1.00  0.00    -0.073 C 
ATOM     10  C   UNL A   1      31.899  25.100  23.666  1.00  0.00    -0.023 C 
ATOM     11  C   UNL A   1      31.927  26.125  24.772  1.00  0.00     0.030 C 
ATOM     12  C   UNL A   1      34.401  26.394  24.370  1.00  0.00     0.013 C 
ATOM     13  C   UNL A   1      33.042  27.150  24.374  1.00  0.00     0.000 C 
BRANCH  11  14
ATOM     14  C   UNL A   1      32.152  25.574  26.197  1.00  0.00     0.107 C 
BRANCH  14  15
ATOM     15  N   UNL A   1      30.934  25.012  26.821  1.00  0.00    -0.210 NA
ATOM     16  H   UNL A   1      30.127  25.500  26.431  1.00  0.00     0.141 HD
BRANCH  15  17
ATOM     17  S   UNL A   1      30.701  23.338  26.586  1.00  0.00     0.250 S 
ATOM     18  O   UNL A   1      29.931  22.861  27.724  1.00  0.00    -0.206 OA
ATOM     19  O   UNL A   1      30.230  23.171  25.239  1.00  0.00    -0.206 OA
BRANCH  17  20
ATOM     20  C   UNL A   1      32.279  22.513  26.744  1.00  0.00     0.134 A 
ATOM     21  C   UNL A   1      33.258  22.574  27.721  1.00  0.00     0.033 A 
ATOM     22  S   UNL A   1      32.698  21.385  25.526  1.00  0.00    -0.131 S 
ATOM     23  C   UNL A   1      34.367  21.721  27.447  1.00  0.00     0.013 A 
ATOM     24  C   UNL A   1      34.182  21.004  26.287  1.00  0.00     0.066 A 
ENDBRANCH  17  20
ENDBRANCH  15  17
ENDBRANCH  14  15
ENDBRANCH  11  14
BRANCH  13  25
ATOM     25  C   UNL A   1      32.741  27.875  23.009  1.00  0.00    -0.014 C 
ATOM     26  C   UNL A   1      31.578  28.869  23.120  1.00  0.00     0.007 C 
ATOM     27  C   UNL A   1      33.966  28.594  22.441  1.00  0.00     0.007 C 
ENDBRANCH  13  25
ENDBRANCH   6   7
ENDBRANCH   3   6
ENDBRANCH   1   2
BRANCH   1  28
ATOM     28  C   UNL A   1      38.971  22.360  26.111  1.00  0.00     0.023 C 
BRANCH  28  29
ATOM     29  C   UNL A   1      39.332  20.938  25.712  1.00  0.00     0.023 C 
BRANCH  29  30
ATOM     30  C   UNL A   1      40.015  20.161  26.818  1.00  0.00     0.116 C 
BRANCH  30  31
ATOM     31  N   UNL A   1      41.065  19.289  26.305  1.00  0.00    -0.352 N 
ATOM     32  C   UNL A   1      42.318  19.614  25.850  1.00  0.00     0.251 C 
ATOM     33  H   UNL A   1      40.844  18.330  26.284  1.00  0.00     0.163 HD
ATOM     34  O   UNL A   1      42.996  18.780  25.258  1.00  0.00    -0.269 OA
BRANCH  32  35
ATOM     35  C   UNL A   1      42.830  20.980  26.069  1.00  0.00     0.039 A 
ATOM     36  C   UNL A   1      42.966  21.843  24.981  1.00  0.00     0.014 A 
ATOM     37  C   UNL A   1      43.153  21.406  27.359  1.00  0.00     0.014 A 
ATOM     38  C   UNL A   1      43.374  23.159  25.199  1.00  0.00     0.010 A 
ATOM     39  C   UNL A   1      43.452  22.739  27.588  1.00  0.00     0.010 A 
ATOM     40  C   UNL A   1      43.590  23.621  26.508  1.00  0.00    -0.014 A 
BRANCH  40  41
ATOM     41  C   UNL A   1      44.020  25.010  26.786  1.00  0.00     0.031 A 
ATOM     42  C   UNL A   1      45.470  25.376  26.606  1.00  0.00     0.074 A 
ATOM     43  C   UNL A   1      43.138  25.898  27.280  1.00  0.00     0.049 A 
ATOM     44  N   UNL A   1      46.088  26.482  26.922  1.00  0.00    -0.248 NA
ATOM     45  C   UNL A   1      46.351  24.338  26.042  1.00  0.00     0.031 C 
ATOM     46  C   UNL A   1      41.724  25.629  27.555  1.00  0.00     0.029 A 
ATOM     47  N   UNL A   1      43.304  27.206  27.653  1.00  0.00    -0.354 N 
ATOM     48  C   UNL A   1      47.429  26.259  26.631  1.00  0.00     0.074 A 
ATOM     49  C   UNL A   1      47.545  24.896  26.169  1.00  0.00     0.031 C 
ATOM     50  C   UNL A   1      41.147  26.745  28.030  1.00  0.00     0.029 A 
ATOM     51  C   UNL A   1      42.155  27.796  28.126  1.00  0.00     0.049 A 
ATOM     52  H   UNL A   1      44.165  27.680  27.591  1.00  0.00     0.167 HD
ATOM     53  C   UNL A   1      48.465  27.126  26.713  1.00  0.00     0.037 A 
ATOM     54  C   UNL A   1      41.946  29.045  28.583  1.00  0.00     0.037 A 
ATOM     55  C   UNL A   1      48.320  28.500  27.111  1.00  0.00     0.049 A 
ATOM     56  C   UNL A   1      43.099  30.010  28.602  1.00  0.00     0.074 A 
ATOM     57  C   UNL A   1      49.284  29.490  27.156  1.00  0.00     0.029 A 
ATOM     58  N   UNL A   1      47.126  29.080  27.515  1.00  0.00    -0.354 N 
ATOM     59  N   UNL A   1      44.353  29.801  28.271  1.00  0.00    -0.248 NA
ATOM     60  C   UNL A   1      42.813  31.380  29.044  1.00  0.00     0.031 C 
ATOM     61  C   UNL A   1      48.676  30.667  27.609  1.00  0.00     0.029 A 
ATOM     62  C   UNL A   1      47.328  30.416  27.814  1.00  0.00     0.049 A 
ATOM     63  H   UNL A   1      46.263  28.611  27.580  1.00  0.00     0.167 HD
ATOM     64  C   UNL A   1      44.999  31.019  28.443  1.00  0.00     0.074 A 
ATOM     65  C   UNL A   1      43.996  31.962  28.895  1.00  0.00     0.031 C 
ATOM     66  C   UNL A   1      46.304  31.331  28.248  1.00  0.00     0.037 A 
BRANCH  53  67
ATOM     67  C   UNL A   1      49.830  26.618  26.344  1.00  0.00     0.058 A 
ATOM     68  C   UNL A   1      50.675  26.022  27.295  1.00  0.00     0.135 A 
ATOM     69  C   UNL A   1      50.297  26.713  25.024  1.00  0.00     0.135 A 
ATOM     70  F   UNL A   1      50.288  25.925  28.576  1.00  0.00    -0.206 F 
ATOM     71  C   UNL A   1      51.944  25.566  26.957  1.00  0.00     0.059 A 
ATOM     72  C   UNL A   1      51.552  26.238  24.656  1.00  0.00     0.059 A 
ATOM     73  F   UNL A   1      49.533  27.278  24.075  1.00  0.00    -0.206 F 
ATOM     74  C   UNL A   1      52.375  25.680  25.634  1.00  0.00     0.060 A 
BRANCH  74  75
ATOM     75  S   UNL A   1      54.022  25.075  25.208  1.00  0.00     0.124 S 
ATOM     76  O   UNL A   1      54.746  25.301  26.456  1.00  0.00    -0.237 OA
ATOM     77  O   UNL A   1      53.766  23.679  24.868  1.00  0.00    -0.237 OA
ATOM     78  O   UNL A   1      54.417  25.927  24.091  1.00  0.00    -0.744 OA
ENDBRANCH  74  75
ENDBRANCH  53  67
BRANCH  54  79
ATOM     79  C   UNL A   1      40.587  29.461  29.017  1.00  0.00     0.058 A 
ATOM     80  C   UNL A   1      39.561  29.649  28.079  1.00  0.00     0.135 A 
ATOM     81  C   UNL A   1      40.279  29.659  30.372  1.00  0.00     0.135 A 
ATOM     82  F   UNL A   1      39.807  29.472  26.772  1.00  0.00    -0.206 F 
ATOM     83  C   UNL A   1      38.283  30.038  28.465  1.00  0.00     0.059 A 
ATOM     84  C   UNL A   1      39.002  30.027  30.784  1.00  0.00     0.059 A 
ATOM     85  F   UNL A   1      41.220  29.471  31.310  1.00  0.00    -0.206 F 
ATOM     86  C   UNL A   1      38.012  30.226  29.822  1.00  0.00     0.060 A 
BRANCH  86  87
ATOM     87  S   UNL A   1      36.338  30.687  30.317  1.00  0.00     0.124 S 
ATOM     88  O   UNL A   1      36.026  29.650  31.294  1.00  0.00    -0.237 OA
ATOM     89  O   UNL A   1      36.534  32.031  30.854  1.00  0.00    -0.237 OA
ATOM     90  O   UNL A   1      35.590  30.625  29.066  1.00  0.00    -0.744 OA
ENDBRANCH  86  87
ENDBRANCH  54  79
BRANCH  66  91
ATOM     91  C   UNL A   1      46.711  32.755  28.490  1.00  0.00     0.058 A 
ATOM     92  C   UNL A   1      47.193  33.176  29.738  1.00  0.00     0.135 A 
ATOM     93  C   UNL A   1      46.673  33.690  27.444  1.00  0.00     0.135 A 
ATOM     94  F   UNL A   1      47.241  32.319  30.769  1.00  0.00    -0.206 F 
ATOM     95  C   UNL A   1      47.608  34.487  29.946  1.00  0.00     0.059 A 
ATOM     96  C   UNL A   1      47.106  34.999  27.624  1.00  0.00     0.059 A 
ATOM     97  F   UNL A   1      46.231  33.328  26.229  1.00  0.00    -0.206 F 
ATOM     98  C   UNL A   1      47.561  35.390  28.882  1.00  0.00     0.060 A 
BRANCH  98  99
ATOM     99  S   UNL A   1      48.140  37.078  29.153  1.00  0.00     0.124 S 
ATOM    100  O   UNL A   1      47.920  37.676  27.842  1.00  0.00    -0.237 OA
ATOM    101  O   UNL A   1      47.259  37.546  30.220  1.00  0.00    -0.237 OA
ATOM    102  O   UNL A   1      49.537  36.899  29.537  1.00  0.00    -0.744 OA
ENDBRANCH  98  99
ENDBRANCH  66  91
ENDBRANCH  40  41
ENDBRANCH  32  35
ENDBRANCH  30  31
ENDBRANCH  29  30
ENDBRANCH  28  29
ENDBRANCH   1  28
TORSDOF 20
ENDMDL
MODEL 2
REMARK VINA RESULT:     -10.5      0.431      8.050
REMARK SMILES CC1=C[C@@H](CNS(=O)(=O)c2cccs2)[C@H](C(C)C)C[C@H]1CC(=O)NCCCCNC(=O)c1ccc(-c2c3nc(c(-c4c(F)cc(S(=O)(=O)[O-])cc4F)c4ccc([nH]4)c(-c4c(F)cc(S(=O)(=O)[O-])cc4F)c4nc(c(-c5c(F)cc(S(=O)(=O)[O-])cc5F)c5ccc2[nH]5)C=C4)C=C3)cc1
REMARK SMILES IDX 25 1 24 2 22 3 23 4 21 6 20 7 1 8 2 9 3 10 4 11 19 12 15 13
REMARK SMILES IDX 5 14 6 15 7 17 8 18 9 19 10 20 11 21 14 22 12 23 13 24 16 25
REMARK SMILES IDX 17 26 18 27 26 28 27 29 28 30 29 31 30 32 31 34 32 35 33 36
REMARK SMILES IDX 97 37 34 38 96 39 35 40 36 41 37 42 90 43 38 44 95 45 89 46
REMARK SMILES IDX 91 47 39 48 94 49 88 50 87 51 40 53 74 54 53 55 73 56 54 57
REMARK SMILES IDX 57 58 72 59 92 60 55 61 56 62 71 64 93 65 58 66 41 67 42 68
REMARK SMILES IDX 51 69 43 70 44 71 50 72 52 73 45 74 46 75 47 76 48 77 49 78
REMARK SMILES IDX 75 79 76 80 85 81 77 82 78 83 84 84 86 85 79 86 80 87 81 88
REMARK SMILES IDX 82 89 83 90 59 91 60 92 69 93 61 94 62 95 68 96 70 97 63 98
REMARK SMILES IDX 64 99 65 100 66 101 67 102
REMARK H PARENT 24 5 6 16 29 33 91 52 57 63
REMARK Flexibility Score: inf
ROOT
ATOM      1  C   UNL A   1      37.463  22.753  25.798  1.00  0.00     0.116 C 
ENDROOT
BRANCH   1   2
ATOM      2  N   UNL A   1      37.186  22.731  24.368  1.00  0.00    -0.356 N 
ATOM      3  C   UNL A   1      36.125  23.214  23.658  1.00  0.00     0.220 C 
ATOM      4  O   UNL A   1      36.113  23.057  22.435  1.00  0.00    -0.275 OA
ATOM      5  H   UNL A   1      37.879  22.295  23.824  1.00  0.00     0.163 HD
BRANCH   3   6
ATOM      6  C   UNL A   1      34.985  23.928  24.352  1.00  0.00     0.108 C 
BRANCH   6   7
ATOM      7  C   UNL A   1      34.351  25.088  23.543  1.00  0.00     0.024 C 
ATOM      8  C   UNL A   1      32.909  24.113  21.649  1.00  0.00     0.039 C 
ATOM      9  C   UNL A   1      32.967  24.741  23.024  1.00  0.00    -0.073 C 
ATOM     10  C   UNL A   1      31.847  25.103  23.687  1.00  0.00    -0.023 C 
ATOM     11  C   UNL A   1      31.877  26.115  24.805  1.00  0.00     0.030 C 
ATOM     12  C   UNL A   1      34.350  26.390  24.399  1.00  0.00     0.013 C 
ATOM     13  C   UNL A   1      32.990  27.145  24.416  1.00  0.00     0.000 C 
BRANCH  11  14
ATOM     14  C   UNL A   1      32.106  25.547  26.223  1.00  0.00     0.107 C 
BRANCH  14  15
ATOM     15  N   UNL A   1      30.884  25.002  26.853  1.00  0.00    -0.210 NA
ATOM     16  H   UNL A   1      30.082  25.501  26.470  1.00  0.00     0.141 HD
BRANCH  15  17
ATOM     17  S   UNL A   1      30.626  23.331  26.620  1.00  0.00     0.250 S 
ATOM     18  O   UNL A   1      29.852  22.865  27.759  1.00  0.00    -0.206 OA
ATOM     19  O   UNL A   1      30.150  23.171  25.273  1.00  0.00    -0.206 OA
BRANCH  17  20
ATOM     20  C   UNL A   1      32.192  22.483  26.774  1.00  0.00     0.134 A 
ATOM     21  C   UNL A   1      33.177  22.535  27.746  1.00  0.00     0.033 A 
ATOM     22  S   UNL A   1      32.587  21.341  25.561  1.00  0.00    -0.131 S 
ATOM     23  C   UNL A   1      34.271  21.663  27.472  1.00  0.00     0.013 A 
ATOM     24  C   UNL A   1      34.069  20.942  26.317  1.00  0.00     0.066 A 
ENDBRANCH  17  20
ENDBRANCH  15  17
ENDBRANCH  14  15
ENDBRANCH  11  14
BRANCH  13  25
ATOM     25  C   UNL A   1      32.685  27.886  23.060  1.00  0.00    -0.014 C 
ATOM     26  C   UNL A   1      31.536  28.893  23.192  1.00  0.00     0.007 C 
ATOM     27  C   UNL A   1      33.913  28.595  22.487  1.00  0.00     0.007 C 
ENDBRANCH  13  25
ENDBRANCH   6   7
ENDBRANCH   3   6
ENDBRANCH   1   2
BRANCH   1  28
ATOM     28  C   UNL A   1      38.880  22.304  26.148  1.00  0.00     0.023 C 
BRANCH  28  29
ATOM     29  C   UNL A   1      39.308  20.947  25.609  1.00  0.00     0.023 C 
BRANCH  29  30
ATOM     30  C   UNL A   1      39.966  20.070  26.653  1.00  0.00     0.116 C 
BRANCH  30  31
ATOM     31  N   UNL A   1      41.070  19.296  26.099  1.00  0.00    -0.352 N 
ATOM     32  C   UNL A   1      42.322  19.714  25.727  1.00  0.00     0.251 C 
ATOM     33  H   UNL A   1      40.891  18.336  25.974  1.00  0.00     0.163 HD
ATOM     34  O   UNL A   1      43.056  18.971  25.082  1.00  0.00    -0.269 OA
BRANCH  32  35
ATOM     35  C   UNL A   1      42.767  21.070  26.098  1.00  0.00     0.039 A 
ATOM     36  C   UNL A   1      43.010  21.369  27.440  1.00  0.00     0.014 A 
ATOM     37  C   UNL A   1      42.963  22.036  25.109  1.00  0.00     0.014 A 
ATOM     38  C   UNL A   1      43.506  22.626  27.782  1.00  0.00     0.010 A 
ATOM     39  C   UNL A   1      43.558  23.243  25.436  1.00  0.00     0.010 A 
ATOM     40  C   UNL A   1      43.812  23.559  26.777  1.00  0.00    -0.014 A 
BRANCH  40  41
ATOM     41  C   UNL A   1      44.344  24.904  27.095  1.00  0.00     0.031 A 
ATOM     42  C   UNL A   1      43.398  25.967  27.584  1.00  0.00     0.074 A 
ATOM     43  C   UNL A   1      45.639  25.185  26.856  1.00  0.00     0.049 A 
ATOM     44  N   UNL A   1      43.617  27.239  27.786  1.00  0.00    -0.248 NA
ATOM     45  C   UNL A   1      42.005  25.554  27.831  1.00  0.00     0.031 C 
ATOM     46  C   UNL A   1      46.627  24.246  26.319  1.00  0.00     0.029 A 
ATOM     47  N   UNL A   1      46.343  26.348  27.021  1.00  0.00    -0.354 N 
ATOM     48  C   UNL A   1      42.388  27.780  28.144  1.00  0.00     0.074 A 
ATOM     49  C   UNL A   1      41.416  26.714  28.077  1.00  0.00     0.031 C 
ATOM     50  C   UNL A   1      47.816  24.865  26.223  1.00  0.00     0.029 A 
ATOM     51  C   UNL A   1      47.665  26.250  26.657  1.00  0.00     0.049 A 
ATOM     52  H   UNL A   1      45.941  27.178  27.366  1.00  0.00     0.167 HD
ATOM     53  C   UNL A   1      42.103  29.047  28.526  1.00  0.00     0.037 A 
ATOM     54  C   UNL A   1      48.641  27.177  26.674  1.00  0.00     0.037 A 
ATOM     55  C   UNL A   1      43.095  30.079  28.653  1.00  0.00     0.049 A 
ATOM     56  C   UNL A   1      48.314  28.561  27.165  1.00  0.00     0.074 A 
ATOM     57  C   UNL A   1      42.937  31.376  29.104  1.00  0.00     0.029 A 
ATOM     58  N   UNL A   1      44.438  29.922  28.342  1.00  0.00    -0.354 N 
ATOM     59  N   UNL A   1      47.157  29.044  27.555  1.00  0.00    -0.248 NA
ATOM     60  C   UNL A   1      49.422  29.522  27.231  1.00  0.00     0.031 C 
ATOM     61  C   UNL A   1      44.183  32.011  29.047  1.00  0.00     0.029 A 
ATOM     62  C   UNL A   1      45.121  31.099  28.590  1.00  0.00     0.049 A 
ATOM     63  H   UNL A   1      44.845  29.095  27.996  1.00  0.00     0.167 HD
ATOM     64  C   UNL A   1      47.402  30.358  27.933  1.00  0.00     0.074 A 
ATOM     65  C   UNL A   1      48.820  30.590  27.738  1.00  0.00     0.031 C 
ATOM     66  C   UNL A   1      46.536  31.291  28.399  1.00  0.00     0.037 A 
BRANCH  53  67
ATOM     67  C   UNL A   1      40.673  29.371  28.854  1.00  0.00     0.058 A 
ATOM     68  C   UNL A   1      40.241  29.534  30.181  1.00  0.00     0.135 A 
ATOM     69  C   UNL A   1      39.724  29.537  27.833  1.00  0.00     0.135 A 
ATOM     70  F   UNL A   1      41.101  29.366  31.197  1.00  0.00    -0.206 F 
ATOM     71  C   UNL A   1      38.915  29.819  30.485  1.00  0.00     0.059 A 
ATOM     72  C   UNL A   1      38.397  29.851  28.112  1.00  0.00     0.059 A 
ATOM     73  F   UNL A   1      40.080  29.388  26.547  1.00  0.00    -0.206 F 
ATOM     74  C   UNL A   1      37.998  29.974  29.443  1.00  0.00     0.060 A 
BRANCH  74  75
ATOM     75  S   UNL A   1      36.282  30.353  29.853  1.00  0.00     0.124 S 
ATOM     76  O   UNL A   1      36.118  29.633  31.113  1.00  0.00    -0.237 OA
ATOM     77  O   UNL A   1      36.296  31.809  29.954  1.00  0.00    -0.237 OA
ATOM     78  O   UNL A   1      35.536  29.814  28.720  1.00  0.00    -0.744 OA
ENDBRANCH  74  75
ENDBRANCH  53  67
BRANCH  54  79
ATOM     79  C   UNL A   1      50.020  26.816  26.253  1.00  0.00     0.058 A 
ATOM     80  C   UNL A   1      50.956  26.348  27.188  1.00  0.00     0.135 A 
ATOM     81  C   UNL A   1      50.425  26.908  24.912  1.00  0.00     0.135 A 
ATOM     82  F   UNL A   1      50.615  26.242  28.481  1.00  0.00    -0.206 F 
ATOM     83  C   UNL A   1      52.250  26.005  26.814  1.00  0.00     0.059 A 
ATOM     84  C   UNL A   1      51.708  26.550  24.511  1.00  0.00     0.059 A 
ATOM     85  F   UNL A   1      49.560  27.329  23.976  1.00  0.00    -0.206 F 
ATOM     86  C   UNL A   1      52.618  26.110  25.472  1.00  0.00     0.060 A 
BRANCH  86  87
ATOM     87  S   UNL A   1      54.288  25.618  24.988  1.00  0.00     0.124 S 
ATOM     88  O   UNL A   1      54.484  26.403  23.775  1.00  0.00    -0.237 OA
ATOM     89  O   UNL A   1      55.077  26.026  26.147  1.00  0.00    -0.237 OA
ATOM     90  O   UNL A   1      54.169  24.176  24.797  1.00  0.00    -0.744 OA
ENDBRANCH  86  87
ENDBRANCH  54  79
BRANCH  66  91
ATOM     91  C   UNL A   1      47.103  32.633  28.759  1.00  0.00     0.058 A 
ATOM     92  C   UNL A   1      47.598  32.898  30.044  1.00  0.00     0.135 A 
ATOM     93  C   UNL A   1      47.205  33.642  27.789  1.00  0.00     0.135 A 
ATOM     94  F   UNL A   1      47.516  31.965  31.006  1.00  0.00    -0.206 F 
ATOM     95  C   UNL A   1      48.161  34.129  30.362  1.00  0.00     0.059 A 
ATOM     96  C   UNL A   1      47.786  34.872  28.078  1.00  0.00     0.059 A 
ATOM     97  F   UNL A   1      46.755  33.430  26.541  1.00  0.00    -0.206 F 
ATOM     98  C   UNL A   1      48.250  35.109  29.372  1.00  0.00     0.060 A 
BRANCH  98  99
ATOM     99  S   UNL A   1      49.018  36.689  29.784  1.00  0.00     0.124 S 
ATOM    100  O   UNL A   1      50.244  36.255  30.443  1.00  0.00    -0.237 OA
ATOM    101  O   UNL A   1      49.187  37.309  28.473  1.00  0.00    -0.237 OA
ATOM    102  O   UNL A   1      48.031  37.329  30.649  1.00  0.00    -0.744 OA
ENDBRANCH  98  99
ENDBRANCH  66  91
ENDBRANCH  40  41
ENDBRANCH  32  35
ENDBRANCH  30  31
ENDBRANCH  29  30
ENDBRANCH  28  29
ENDBRANCH   1  28
TORSDOF 20
ENDMDL
MODEL 3
REMARK VINA RESULT:     -10.3      2.281      8.584
REMARK SMILES CC1=C[C@@H](CNS(=O)(=O)c2cccs2)[C@H](C(C)C)C[C@H]1CC(=O)NCCCCNC(=O)c1ccc(-c2c3nc(c(-c4c(F)cc(S(=O)(=O)[O-])cc4F)c4ccc([nH]4)c(-c4c(F)cc(S(=O)(=O)[O-])cc4F)c4nc(c(-c5c(F)cc(S(=O)(=O)[O-])cc5F)c5ccc2[nH]5)C=C4)C=C3)cc1
REMARK SMILES IDX 25 1 24 2 22 3 23 4 21 6 20 7 1 8 2 9 3 10 4 11 19 12 15 13
REMARK SMILES IDX 5 14 6 15 7 17 8 18 9 19 10 20 11 21 14 22 12 23 13 24 16 25
REMARK SMILES IDX 17 26 18 27 26 28 27 29 28 30 29 31 30 32 31 34 32 35 33 36
REMARK SMILES IDX 97 37 34 38 96 39 35 40 36 41 37 42 90 43 38 44 95 45 89 46
REMARK SMILES IDX 91 47 39 48 94 49 88 50 87 51 40 53 74 54 53 55 73 56 54 57
REMARK SMILES IDX 57 58 72 59 92 60 55 61 56 62 71 64 93 65 58 66 41 67 42 68
REMARK SMILES IDX 51 69 43 70 44 71 50 72 52 73 45 74 46 75 47 76 48 77 49 78
REMARK SMILES IDX 75 79 76 80 85 81 77 82 78 83 84 84 86 85 79 86 80 87 81 88
REMARK SMILES IDX 82 89 83 90 59 91 60 92 69 93 61 94 62 95 68 96 70 97 63 98
REMARK SMILES IDX 64 99 65 100 66 101 67 102
REMARK H PARENT 24 5 6 16 29 33 91 52 57 63
REMARK Flexibility Score: inf
ROOT
ATOM      1  C   UNL A   1      32.300  29.742  26.577  1.00  0.00     0.116 C 
ENDROOT
BRANCH   1   2
ATOM      2  N   UNL A   1      32.611  29.878  25.161  1.00  0.00    -0.356 N 
ATOM      3  C   UNL A   1      33.203  29.011  24.290  1.00  0.00     0.220 C 
ATOM      4  O   UNL A   1      33.374  29.369  23.122  1.00  0.00    -0.275 OA
ATOM      5  H   UNL A   1      32.351  30.741  24.766  1.00  0.00     0.163 HD
BRANCH   3   6
ATOM      6  C   UNL A   1      33.645  27.635  24.742  1.00  0.00     0.108 C 
BRANCH   6   7
ATOM      7  C   UNL A   1      32.492  26.644  25.042  1.00  0.00     0.024 C 
ATOM      8  C   UNL A   1      30.478  27.208  23.543  1.00  0.00     0.039 C 
ATOM      9  C   UNL A   1      31.673  26.319  23.805  1.00  0.00    -0.073 C 
ATOM     10  C   UNL A   1      31.913  25.216  23.062  1.00  0.00    -0.023 C 
ATOM     11  C   UNL A   1      32.789  24.096  23.565  1.00  0.00     0.030 C 
ATOM     12  C   UNL A   1      33.059  25.364  25.726  1.00  0.00     0.013 C 
ATOM     13  C   UNL A   1      32.551  24.029  25.111  1.00  0.00     0.000 C 
BRANCH  11  14
ATOM     14  C   UNL A   1      34.293  24.213  23.231  1.00  0.00     0.107 C 
BRANCH  14  15
ATOM     15  N   UNL A   1      35.185  23.828  24.346  1.00  0.00    -0.210 NA
ATOM     16  H   UNL A   1      34.602  23.598  25.151  1.00  0.00     0.141 HD
BRANCH  15  17
ATOM     17  S   UNL A   1      36.204  22.494  24.036  1.00  0.00     0.250 S 
ATOM     18  O   UNL A   1      35.446  21.301  24.379  1.00  0.00    -0.206 OA
ATOM     19  O   UNL A   1      36.748  22.686  22.720  1.00  0.00    -0.206 OA
BRANCH  17  20
ATOM     20  C   UNL A   1      37.548  22.516  25.215  1.00  0.00     0.134 A 
ATOM     21  C   UNL A   1      38.505  21.569  25.541  1.00  0.00     0.033 A 
ATOM     22  S   UNL A   1      37.791  23.961  26.100  1.00  0.00    -0.131 S 
ATOM     23  C   UNL A   1      39.411  22.021  26.544  1.00  0.00     0.013 A 
ATOM     24  C   UNL A   1      39.143  23.316  26.925  1.00  0.00     0.066 A 
ENDBRANCH  17  20
ENDBRANCH  15  17
ENDBRANCH  14  15
ENDBRANCH  11  14
BRANCH  13  25
ATOM     25  C   UNL A   1      31.052  23.716  25.480  1.00  0.00    -0.014 C 
ATOM     26  C   UNL A   1      30.825  22.230  25.784  1.00  0.00     0.007 C 
ATOM     27  C   UNL A   1      30.549  24.553  26.658  1.00  0.00     0.007 C 
ENDBRANCH  13  25
ENDBRANCH   6   7
ENDBRANCH   3   6
ENDBRANCH   1   2
BRANCH   1  28
ATOM     28  C   UNL A   1      33.292  30.459  27.488  1.00  0.00     0.023 C 
BRANCH  28  29
ATOM     29  C   UNL A   1      34.766  30.239  27.182  1.00  0.00     0.023 C 
BRANCH  29  30
ATOM     30  C   UNL A   1      35.532  29.631  28.338  1.00  0.00     0.116 C 
BRANCH  30  31
ATOM     31  N   UNL A   1      35.502  30.483  29.522  1.00  0.00    -0.352 N 
ATOM     32  C   UNL A   1      36.515  30.794  30.392  1.00  0.00     0.251 C 
ATOM     33  H   UNL A   1      34.630  30.893  29.724  1.00  0.00     0.163 HD
ATOM     34  O   UNL A   1      36.266  31.357  31.454  1.00  0.00    -0.269 OA
BRANCH  32  35
ATOM     35  C   UNL A   1      37.901  30.432  30.041  1.00  0.00     0.039 A 
ATOM     36  C   UNL A   1      38.753  29.941  31.031  1.00  0.00     0.014 A 
ATOM     37  C   UNL A   1      38.344  30.562  28.723  1.00  0.00     0.014 A 
ATOM     38  C   UNL A   1      40.038  29.524  30.683  1.00  0.00     0.010 A 
ATOM     39  C   UNL A   1      39.577  30.047  28.359  1.00  0.00     0.010 A 
ATOM     40  C   UNL A   1      40.445  29.547  29.339  1.00  0.00    -0.014 A 
BRANCH  40  41
ATOM     41  C   UNL A   1      41.797  29.110  28.925  1.00  0.00     0.031 A 
ATOM     42  C   UNL A   1      42.899  30.132  28.832  1.00  0.00     0.074 A 
ATOM     43  C   UNL A   1      42.003  27.834  28.549  1.00  0.00     0.049 A 
ATOM     44  N   UNL A   1      44.110  30.001  28.361  1.00  0.00    -0.248 NA
ATOM     45  C   UNL A   1      42.577  31.498  29.284  1.00  0.00     0.031 C 
ATOM     46  C   UNL A   1      40.988  26.777  28.537  1.00  0.00     0.029 A 
ATOM     47  N   UNL A   1      43.134  27.212  28.090  1.00  0.00    -0.354 N 
ATOM     48  C   UNL A   1      44.677  31.269  28.425  1.00  0.00     0.074 A 
ATOM     49  C   UNL A   1      43.662  32.166  28.925  1.00  0.00     0.031 C 
ATOM     50  C   UNL A   1      41.550  25.631  28.116  1.00  0.00     0.029 A 
ATOM     51  C   UNL A   1      42.952  25.881  27.796  1.00  0.00     0.049 A 
ATOM     52  H   UNL A   1      43.996  27.673  27.979  1.00  0.00     0.167 HD
ATOM     53  C   UNL A   1      45.942  31.644  28.123  1.00  0.00     0.037 A 
ATOM     54  C   UNL A   1      43.822  24.969  27.323  1.00  0.00     0.037 A 
ATOM     55  C   UNL A   1      46.959  30.724  27.691  1.00  0.00     0.049 A 
ATOM     56  C   UNL A   1      45.240  25.395  27.058  1.00  0.00     0.074 A 
ATOM     57  C   UNL A   1      48.294  30.975  27.431  1.00  0.00     0.029 A 
ATOM     58  N   UNL A   1      46.754  29.370  27.472  1.00  0.00    -0.354 N 
ATOM     59  N   UNL A   1      45.777  26.587  27.176  1.00  0.00    -0.248 NA
ATOM     60  C   UNL A   1      46.173  24.355  26.607  1.00  0.00     0.031 C 
ATOM     61  C   UNL A   1      48.892  29.774  27.035  1.00  0.00     0.029 A 
ATOM     62  C   UNL A   1      47.937  28.770  27.079  1.00  0.00     0.049 A 
ATOM     63  H   UNL A   1      45.894  28.903  27.581  1.00  0.00     0.167 HD
ATOM     64  C   UNL A   1      47.116  26.436  26.835  1.00  0.00     0.074 A 
ATOM     65  C   UNL A   1      47.309  25.034  26.519  1.00  0.00     0.031 C 
ATOM     66  C   UNL A   1      48.098  27.369  26.786  1.00  0.00     0.037 A 
BRANCH  53  67
ATOM     67  C   UNL A   1      46.294  33.097  28.273  1.00  0.00     0.058 A 
ATOM     68  C   UNL A   1      46.838  33.602  29.465  1.00  0.00     0.135 A 
ATOM     69  C   UNL A   1      46.100  33.994  27.212  1.00  0.00     0.135 A 
ATOM     70  F   UNL A   1      47.025  32.792  30.520  1.00  0.00    -0.206 F 
ATOM     71  C   UNL A   1      47.150  34.949  29.610  1.00  0.00     0.059 A 
ATOM     72  C   UNL A   1      46.431  35.342  27.324  1.00  0.00     0.059 A 
ATOM     73  F   UNL A   1      45.578  33.567  26.051  1.00  0.00    -0.206 F 
ATOM     74  C   UNL A   1      46.941  35.813  28.533  1.00  0.00     0.060 A 
BRANCH  74  75
ATOM     75  S   UNL A   1      47.358  37.557  28.732  1.00  0.00     0.124 S 
ATOM     76  O   UNL A   1      47.504  37.981  27.342  1.00  0.00    -0.237 OA
ATOM     77  O   UNL A   1      46.192  38.082  29.435  1.00  0.00    -0.237 OA
ATOM     78  O   UNL A   1      48.592  37.524  29.511  1.00  0.00    -0.744 OA
ENDBRANCH  74  75
ENDBRANCH  53  67
BRANCH  54  79
ATOM     79  C   UNL A   1      43.388  23.564  27.112  1.00  0.00     0.058 A 
ATOM     80  C   UNL A   1      43.109  23.086  25.822  1.00  0.00     0.135 A 
ATOM     81  C   UNL A   1      43.261  22.667  28.184  1.00  0.00     0.135 A 
ATOM     82  F   UNL A   1      43.216  23.906  24.766  1.00  0.00    -0.206 F 
ATOM     83  C   UNL A   1      42.701  21.775  25.604  1.00  0.00     0.059 A 
ATOM     84  C   UNL A   1      42.876  21.344  27.987  1.00  0.00     0.059 A 
ATOM     85  F   UNL A   1      43.537  23.069  29.433  1.00  0.00    -0.206 F 
ATOM     86  C   UNL A   1      42.586  20.910  26.693  1.00  0.00     0.060 A 
BRANCH  86  87
ATOM     87  S   UNL A   1      42.100  19.196  26.394  1.00  0.00     0.124 S 
ATOM     88  O   UNL A   1      41.267  19.332  25.204  1.00  0.00    -0.237 OA
ATOM     89  O   UNL A   1      43.389  18.539  26.200  1.00  0.00    -0.237 OA
ATOM     90  O   UNL A   1      41.398  18.830  27.620  1.00  0.00    -0.744 OA
ENDBRANCH  86  87
ENDBRANCH  54  79
BRANCH  66  91
ATOM     91  C   UNL A   1      49.472  26.898  26.409  1.00  0.00     0.058 A 
ATOM     92  C   UNL A   1      50.335  26.326  27.355  1.00  0.00     0.135 A 
ATOM     93  C   UNL A   1      49.903  26.967  25.075  1.00  0.00     0.135 A 
ATOM     94  F   UNL A   1      49.968  26.245  28.643  1.00  0.00    -0.206 F 
ATOM     95  C   UNL A   1      51.592  25.853  26.993  1.00  0.00     0.059 A 
ATOM     96  C   UNL A   1      51.146  26.479  24.687  1.00  0.00     0.059 A 
ATOM     97  F   UNL A   1      49.106  27.496  24.133  1.00  0.00    -0.206 F 
ATOM     98  C   UNL A   1      51.987  25.934  25.656  1.00  0.00     0.060 A 
BRANCH  98  99
ATOM     99  S   UNL A   1      53.604  25.281  25.190  1.00  0.00     0.124 S 
ATOM    100  O   UNL A   1      54.465  25.886  26.200  1.00  0.00    -0.237 OA
ATOM    101  O   UNL A   1      53.406  23.839  25.306  1.00  0.00    -0.237 OA
ATOM    102  O   UNL A   1      53.788  25.774  23.828  1.00  0.00    -0.744 OA
ENDBRANCH  98  99
ENDBRANCH  66  91
ENDBRANCH  40  41
ENDBRANCH  32  35
ENDBRANCH  30  31
ENDBRANCH  29  30
ENDBRANCH  28  29
ENDBRANCH   1  28
TORSDOF 20
ENDMDL
