MODEL 1
REMARK VINA RESULT:     -12.1      0.000      0.000
REMARK SMILES O=Cc1c(OCc2ccc(C(=O)NCCCCNC(=O)c3ccc(-c4c5nc(c(-c6c(F)cc(S(=O)(=O)[O-])cc6F)c6ccc([nH]6)c(-c6c(F)cc(S(=O)(=O)[O-])cc6F)c6nc(c(-c7c(F)cc(S(=O)(=O)[O-])cc7F)c7ccc4[nH]7)C=C6)C=C5)cc3)cc2)ccc2ccccc12
REMARK SMILES IDX 15 1 14 2 13 3 11 4 12 5 10 7 7 8 8 9 88 10 9 11 87 12 6 13
REMARK SMILES IDX 5 14 4 15 3 16 96 17 89 18 91 19 95 20 90 21 92 22 94 23
REMARK SMILES IDX 93 24 2 25 1 26 16 27 17 28 18 29 19 30 20 32 21 33 22 34
REMARK SMILES IDX 86 35 23 36 85 37 24 38 25 39 26 40 79 41 27 42 84 43 78 44
REMARK SMILES IDX 80 45 28 46 83 47 77 48 76 49 29 51 63 52 42 53 62 54 43 55
REMARK SMILES IDX 46 56 61 57 81 58 44 59 45 60 60 62 82 63 47 64 30 65 31 66
REMARK SMILES IDX 40 67 32 68 33 69 39 70 41 71 34 72 35 73 36 74 37 75 38 76
REMARK SMILES IDX 64 77 65 78 74 79 66 80 67 81 73 82 75 83 68 84 69 85 70 86
REMARK SMILES IDX 71 87 72 88 48 89 49 90 58 91 50 92 51 93 57 94 59 95 52 96
REMARK SMILES IDX 53 97 54 98 55 99 56 100
REMARK H PARENT 13 6 18 31 80 50 46 61
REMARK Flexibility Score: inf
ROOT
ATOM      1  C   UNL A   1      39.751  21.792  26.107  1.00  0.00     0.023 C 
ENDROOT
BRANCH   1   2
ATOM      2  C   UNL A   1      38.297  22.257  26.011  1.00  0.00     0.116 C 
BRANCH   2   3
ATOM      3  N   UNL A   1      37.910  22.461  24.629  1.00  0.00    -0.352 N 
ATOM      4  C   UNL A   1      36.704  22.782  24.057  1.00  0.00     0.251 C 
ATOM      5  O   UNL A   1      36.665  22.958  22.840  1.00  0.00    -0.269 OA
ATOM      6  H   UNL A   1      38.645  22.350  23.983  1.00  0.00     0.163 HD
BRANCH   4   7
ATOM      7  C   UNL A   1      35.465  22.988  24.855  1.00  0.00     0.039 A 
ATOM      8  C   UNL A   1      33.003  23.264  26.200  1.00  0.00    -0.011 A 
ATOM      9  C   UNL A   1      33.372  22.034  25.642  1.00  0.00     0.008 A 
ATOM     10  C   UNL A   1      33.923  24.319  26.175  1.00  0.00     0.008 A 
ATOM     11  C   UNL A   1      34.587  21.902  24.965  1.00  0.00     0.014 A 
ATOM     12  C   UNL A   1      35.149  24.174  25.520  1.00  0.00     0.014 A 
BRANCH   8  13
ATOM     13  C   UNL A   1      31.637  23.473  26.818  1.00  0.00     0.265 C 
BRANCH  13  14
ATOM     14  O   UNL A   1      31.268  24.848  26.950  1.00  0.00    -0.488 OA
BRANCH  14  15
ATOM     15  C   UNL A   1      30.905  25.577  25.846  1.00  0.00     0.130 A 
ATOM     16  C   UNL A   1      31.168  26.960  25.884  1.00  0.00     0.064 A 
ATOM     17  C   UNL A   1      30.718  27.842  24.860  1.00  0.00    -0.004 A 
ATOM     18  C   UNL A   1      30.229  25.058  24.744  1.00  0.00     0.048 A 
ATOM     19  C   UNL A   1      29.994  27.286  23.780  1.00  0.00    -0.017 A 
ATOM     20  C   UNL A   1      30.951  29.241  24.838  1.00  0.00     0.009 A 
ATOM     21  C   UNL A   1      29.770  25.904  23.731  1.00  0.00     0.012 A 
ATOM     22  C   UNL A   1      29.502  28.113  22.758  1.00  0.00     0.009 A 
ATOM     23  C   UNL A   1      30.459  30.050  23.811  1.00  0.00     0.001 A 
ATOM     24  C   UNL A   1      29.729  29.487  22.775  1.00  0.00     0.001 A 
BRANCH  16  25
ATOM     25  C   UNL A   1      31.902  27.518  27.042  1.00  0.00     0.264 C 
ATOM     26  O   UNL A   1      31.347  27.919  28.058  1.00  0.00    -0.298 OA
ENDBRANCH  16  25
ENDBRANCH  14  15
ENDBRANCH  13  14
ENDBRANCH   8  13
ENDBRANCH   4   7
ENDBRANCH   2   3
ENDBRANCH   1   2
BRANCH   1  27
ATOM     27  C   UNL A   1      40.392  21.992  27.483  1.00  0.00     0.023 C 
BRANCH  27  28
ATOM     28  C   UNL A   1      41.108  23.324  27.674  1.00  0.00     0.116 C 
BRANCH  28  29
ATOM     29  N   UNL A   1      41.410  23.996  26.419  1.00  0.00    -0.352 N 
ATOM     30  C   UNL A   1      41.413  25.344  26.148  1.00  0.00     0.251 C 
ATOM     31  H   UNL A   1      41.646  23.407  25.666  1.00  0.00     0.163 HD
ATOM     32  O   UNL A   1      41.589  25.738  25.002  1.00  0.00    -0.269 OA
BRANCH  30  33
ATOM     33  C   UNL A   1      41.159  26.304  27.242  1.00  0.00     0.039 A 
ATOM     34  C   UNL A   1      40.058  26.096  28.077  1.00  0.00     0.014 A 
ATOM     35  C   UNL A   1      42.019  27.384  27.461  1.00  0.00     0.014 A 
ATOM     36  C   UNL A   1      39.858  26.934  29.176  1.00  0.00     0.010 A 
ATOM     37  C   UNL A   1      41.854  28.178  28.593  1.00  0.00     0.010 A 
ATOM     38  C   UNL A   1      40.775  27.960  29.462  1.00  0.00    -0.014 A 
BRANCH  38  39
ATOM     39  C   UNL A   1      40.627  28.809  30.671  1.00  0.00     0.031 A 
ATOM     40  C   UNL A   1      39.581  29.888  30.711  1.00  0.00     0.074 A 
ATOM     41  C   UNL A   1      41.482  28.652  31.701  1.00  0.00     0.049 A 
ATOM     42  N   UNL A   1      39.350  30.778  31.640  1.00  0.00    -0.248 NA
ATOM     43  C   UNL A   1      38.699  30.001  29.538  1.00  0.00     0.031 C 
ATOM     44  C   UNL A   1      42.573  27.676  31.756  1.00  0.00     0.029 A 
ATOM     45  N   UNL A   1      41.577  29.321  32.895  1.00  0.00    -0.354 N 
ATOM     46  C   UNL A   1      38.308  31.565  31.161  1.00  0.00     0.074 A 
ATOM     47  C   UNL A   1      37.985  31.077  29.838  1.00  0.00     0.031 C 
ATOM     48  C   UNL A   1      43.215  27.799  32.929  1.00  0.00     0.029 A 
ATOM     49  C   UNL A   1      42.605  28.881  33.695  1.00  0.00     0.049 A 
ATOM     50  H   UNL A   1      40.966  30.048  33.155  1.00  0.00     0.167 HD
ATOM     51  C   UNL A   1      37.666  32.585  31.778  1.00  0.00     0.037 A 
ATOM     52  C   UNL A   1      43.013  29.306  34.906  1.00  0.00     0.037 A 
ATOM     53  C   UNL A   1      37.972  33.044  33.108  1.00  0.00     0.049 A 
ATOM     54  C   UNL A   1      42.270  30.427  35.580  1.00  0.00     0.074 A 
ATOM     55  C   UNL A   1      37.337  34.029  33.845  1.00  0.00     0.029 A 
ATOM     56  N   UNL A   1      38.995  32.547  33.901  1.00  0.00    -0.354 N 
ATOM     57  N   UNL A   1      41.246  31.117  35.137  1.00  0.00    -0.248 NA
ATOM     58  C   UNL A   1      42.731  30.822  36.918  1.00  0.00     0.031 C 
ATOM     59  C   UNL A   1      37.998  34.150  35.072  1.00  0.00     0.029 A 
ATOM     60  C   UNL A   1      39.018  33.214  35.115  1.00  0.00     0.049 A 
ATOM     61  H   UNL A   1      39.613  31.827  33.640  1.00  0.00     0.167 HD
ATOM     62  C   UNL A   1      40.924  32.010  36.153  1.00  0.00     0.074 A 
ATOM     63  C   UNL A   1      41.854  31.765  37.235  1.00  0.00     0.031 C 
ATOM     64  C   UNL A   1      39.945  32.948  36.186  1.00  0.00     0.037 A 
BRANCH  51  65
ATOM     65  C   UNL A   1      36.561  33.270  31.022  1.00  0.00     0.058 A 
ATOM     66  C   UNL A   1      35.210  33.028  31.319  1.00  0.00     0.135 A 
ATOM     67  C   UNL A   1      36.854  34.204  30.017  1.00  0.00     0.135 A 
ATOM     68  F   UNL A   1      34.874  32.132  32.260  1.00  0.00    -0.206 F 
ATOM     69  C   UNL A   1      34.188  33.668  30.627  1.00  0.00     0.059 A 
ATOM     70  C   UNL A   1      35.848  34.877  29.329  1.00  0.00     0.059 A 
ATOM     71  F   UNL A   1      38.129  34.473  29.693  1.00  0.00    -0.206 F 
ATOM     72  C   UNL A   1      34.517  34.591  29.632  1.00  0.00     0.060 A 
BRANCH  72  73
ATOM     73  S   UNL A   1      33.178  35.419  28.747  1.00  0.00     0.124 S 
ATOM     74  O   UNL A   1      33.923  36.311  27.864  1.00  0.00    -0.237 OA
ATOM     75  O   UNL A   1      32.499  34.304  28.094  1.00  0.00    -0.237 OA
ATOM     76  O   UNL A   1      32.423  36.072  29.811  1.00  0.00    -0.744 OA
ENDBRANCH  72  73
ENDBRANCH  51  65
BRANCH  52  77
ATOM     77  C   UNL A   1      44.169  28.650  35.575  1.00  0.00     0.058 A 
ATOM     78  C   UNL A   1      43.975  27.582  36.463  1.00  0.00     0.135 A 
ATOM     79  C   UNL A   1      45.486  29.069  35.332  1.00  0.00     0.135 A 
ATOM     80  F   UNL A   1      42.734  27.149  36.729  1.00  0.00    -0.206 F 
ATOM     81  C   UNL A   1      45.045  26.964  37.105  1.00  0.00     0.059 A 
ATOM     82  C   UNL A   1      46.573  28.452  35.943  1.00  0.00     0.059 A 
ATOM     83  F   UNL A   1      45.725  30.075  34.476  1.00  0.00    -0.206 F 
ATOM     84  C   UNL A   1      46.341  27.407  36.838  1.00  0.00     0.060 A 
BRANCH  84  85
ATOM     85  S   UNL A   1      47.725  26.571  37.641  1.00  0.00     0.124 S 
ATOM     86  O   UNL A   1      48.536  26.179  36.493  1.00  0.00    -0.237 OA
ATOM     87  O   UNL A   1      48.277  27.628  38.482  1.00  0.00    -0.237 OA
ATOM     88  O   UNL A   1      47.081  25.477  38.363  1.00  0.00    -0.744 OA
ENDBRANCH  84  85
ENDBRANCH  52  77
BRANCH  64  89
ATOM     89  C   UNL A   1      39.807  33.757  37.445  1.00  0.00     0.058 A 
ATOM     90  C   UNL A   1      40.564  34.919  37.661  1.00  0.00     0.135 A 
ATOM     91  C   UNL A   1      38.868  33.393  38.423  1.00  0.00     0.135 A 
ATOM     92  F   UNL A   1      41.479  35.306  36.758  1.00  0.00    -0.206 F 
ATOM     93  C   UNL A   1      40.409  35.681  38.813  1.00  0.00     0.059 A 
ATOM     94  C   UNL A   1      38.679  34.153  39.572  1.00  0.00     0.059 A 
ATOM     95  F   UNL A   1      38.113  32.295  38.258  1.00  0.00    -0.206 F 
ATOM     96  C   UNL A   1      39.463  35.290  39.764  1.00  0.00     0.060 A 
BRANCH  96  97
ATOM     97  S   UNL A   1      39.246  36.305  41.241  1.00  0.00     0.124 S 
ATOM     98  O   UNL A   1      40.597  36.314  41.792  1.00  0.00    -0.237 OA
ATOM     99  O   UNL A   1      38.781  37.573  40.685  1.00  0.00    -0.237 OA
ATOM    100  O   UNL A   1      38.254  35.568  42.016  1.00  0.00    -0.744 OA
ENDBRANCH  96  97
ENDBRANCH  64  89
ENDBRANCH  38  39
ENDBRANCH  30  33
ENDBRANCH  28  29
ENDBRANCH  27  28
ENDBRANCH   1  27
TORSDOF 18
ENDMDL
MODEL 2
REMARK VINA RESULT:     -12.1      4.521     10.878
REMARK SMILES O=Cc1c(OCc2ccc(C(=O)NCCCCNC(=O)c3ccc(-c4c5nc(c(-c6c(F)cc(S(=O)(=O)[O-])cc6F)c6ccc([nH]6)c(-c6c(F)cc(S(=O)(=O)[O-])cc6F)c6nc(c(-c7c(F)cc(S(=O)(=O)[O-])cc7F)c7ccc4[nH]7)C=C6)C=C5)cc3)cc2)ccc2ccccc12
REMARK SMILES IDX 15 1 14 2 13 3 11 4 12 5 10 7 7 8 8 9 88 10 9 11 87 12 6 13
REMARK SMILES IDX 5 14 4 15 3 16 96 17 89 18 91 19 95 20 90 21 92 22 94 23
REMARK SMILES IDX 93 24 2 25 1 26 16 27 17 28 18 29 19 30 20 32 21 33 22 34
REMARK SMILES IDX 86 35 23 36 85 37 24 38 25 39 26 40 79 41 27 42 84 43 78 44
REMARK SMILES IDX 80 45 28 46 83 47 77 48 76 49 29 51 63 52 42 53 62 54 43 55
REMARK SMILES IDX 46 56 61 57 81 58 44 59 45 60 60 62 82 63 47 64 30 65 31 66
REMARK SMILES IDX 40 67 32 68 33 69 39 70 41 71 34 72 35 73 36 74 37 75 38 76
REMARK SMILES IDX 64 77 65 78 74 79 66 80 67 81 73 82 75 83 68 84 69 85 70 86
REMARK SMILES IDX 71 87 72 88 48 89 49 90 58 91 50 92 51 93 57 94 59 95 52 96
REMARK SMILES IDX 53 97 54 98 55 99 56 100
REMARK H PARENT 13 6 18 31 80 50 46 61
REMARK Flexibility Score: inf
ROOT
ATOM      1  C   UNL A   1      42.873  22.431  28.582  1.00  0.00     0.023 C 
ENDROOT
BRANCH   1   2
ATOM      2  C   UNL A   1      43.320  23.811  28.093  1.00  0.00     0.116 C 
BRANCH   2   3
ATOM      3  N   UNL A   1      44.693  23.775  27.628  1.00  0.00    -0.352 N 
ATOM      4  C   UNL A   1      45.490  24.739  27.064  1.00  0.00     0.251 C 
ATOM      5  O   UNL A   1      46.661  24.454  26.814  1.00  0.00    -0.269 OA
ATOM      6  H   UNL A   1      45.133  22.900  27.737  1.00  0.00     0.163 HD
BRANCH   4   7
ATOM      7  C   UNL A   1      45.016  26.126  26.808  1.00  0.00     0.039 A 
ATOM      8  C   UNL A   1      44.137  28.792  26.552  1.00  0.00    -0.011 A 
ATOM      9  C   UNL A   1      45.237  28.483  27.361  1.00  0.00     0.008 A 
ATOM     10  C   UNL A   1      43.553  27.774  25.790  1.00  0.00     0.008 A 
ATOM     11  C   UNL A   1      45.664  27.160  27.496  1.00  0.00     0.014 A 
ATOM     12  C   UNL A   1      44.001  26.455  25.908  1.00  0.00     0.014 A 
BRANCH   8  13
ATOM     13  C   UNL A   1      43.568  30.194  26.494  1.00  0.00     0.265 C 
BRANCH  13  14
ATOM     14  O   UNL A   1      44.546  31.221  26.672  1.00  0.00    -0.488 OA
BRANCH  14  15
ATOM     15  C   UNL A   1      44.189  32.542  26.576  1.00  0.00     0.130 A 
ATOM     16  C   UNL A   1      43.837  33.192  27.774  1.00  0.00     0.064 A 
ATOM     17  C   UNL A   1      43.320  34.520  27.789  1.00  0.00    -0.004 A 
ATOM     18  C   UNL A   1      44.077  33.246  25.379  1.00  0.00     0.048 A 
ATOM     19  C   UNL A   1      43.175  35.186  26.549  1.00  0.00    -0.017 A 
ATOM     20  C   UNL A   1      42.949  35.231  28.958  1.00  0.00     0.009 A 
ATOM     21  C   UNL A   1      43.565  34.546  25.366  1.00  0.00     0.012 A 
ATOM     22  C   UNL A   1      42.645  36.485  26.501  1.00  0.00     0.009 A 
ATOM     23  C   UNL A   1      42.427  36.526  28.895  1.00  0.00     0.001 A 
ATOM     24  C   UNL A   1      42.269  37.149  27.666  1.00  0.00     0.001 A 
BRANCH  16  25
ATOM     25  C   UNL A   1      43.970  32.460  29.053  1.00  0.00     0.264 C 
ATOM     26  O   UNL A   1      44.984  32.487  29.740  1.00  0.00    -0.298 OA
ENDBRANCH  16  25
ENDBRANCH  14  15
ENDBRANCH  13  14
ENDBRANCH   8  13
ENDBRANCH   4   7
ENDBRANCH   2   3
ENDBRANCH   1   2
BRANCH   1  27
ATOM     27  C   UNL A   1      41.636  21.876  27.872  1.00  0.00     0.023 C 
BRANCH  27  28
ATOM     28  C   UNL A   1      41.482  22.298  26.415  1.00  0.00     0.116 C 
BRANCH  28  29
ATOM     29  N   UNL A   1      40.109  22.223  25.940  1.00  0.00    -0.352 N 
ATOM     30  C   UNL A   1      39.085  23.120  26.133  1.00  0.00     0.251 C 
ATOM     31  H   UNL A   1      39.885  21.425  25.407  1.00  0.00     0.163 HD
ATOM     32  O   UNL A   1      37.953  22.851  25.751  1.00  0.00    -0.269 OA
BRANCH  30  33
ATOM     33  C   UNL A   1      39.356  24.388  26.843  1.00  0.00     0.039 A 
ATOM     34  C   UNL A   1      38.931  24.522  28.166  1.00  0.00     0.014 A 
ATOM     35  C   UNL A   1      40.053  25.425  26.215  1.00  0.00     0.014 A 
ATOM     36  C   UNL A   1      39.264  25.672  28.885  1.00  0.00     0.010 A 
ATOM     37  C   UNL A   1      40.438  26.541  26.952  1.00  0.00     0.010 A 
ATOM     38  C   UNL A   1      40.051  26.674  28.294  1.00  0.00    -0.014 A 
BRANCH  38  39
ATOM     39  C   UNL A   1      40.486  27.866  29.065  1.00  0.00     0.031 A 
ATOM     40  C   UNL A   1      41.815  27.866  29.768  1.00  0.00     0.074 A 
ATOM     41  C   UNL A   1      39.651  28.917  29.190  1.00  0.00     0.049 A 
ATOM     42  N   UNL A   1      42.335  28.775  30.549  1.00  0.00    -0.248 NA
ATOM     43  C   UNL A   1      42.658  26.672  29.591  1.00  0.00     0.031 C 
ATOM     44  C   UNL A   1      38.313  29.012  28.602  1.00  0.00     0.029 A 
ATOM     45  N   UNL A   1      39.799  30.102  29.866  1.00  0.00    -0.354 N 
ATOM     46  C   UNL A   1      43.557  28.261  30.970  1.00  0.00     0.074 A 
ATOM     47  C   UNL A   1      43.678  26.939  30.394  1.00  0.00     0.031 C 
ATOM     48  C   UNL A   1      37.771  30.196  28.927  1.00  0.00     0.029 A 
ATOM     49  C   UNL A   1      38.706  30.931  29.774  1.00  0.00     0.049 A 
ATOM     50  H   UNL A   1      40.612  30.336  30.370  1.00  0.00     0.167 HD
ATOM     51  C   UNL A   1      44.499  28.847  31.746  1.00  0.00     0.037 A 
ATOM     52  C   UNL A   1      38.481  32.144  30.314  1.00  0.00     0.037 A 
ATOM     53  C   UNL A   1      44.385  30.175  32.288  1.00  0.00     0.049 A 
ATOM     54  C   UNL A   1      39.553  32.783  31.155  1.00  0.00     0.074 A 
ATOM     55  C   UNL A   1      45.312  30.883  33.034  1.00  0.00     0.029 A 
ATOM     56  N   UNL A   1      43.279  30.999  32.140  1.00  0.00    -0.354 N 
ATOM     57  N   UNL A   1      40.728  32.307  31.489  1.00  0.00    -0.248 NA
ATOM     58  C   UNL A   1      39.271  34.124  31.685  1.00  0.00     0.031 C 
ATOM     59  C   UNL A   1      44.753  32.122  33.365  1.00  0.00     0.029 A 
ATOM     60  C   UNL A   1      43.495  32.202  32.792  1.00  0.00     0.049 A 
ATOM     61  H   UNL A   1      42.462  30.764  31.645  1.00  0.00     0.167 HD
ATOM     62  C   UNL A   1      41.337  33.301  32.247  1.00  0.00     0.074 A 
ATOM     63  C   UNL A   1      40.405  34.407  32.313  1.00  0.00     0.031 C 
ATOM     64  C   UNL A   1      42.559  33.297  32.836  1.00  0.00     0.037 A 
BRANCH  51  65
ATOM     65  C   UNL A   1      45.742  28.056  32.048  1.00  0.00     0.058 A 
ATOM     66  C   UNL A   1      46.870  28.118  31.215  1.00  0.00     0.135 A 
ATOM     67  C   UNL A   1      45.820  27.258  33.199  1.00  0.00     0.135 A 
ATOM     68  F   UNL A   1      46.844  28.853  30.093  1.00  0.00    -0.206 F 
ATOM     69  C   UNL A   1      48.024  27.395  31.499  1.00  0.00     0.059 A 
ATOM     70  C   UNL A   1      46.972  26.545  33.517  1.00  0.00     0.059 A 
ATOM     71  F   UNL A   1      44.769  27.162  34.029  1.00  0.00    -0.206 F 
ATOM     72  C   UNL A   1      48.065  26.610  32.653  1.00  0.00     0.060 A 
BRANCH  72  73
ATOM     73  S   UNL A   1      49.572  25.681  33.011  1.00  0.00     0.124 S 
ATOM     74  O   UNL A   1      49.093  24.722  34.001  1.00  0.00    -0.237 OA
ATOM     75  O   UNL A   1      49.914  25.126  31.705  1.00  0.00    -0.237 OA
ATOM     76  O   UNL A   1      50.486  26.701  33.514  1.00  0.00    -0.744 OA
ENDBRANCH  72  73
ENDBRANCH  51  65
BRANCH  52  77
ATOM     77  C   UNL A   1      37.197  32.848  30.054  1.00  0.00     0.058 A 
ATOM     78  C   UNL A   1      37.021  33.621  28.897  1.00  0.00     0.135 A 
ATOM     79  C   UNL A   1      36.120  32.754  30.950  1.00  0.00     0.135 A 
ATOM     80  F   UNL A   1      38.023  33.743  28.014  1.00  0.00    -0.206 F 
ATOM     81  C   UNL A   1      35.830  34.294  28.645  1.00  0.00     0.059 A 
ATOM     82  C   UNL A   1      34.911  33.399  30.708  1.00  0.00     0.059 A 
ATOM     83  F   UNL A   1      36.233  32.012  32.062  1.00  0.00    -0.206 F 
ATOM     84  C   UNL A   1      34.780  34.177  29.557  1.00  0.00     0.060 A 
BRANCH  84  85
ATOM     85  S   UNL A   1      33.222  35.019  29.199  1.00  0.00     0.124 S 
ATOM     86  O   UNL A   1      33.690  36.337  28.788  1.00  0.00    -0.237 OA
ATOM     87  O   UNL A   1      32.656  34.184  28.145  1.00  0.00    -0.237 OA
ATOM     88  O   UNL A   1      32.515  34.968  30.476  1.00  0.00    -0.744 OA
ENDBRANCH  84  85
ENDBRANCH  52  77
BRANCH  64  89
ATOM     89  C   UNL A   1      42.974  34.540  33.573  1.00  0.00     0.058 A 
ATOM     90  C   UNL A   1      42.535  34.802  34.880  1.00  0.00     0.135 A 
ATOM     91  C   UNL A   1      43.862  35.452  32.982  1.00  0.00     0.135 A 
ATOM     92  F   UNL A   1      41.680  33.963  35.486  1.00  0.00    -0.206 F 
ATOM     93  C   UNL A   1      42.947  35.937  35.568  1.00  0.00     0.059 A 
ATOM     94  C   UNL A   1      44.307  36.581  33.660  1.00  0.00     0.059 A 
ATOM     95  F   UNL A   1      44.319  35.241  31.737  1.00  0.00    -0.206 F 
ATOM     96  C   UNL A   1      43.834  36.822  34.950  1.00  0.00     0.060 A 
BRANCH  96  97
ATOM     97  S   UNL A   1      44.389  38.275  35.866  1.00  0.00     0.124 S 
ATOM     98  O   UNL A   1      45.839  38.121  35.809  1.00  0.00    -0.237 OA
ATOM     99  O   UNL A   1      43.837  39.373  35.078  1.00  0.00    -0.237 OA
ATOM    100  O   UNL A   1      43.789  38.095  37.184  1.00  0.00    -0.744 OA
ENDBRANCH  96  97
ENDBRANCH  64  89
ENDBRANCH  38  39
ENDBRANCH  30  33
ENDBRANCH  28  29
ENDBRANCH  27  28
ENDBRANCH   1  27
TORSDOF 18
ENDMDL
MODEL 3
REMARK VINA RESULT:     -12.1      6.543     11.884
REMARK SMILES O=Cc1c(OCc2ccc(C(=O)NCCCCNC(=O)c3ccc(-c4c5nc(c(-c6c(F)cc(S(=O)(=O)[O-])cc6F)c6ccc([nH]6)c(-c6c(F)cc(S(=O)(=O)[O-])cc6F)c6nc(c(-c7c(F)cc(S(=O)(=O)[O-])cc7F)c7ccc4[nH]7)C=C6)C=C5)cc3)cc2)ccc2ccccc12
REMARK SMILES IDX 15 1 14 2 13 3 11 4 12 5 10 7 7 8 8 9 88 10 9 11 87 12 6 13
REMARK SMILES IDX 5 14 4 15 3 16 96 17 89 18 91 19 95 20 90 21 92 22 94 23
REMARK SMILES IDX 93 24 2 25 1 26 16 27 17 28 18 29 19 30 20 32 21 33 22 34
REMARK SMILES IDX 86 35 23 36 85 37 24 38 25 39 26 40 79 41 27 42 84 43 78 44
REMARK SMILES IDX 80 45 28 46 83 47 77 48 76 49 29 51 63 52 42 53 62 54 43 55
REMARK SMILES IDX 46 56 61 57 81 58 44 59 45 60 60 62 82 63 47 64 30 65 31 66
REMARK SMILES IDX 40 67 32 68 33 69 39 70 41 71 34 72 35 73 36 74 37 75 38 76
REMARK SMILES IDX 64 77 65 78 74 79 66 80 67 81 73 82 75 83 68 84 69 85 70 86
REMARK SMILES IDX 71 87 72 88 48 89 49 90 58 91 50 92 51 93 57 94 59 95 52 96
REMARK SMILES IDX 53 97 54 98 55 99 56 100
REMARK H PARENT 13 6 18 31 80 50 46 61
REMARK Flexibility Score: inf
ROOT
ATOM      1  C   UNL A   1      34.039  31.564  28.088  1.00  0.00     0.023 C 
ENDROOT
BRANCH   1   2
ATOM      2  C   UNL A   1      34.001  30.313  27.209  1.00  0.00     0.116 C 
BRANCH   2   3
ATOM      3  N   UNL A   1      32.893  30.372  26.275  1.00  0.00    -0.352 N 
ATOM      4  C   UNL A   1      32.180  29.384  25.643  1.00  0.00     0.251 C 
ATOM      5  O   UNL A   1      31.229  29.714  24.934  1.00  0.00    -0.269 OA
ATOM      6  H   UNL A   1      32.600  31.285  26.053  1.00  0.00     0.163 HD
BRANCH   4   7
ATOM      7  C   UNL A   1      32.465  27.936  25.836  1.00  0.00     0.039 A 
ATOM      8  C   UNL A   1      33.085  25.190  25.982  1.00  0.00    -0.011 A 
ATOM      9  C   UNL A   1      33.990  26.092  25.409  1.00  0.00     0.008 A 
ATOM     10  C   UNL A   1      31.921  25.690  26.578  1.00  0.00     0.008 A 
ATOM     11  C   UNL A   1      33.676  27.450  25.326  1.00  0.00     0.014 A 
ATOM     12  C   UNL A   1      31.624  27.054  26.517  1.00  0.00     0.014 A 
BRANCH   8  13
ATOM     13  C   UNL A   1      33.337  23.698  25.961  1.00  0.00     0.265 C 
BRANCH  13  14
ATOM     14  O   UNL A   1      33.972  23.237  24.765  1.00  0.00    -0.488 OA
BRANCH  14  15
ATOM     15  C   UNL A   1      34.348  21.924  24.643  1.00  0.00     0.130 A 
ATOM     16  C   UNL A   1      33.368  21.022  24.185  1.00  0.00     0.064 A 
ATOM     17  C   UNL A   1      33.596  19.616  24.144  1.00  0.00    -0.004 A 
ATOM     18  C   UNL A   1      35.593  21.420  25.015  1.00  0.00     0.048 A 
ATOM     19  C   UNL A   1      34.855  19.138  24.575  1.00  0.00    -0.017 A 
ATOM     20  C   UNL A   1      32.653  18.657  23.693  1.00  0.00     0.009 A 
ATOM     21  C   UNL A   1      35.838  20.045  24.991  1.00  0.00     0.012 A 
ATOM     22  C   UNL A   1      35.124  17.760  24.582  1.00  0.00     0.009 A 
ATOM     23  C   UNL A   1      32.937  17.289  23.702  1.00  0.00     0.001 A 
ATOM     24  C   UNL A   1      34.170  16.841  24.153  1.00  0.00     0.001 A 
BRANCH  16  25
ATOM     25  C   UNL A   1      32.048  21.549  23.770  1.00  0.00     0.264 C 
ATOM     26  O   UNL A   1      31.862  22.131  22.709  1.00  0.00    -0.298 OA
ENDBRANCH  16  25
ENDBRANCH  14  15
ENDBRANCH  13  14
ENDBRANCH   8  13
ENDBRANCH   4   7
ENDBRANCH   2   3
ENDBRANCH   1   2
BRANCH   1  27
ATOM     27  C   UNL A   1      35.274  32.446  27.884  1.00  0.00     0.023 C 
BRANCH  27  28
ATOM     28  C   UNL A   1      36.279  32.426  29.030  1.00  0.00     0.116 C 
BRANCH  28  29
ATOM     29  N   UNL A   1      35.910  31.508  30.098  1.00  0.00    -0.352 N 
ATOM     30  C   UNL A   1      36.635  30.462  30.617  1.00  0.00     0.251 C 
ATOM     31  H   UNL A   1      35.025  31.659  30.503  1.00  0.00     0.163 HD
ATOM     32  O   UNL A   1      36.130  29.718  31.448  1.00  0.00    -0.269 OA
BRANCH  30  33
ATOM     33  C   UNL A   1      38.010  30.220  30.130  1.00  0.00     0.039 A 
ATOM     34  C   UNL A   1      39.055  30.191  31.056  1.00  0.00     0.014 A 
ATOM     35  C   UNL A   1      38.260  29.994  28.774  1.00  0.00     0.014 A 
ATOM     36  C   UNL A   1      40.344  29.866  30.631  1.00  0.00     0.010 A 
ATOM     37  C   UNL A   1      39.533  29.609  28.362  1.00  0.00     0.010 A 
ATOM     38  C   UNL A   1      40.586  29.538  29.286  1.00  0.00    -0.014 A 
BRANCH  38  39
ATOM     39  C   UNL A   1      41.932  29.109  28.829  1.00  0.00     0.031 A 
ATOM     40  C   UNL A   1      43.043  30.115  28.708  1.00  0.00     0.074 A 
ATOM     41  C   UNL A   1      42.130  27.829  28.456  1.00  0.00     0.049 A 
ATOM     42  N   UNL A   1      44.258  29.950  28.256  1.00  0.00    -0.248 NA
ATOM     43  C   UNL A   1      42.738  31.494  29.122  1.00  0.00     0.031 C 
ATOM     44  C   UNL A   1      41.114  26.774  28.475  1.00  0.00     0.029 A 
ATOM     45  N   UNL A   1      43.250  27.201  27.973  1.00  0.00    -0.354 N 
ATOM     46  C   UNL A   1      44.858  31.203  28.317  1.00  0.00     0.074 A 
ATOM     47  C   UNL A   1      43.857  32.127  28.804  1.00  0.00     0.031 C 
ATOM     48  C   UNL A   1      41.662  25.627  28.042  1.00  0.00     0.029 A 
ATOM     49  C   UNL A   1      43.055  25.871  27.682  1.00  0.00     0.049 A 
ATOM     50  H   UNL A   1      44.112  27.659  27.846  1.00  0.00     0.167 HD
ATOM     51  C   UNL A   1      46.133  31.546  28.014  1.00  0.00     0.037 A 
ATOM     52  C   UNL A   1      43.903  24.953  27.179  1.00  0.00     0.037 A 
ATOM     53  C   UNL A   1      47.133  30.615  27.560  1.00  0.00     0.049 A 
ATOM     54  C   UNL A   1      45.320  25.354  26.872  1.00  0.00     0.074 A 
ATOM     55  C   UNL A   1      48.469  30.852  27.288  1.00  0.00     0.029 A 
ATOM     56  N   UNL A   1      46.908  29.268  27.316  1.00  0.00    -0.354 N 
ATOM     57  N   UNL A   1      45.887  26.530  26.996  1.00  0.00    -0.248 NA
ATOM     58  C   UNL A   1      46.214  24.304  26.364  1.00  0.00     0.031 C 
ATOM     59  C   UNL A   1      49.044  29.655  26.847  1.00  0.00     0.029 A 
ATOM     60  C   UNL A   1      48.076  28.665  26.883  1.00  0.00     0.049 A 
ATOM     61  H   UNL A   1      46.045  28.809  27.433  1.00  0.00     0.167 HD
ATOM     62  C   UNL A   1      47.211  26.356  26.606  1.00  0.00     0.074 A 
ATOM     63  C   UNL A   1      47.361  24.959  26.253  1.00  0.00     0.031 C 
ATOM     64  C   UNL A   1      48.211  27.269  26.547  1.00  0.00     0.037 A 
BRANCH  51  65
ATOM     65  C   UNL A   1      46.522  32.990  28.174  1.00  0.00     0.058 A 
ATOM     66  C   UNL A   1      47.087  33.469  29.367  1.00  0.00     0.135 A 
ATOM     67  C   UNL A   1      46.363  33.895  27.114  1.00  0.00     0.135 A 
ATOM     68  F   UNL A   1      47.246  32.650  30.417  1.00  0.00    -0.206 F 
ATOM     69  C   UNL A   1      47.456  34.802  29.511  1.00  0.00     0.059 A 
ATOM     70  C   UNL A   1      46.748  35.227  27.227  1.00  0.00     0.059 A 
ATOM     71  F   UNL A   1      45.827  33.489  25.952  1.00  0.00    -0.206 F 
ATOM     72  C   UNL A   1      47.281  35.675  28.435  1.00  0.00     0.060 A 
BRANCH  72  73
ATOM     73  S   UNL A   1      47.771  37.401  28.637  1.00  0.00     0.124 S 
ATOM     74  O   UNL A   1      46.783  37.871  29.604  1.00  0.00    -0.237 OA
ATOM     75  O   UNL A   1      49.138  37.282  29.135  1.00  0.00    -0.237 OA
ATOM     76  O   UNL A   1      47.642  37.949  27.291  1.00  0.00    -0.744 OA
ENDBRANCH  72  73
ENDBRANCH  51  65
BRANCH  52  77
ATOM     77  C   UNL A   1      43.443  23.556  26.958  1.00  0.00     0.058 A 
ATOM     78  C   UNL A   1      43.325  22.660  28.031  1.00  0.00     0.135 A 
ATOM     79  C   UNL A   1      43.103  23.094  25.677  1.00  0.00     0.135 A 
ATOM     80  F   UNL A   1      43.641  23.055  29.272  1.00  0.00    -0.206 F 
ATOM     81  C   UNL A   1      42.906  21.346  27.839  1.00  0.00     0.059 A 
ATOM     82  C   UNL A   1      42.659  21.793  25.464  1.00  0.00     0.059 A 
ATOM     83  F   UNL A   1      43.182  23.919  24.622  1.00  0.00    -0.206 F 
ATOM     84  C   UNL A   1      42.575  20.922  26.552  1.00  0.00     0.060 A 
BRANCH  84  85
ATOM     85  S   UNL A   1      41.990  19.230  26.320  1.00  0.00     0.124 S 
ATOM     86  O   UNL A   1      42.203  18.662  27.646  1.00  0.00    -0.237 OA
ATOM     87  O   UNL A   1      40.600  19.435  25.928  1.00  0.00    -0.237 OA
ATOM     88  O   UNL A   1      42.861  18.717  25.266  1.00  0.00    -0.744 OA
ENDBRANCH  84  85
ENDBRANCH  52  77
BRANCH  64  89
ATOM     89  C   UNL A   1      49.566  26.783  26.116  1.00  0.00     0.058 A 
ATOM     90  C   UNL A   1      50.011  26.918  24.792  1.00  0.00     0.135 A 
ATOM     91  C   UNL A   1      50.448  26.221  27.053  1.00  0.00     0.135 A 
ATOM     92  F   UNL A   1      49.202  27.443  23.858  1.00  0.00    -0.206 F 
ATOM     93  C   UNL A   1      51.278  26.495  24.407  1.00  0.00     0.059 A 
ATOM     94  C   UNL A   1      51.729  25.813  26.695  1.00  0.00     0.059 A 
ATOM     95  F   UNL A   1      50.073  26.079  28.334  1.00  0.00    -0.206 F 
ATOM     96  C   UNL A   1      52.130  25.944  25.366  1.00  0.00     0.060 A 
BRANCH  96  97
ATOM     97  S   UNL A   1      53.786  25.429  24.862  1.00  0.00     0.124 S 
ATOM     98  O   UNL A   1      53.616  23.986  24.729  1.00  0.00    -0.237 OA
ATOM     99  O   UNL A   1      53.977  26.163  23.615  1.00  0.00    -0.237 OA
ATOM    100  O   UNL A   1      54.629  25.863  25.972  1.00  0.00    -0.744 OA
ENDBRANCH  96  97
ENDBRANCH  64  89
ENDBRANCH  38  39
ENDBRANCH  30  33
ENDBRANCH  28  29
ENDBRANCH  27  28
ENDBRANCH   1  27
TORSDOF 18
ENDMDL
