MODEL 1
REMARK VINA RESULT:     -11.0      0.000      0.000
REMARK SMILES O=C(NCCCCNC(=O)c1cn2ccccc2n1)c1ccc(-c2c3nc(c(-c4c(F)cc(S(=O)(=O)[O-])cc4F)c4ccc([nH]4)c(-c4c(F)cc(S(=O)(=O)[O-])cc4F)c4nc(c(-c5c(F)cc(S(=O)(=O)[O-])cc5F)c5ccc2[nH]5)C=C4)C=C3)cc1
REMARK SMILES IDX 4 1 3 2 1 3 2 4 20 6 21 7 85 8 22 9 84 10 23 11 24 12 25 13
REMARK SMILES IDX 78 14 26 15 83 16 77 17 79 18 27 19 82 20 76 21 75 22 28 24
REMARK SMILES IDX 62 25 41 26 61 27 42 28 45 29 60 30 80 31 43 32 44 33 59 35
REMARK SMILES IDX 81 36 46 37 29 38 30 39 39 40 31 41 32 42 38 43 40 44 33 45
REMARK SMILES IDX 34 46 35 47 36 48 37 49 63 50 64 51 73 52 65 53 66 54 72 55
REMARK SMILES IDX 74 56 67 57 68 58 69 59 70 60 71 61 47 62 48 63 57 64 49 65
REMARK SMILES IDX 50 66 56 67 58 68 51 69 52 70 53 71 54 72 55 73 5 74 6 75
REMARK SMILES IDX 7 76 8 77 9 78 10 80 11 81 12 82 19 83 13 84 18 85 14 86
REMARK SMILES IDX 17 87 15 88 16 89
REMARK H PARENT 3 5 79 23 45 34 8 79
REMARK Flexibility Score: inf
ROOT
ATOM      1  C   UNL A   1      34.761  32.487  28.918  1.00  0.00     0.116 C 
ENDROOT
BRANCH   1   2
ATOM      2  N   UNL A   1      34.117  31.269  28.449  1.00  0.00    -0.352 N 
ATOM      3  O   UNL A   1      34.002  29.176  27.612  1.00  0.00    -0.269 OA
ATOM      4  C   UNL A   1      34.685  30.058  28.123  1.00  0.00     0.251 C 
ATOM      5  H   UNL A   1      33.139  31.318  28.350  1.00  0.00     0.163 HD
BRANCH   4   6
ATOM      6  C   UNL A   1      36.127  29.843  28.369  1.00  0.00     0.039 A 
ATOM      7  C   UNL A   1      37.056  30.064  27.349  1.00  0.00     0.014 A 
ATOM      8  C   UNL A   1      36.552  29.387  29.618  1.00  0.00     0.014 A 
ATOM      9  C   UNL A   1      38.377  29.671  27.524  1.00  0.00     0.010 A 
ATOM     10  C   UNL A   1      37.903  29.090  29.825  1.00  0.00     0.010 A 
ATOM     11  C   UNL A   1      38.821  29.197  28.769  1.00  0.00    -0.014 A 
BRANCH  11  12
ATOM     12  C   UNL A   1      40.264  28.894  28.956  1.00  0.00     0.031 A 
ATOM     13  C   UNL A   1      40.842  27.560  28.569  1.00  0.00     0.074 A 
ATOM     14  C   UNL A   1      41.060  29.857  29.461  1.00  0.00     0.049 A 
ATOM     15  N   UNL A   1      42.079  27.142  28.667  1.00  0.00    -0.248 NA
ATOM     16  C   UNL A   1      39.916  26.563  28.008  1.00  0.00     0.031 C 
ATOM     17  C   UNL A   1      40.607  31.187  29.879  1.00  0.00     0.029 A 
ATOM     18  N   UNL A   1      42.409  29.880  29.698  1.00  0.00    -0.354 N 
ATOM     19  C   UNL A   1      42.080  25.833  28.197  1.00  0.00     0.074 A 
ATOM     20  C   UNL A   1      40.713  25.515  27.842  1.00  0.00     0.031 C 
ATOM     21  C   UNL A   1      41.663  31.908  30.279  1.00  0.00     0.029 A 
ATOM     22  C   UNL A   1      42.856  31.072  30.218  1.00  0.00     0.049 A 
ATOM     23  H   UNL A   1      43.003  29.117  29.514  1.00  0.00     0.167 HD
ATOM     24  C   UNL A   1      43.128  24.981  28.071  1.00  0.00     0.037 A 
ATOM     25  C   UNL A   1      44.081  31.447  30.629  1.00  0.00     0.037 A 
ATOM     26  C   UNL A   1      44.486  25.314  28.424  1.00  0.00     0.049 A 
ATOM     27  C   UNL A   1      45.214  30.470  30.513  1.00  0.00     0.074 A 
ATOM     28  C   UNL A   1      45.623  24.533  28.303  1.00  0.00     0.029 A 
ATOM     29  N   UNL A   1      44.892  26.522  28.977  1.00  0.00    -0.354 N 
ATOM     30  N   UNL A   1      45.202  29.249  30.035  1.00  0.00    -0.248 NA
ATOM     31  C   UNL A   1      46.527  30.919  30.992  1.00  0.00     0.031 C 
ATOM     32  C   UNL A   1      46.704  25.244  28.833  1.00  0.00     0.029 A 
ATOM     33  C   UNL A   1      46.256  26.495  29.227  1.00  0.00     0.049 A 
ATOM     34  H   UNL A   1      44.299  27.285  29.162  1.00  0.00     0.167 HD
ATOM     35  C   UNL A   1      46.510  28.790  30.137  1.00  0.00     0.074 A 
ATOM     36  C   UNL A   1      47.288  29.873  30.705  1.00  0.00     0.031 C 
ATOM     37  C   UNL A   1      47.019  27.581  29.793  1.00  0.00     0.037 A 
BRANCH  24  38
ATOM     38  C   UNL A   1      42.851  23.594  27.549  1.00  0.00     0.058 A 
ATOM     39  C   UNL A   1      42.868  23.300  26.176  1.00  0.00     0.135 A 
ATOM     40  C   UNL A   1      42.619  22.532  28.439  1.00  0.00     0.135 A 
ATOM     41  F   UNL A   1      43.073  24.277  25.277  1.00  0.00    -0.206 F 
ATOM     42  C   UNL A   1      42.640  22.010  25.703  1.00  0.00     0.059 A 
ATOM     43  C   UNL A   1      42.417  21.229  27.991  1.00  0.00     0.059 A 
ATOM     44  F   UNL A   1      42.594  22.752  29.763  1.00  0.00    -0.206 F 
ATOM     45  C   UNL A   1      42.415  20.981  26.619  1.00  0.00     0.060 A 
BRANCH  45  46
ATOM     46  S   UNL A   1      42.123  19.313  25.989  1.00  0.00     0.124 S 
ATOM     47  O   UNL A   1      40.683  19.339  25.755  1.00  0.00    -0.237 OA
ATOM     48  O   UNL A   1      42.959  19.282  24.794  1.00  0.00    -0.237 OA
ATOM     49  O   UNL A   1      42.565  18.453  27.082  1.00  0.00    -0.744 OA
ENDBRANCH  45  46
ENDBRANCH  24  38
BRANCH  25  50
ATOM     50  C   UNL A   1      44.283  32.805  31.199  1.00  0.00     0.058 A 
ATOM     51  C   UNL A   1      44.146  33.042  32.574  1.00  0.00     0.135 A 
ATOM     52  C   UNL A   1      44.647  33.887  30.381  1.00  0.00     0.135 A 
ATOM     53  F   UNL A   1      43.797  32.041  33.396  1.00  0.00    -0.206 F 
ATOM     54  C   UNL A   1      44.345  34.307  33.117  1.00  0.00     0.059 A 
ATOM     55  C   UNL A   1      44.884  35.153  30.905  1.00  0.00     0.059 A 
ATOM     56  F   UNL A   1      44.812  33.708  29.061  1.00  0.00    -0.206 F 
ATOM     57  C   UNL A   1      44.718  35.356  32.273  1.00  0.00     0.060 A 
BRANCH  57  58
ATOM     58  S   UNL A   1      45.020  36.983  32.995  1.00  0.00     0.124 S 
ATOM     59  O   UNL A   1      43.705  37.602  32.880  1.00  0.00    -0.237 OA
ATOM     60  O   UNL A   1      45.450  36.642  34.347  1.00  0.00    -0.237 OA
ATOM     61  O   UNL A   1      46.060  37.543  32.138  1.00  0.00    -0.744 OA
ENDBRANCH  57  58
ENDBRANCH  25  50
BRANCH  37  62
ATOM     62  C   UNL A   1      48.497  27.377  29.988  1.00  0.00     0.058 A 
ATOM     63  C   UNL A   1      49.016  26.780  31.147  1.00  0.00     0.135 A 
ATOM     64  C   UNL A   1      49.403  27.749  28.981  1.00  0.00     0.135 A 
ATOM     65  F   UNL A   1      48.195  26.414  32.145  1.00  0.00    -0.206 F 
ATOM     66  C   UNL A   1      50.383  26.584  31.314  1.00  0.00     0.059 A 
ATOM     67  C   UNL A   1      50.771  27.533  29.113  1.00  0.00     0.059 A 
ATOM     68  F   UNL A   1      48.961  28.318  27.848  1.00  0.00    -0.206 F 
ATOM     69  C   UNL A   1      51.253  26.961  30.288  1.00  0.00     0.060 A 
BRANCH  69  70
ATOM     70  S   UNL A   1      53.021  26.671  30.505  1.00  0.00     0.124 S 
ATOM     71  O   UNL A   1      53.471  27.964  31.011  1.00  0.00    -0.237 OA
ATOM     72  O   UNL A   1      53.041  25.572  31.465  1.00  0.00    -0.237 OA
ATOM     73  O   UNL A   1      53.477  26.330  29.161  1.00  0.00    -0.744 OA
ENDBRANCH  69  70
ENDBRANCH  37  62
ENDBRANCH  11  12
ENDBRANCH   4   6
ENDBRANCH   1   2
BRANCH   1  74
ATOM     74  C   UNL A   1      34.413  33.708  28.080  1.00  0.00     0.023 C 
BRANCH  74  75
ATOM     75  C   UNL A   1      33.221  34.518  28.581  1.00  0.00     0.023 C 
BRANCH  75  76
ATOM     76  C   UNL A   1      33.557  35.926  29.065  1.00  0.00     0.116 C 
BRANCH  76  77
ATOM     77  N   UNL A   1      32.650  36.392  30.100  1.00  0.00    -0.351 N 
ATOM     78  C   UNL A   1      32.619  36.064  31.437  1.00  0.00     0.271 C 
ATOM     79  H   UNL A   1      31.962  37.031  29.805  1.00  0.00     0.163 HD
ATOM     80  O   UNL A   1      31.664  36.441  32.118  1.00  0.00    -0.267 OA
BRANCH  78  81
ATOM     81  C   UNL A   1      33.724  35.286  31.990  1.00  0.00     0.147 A 
ATOM     82  C   UNL A   1      34.920  35.779  32.486  1.00  0.00     0.127 A 
ATOM     83  N   UNL A   1      33.706  33.905  32.089  1.00  0.00    -0.223 NA
ATOM     84  N   UNL A   1      35.684  34.683  32.777  1.00  0.00    -0.306 N 
ATOM     85  C   UNL A   1      34.891  33.565  32.548  1.00  0.00     0.137 A 
ATOM     86  C   UNL A   1      37.010  34.618  33.194  1.00  0.00     0.093 A 
ATOM     87  C   UNL A   1      35.475  32.294  32.805  1.00  0.00     0.048 A 
ATOM     88  C   UNL A   1      37.569  33.413  33.406  1.00  0.00     0.018 A 
ATOM     89  C   UNL A   1      36.758  32.219  33.211  1.00  0.00     0.005 A 
ENDBRANCH  78  81
ENDBRANCH  76  77
ENDBRANCH  75  76
ENDBRANCH  74  75
ENDBRANCH   1  74
TORSDOF 14
ENDMDL
MODEL 2
REMARK VINA RESULT:     -11.0      0.568      8.527
REMARK SMILES O=C(NCCCCNC(=O)c1cn2ccccc2n1)c1ccc(-c2c3nc(c(-c4c(F)cc(S(=O)(=O)[O-])cc4F)c4ccc([nH]4)c(-c4c(F)cc(S(=O)(=O)[O-])cc4F)c4nc(c(-c5c(F)cc(S(=O)(=O)[O-])cc5F)c5ccc2[nH]5)C=C4)C=C3)cc1
REMARK SMILES IDX 4 1 3 2 1 3 2 4 20 6 21 7 85 8 22 9 84 10 23 11 24 12 25 13
REMARK SMILES IDX 78 14 26 15 83 16 77 17 79 18 27 19 82 20 76 21 75 22 28 24
REMARK SMILES IDX 62 25 41 26 61 27 42 28 45 29 60 30 80 31 43 32 44 33 59 35
REMARK SMILES IDX 81 36 46 37 29 38 30 39 39 40 31 41 32 42 38 43 40 44 33 45
REMARK SMILES IDX 34 46 35 47 36 48 37 49 63 50 64 51 73 52 65 53 66 54 72 55
REMARK SMILES IDX 74 56 67 57 68 58 69 59 70 60 71 61 47 62 48 63 57 64 49 65
REMARK SMILES IDX 50 66 56 67 58 68 51 69 52 70 53 71 54 72 55 73 5 74 6 75
REMARK SMILES IDX 7 76 8 77 9 78 10 80 11 81 12 82 19 83 13 84 18 85 14 86
REMARK SMILES IDX 17 87 15 88 16 89
REMARK H PARENT 3 5 79 23 45 34 8 79
REMARK Flexibility Score: inf
ROOT
ATOM      1  C   UNL A   1      34.455  32.430  28.834  1.00  0.00     0.116 C 
ENDROOT
BRANCH   1   2
ATOM      2  N   UNL A   1      33.878  31.203  28.305  1.00  0.00    -0.352 N 
ATOM      3  O   UNL A   1      33.879  29.128  27.416  1.00  0.00    -0.269 OA
ATOM      4  C   UNL A   1      34.504  30.020  27.982  1.00  0.00     0.251 C 
ATOM      5  H   UNL A   1      32.905  31.221  28.156  1.00  0.00     0.163 HD
BRANCH   4   6
ATOM      6  C   UNL A   1      35.938  29.847  28.298  1.00  0.00     0.039 A 
ATOM      7  C   UNL A   1      36.909  30.094  27.324  1.00  0.00     0.014 A 
ATOM      8  C   UNL A   1      36.315  29.405  29.568  1.00  0.00     0.014 A 
ATOM      9  C   UNL A   1      38.230  29.740  27.564  1.00  0.00     0.010 A 
ATOM     10  C   UNL A   1      37.662  29.148  29.841  1.00  0.00     0.010 A 
ATOM     11  C   UNL A   1      38.627  29.280  28.830  1.00  0.00    -0.014 A 
BRANCH  11  12
ATOM     12  C   UNL A   1      40.067  29.020  29.087  1.00  0.00     0.031 A 
ATOM     13  C   UNL A   1      40.952  30.059  29.719  1.00  0.00     0.074 A 
ATOM     14  C   UNL A   1      40.566  27.810  28.762  1.00  0.00     0.049 A 
ATOM     15  N   UNL A   1      42.227  29.985  30.010  1.00  0.00    -0.248 NA
ATOM     16  C   UNL A   1      40.335  31.350  30.061  1.00  0.00     0.031 C 
ATOM     17  C   UNL A   1      39.802  26.726  28.137  1.00  0.00     0.029 A 
ATOM     18  N   UNL A   1      41.819  27.279  28.922  1.00  0.00    -0.354 N 
ATOM     19  C   UNL A   1      42.569  31.218  30.554  1.00  0.00     0.074 A 
ATOM     20  C   UNL A   1      41.374  32.034  30.524  1.00  0.00     0.031 C 
ATOM     21  C   UNL A   1      40.588  25.650  28.006  1.00  0.00     0.029 A 
ATOM     22  C   UNL A   1      41.930  25.986  28.467  1.00  0.00     0.049 A 
ATOM     23  H   UNL A   1      42.569  27.775  29.323  1.00  0.00     0.167 HD
ATOM     24  C   UNL A   1      43.769  31.626  31.036  1.00  0.00     0.037 A 
ATOM     25  C   UNL A   1      42.995  25.167  28.399  1.00  0.00     0.037 A 
ATOM     26  C   UNL A   1      44.951  30.798  31.064  1.00  0.00     0.049 A 
ATOM     27  C   UNL A   1      44.320  25.659  28.905  1.00  0.00     0.074 A 
ATOM     28  C   UNL A   1      46.205  31.106  31.563  1.00  0.00     0.029 A 
ATOM     29  N   UNL A   1      45.030  29.504  30.565  1.00  0.00    -0.354 N 
ATOM     30  N   UNL A   1      44.616  26.816  29.447  1.00  0.00    -0.248 NA
ATOM     31  C   UNL A   1      45.456  24.736  28.790  1.00  0.00     0.031 C 
ATOM     32  C   UNL A   1      47.055  30.025  31.314  1.00  0.00     0.029 A 
ATOM     33  C   UNL A   1      46.318  29.014  30.719  1.00  0.00     0.049 A 
ATOM     34  H   UNL A   1      44.281  29.008  30.163  1.00  0.00     0.167 HD
ATOM     35  C   UNL A   1      45.970  26.753  29.757  1.00  0.00     0.074 A 
ATOM     36  C   UNL A   1      46.427  25.436  29.359  1.00  0.00     0.031 C 
ATOM     37  C   UNL A   1      46.760  27.700  30.319  1.00  0.00     0.037 A 
BRANCH  24  38
ATOM     38  C   UNL A   1      43.879  33.036  31.556  1.00  0.00     0.058 A 
ATOM     39  C   UNL A   1      44.235  34.110  30.726  1.00  0.00     0.135 A 
ATOM     40  C   UNL A   1      43.572  33.325  32.897  1.00  0.00     0.135 A 
ATOM     41  F   UNL A   1      44.551  33.894  29.438  1.00  0.00    -0.206 F 
ATOM     42  C   UNL A   1      44.307  35.414  31.209  1.00  0.00     0.059 A 
ATOM     43  C   UNL A   1      43.609  34.624  33.396  1.00  0.00     0.059 A 
ATOM     44  F   UNL A   1      43.223  32.338  33.738  1.00  0.00    -0.206 F 
ATOM     45  C   UNL A   1      43.992  35.661  32.546  1.00  0.00     0.060 A 
BRANCH  45  46
ATOM     46  S   UNL A   1      44.087  37.359  33.155  1.00  0.00     0.124 S 
ATOM     47  O   UNL A   1      43.804  38.119  31.942  1.00  0.00    -0.237 OA
ATOM     48  O   UNL A   1      43.045  37.382  34.175  1.00  0.00    -0.237 OA
ATOM     49  O   UNL A   1      45.454  37.465  33.656  1.00  0.00    -0.744 OA
ENDBRANCH  45  46
ENDBRANCH  24  38
BRANCH  25  50
ATOM     50  C   UNL A   1      42.845  23.809  27.814  1.00  0.00     0.058 A 
ATOM     51  C   UNL A   1      42.543  22.702  28.620  1.00  0.00     0.135 A 
ATOM     52  C   UNL A   1      42.972  23.597  26.432  1.00  0.00     0.135 A 
ATOM     53  F   UNL A   1      42.414  22.853  29.947  1.00  0.00    -0.206 F 
ATOM     54  C   UNL A   1      42.390  21.430  28.079  1.00  0.00     0.059 A 
ATOM     55  C   UNL A   1      42.790  22.341  25.864  1.00  0.00     0.059 A 
ATOM     56  F   UNL A   1      43.239  24.628  25.614  1.00  0.00    -0.206 F 
ATOM     57  C   UNL A   1      42.511  21.261  26.698  1.00  0.00     0.060 A 
BRANCH  57  58
ATOM     58  S   UNL A   1      42.263  19.614  26.001  1.00  0.00     0.124 S 
ATOM     59  O   UNL A   1      43.136  19.656  24.833  1.00  0.00    -0.237 OA
ATOM     60  O   UNL A   1      42.699  18.751  27.094  1.00  0.00    -0.237 OA
ATOM     61  O   UNL A   1      40.832  19.581  25.720  1.00  0.00    -0.744 OA
ENDBRANCH  57  58
ENDBRANCH  25  50
BRANCH  37  62
ATOM     62  C   UNL A   1      48.198  27.334  30.571  1.00  0.00     0.058 A 
ATOM     63  C   UNL A   1      48.594  26.638  31.724  1.00  0.00     0.135 A 
ATOM     64  C   UNL A   1      49.187  27.650  29.625  1.00  0.00     0.135 A 
ATOM     65  F   UNL A   1      47.690  26.319  32.665  1.00  0.00    -0.206 F 
ATOM     66  C   UNL A   1      49.922  26.292  31.945  1.00  0.00     0.059 A 
ATOM     67  C   UNL A   1      50.517  27.287  29.810  1.00  0.00     0.059 A 
ATOM     68  F   UNL A   1      48.863  28.309  28.502  1.00  0.00    -0.206 F 
ATOM     69  C   UNL A   1      50.877  26.619  30.979  1.00  0.00     0.060 A 
BRANCH  69  70
ATOM     70  S   UNL A   1      52.593  26.136  31.262  1.00  0.00     0.124 S 
ATOM     71  O   UNL A   1      53.097  26.027  29.896  1.00  0.00    -0.237 OA
ATOM     72  O   UNL A   1      53.108  27.259  32.039  1.00  0.00    -0.237 OA
ATOM     73  O   UNL A   1      52.477  24.877  31.992  1.00  0.00    -0.744 OA
ENDBRANCH  69  70
ENDBRANCH  37  62
ENDBRANCH  11  12
ENDBRANCH   4   6
ENDBRANCH   1   2
BRANCH   1  74
ATOM     74  C   UNL A   1      34.107  33.658  28.007  1.00  0.00     0.023 C 
BRANCH  74  75
ATOM     75  C   UNL A   1      32.983  34.521  28.572  1.00  0.00     0.023 C 
BRANCH  75  76
ATOM     76  C   UNL A   1      33.418  35.889  29.090  1.00  0.00     0.116 C 
BRANCH  76  77
ATOM     77  N   UNL A   1      32.579  36.368  30.175  1.00  0.00    -0.351 N 
ATOM     78  C   UNL A   1      32.610  36.030  31.509  1.00  0.00     0.271 C 
ATOM     79  H   UNL A   1      31.892  37.026  29.921  1.00  0.00     0.163 HD
ATOM     80  O   UNL A   1      31.701  36.425  32.243  1.00  0.00    -0.267 OA
BRANCH  78  81
ATOM     81  C   UNL A   1      33.723  35.220  31.998  1.00  0.00     0.147 A 
ATOM     82  C   UNL A   1      34.906  35.684  32.549  1.00  0.00     0.127 A 
ATOM     83  N   UNL A   1      33.727  33.836  31.967  1.00  0.00    -0.223 NA
ATOM     84  N   UNL A   1      35.686  34.577  32.744  1.00  0.00    -0.306 N 
ATOM     85  C   UNL A   1      34.913  33.474  32.405  1.00  0.00     0.137 A 
ATOM     86  C   UNL A   1      37.009  34.494  33.166  1.00  0.00     0.093 A 
ATOM     87  C   UNL A   1      35.516  32.194  32.547  1.00  0.00     0.048 A 
ATOM     88  C   UNL A   1      37.586  33.284  33.270  1.00  0.00     0.018 A 
ATOM     89  C   UNL A   1      36.796  32.100  32.956  1.00  0.00     0.005 A 
ENDBRANCH  78  81
ENDBRANCH  76  77
ENDBRANCH  75  76
ENDBRANCH  74  75
ENDBRANCH   1  74
TORSDOF 14
ENDMDL
MODEL 3
REMARK VINA RESULT:     -10.7      2.777      8.720
REMARK SMILES O=C(NCCCCNC(=O)c1cn2ccccc2n1)c1ccc(-c2c3nc(c(-c4c(F)cc(S(=O)(=O)[O-])cc4F)c4ccc([nH]4)c(-c4c(F)cc(S(=O)(=O)[O-])cc4F)c4nc(c(-c5c(F)cc(S(=O)(=O)[O-])cc5F)c5ccc2[nH]5)C=C4)C=C3)cc1
REMARK SMILES IDX 4 1 3 2 1 3 2 4 20 6 21 7 85 8 22 9 84 10 23 11 24 12 25 13
REMARK SMILES IDX 78 14 26 15 83 16 77 17 79 18 27 19 82 20 76 21 75 22 28 24
REMARK SMILES IDX 62 25 41 26 61 27 42 28 45 29 60 30 80 31 43 32 44 33 59 35
REMARK SMILES IDX 81 36 46 37 29 38 30 39 39 40 31 41 32 42 38 43 40 44 33 45
REMARK SMILES IDX 34 46 35 47 36 48 37 49 63 50 64 51 73 52 65 53 66 54 72 55
REMARK SMILES IDX 74 56 67 57 68 58 69 59 70 60 71 61 47 62 48 63 57 64 49 65
REMARK SMILES IDX 50 66 56 67 58 68 51 69 52 70 53 71 54 72 55 73 5 74 6 75
REMARK SMILES IDX 7 76 8 77 9 78 10 80 11 81 12 82 19 83 13 84 18 85 14 86
REMARK SMILES IDX 17 87 15 88 16 89
REMARK H PARENT 3 5 79 23 45 34 8 79
REMARK Flexibility Score: inf
ROOT
ATOM      1  C   UNL A   1      34.407  32.426  28.669  1.00  0.00     0.116 C 
ENDROOT
BRANCH   1   2
ATOM      2  N   UNL A   1      33.927  31.384  27.773  1.00  0.00    -0.352 N 
ATOM      3  O   UNL A   1      34.055  29.528  26.495  1.00  0.00    -0.269 OA
ATOM      4  C   UNL A   1      34.557  30.230  27.367  1.00  0.00     0.251 C 
ATOM      5  H   UNL A   1      33.024  31.525  27.404  1.00  0.00     0.163 HD
BRANCH   4   6
ATOM      6  C   UNL A   1      35.856  29.861  27.971  1.00  0.00     0.039 A 
ATOM      7  C   UNL A   1      35.908  29.329  29.261  1.00  0.00     0.014 A 
ATOM      8  C   UNL A   1      37.034  30.079  27.254  1.00  0.00     0.014 A 
ATOM      9  C   UNL A   1      37.134  29.174  29.893  1.00  0.00     0.010 A 
ATOM     10  C   UNL A   1      38.270  29.823  27.857  1.00  0.00     0.010 A 
ATOM     11  C   UNL A   1      38.331  29.401  29.194  1.00  0.00    -0.014 A 
BRANCH  11  12
ATOM     12  C   UNL A   1      39.627  29.115  29.864  1.00  0.00     0.031 A 
ATOM     13  C   UNL A   1      40.080  29.902  31.063  1.00  0.00     0.074 A 
ATOM     14  C   UNL A   1      40.386  28.109  29.386  1.00  0.00     0.049 A 
ATOM     15  N   UNL A   1      41.181  29.775  31.760  1.00  0.00    -0.248 NA
ATOM     16  C   UNL A   1      39.192  30.974  31.539  1.00  0.00     0.031 C 
ATOM     17  C   UNL A   1      40.050  27.283  28.223  1.00  0.00     0.029 A 
ATOM     18  N   UNL A   1      41.581  27.598  29.818  1.00  0.00    -0.354 N 
ATOM     19  C   UNL A   1      41.129  30.756  32.744  1.00  0.00     0.074 A 
ATOM     20  C   UNL A   1      39.899  31.491  32.536  1.00  0.00     0.031 C 
ATOM     21  C   UNL A   1      40.992  26.344  28.060  1.00  0.00     0.029 A 
ATOM     22  C   UNL A   1      42.036  26.546  29.058  1.00  0.00     0.049 A 
ATOM     23  H   UNL A   1      42.070  27.950  30.597  1.00  0.00     0.167 HD
ATOM     24  C   UNL A   1      42.023  31.012  33.731  1.00  0.00     0.037 A 
ATOM     25  C   UNL A   1      43.176  25.837  29.132  1.00  0.00     0.037 A 
ATOM     26  C   UNL A   1      43.242  30.266  33.930  1.00  0.00     0.049 A 
ATOM     27  C   UNL A   1      44.165  26.168  30.212  1.00  0.00     0.074 A 
ATOM     28  C   UNL A   1      44.196  30.425  34.920  1.00  0.00     0.029 A 
ATOM     29  N   UNL A   1      43.681  29.226  33.120  1.00  0.00    -0.354 N 
ATOM     30  N   UNL A   1      44.083  27.076  31.154  1.00  0.00    -0.248 NA
ATOM     31  C   UNL A   1      45.404  25.379  30.239  1.00  0.00     0.031 C 
ATOM     32  C   UNL A   1      45.237  29.524  34.676  1.00  0.00     0.029 A 
ATOM     33  C   UNL A   1      44.904  28.757  33.572  1.00  0.00     0.049 A 
ATOM     34  H   UNL A   1      43.194  28.874  32.340  1.00  0.00     0.167 HD
ATOM     35  C   UNL A   1      45.249  26.956  31.900  1.00  0.00     0.074 A 
ATOM     36  C   UNL A   1      46.010  25.872  31.310  1.00  0.00     0.031 C 
ATOM     37  C   UNL A   1      45.652  27.676  32.975  1.00  0.00     0.037 A 
BRANCH  24  38
ATOM     38  C   UNL A   1      41.734  32.159  34.665  1.00  0.00     0.058 A 
ATOM     39  C   UNL A   1      42.201  33.459  34.413  1.00  0.00     0.135 A 
ATOM     40  C   UNL A   1      40.933  31.965  35.804  1.00  0.00     0.135 A 
ATOM     41  F   UNL A   1      42.981  33.703  33.347  1.00  0.00    -0.206 F 
ATOM     42  C   UNL A   1      41.906  34.519  35.267  1.00  0.00     0.059 A 
ATOM     43  C   UNL A   1      40.600  33.015  36.656  1.00  0.00     0.059 A 
ATOM     44  F   UNL A   1      40.455  30.744  36.094  1.00  0.00    -0.206 F 
ATOM     45  C   UNL A   1      41.105  34.286  36.386  1.00  0.00     0.060 A 
BRANCH  45  46
ATOM     46  S   UNL A   1      40.729  35.673  37.482  1.00  0.00     0.124 S 
ATOM     47  O   UNL A   1      40.022  36.574  36.577  1.00  0.00    -0.237 OA
ATOM     48  O   UNL A   1      39.913  35.042  38.513  1.00  0.00    -0.237 OA
ATOM     49  O   UNL A   1      42.045  36.129  37.918  1.00  0.00    -0.744 OA
ENDBRANCH  45  46
ENDBRANCH  24  38
BRANCH  25  50
ATOM     50  C   UNL A   1      43.441  24.759  28.143  1.00  0.00     0.058 A 
ATOM     51  C   UNL A   1      42.991  23.449  28.361  1.00  0.00     0.135 A 
ATOM     52  C   UNL A   1      44.124  25.026  26.946  1.00  0.00     0.135 A 
ATOM     53  F   UNL A   1      42.335  23.143  29.491  1.00  0.00    -0.206 F 
ATOM     54  C   UNL A   1      43.224  22.437  27.435  1.00  0.00     0.059 A 
ATOM     55  C   UNL A   1      44.340  24.039  25.991  1.00  0.00     0.059 A 
ATOM     56  F   UNL A   1      44.557  26.268  26.680  1.00  0.00    -0.206 F 
ATOM     57  C   UNL A   1      43.896  22.744  26.250  1.00  0.00     0.060 A 
BRANCH  57  58
ATOM     58  S   UNL A   1      44.152  21.434  25.035  1.00  0.00     0.124 S 
ATOM     59  O   UNL A   1      43.024  20.552  25.315  1.00  0.00    -0.237 OA
ATOM     60  O   UNL A   1      44.092  22.169  23.776  1.00  0.00    -0.237 OA
ATOM     61  O   UNL A   1      45.468  20.907  25.381  1.00  0.00    -0.744 OA
ENDBRANCH  57  58
ENDBRANCH  25  50
BRANCH  37  62
ATOM     62  C   UNL A   1      46.963  27.294  33.607  1.00  0.00     0.058 A 
ATOM     63  C   UNL A   1      48.173  27.894  33.225  1.00  0.00     0.135 A 
ATOM     64  C   UNL A   1      47.002  26.340  34.638  1.00  0.00     0.135 A 
ATOM     65  F   UNL A   1      48.193  28.805  32.238  1.00  0.00    -0.206 F 
ATOM     66  C   UNL A   1      49.379  27.544  33.822  1.00  0.00     0.059 A 
ATOM     67  C   UNL A   1      48.192  25.998  35.272  1.00  0.00     0.059 A 
ATOM     68  F   UNL A   1      45.874  25.740  35.047  1.00  0.00    -0.206 F 
ATOM     69  C   UNL A   1      49.377  26.595  34.848  1.00  0.00     0.060 A 
BRANCH  69  70
ATOM     70  S   UNL A   1      50.945  26.174  35.637  1.00  0.00     0.124 S 
ATOM     71  O   UNL A   1      51.009  27.162  36.709  1.00  0.00    -0.237 OA
ATOM     72  O   UNL A   1      50.720  24.795  36.059  1.00  0.00    -0.237 OA
ATOM     73  O   UNL A   1      51.922  26.344  34.566  1.00  0.00    -0.744 OA
ENDBRANCH  69  70
ENDBRANCH  37  62
ENDBRANCH  11  12
ENDBRANCH   4   6
ENDBRANCH   1   2
BRANCH   1  74
ATOM     74  C   UNL A   1      34.334  33.818  28.060  1.00  0.00     0.023 C 
BRANCH  74  75
ATOM     75  C   UNL A   1      33.197  34.692  28.580  1.00  0.00     0.023 C 
BRANCH  75  76
ATOM     76  C   UNL A   1      33.637  35.954  29.315  1.00  0.00     0.116 C 
BRANCH  76  77
ATOM     77  N   UNL A   1      32.648  36.418  30.273  1.00  0.00    -0.351 N 
ATOM     78  C   UNL A   1      32.497  36.074  31.597  1.00  0.00     0.271 C 
ATOM     79  H   UNL A   1      31.994  37.067  29.927  1.00  0.00     0.163 HD
ATOM     80  O   UNL A   1      31.489  36.454  32.197  1.00  0.00    -0.267 OA
BRANCH  78  81
ATOM     81  C   UNL A   1      33.542  35.278  32.236  1.00  0.00     0.147 A 
ATOM     82  C   UNL A   1      34.549  35.742  33.065  1.00  0.00     0.127 A 
ATOM     83  N   UNL A   1      33.653  33.906  32.080  1.00  0.00    -0.223 NA
ATOM     84  N   UNL A   1      35.351  34.664  33.319  1.00  0.00    -0.306 N 
ATOM     85  C   UNL A   1      34.747  33.563  32.724  1.00  0.00     0.137 A 
ATOM     86  C   UNL A   1      36.561  34.607  34.002  1.00  0.00     0.093 A 
ATOM     87  C   UNL A   1      35.400  32.308  32.874  1.00  0.00     0.048 A 
ATOM     88  C   UNL A   1      37.192  33.424  34.115  1.00  0.00     0.018 A 
ATOM     89  C   UNL A   1      36.572  32.240  33.535  1.00  0.00     0.005 A 
ENDBRANCH  78  81
ENDBRANCH  76  77
ENDBRANCH  75  76
ENDBRANCH  74  75
ENDBRANCH   1  74
TORSDOF 14
ENDMDL
