MODEL 1
REMARK VINA RESULT:     -10.3      0.000      0.000
REMARK SMILES [NH3+]CCOCC(=O)Nc1ccc(C(=O)NCCCCNC(=O)c2ccc(-c3c4nc(c(-c5c(F)cc(S(=O)(=O)[O-])cc5F)c5ccc([nH]5)c(-c5c(F)cc(S(=O)(=O)[O-])cc5F)c5nc(c(-c6c(F)cc(S(=O)(=O)[O-])cc6F)c6ccc3[nH]6)C=C5)C=C4)cc2)c(Cl)c1
REMARK SMILES IDX 16 1 15 2 13 3 14 4 12 6 9 7 10 8 91 9 11 10 89 11 90 12
REMARK SMILES IDX 8 13 6 14 7 15 5 17 4 18 3 19 2 20 1 21 17 25 18 26 19 27
REMARK SMILES IDX 20 28 21 29 22 31 23 32 24 33 88 34 25 35 87 36 26 37 27 38
REMARK SMILES IDX 28 39 81 40 29 41 86 42 80 43 82 44 30 45 85 46 79 47 78 48
REMARK SMILES IDX 31 50 65 51 44 52 64 53 45 54 48 55 63 56 83 57 46 58 47 59
REMARK SMILES IDX 62 61 84 62 49 63 32 64 33 65 42 66 34 67 35 68 41 69 43 70
REMARK SMILES IDX 36 71 37 72 38 73 39 74 40 75 66 76 67 77 76 78 68 79 69 80
REMARK SMILES IDX 75 81 77 82 70 83 71 84 72 85 73 86 74 87 50 88 51 89 60 90
REMARK SMILES IDX 52 91 53 92 59 93 61 94 54 95 55 96 56 97 57 98 58 99
REMARK H PARENT 15 5 8 16 1 22 1 23 1 24 20 30 82 49 48 60
REMARK Flexibility Score: inf
ROOT
ATOM      1  C   UNL A   1      33.573  28.920  23.269  1.00  0.00     0.116 C 
ENDROOT
BRANCH   1   2
ATOM      2  N   UNL A   1      32.561  28.252  22.486  1.00  0.00    -0.352 N 
ATOM      3  C   UNL A   1      32.083  26.974  22.466  1.00  0.00     0.252 C 
ATOM      4  O   UNL A   1      31.329  26.705  21.524  1.00  0.00    -0.269 OA
ATOM      5  H   UNL A   1      32.125  28.842  21.829  1.00  0.00     0.163 HD
BRANCH   3   6
ATOM      6  C   UNL A   1      32.294  25.919  23.504  1.00  0.00     0.058 A 
ATOM      7  C   UNL A   1      33.244  24.161  25.513  1.00  0.00     0.042 A 
ATOM      8  C   UNL A   1      34.105  24.600  24.521  1.00  0.00     0.027 A 
ATOM      9  C   UNL A   1      31.903  24.502  25.457  1.00  0.00     0.047 A 
ATOM     10  C   UNL A   1      33.625  25.439  23.514  1.00  0.00     0.017 A 
ATOM     11  C   UNL A   1      31.446  25.444  24.517  1.00  0.00     0.055 A 
ATOM     12  Cl  UNL A   1      29.897  26.052  24.940  1.00  0.00    -0.083 Cl
BRANCH   7  13
ATOM     13  N   UNL A   1      33.687  23.464  26.638  1.00  0.00    -0.324 N 
ATOM     14  C   UNL A   1      33.960  22.121  26.699  1.00  0.00     0.250 C 
ATOM     15  O   UNL A   1      34.345  21.630  27.765  1.00  0.00    -0.272 OA
ATOM     16  H   UNL A   1      33.816  23.984  27.464  1.00  0.00     0.170 HD
BRANCH  14  17
ATOM     17  C   UNL A   1      33.852  21.257  25.424  1.00  0.00     0.260 C 
BRANCH  17  18
ATOM     18  O   UNL A   1      34.941  21.207  24.524  1.00  0.00    -0.366 OA
BRANCH  18  19
ATOM     19  C   UNL A   1      36.141  20.634  25.039  1.00  0.00     0.222 C 
BRANCH  19  20
ATOM     20  C   UNL A   1      37.245  21.653  25.350  1.00  0.00     0.287 C 
BRANCH  20  21
ATOM     21  N   UNL A   1      37.373  22.758  24.400  1.00  0.00    -0.356 N 
ATOM     22  H   UNL A   1      37.944  22.461  23.608  1.00  0.00     0.344 HD
ATOM     23  H   UNL A   1      37.818  23.552  24.860  1.00  0.00     0.344 HD
ATOM     24  H   UNL A   1      36.448  23.032  24.069  1.00  0.00     0.344 HD
ENDBRANCH  20  21
ENDBRANCH  19  20
ENDBRANCH  18  19
ENDBRANCH  17  18
ENDBRANCH  14  17
ENDBRANCH   7  13
ENDBRANCH   3   6
ENDBRANCH   1   2
BRANCH   1  25
ATOM     25  C   UNL A   1      33.108  28.990  24.728  1.00  0.00     0.023 C 
BRANCH  25  26
ATOM     26  C   UNL A   1      34.017  28.307  25.742  1.00  0.00     0.023 C 
BRANCH  26  27
ATOM     27  C   UNL A   1      33.556  28.451  27.184  1.00  0.00     0.116 C 
BRANCH  27  28
ATOM     28  N   UNL A   1      33.430  29.834  27.627  1.00  0.00    -0.352 N 
ATOM     29  C   UNL A   1      34.400  30.627  28.190  1.00  0.00     0.251 C 
ATOM     30  H   UNL A   1      32.544  30.249  27.509  1.00  0.00     0.163 HD
ATOM     31  O   UNL A   1      34.137  31.758  28.583  1.00  0.00    -0.269 OA
BRANCH  29  32
ATOM     32  C   UNL A   1      35.747  30.060  28.359  1.00  0.00     0.039 A 
ATOM     33  C   UNL A   1      36.639  30.117  27.287  1.00  0.00     0.014 A 
ATOM     34  C   UNL A   1      36.151  29.576  29.605  1.00  0.00     0.014 A 
ATOM     35  C   UNL A   1      37.968  29.749  27.489  1.00  0.00     0.010 A 
ATOM     36  C   UNL A   1      37.491  29.289  29.824  1.00  0.00     0.010 A 
ATOM     37  C   UNL A   1      38.409  29.369  28.767  1.00  0.00    -0.014 A 
BRANCH  37  38
ATOM     38  C   UNL A   1      39.831  29.037  29.018  1.00  0.00     0.031 A 
ATOM     39  C   UNL A   1      40.740  30.072  29.615  1.00  0.00     0.074 A 
ATOM     40  C   UNL A   1      40.308  27.832  28.652  1.00  0.00     0.049 A 
ATOM     41  N   UNL A   1      42.022  30.003  29.858  1.00  0.00    -0.248 NA
ATOM     42  C   UNL A   1      40.134  31.372  29.951  1.00  0.00     0.031 C 
ATOM     43  C   UNL A   1      39.530  26.770  28.009  1.00  0.00     0.029 A 
ATOM     44  N   UNL A   1      41.566  27.299  28.764  1.00  0.00    -0.354 N 
ATOM     45  C   UNL A   1      42.378  31.249  30.359  1.00  0.00     0.074 A 
ATOM     46  C   UNL A   1      41.191  32.074  30.329  1.00  0.00     0.031 C 
ATOM     47  C   UNL A   1      40.322  25.702  27.812  1.00  0.00     0.029 A 
ATOM     48  C   UNL A   1      41.666  26.014  28.286  1.00  0.00     0.049 A 
ATOM     49  H   UNL A   1      42.327  27.791  29.149  1.00  0.00     0.167 HD
ATOM     50  C   UNL A   1      43.579  31.658  30.832  1.00  0.00     0.037 A 
ATOM     51  C   UNL A   1      42.724  25.181  28.244  1.00  0.00     0.037 A 
ATOM     52  C   UNL A   1      44.745  30.819  30.891  1.00  0.00     0.049 A 
ATOM     53  C   UNL A   1      44.041  25.649  28.799  1.00  0.00     0.074 A 
ATOM     54  C   UNL A   1      45.996  31.116  31.398  1.00  0.00     0.029 A 
ATOM     55  N   UNL A   1      44.798  29.510  30.431  1.00  0.00    -0.354 N 
ATOM     56  N   UNL A   1      44.348  26.812  29.323  1.00  0.00    -0.248 NA
ATOM     57  C   UNL A   1      45.152  24.689  28.766  1.00  0.00     0.031 C 
ATOM     58  C   UNL A   1      46.815  29.994  31.222  1.00  0.00     0.029 A 
ATOM     59  C   UNL A   1      46.063  28.988  30.636  1.00  0.00     0.049 A 
ATOM     60  H   UNL A   1      44.046  29.025  30.019  1.00  0.00     0.167 HD
ATOM     61  C   UNL A   1      45.680  26.716  29.707  1.00  0.00     0.074 A 
ATOM     62  C   UNL A   1      46.117  25.377  29.363  1.00  0.00     0.031 C 
ATOM     63  C   UNL A   1      46.471  27.648  30.293  1.00  0.00     0.037 A 
BRANCH  50  64
ATOM     64  C   UNL A   1      43.675  33.072  31.331  1.00  0.00     0.058 A 
ATOM     65  C   UNL A   1      43.996  34.133  30.469  1.00  0.00     0.135 A 
ATOM     66  C   UNL A   1      43.443  33.373  32.682  1.00  0.00     0.135 A 
ATOM     67  F   UNL A   1      44.247  33.898  29.171  1.00  0.00    -0.206 F 
ATOM     68  C   UNL A   1      44.124  35.437  30.935  1.00  0.00     0.059 A 
ATOM     69  C   UNL A   1      43.539  34.674  33.167  1.00  0.00     0.059 A 
ATOM     70  F   UNL A   1      43.135  32.397  33.549  1.00  0.00    -0.206 F 
ATOM     71  C   UNL A   1      43.898  35.697  32.288  1.00  0.00     0.060 A 
BRANCH  71  72
ATOM     72  S   UNL A   1      44.081  37.391  32.883  1.00  0.00     0.124 S 
ATOM     73  O   UNL A   1      45.429  37.357  33.443  1.00  0.00    -0.237 OA
ATOM     74  O   UNL A   1      43.924  38.173  31.661  1.00  0.00    -0.237 OA
ATOM     75  O   UNL A   1      43.001  37.527  33.855  1.00  0.00    -0.744 OA
ENDBRANCH  71  72
ENDBRANCH  50  64
BRANCH  51  76
ATOM     76  C   UNL A   1      42.566  23.808  27.699  1.00  0.00     0.058 A 
ATOM     77  C   UNL A   1      42.441  22.706  28.558  1.00  0.00     0.135 A 
ATOM     78  C   UNL A   1      42.520  23.569  26.317  1.00  0.00     0.135 A 
ATOM     79  F   UNL A   1      42.483  22.886  29.887  1.00  0.00    -0.206 F 
ATOM     80  C   UNL A   1      42.291  21.413  28.070  1.00  0.00     0.059 A 
ATOM     81  C   UNL A   1      42.349  22.286  25.804  1.00  0.00     0.059 A 
ATOM     82  F   UNL A   1      42.616  24.592  25.454  1.00  0.00    -0.206 F 
ATOM     83  C   UNL A   1      42.246  21.214  26.689  1.00  0.00     0.060 A 
BRANCH  83  84
ATOM     84  S   UNL A   1      42.000  19.537  26.063  1.00  0.00     0.124 S 
ATOM     85  O   UNL A   1      42.899  19.518  24.915  1.00  0.00    -0.237 OA
ATOM     86  O   UNL A   1      42.402  18.720  27.203  1.00  0.00    -0.237 OA
ATOM     87  O   UNL A   1      40.573  19.503  25.751  1.00  0.00    -0.744 OA
ENDBRANCH  83  84
ENDBRANCH  51  76
BRANCH  63  88
ATOM     88  C   UNL A   1      47.878  27.243  30.628  1.00  0.00     0.058 A 
ATOM     89  C   UNL A   1      48.184  26.573  31.822  1.00  0.00     0.135 A 
ATOM     90  C   UNL A   1      48.920  27.485  29.720  1.00  0.00     0.135 A 
ATOM     91  F   UNL A   1      47.222  26.323  32.724  1.00  0.00    -0.206 F 
ATOM     92  C   UNL A   1      49.485  26.176  32.114  1.00  0.00     0.059 A 
ATOM     93  C   UNL A   1      50.223  27.076  29.982  1.00  0.00     0.059 A 
ATOM     94  F   UNL A   1      48.674  28.114  28.559  1.00  0.00    -0.206 F 
ATOM     95  C   UNL A   1      50.497  26.433  31.189  1.00  0.00     0.060 A 
BRANCH  95  96
ATOM     96  S   UNL A   1      52.176  25.884  31.564  1.00  0.00     0.124 S 
ATOM     97  O   UNL A   1      51.939  24.530  32.053  1.00  0.00    -0.237 OA
ATOM     98  O   UNL A   1      52.836  25.982  30.265  1.00  0.00    -0.237 OA
ATOM     99  O   UNL A   1      52.631  26.845  32.564  1.00  0.00    -0.744 OA
ENDBRANCH  95  96
ENDBRANCH  63  88
ENDBRANCH  37  38
ENDBRANCH  29  32
ENDBRANCH  27  28
ENDBRANCH  26  27
ENDBRANCH  25  26
ENDBRANCH   1  25
TORSDOF 20
ENDMDL
MODEL 2
REMARK VINA RESULT:      -9.6      2.858      3.494
REMARK SMILES [NH3+]CCOCC(=O)Nc1ccc(C(=O)NCCCCNC(=O)c2ccc(-c3c4nc(c(-c5c(F)cc(S(=O)(=O)[O-])cc5F)c5ccc([nH]5)c(-c5c(F)cc(S(=O)(=O)[O-])cc5F)c5nc(c(-c6c(F)cc(S(=O)(=O)[O-])cc6F)c6ccc3[nH]6)C=C5)C=C4)cc2)c(Cl)c1
REMARK SMILES IDX 16 1 15 2 13 3 14 4 12 6 9 7 10 8 91 9 11 10 89 11 90 12
REMARK SMILES IDX 8 13 6 14 7 15 5 17 4 18 3 19 2 20 1 21 17 25 18 26 19 27
REMARK SMILES IDX 20 28 21 29 22 31 23 32 24 33 88 34 25 35 87 36 26 37 27 38
REMARK SMILES IDX 28 39 81 40 29 41 86 42 80 43 82 44 30 45 85 46 79 47 78 48
REMARK SMILES IDX 31 50 65 51 44 52 64 53 45 54 48 55 63 56 83 57 46 58 47 59
REMARK SMILES IDX 62 61 84 62 49 63 32 64 33 65 42 66 34 67 35 68 41 69 43 70
REMARK SMILES IDX 36 71 37 72 38 73 39 74 40 75 66 76 67 77 76 78 68 79 69 80
REMARK SMILES IDX 75 81 77 82 70 83 71 84 72 85 73 86 74 87 50 88 51 89 60 90
REMARK SMILES IDX 52 91 53 92 59 93 61 94 54 95 55 96 56 97 57 98 58 99
REMARK H PARENT 15 5 8 16 1 22 1 23 1 24 20 30 82 49 48 60
REMARK Flexibility Score: inf
ROOT
ATOM      1  C   UNL A   1      33.015  27.314  22.628  1.00  0.00     0.116 C 
ENDROOT
BRANCH   1   2
ATOM      2  N   UNL A   1      31.636  27.676  22.850  1.00  0.00    -0.352 N 
ATOM      3  C   UNL A   1      30.565  27.009  23.372  1.00  0.00     0.252 C 
ATOM      4  O   UNL A   1      29.473  27.574  23.240  1.00  0.00    -0.269 OA
ATOM      5  H   UNL A   1      31.423  28.594  22.566  1.00  0.00     0.163 HD
BRANCH   3   6
ATOM      6  C   UNL A   1      30.593  25.740  24.163  1.00  0.00     0.058 A 
ATOM      7  C   UNL A   1      30.926  23.114  25.172  1.00  0.00     0.042 A 
ATOM      8  C   UNL A   1      30.664  23.304  23.826  1.00  0.00     0.027 A 
ATOM      9  C   UNL A   1      30.922  24.200  26.031  1.00  0.00     0.047 A 
ATOM     10  C   UNL A   1      30.467  24.597  23.338  1.00  0.00     0.017 A 
ATOM     11  C   UNL A   1      30.847  25.510  25.523  1.00  0.00     0.055 A 
ATOM     12  Cl  UNL A   1      31.334  26.667  26.695  1.00  0.00    -0.083 Cl
BRANCH   7  13
ATOM     13  N   UNL A   1      31.300  21.876  25.698  1.00  0.00    -0.324 N 
ATOM     14  C   UNL A   1      32.198  21.001  25.139  1.00  0.00     0.250 C 
ATOM     15  O   UNL A   1      32.436  19.933  25.712  1.00  0.00    -0.272 OA
ATOM     16  H   UNL A   1      30.882  21.606  26.547  1.00  0.00     0.170 HD
BRANCH  14  17
ATOM     17  C   UNL A   1      32.947  21.390  23.847  1.00  0.00     0.260 C 
BRANCH  17  18
ATOM     18  O   UNL A   1      34.230  21.978  23.939  1.00  0.00    -0.366 OA
BRANCH  18  19
ATOM     19  C   UNL A   1      34.522  22.634  25.170  1.00  0.00     0.222 C 
BRANCH  19  20
ATOM     20  C   UNL A   1      35.400  21.818  26.129  1.00  0.00     0.287 C 
BRANCH  20  21
ATOM     21  N   UNL A   1      34.778  21.455  27.402  1.00  0.00    -0.356 N 
ATOM     22  H   UNL A   1      35.485  21.455  28.138  1.00  0.00     0.344 HD
ATOM     23  H   UNL A   1      34.368  20.524  27.326  1.00  0.00     0.344 HD
ATOM     24  H   UNL A   1      34.049  22.130  27.630  1.00  0.00     0.344 HD
ENDBRANCH  20  21
ENDBRANCH  19  20
ENDBRANCH  18  19
ENDBRANCH  17  18
ENDBRANCH  14  17
ENDBRANCH   7  13
ENDBRANCH   3   6
ENDBRANCH   1   2
BRANCH   1  25
ATOM     25  C   UNL A   1      33.770  27.385  23.960  1.00  0.00     0.023 C 
BRANCH  25  26
ATOM     26  C   UNL A   1      34.029  28.787  24.497  1.00  0.00     0.023 C 
BRANCH  26  27
ATOM     27  C   UNL A   1      34.031  28.880  26.013  1.00  0.00     0.116 C 
BRANCH  27  28
ATOM     28  N   UNL A   1      33.744  30.217  26.522  1.00  0.00    -0.352 N 
ATOM     29  C   UNL A   1      34.454  30.931  27.455  1.00  0.00     0.251 C 
ATOM     30  H   UNL A   1      32.946  30.660  26.151  1.00  0.00     0.163 HD
ATOM     31  O   UNL A   1      34.059  32.023  27.845  1.00  0.00    -0.269 OA
BRANCH  29  32
ATOM     32  C   UNL A   1      35.671  30.320  28.015  1.00  0.00     0.039 A 
ATOM     33  C   UNL A   1      36.883  30.507  27.350  1.00  0.00     0.014 A 
ATOM     34  C   UNL A   1      35.620  29.663  29.247  1.00  0.00     0.014 A 
ATOM     35  C   UNL A   1      38.064  30.090  27.961  1.00  0.00     0.010 A 
ATOM     36  C   UNL A   1      36.803  29.324  29.888  1.00  0.00     0.010 A 
ATOM     37  C   UNL A   1      38.034  29.531  29.249  1.00  0.00    -0.014 A 
BRANCH  37  38
ATOM     38  C   UNL A   1      39.283  29.140  29.943  1.00  0.00     0.031 A 
ATOM     39  C   UNL A   1      39.691  29.862  31.196  1.00  0.00     0.074 A 
ATOM     40  C   UNL A   1      40.071  28.186  29.412  1.00  0.00     0.049 A 
ATOM     41  N   UNL A   1      40.771  29.716  31.917  1.00  0.00    -0.248 NA
ATOM     42  C   UNL A   1      38.782  30.914  31.681  1.00  0.00     0.031 C 
ATOM     43  C   UNL A   1      39.804  27.460  28.168  1.00  0.00     0.029 A 
ATOM     44  N   UNL A   1      41.261  27.666  29.849  1.00  0.00    -0.354 N 
ATOM     45  C   UNL A   1      40.678  30.662  32.930  1.00  0.00     0.074 A 
ATOM     46  C   UNL A   1      39.468  31.419  32.694  1.00  0.00     0.031 C 
ATOM     47  C   UNL A   1      40.786  26.568  27.959  1.00  0.00     0.029 A 
ATOM     48  C   UNL A   1      41.764  26.679  29.036  1.00  0.00     0.049 A 
ATOM     49  H   UNL A   1      41.714  27.972  30.668  1.00  0.00     0.167 HD
ATOM     50  C   UNL A   1      41.510  30.862  33.979  1.00  0.00     0.037 A 
ATOM     51  C   UNL A   1      42.886  25.943  29.153  1.00  0.00     0.037 A 
ATOM     52  C   UNL A   1      42.692  30.081  34.224  1.00  0.00     0.049 A 
ATOM     53  C   UNL A   1      43.781  26.165  30.341  1.00  0.00     0.074 A 
ATOM     54  C   UNL A   1      43.576  30.164  35.284  1.00  0.00     0.029 A 
ATOM     55  N   UNL A   1      43.150  29.065  33.397  1.00  0.00    -0.354 N 
ATOM     56  N   UNL A   1      43.650  27.026  31.323  1.00  0.00    -0.248 NA
ATOM     57  C   UNL A   1      44.971  25.309  30.444  1.00  0.00     0.031 C 
ATOM     58  C   UNL A   1      44.585  29.215  35.085  1.00  0.00     0.029 A 
ATOM     59  C   UNL A   1      44.309  28.517  33.920  1.00  0.00     0.049 A 
ATOM     60  H   UNL A   1      42.715  28.776  32.562  1.00  0.00     0.167 HD
ATOM     61  C   UNL A   1      44.725  26.799  32.174  1.00  0.00     0.074 A 
ATOM     62  C   UNL A   1      45.491  25.713  31.595  1.00  0.00     0.031 C 
ATOM     63  C   UNL A   1      45.049  27.429  33.329  1.00  0.00     0.037 A 
BRANCH  50  64
ATOM     64  C   UNL A   1      41.153  31.961  34.939  1.00  0.00     0.058 A 
ATOM     65  C   UNL A   1      40.265  31.743  36.005  1.00  0.00     0.135 A 
ATOM     66  C   UNL A   1      41.701  33.245  34.795  1.00  0.00     0.135 A 
ATOM     67  F   UNL A   1      39.696  30.540  36.176  1.00  0.00    -0.206 F 
ATOM     68  C   UNL A   1      39.902  32.769  36.872  1.00  0.00     0.059 A 
ATOM     69  C   UNL A   1      41.374  34.280  35.666  1.00  0.00     0.059 A 
ATOM     70  F   UNL A   1      42.553  33.508  33.792  1.00  0.00    -0.206 F 
ATOM     71  C   UNL A   1      40.458  34.036  36.691  1.00  0.00     0.060 A 
BRANCH  71  72
ATOM     72  S   UNL A   1      39.969  35.362  37.813  1.00  0.00     0.124 S 
ATOM     73  O   UNL A   1      41.180  35.531  38.609  1.00  0.00    -0.237 OA
ATOM     74  O   UNL A   1      39.658  36.453  36.894  1.00  0.00    -0.237 OA
ATOM     75  O   UNL A   1      38.824  34.800  38.523  1.00  0.00    -0.744 OA
ENDBRANCH  71  72
ENDBRANCH  50  64
BRANCH  51  76
ATOM     76  C   UNL A   1      43.198  24.898  28.143  1.00  0.00     0.058 A 
ATOM     77  C   UNL A   1      42.835  23.561  28.360  1.00  0.00     0.135 A 
ATOM     78  C   UNL A   1      43.847  25.214  26.939  1.00  0.00     0.135 A 
ATOM     79  F   UNL A   1      42.216  23.212  29.498  1.00  0.00    -0.206 F 
ATOM     80  C   UNL A   1      43.115  22.568  27.428  1.00  0.00     0.059 A 
ATOM     81  C   UNL A   1      44.119  24.242  25.981  1.00  0.00     0.059 A 
ATOM     82  F   UNL A   1      44.198  26.483  26.677  1.00  0.00    -0.206 F 
ATOM     83  C   UNL A   1      43.758  22.920  26.240  1.00  0.00     0.060 A 
BRANCH  83  84
ATOM     84  S   UNL A   1      44.074  21.633  25.012  1.00  0.00     0.124 S 
ATOM     85  O   UNL A   1      43.031  20.663  25.329  1.00  0.00    -0.237 OA
ATOM     86  O   UNL A   1      43.910  22.358  23.756  1.00  0.00    -0.237 OA
ATOM     87  O   UNL A   1      45.440  21.214  25.310  1.00  0.00    -0.744 OA
ENDBRANCH  83  84
ENDBRANCH  51  76
BRANCH  63  88
ATOM     88  C   UNL A   1      46.265  26.938  34.061  1.00  0.00     0.058 A 
ATOM     89  C   UNL A   1      46.186  25.906  35.007  1.00  0.00     0.135 A 
ATOM     90  C   UNL A   1      47.530  27.476  33.774  1.00  0.00     0.135 A 
ATOM     91  F   UNL A   1      44.998  25.363  35.319  1.00  0.00    -0.206 F 
ATOM     92  C   UNL A   1      47.320  25.437  35.662  1.00  0.00     0.059 A 
ATOM     93  C   UNL A   1      48.679  27.006  34.400  1.00  0.00     0.059 A 
ATOM     94  F   UNL A   1      47.657  28.459  32.868  1.00  0.00    -0.206 F 
ATOM     95  C   UNL A   1      48.562  25.994  35.353  1.00  0.00     0.060 A 
BRANCH  95  96
ATOM     96  S   UNL A   1      50.032  25.356  36.184  1.00  0.00     0.124 S 
ATOM     97  O   UNL A   1      49.662  25.507  37.588  1.00  0.00    -0.237 OA
ATOM     98  O   UNL A   1      50.101  23.984  35.692  1.00  0.00    -0.237 OA
ATOM     99  O   UNL A   1      51.096  26.238  35.715  1.00  0.00    -0.744 OA
ENDBRANCH  95  96
ENDBRANCH  63  88
ENDBRANCH  37  38
ENDBRANCH  29  32
ENDBRANCH  27  28
ENDBRANCH  26  27
ENDBRANCH  25  26
ENDBRANCH   1  25
TORSDOF 20
ENDMDL
MODEL 3
REMARK VINA RESULT:      -9.3      4.829     10.234
REMARK SMILES [NH3+]CCOCC(=O)Nc1ccc(C(=O)NCCCCNC(=O)c2ccc(-c3c4nc(c(-c5c(F)cc(S(=O)(=O)[O-])cc5F)c5ccc([nH]5)c(-c5c(F)cc(S(=O)(=O)[O-])cc5F)c5nc(c(-c6c(F)cc(S(=O)(=O)[O-])cc6F)c6ccc3[nH]6)C=C5)C=C4)cc2)c(Cl)c1
REMARK SMILES IDX 16 1 15 2 13 3 14 4 12 6 9 7 10 8 91 9 11 10 89 11 90 12
REMARK SMILES IDX 8 13 6 14 7 15 5 17 4 18 3 19 2 20 1 21 17 25 18 26 19 27
REMARK SMILES IDX 20 28 21 29 22 31 23 32 24 33 88 34 25 35 87 36 26 37 27 38
REMARK SMILES IDX 28 39 81 40 29 41 86 42 80 43 82 44 30 45 85 46 79 47 78 48
REMARK SMILES IDX 31 50 65 51 44 52 64 53 45 54 48 55 63 56 83 57 46 58 47 59
REMARK SMILES IDX 62 61 84 62 49 63 32 64 33 65 42 66 34 67 35 68 41 69 43 70
REMARK SMILES IDX 36 71 37 72 38 73 39 74 40 75 66 76 67 77 76 78 68 79 69 80
REMARK SMILES IDX 75 81 77 82 70 83 71 84 72 85 73 86 74 87 50 88 51 89 60 90
REMARK SMILES IDX 52 91 53 92 59 93 61 94 54 95 55 96 56 97 57 98 58 99
REMARK H PARENT 15 5 8 16 1 22 1 23 1 24 20 30 82 49 48 60
REMARK Flexibility Score: inf
ROOT
ATOM      1  C   UNL A   1      40.513  25.692  27.536  1.00  0.00     0.116 C 
ENDROOT
BRANCH   1   2
ATOM      2  N   UNL A   1      39.214  25.133  27.247  1.00  0.00    -0.352 N 
ATOM      3  C   UNL A   1      38.799  23.918  26.783  1.00  0.00     0.252 C 
ATOM      4  O   UNL A   1      37.604  23.849  26.476  1.00  0.00    -0.269 OA
ATOM      5  H   UNL A   1      38.474  25.759  27.419  1.00  0.00     0.163 HD
BRANCH   3   6
ATOM      6  C   UNL A   1      39.605  22.661  26.709  1.00  0.00     0.058 A 
ATOM      7  C   UNL A   1      41.206  20.367  27.160  1.00  0.00     0.042 A 
ATOM      8  C   UNL A   1      41.461  21.532  27.864  1.00  0.00     0.027 A 
ATOM      9  C   UNL A   1      40.238  20.363  26.169  1.00  0.00     0.047 A 
ATOM     10  C   UNL A   1      40.692  22.670  27.614  1.00  0.00     0.017 A 
ATOM     11  C   UNL A   1      39.383  21.468  26.004  1.00  0.00     0.055 A 
ATOM     12  Cl  UNL A   1      37.998  21.056  25.076  1.00  0.00    -0.083 Cl
BRANCH   7  13
ATOM     13  N   UNL A   1      41.815  19.151  27.473  1.00  0.00    -0.324 N 
ATOM     14  C   UNL A   1      42.741  18.492  26.705  1.00  0.00     0.250 C 
ATOM     15  O   UNL A   1      43.200  17.417  27.102  1.00  0.00    -0.272 OA
ATOM     16  H   UNL A   1      41.558  18.728  28.324  1.00  0.00     0.170 HD
BRANCH  14  17
ATOM     17  C   UNL A   1      43.247  19.132  25.394  1.00  0.00     0.260 C 
BRANCH  17  18
ATOM     18  O   UNL A   1      44.219  18.457  24.621  1.00  0.00    -0.366 OA
BRANCH  18  19
ATOM     19  C   UNL A   1      45.287  19.265  24.131  1.00  0.00     0.222 C 
BRANCH  19  20
ATOM     20  C   UNL A   1      46.378  19.566  25.168  1.00  0.00     0.287 C 
BRANCH  20  21
ATOM     21  N   UNL A   1      46.694  18.474  26.090  1.00  0.00    -0.356 N 
ATOM     22  H   UNL A   1      47.111  18.856  26.939  1.00  0.00     0.344 HD
ATOM     23  H   UNL A   1      47.352  17.834  25.645  1.00  0.00     0.344 HD
ATOM     24  H   UNL A   1      45.839  17.971  26.327  1.00  0.00     0.344 HD
ENDBRANCH  20  21
ENDBRANCH  19  20
ENDBRANCH  18  19
ENDBRANCH  17  18
ENDBRANCH  14  17
ENDBRANCH   7  13
ENDBRANCH   3   6
ENDBRANCH   1   2
BRANCH   1  25
ATOM     25  C   UNL A   1      40.823  26.790  26.513  1.00  0.00     0.023 C 
BRANCH  25  26
ATOM     26  C   UNL A   1      41.728  26.379  25.359  1.00  0.00     0.023 C 
BRANCH  26  27
ATOM     27  C   UNL A   1      42.420  25.041  25.560  1.00  0.00     0.116 C 
BRANCH  27  28
ATOM     28  N   UNL A   1      43.770  24.987  25.010  1.00  0.00    -0.352 N 
ATOM     29  C   UNL A   1      44.885  25.654  25.454  1.00  0.00     0.251 C 
ATOM     30  H   UNL A   1      43.896  24.402  24.227  1.00  0.00     0.163 HD
ATOM     31  O   UNL A   1      45.949  25.570  24.851  1.00  0.00    -0.269 OA
BRANCH  29  32
ATOM     32  C   UNL A   1      44.751  26.516  26.639  1.00  0.00     0.039 A 
ATOM     33  C   UNL A   1      44.908  27.894  26.488  1.00  0.00     0.014 A 
ATOM     34  C   UNL A   1      44.365  25.966  27.864  1.00  0.00     0.014 A 
ATOM     35  C   UNL A   1      44.607  28.733  27.559  1.00  0.00     0.010 A 
ATOM     36  C   UNL A   1      43.988  26.807  28.901  1.00  0.00     0.010 A 
ATOM     37  C   UNL A   1      44.109  28.197  28.759  1.00  0.00    -0.014 A 
BRANCH  37  38
ATOM     38  C   UNL A   1      43.722  29.075  29.887  1.00  0.00     0.031 A 
ATOM     39  C   UNL A   1      44.662  29.253  31.045  1.00  0.00     0.074 A 
ATOM     40  C   UNL A   1      42.507  29.655  29.894  1.00  0.00     0.049 A 
ATOM     41  N   UNL A   1      44.490  29.926  32.151  1.00  0.00    -0.248 NA
ATOM     42  C   UNL A   1      45.954  28.551  30.962  1.00  0.00     0.031 C 
ATOM     43  C   UNL A   1      41.488  29.505  28.851  1.00  0.00     0.029 A 
ATOM     44  N   UNL A   1      41.919  30.486  30.812  1.00  0.00    -0.354 N 
ATOM     45  C   UNL A   1      45.640  29.717  32.901  1.00  0.00     0.074 A 
ATOM     46  C   UNL A   1      46.477  28.807  32.152  1.00  0.00     0.031 C 
ATOM     47  C   UNL A   1      40.414  30.244  29.175  1.00  0.00     0.029 A 
ATOM     48  C   UNL A   1      40.655  30.895  30.458  1.00  0.00     0.049 A 
ATOM     49  H   UNL A   1      42.360  30.762  31.648  1.00  0.00     0.167 HD
ATOM     50  C   UNL A   1      45.983  30.261  34.093  1.00  0.00     0.037 A 
ATOM     51  C   UNL A   1      39.794  31.710  31.097  1.00  0.00     0.037 A 
ATOM     52  C   UNL A   1      45.160  31.193  34.814  1.00  0.00     0.049 A 
ATOM     53  C   UNL A   1      40.207  32.323  32.407  1.00  0.00     0.074 A 
ATOM     54  C   UNL A   1      45.432  31.844  36.003  1.00  0.00     0.029 A 
ATOM     55  N   UNL A   1      43.901  31.612  34.406  1.00  0.00    -0.354 N 
ATOM     56  N   UNL A   1      41.324  32.161  33.076  1.00  0.00    -0.248 NA
ATOM     57  C   UNL A   1      39.248  33.236  33.043  1.00  0.00     0.031 C 
ATOM     58  C   UNL A   1      44.327  32.639  36.328  1.00  0.00     0.029 A 
ATOM     59  C   UNL A   1      43.381  32.509  35.323  1.00  0.00     0.049 A 
ATOM     60  H   UNL A   1      43.445  31.316  33.585  1.00  0.00     0.167 HD
ATOM     61  C   UNL A   1      41.214  32.972  34.200  1.00  0.00     0.074 A 
ATOM     62  C   UNL A   1      39.925  33.630  34.113  1.00  0.00     0.031 C 
ATOM     63  C   UNL A   1      42.098  33.158  35.210  1.00  0.00     0.037 A 
BRANCH  50  64
ATOM     64  C   UNL A   1      47.311  29.863  34.673  1.00  0.00     0.058 A 
ATOM     65  C   UNL A   1      48.486  30.566  34.362  1.00  0.00     0.135 A 
ATOM     66  C   UNL A   1      47.412  28.771  35.549  1.00  0.00     0.135 A 
ATOM     67  F   UNL A   1      48.448  31.606  33.514  1.00  0.00    -0.206 F 
ATOM     68  C   UNL A   1      49.722  30.177  34.867  1.00  0.00     0.059 A 
ATOM     69  C   UNL A   1      48.635  28.379  36.087  1.00  0.00     0.059 A 
ATOM     70  F   UNL A   1      46.321  28.064  35.877  1.00  0.00    -0.206 F 
ATOM     71  C   UNL A   1      49.787  29.078  35.725  1.00  0.00     0.060 A 
BRANCH  71  72
ATOM     72  S   UNL A   1      51.399  28.574  36.361  1.00  0.00     0.124 S 
ATOM     73  O   UNL A   1      52.295  29.440  35.601  1.00  0.00    -0.237 OA
ATOM     74  O   UNL A   1      51.283  28.875  37.784  1.00  0.00    -0.237 OA
ATOM     75  O   UNL A   1      51.466  27.154  36.028  1.00  0.00    -0.744 OA
ENDBRANCH  71  72
ENDBRANCH  50  64
BRANCH  51  76
ATOM     76  C   UNL A   1      38.479  32.028  30.482  1.00  0.00     0.058 A 
ATOM     77  C   UNL A   1      38.323  33.161  29.670  1.00  0.00     0.135 A 
ATOM     78  C   UNL A   1      37.360  31.204  30.678  1.00  0.00     0.135 A 
ATOM     79  F   UNL A   1      39.364  33.980  29.457  1.00  0.00    -0.206 F 
ATOM     80  C   UNL A   1      37.103  33.477  29.084  1.00  0.00     0.059 A 
ATOM     81  C   UNL A   1      36.133  31.487  30.086  1.00  0.00     0.059 A 
ATOM     82  F   UNL A   1      37.463  30.098  31.432  1.00  0.00    -0.206 F 
ATOM     83  C   UNL A   1      36.012  32.632  29.298  1.00  0.00     0.060 A 
BRANCH  83  84
ATOM     84  S   UNL A   1      34.443  33.021  28.492  1.00  0.00     0.124 S 
ATOM     85  O   UNL A   1      33.698  33.637  29.584  1.00  0.00    -0.237 OA
ATOM     86  O   UNL A   1      34.861  33.917  27.418  1.00  0.00    -0.237 OA
ATOM     87  O   UNL A   1      33.959  31.715  28.054  1.00  0.00    -0.744 OA
ENDBRANCH  83  84
ENDBRANCH  51  76
BRANCH  63  88
ATOM     88  C   UNL A   1      41.716  34.135  36.285  1.00  0.00     0.058 A 
ATOM     89  C   UNL A   1      42.039  35.496  36.189  1.00  0.00     0.135 A 
ATOM     90  C   UNL A   1      40.977  33.708  37.400  1.00  0.00     0.135 A 
ATOM     91  F   UNL A   1      42.749  35.951  35.144  1.00  0.00    -0.206 F 
ATOM     92  C   UNL A   1      41.659  36.401  37.175  1.00  0.00     0.059 A 
ATOM     93  C   UNL A   1      40.567  34.600  38.385  1.00  0.00     0.059 A 
ATOM     94  F   UNL A   1      40.635  32.416  37.531  1.00  0.00    -0.206 F 
ATOM     95  C   UNL A   1      40.924  35.943  38.269  1.00  0.00     0.060 A 
BRANCH  95  96
ATOM     96  S   UNL A   1      40.408  37.130  39.527  1.00  0.00     0.124 S 
ATOM     97  O   UNL A   1      39.146  37.611  38.975  1.00  0.00    -0.237 OA
ATOM     98  O   UNL A   1      40.300  36.297  40.721  1.00  0.00    -0.237 OA
ATOM     99  O   UNL A   1      41.498  38.100  39.546  1.00  0.00    -0.744 OA
ENDBRANCH  95  96
ENDBRANCH  63  88
ENDBRANCH  37  38
ENDBRANCH  29  32
ENDBRANCH  27  28
ENDBRANCH  26  27
ENDBRANCH  25  26
ENDBRANCH   1  25
TORSDOF 20
ENDMDL
