MODEL 1
REMARK VINA RESULT:     -11.8      0.000      0.000
REMARK SMILES C[C@@H](C(=O)NCCCCNC(=O)c1ccc(-c2c3nc(c(-c4c(F)cc(S(=O)(=O)[O-])cc4F)c4ccc([nH]4)c(-c4c(F)cc(S(=O)(=O)[O-])cc4F)c4nc(c(-c5c(F)cc(S(=O)(=O)[O-])cc5F)c5ccc2[nH]5)C=C4)C=C3)cc1)S(=O)(=O)N[C@@]12C[C@@H]3C[C@@](C)(C[C@@](C)(C3)C1)C2
REMARK SMILES IDX 7 1 6 2 5 3 3 4 4 5 2 7 1 8 79 9 80 10 81 11 82 12 83 14
REMARK SMILES IDX 84 15 93 16 94 17 85 18 90 19 87 20 92 21 86 22 89 23 91 24
REMARK SMILES IDX 88 25 8 26 9 27 10 28 11 29 12 31 13 32 14 33 78 34 15 35
REMARK SMILES IDX 77 36 16 37 17 38 18 39 71 40 19 41 76 42 70 43 72 44 20 45
REMARK SMILES IDX 75 46 69 47 68 48 21 50 55 51 34 52 54 53 35 54 38 55 53 56
REMARK SMILES IDX 73 57 36 58 37 59 52 61 74 62 39 63 22 64 23 65 32 66 24 67
REMARK SMILES IDX 25 68 31 69 33 70 26 71 27 72 28 73 29 74 30 75 56 76 57 77
REMARK SMILES IDX 66 78 58 79 59 80 65 81 67 82 60 83 61 84 62 85 63 86 64 87
REMARK SMILES IDX 40 88 41 89 50 90 42 91 43 92 49 93 51 94 44 95 45 96 46 97
REMARK SMILES IDX 47 98 48 99
REMARK H PARENT 5 6 82 13 10 30 72 49 38 60
REMARK Flexibility Score: inf
ROOT
ATOM      1  C   UNL A   1      31.964  27.660  26.738  1.00  0.00     0.023 C 
ENDROOT
BRANCH   1   2
ATOM      2  C   UNL A   1      31.415  26.572  25.809  1.00  0.00     0.116 C 
BRANCH   2   3
ATOM      3  N   UNL A   1      30.939  27.162  24.570  1.00  0.00    -0.355 N 
ATOM      4  C   UNL A   1      31.570  27.541  23.419  1.00  0.00     0.239 C 
ATOM      5  O   UNL A   1      30.870  28.192  22.638  1.00  0.00    -0.274 OA
ATOM      6  H   UNL A   1      29.968  27.320  24.557  1.00  0.00     0.163 HD
BRANCH   4   7
ATOM      7  C   UNL A   1      32.986  27.098  23.081  1.00  0.00     0.209 C 
ATOM      8  C   UNL A   1      33.989  28.140  22.589  1.00  0.00     0.037 C 
BRANCH   7   9
ATOM      9  S   UNL A   1      32.935  25.615  22.010  1.00  0.00     0.223 S 
ATOM     10  O   UNL A   1      31.705  24.891  22.278  1.00  0.00    -0.212 OA
ATOM     11  O   UNL A   1      33.182  26.062  20.657  1.00  0.00    -0.212 OA
BRANCH   9  12
ATOM     12  N   UNL A   1      34.222  24.615  22.383  1.00  0.00    -0.208 NA
ATOM     13  H   UNL A   1      35.039  25.225  22.352  1.00  0.00     0.141 HD
BRANCH  12  14
ATOM     14  C   UNL A   1      34.417  23.789  23.594  1.00  0.00     0.034 C 
ATOM     15  C   UNL A   1      34.356  24.639  24.867  1.00  0.00     0.027 C 
ATOM     16  C   UNL A   1      33.397  22.637  23.671  1.00  0.00     0.030 C 
ATOM     17  C   UNL A   1      35.834  23.150  23.531  1.00  0.00     0.030 C 
ATOM     18  C   UNL A   1      34.597  23.795  26.120  1.00  0.00    -0.008 C 
ATOM     19  C   UNL A   1      33.628  21.776  24.937  1.00  0.00    -0.030 C 
ATOM     20  C   UNL A   1      36.114  22.287  24.791  1.00  0.00    -0.030 C 
ATOM     21  C   UNL A   1      33.530  22.690  26.182  1.00  0.00     0.010 C 
ATOM     22  C   UNL A   1      35.995  23.177  26.046  1.00  0.00     0.010 C 
ATOM     23  C   UNL A   1      35.047  21.171  24.880  1.00  0.00     0.013 C 
ATOM     24  C   UNL A   1      32.572  20.668  25.013  1.00  0.00     0.011 C 
ATOM     25  C   UNL A   1      37.515  21.672  24.731  1.00  0.00     0.011 C 
ENDBRANCH  12  14
ENDBRANCH   9  12
ENDBRANCH   7   9
ENDBRANCH   4   7
ENDBRANCH   2   3
ENDBRANCH   1   2
BRANCH   1  26
ATOM     26  C   UNL A   1      33.495  27.706  26.815  1.00  0.00     0.023 C 
BRANCH  26  27
ATOM     27  C   UNL A   1      34.135  28.979  26.265  1.00  0.00     0.116 C 
BRANCH  27  28
ATOM     28  N   UNL A   1      33.908  30.144  27.107  1.00  0.00    -0.352 N 
ATOM     29  C   UNL A   1      34.732  30.668  28.074  1.00  0.00     0.251 C 
ATOM     30  H   UNL A   1      33.056  30.617  26.965  1.00  0.00     0.163 HD
ATOM     31  O   UNL A   1      34.347  31.597  28.778  1.00  0.00    -0.269 OA
BRANCH  29  32
ATOM     32  C   UNL A   1      36.066  30.071  28.283  1.00  0.00     0.039 A 
ATOM     33  C   UNL A   1      37.009  30.151  27.256  1.00  0.00     0.014 A 
ATOM     34  C   UNL A   1      36.397  29.485  29.507  1.00  0.00     0.014 A 
ATOM     35  C   UNL A   1      38.315  29.712  27.485  1.00  0.00     0.010 A 
ATOM     36  C   UNL A   1      37.713  29.106  29.753  1.00  0.00     0.010 A 
ATOM     37  C   UNL A   1      38.687  29.226  28.749  1.00  0.00    -0.014 A 
BRANCH  37  38
ATOM     38  C   UNL A   1      40.095  28.869  29.058  1.00  0.00     0.031 A 
ATOM     39  C   UNL A   1      41.030  29.905  29.616  1.00  0.00     0.074 A 
ATOM     40  C   UNL A   1      40.550  27.639  28.748  1.00  0.00     0.049 A 
ATOM     41  N   UNL A   1      42.314  29.818  29.845  1.00  0.00    -0.248 NA
ATOM     42  C   UNL A   1      40.451  31.221  29.931  1.00  0.00     0.031 C 
ATOM     43  C   UNL A   1      39.751  26.564  28.153  1.00  0.00     0.029 A 
ATOM     44  N   UNL A   1      41.803  27.090  28.865  1.00  0.00    -0.354 N 
ATOM     45  C   UNL A   1      42.701  31.069  30.308  1.00  0.00     0.074 A 
ATOM     46  C   UNL A   1      41.524  31.911  30.291  1.00  0.00     0.031 C 
ATOM     47  C   UNL A   1      40.529  25.486  27.966  1.00  0.00     0.029 A 
ATOM     48  C   UNL A   1      41.890  25.803  28.387  1.00  0.00     0.049 A 
ATOM     49  H   UNL A   1      42.567  27.571  29.256  1.00  0.00     0.167 HD
ATOM     50  C   UNL A   1      43.925  31.474  30.726  1.00  0.00     0.037 A 
ATOM     51  C   UNL A   1      42.949  24.977  28.280  1.00  0.00     0.037 A 
ATOM     52  C   UNL A   1      45.083  30.620  30.772  1.00  0.00     0.049 A 
ATOM     53  C   UNL A   1      44.297  25.449  28.754  1.00  0.00     0.074 A 
ATOM     54  C   UNL A   1      46.344  30.911  31.261  1.00  0.00     0.029 A 
ATOM     55  N   UNL A   1      45.124  29.314  30.308  1.00  0.00    -0.354 N 
ATOM     56  N   UNL A   1      44.627  26.610  29.269  1.00  0.00    -0.248 NA
ATOM     57  C   UNL A   1      45.417  24.504  28.635  1.00  0.00     0.031 C 
ATOM     58  C   UNL A   1      47.162  29.795  31.049  1.00  0.00     0.029 A 
ATOM     59  C   UNL A   1      46.398  28.794  30.471  1.00  0.00     0.049 A 
ATOM     60  H   UNL A   1      44.361  28.828  29.918  1.00  0.00     0.167 HD
ATOM     61  C   UNL A   1      45.986  26.526  29.554  1.00  0.00     0.074 A 
ATOM     62  C   UNL A   1      46.413  25.198  29.167  1.00  0.00     0.031 C 
ATOM     63  C   UNL A   1      46.805  27.466  30.087  1.00  0.00     0.037 A 
BRANCH  50  64
ATOM     64  C   UNL A   1      44.078  32.902  31.172  1.00  0.00     0.058 A 
ATOM     65  C   UNL A   1      43.910  33.277  32.513  1.00  0.00     0.135 A 
ATOM     66  C   UNL A   1      44.444  33.898  30.252  1.00  0.00     0.135 A 
ATOM     67  F   UNL A   1      43.545  32.367  33.430  1.00  0.00    -0.206 F 
ATOM     68  C   UNL A   1      44.077  34.596  32.925  1.00  0.00     0.059 A 
ATOM     69  C   UNL A   1      44.642  35.219  30.647  1.00  0.00     0.059 A 
ATOM     70  F   UNL A   1      44.616  33.594  28.957  1.00  0.00    -0.206 F 
ATOM     71  C   UNL A   1      44.443  35.559  31.985  1.00  0.00     0.060 A 
BRANCH  71  72
ATOM     72  S   UNL A   1      44.667  37.262  32.538  1.00  0.00     0.124 S 
ATOM     73  O   UNL A   1      46.094  37.459  32.297  1.00  0.00    -0.237 OA
ATOM     74  O   UNL A   1      43.770  37.999  31.654  1.00  0.00    -0.237 OA
ATOM     75  O   UNL A   1      44.268  37.221  33.940  1.00  0.00    -0.744 OA
ENDBRANCH  71  72
ENDBRANCH  50  64
BRANCH  51  76
ATOM     76  C   UNL A   1      42.780  23.618  27.701  1.00  0.00     0.058 A 
ATOM     77  C   UNL A   1      42.406  22.531  28.505  1.00  0.00     0.135 A 
ATOM     78  C   UNL A   1      42.980  23.379  26.332  1.00  0.00     0.135 A 
ATOM     79  F   UNL A   1      42.209  22.708  29.821  1.00  0.00    -0.206 F 
ATOM     80  C   UNL A   1      42.254  21.252  27.979  1.00  0.00     0.059 A 
ATOM     81  C   UNL A   1      42.810  22.115  25.777  1.00  0.00     0.059 A 
ATOM     82  F   UNL A   1      43.321  24.388  25.516  1.00  0.00    -0.206 F 
ATOM     83  C   UNL A   1      42.457  21.054  26.612  1.00  0.00     0.060 A 
BRANCH  83  84
ATOM     84  S   UNL A   1      42.215  19.400  25.930  1.00  0.00     0.124 S 
ATOM     85  O   UNL A   1      42.745  18.561  26.998  1.00  0.00    -0.237 OA
ATOM     86  O   UNL A   1      40.769  19.355  25.737  1.00  0.00    -0.237 OA
ATOM     87  O   UNL A   1      43.002  19.428  24.699  1.00  0.00    -0.744 OA
ENDBRANCH  83  84
ENDBRANCH  51  76
BRANCH  63  88
ATOM     88  C   UNL A   1      48.244  27.091  30.308  1.00  0.00     0.058 A 
ATOM     89  C   UNL A   1      49.238  27.414  29.374  1.00  0.00     0.135 A 
ATOM     90  C   UNL A   1      48.640  26.469  31.503  1.00  0.00     0.135 A 
ATOM     91  F   UNL A   1      48.909  28.000  28.212  1.00  0.00    -0.206 F 
ATOM     92  C   UNL A   1      50.578  27.127  29.613  1.00  0.00     0.059 A 
ATOM     93  C   UNL A   1      49.976  26.195  31.774  1.00  0.00     0.059 A 
ATOM     94  F   UNL A   1      47.727  26.146  32.433  1.00  0.00    -0.206 F 
ATOM     95  C   UNL A   1      50.938  26.523  30.819  1.00  0.00     0.060 A 
BRANCH  95  96
ATOM     96  S   UNL A   1      52.687  26.210  31.141  1.00  0.00     0.124 S 
ATOM     97  O   UNL A   1      53.223  26.115  29.787  1.00  0.00    -0.237 OA
ATOM     98  O   UNL A   1      53.083  27.392  31.899  1.00  0.00    -0.237 OA
ATOM     99  O   UNL A   1      52.674  24.962  31.900  1.00  0.00    -0.744 OA
ENDBRANCH  95  96
ENDBRANCH  63  88
ENDBRANCH  37  38
ENDBRANCH  29  32
ENDBRANCH  27  28
ENDBRANCH  26  27
ENDBRANCH   1  26
TORSDOF 17
ENDMDL
MODEL 2
REMARK VINA RESULT:     -11.6      2.888      9.046
REMARK SMILES C[C@@H](C(=O)NCCCCNC(=O)c1ccc(-c2c3nc(c(-c4c(F)cc(S(=O)(=O)[O-])cc4F)c4ccc([nH]4)c(-c4c(F)cc(S(=O)(=O)[O-])cc4F)c4nc(c(-c5c(F)cc(S(=O)(=O)[O-])cc5F)c5ccc2[nH]5)C=C4)C=C3)cc1)S(=O)(=O)N[C@@]12C[C@@H]3C[C@@](C)(C[C@@](C)(C3)C1)C2
REMARK SMILES IDX 7 1 6 2 5 3 3 4 4 5 2 7 1 8 79 9 80 10 81 11 82 12 83 14
REMARK SMILES IDX 84 15 93 16 94 17 85 18 90 19 87 20 92 21 86 22 89 23 91 24
REMARK SMILES IDX 88 25 8 26 9 27 10 28 11 29 12 31 13 32 14 33 78 34 15 35
REMARK SMILES IDX 77 36 16 37 17 38 18 39 71 40 19 41 76 42 70 43 72 44 20 45
REMARK SMILES IDX 75 46 69 47 68 48 21 50 55 51 34 52 54 53 35 54 38 55 53 56
REMARK SMILES IDX 73 57 36 58 37 59 52 61 74 62 39 63 22 64 23 65 32 66 24 67
REMARK SMILES IDX 25 68 31 69 33 70 26 71 27 72 28 73 29 74 30 75 56 76 57 77
REMARK SMILES IDX 66 78 58 79 59 80 65 81 67 82 60 83 61 84 62 85 63 86 64 87
REMARK SMILES IDX 40 88 41 89 50 90 42 91 43 92 49 93 51 94 44 95 45 96 46 97
REMARK SMILES IDX 47 98 48 99
REMARK H PARENT 5 6 82 13 10 30 72 49 38 60
REMARK Flexibility Score: inf
ROOT
ATOM      1  C   UNL A   1      35.449  22.618  23.849  1.00  0.00     0.023 C 
ENDROOT
BRANCH   1   2
ATOM      2  C   UNL A   1      33.995  22.884  23.447  1.00  0.00     0.116 C 
BRANCH   2   3
ATOM      3  N   UNL A   1      33.123  21.870  24.014  1.00  0.00    -0.355 N 
ATOM      4  C   UNL A   1      32.638  21.659  25.273  1.00  0.00     0.239 C 
ATOM      5  O   UNL A   1      32.072  20.574  25.433  1.00  0.00    -0.274 OA
ATOM      6  H   UNL A   1      32.821  21.200  23.358  1.00  0.00     0.163 HD
BRANCH   4   7
ATOM      7  C   UNL A   1      32.693  22.726  26.357  1.00  0.00     0.209 C 
ATOM      8  C   UNL A   1      33.166  22.334  27.756  1.00  0.00     0.037 C 
BRANCH   7   9
ATOM      9  S   UNL A   1      31.124  23.666  26.387  1.00  0.00     0.223 S 
ATOM     10  O   UNL A   1      30.581  23.705  25.041  1.00  0.00    -0.212 OA
ATOM     11  O   UNL A   1      30.308  23.094  27.435  1.00  0.00    -0.212 OA
BRANCH   9  12
ATOM     12  N   UNL A   1      31.425  25.236  26.875  1.00  0.00    -0.208 NA
ATOM     13  H   UNL A   1      32.152  25.150  27.584  1.00  0.00     0.141 HD
BRANCH  12  14
ATOM     14  C   UNL A   1      31.846  26.387  26.045  1.00  0.00     0.034 C 
ATOM     15  C   UNL A   1      33.169  26.105  25.327  1.00  0.00     0.027 C 
ATOM     16  C   UNL A   1      30.760  26.785  25.028  1.00  0.00     0.030 C 
ATOM     17  C   UNL A   1      32.076  27.609  26.980  1.00  0.00     0.030 C 
ATOM     18  C   UNL A   1      33.628  27.307  24.499  1.00  0.00    -0.008 C 
ATOM     19  C   UNL A   1      31.213  27.999  24.181  1.00  0.00    -0.030 C 
ATOM     20  C   UNL A   1      32.546  28.848  26.171  1.00  0.00    -0.030 C 
ATOM     21  C   UNL A   1      32.538  27.639  23.468  1.00  0.00     0.010 C 
ATOM     22  C   UNL A   1      33.855  28.498  25.432  1.00  0.00     0.010 C 
ATOM     23  C   UNL A   1      31.468  29.198  25.120  1.00  0.00     0.013 C 
ATOM     24  C   UNL A   1      30.136  28.344  23.147  1.00  0.00     0.011 C 
ATOM     25  C   UNL A   1      32.786  30.044  27.098  1.00  0.00     0.011 C 
ENDBRANCH  12  14
ENDBRANCH   9  12
ENDBRANCH   7   9
ENDBRANCH   4   7
ENDBRANCH   2   3
ENDBRANCH   1   2
BRANCH   1  26
ATOM     26  C   UNL A   1      36.093  23.750  24.661  1.00  0.00     0.023 C 
BRANCH  26  27
ATOM     27  C   UNL A   1      36.501  23.377  26.085  1.00  0.00     0.116 C 
BRANCH  27  28
ATOM     28  N   UNL A   1      37.597  22.421  26.136  1.00  0.00    -0.352 N 
ATOM     29  C   UNL A   1      38.920  22.658  26.425  1.00  0.00     0.251 C 
ATOM     30  H   UNL A   1      37.361  21.486  25.937  1.00  0.00     0.163 HD
ATOM     31  O   UNL A   1      39.747  21.758  26.319  1.00  0.00    -0.269 OA
BRANCH  29  32
ATOM     32  C   UNL A   1      39.336  24.017  26.824  1.00  0.00     0.039 A 
ATOM     33  C   UNL A   1      39.250  24.382  28.169  1.00  0.00     0.014 A 
ATOM     34  C   UNL A   1      39.860  24.904  25.880  1.00  0.00     0.014 A 
ATOM     35  C   UNL A   1      39.764  25.614  28.582  1.00  0.00     0.010 A 
ATOM     36  C   UNL A   1      40.426  26.102  26.303  1.00  0.00     0.010 A 
ATOM     37  C   UNL A   1      40.395  26.463  27.659  1.00  0.00    -0.014 A 
BRANCH  37  38
ATOM     38  C   UNL A   1      41.058  27.720  28.090  1.00  0.00     0.031 A 
ATOM     39  C   UNL A   1      42.557  27.829  28.056  1.00  0.00     0.074 A 
ATOM     40  C   UNL A   1      40.315  28.722  28.599  1.00  0.00     0.049 A 
ATOM     41  N   UNL A   1      43.323  28.795  28.493  1.00  0.00    -0.248 NA
ATOM     42  C   UNL A   1      43.293  26.692  27.481  1.00  0.00     0.031 C 
ATOM     43  C   UNL A   1      38.855  28.711  28.733  1.00  0.00     0.029 A 
ATOM     44  N   UNL A   1      40.684  29.937  29.123  1.00  0.00    -0.354 N 
ATOM     45  C   UNL A   1      44.627  28.375  28.268  1.00  0.00     0.074 A 
ATOM     46  C   UNL A   1      44.552  27.049  27.691  1.00  0.00     0.031 C 
ATOM     47  C   UNL A   1      38.454  29.863  29.293  1.00  0.00     0.029 A 
ATOM     48  C   UNL A   1      39.626  30.678  29.596  1.00  0.00     0.049 A 
ATOM     49  H   UNL A   1      41.616  30.248  29.155  1.00  0.00     0.167 HD
ATOM     50  C   UNL A   1      45.782  29.041  28.505  1.00  0.00     0.037 A 
ATOM     51  C   UNL A   1      39.603  31.872  30.222  1.00  0.00     0.037 A 
ATOM     52  C   UNL A   1      45.847  30.373  29.047  1.00  0.00     0.049 A 
ATOM     53  C   UNL A   1      40.900  32.593  30.471  1.00  0.00     0.074 A 
ATOM     54  C   UNL A   1      46.963  31.168  29.242  1.00  0.00     0.029 A 
ATOM     55  N   UNL A   1      44.753  31.104  29.486  1.00  0.00    -0.354 N 
ATOM     56  N   UNL A   1      42.121  32.217  30.173  1.00  0.00    -0.248 NA
ATOM     57  C   UNL A   1      40.820  33.901  31.139  1.00  0.00     0.031 C 
ATOM     58  C   UNL A   1      46.549  32.362  29.843  1.00  0.00     0.029 A 
ATOM     59  C   UNL A   1      45.170  32.330  29.979  1.00  0.00     0.049 A 
ATOM     60  H   UNL A   1      43.818  30.798  29.452  1.00  0.00     0.167 HD
ATOM     61  C   UNL A   1      42.951  33.248  30.598  1.00  0.00     0.074 A 
ATOM     62  C   UNL A   1      42.092  34.270  31.161  1.00  0.00     0.031 C 
ATOM     63  C   UNL A   1      44.302  33.340  30.529  1.00  0.00     0.037 A 
BRANCH  50  64
ATOM     64  C   UNL A   1      47.075  28.346  28.177  1.00  0.00     0.058 A 
ATOM     65  C   UNL A   1      47.720  27.514  29.104  1.00  0.00     0.135 A 
ATOM     66  C   UNL A   1      47.647  28.475  26.901  1.00  0.00     0.135 A 
ATOM     67  F   UNL A   1      47.224  27.368  30.343  1.00  0.00    -0.206 F 
ATOM     68  C   UNL A   1      48.903  26.853  28.787  1.00  0.00     0.059 A 
ATOM     69  C   UNL A   1      48.816  27.802  26.554  1.00  0.00     0.059 A 
ATOM     70  F   UNL A   1      47.071  29.259  25.977  1.00  0.00    -0.206 F 
ATOM     71  C   UNL A   1      49.443  27.003  27.509  1.00  0.00     0.060 A 
BRANCH  71  72
ATOM     72  S   UNL A   1      50.970  26.129  27.111  1.00  0.00     0.124 S 
ATOM     73  O   UNL A   1      51.118  26.436  25.691  1.00  0.00    -0.237 OA
ATOM     74  O   UNL A   1      51.937  26.766  27.999  1.00  0.00    -0.237 OA
ATOM     75  O   UNL A   1      50.658  24.738  27.422  1.00  0.00    -0.744 OA
ENDBRANCH  71  72
ENDBRANCH  50  64
BRANCH  51  76
ATOM     76  C   UNL A   1      38.309  32.461  30.657  1.00  0.00     0.058 A 
ATOM     77  C   UNL A   1      37.824  32.261  31.957  1.00  0.00     0.135 A 
ATOM     78  C   UNL A   1      37.534  33.241  29.783  1.00  0.00     0.135 A 
ATOM     79  F   UNL A   1      38.525  31.518  32.827  1.00  0.00    -0.206 F 
ATOM     80  C   UNL A   1      36.610  32.798  32.374  1.00  0.00     0.059 A 
ATOM     81  C   UNL A   1      36.329  33.809  30.184  1.00  0.00     0.059 A 
ATOM     82  F   UNL A   1      37.961  33.477  28.533  1.00  0.00    -0.206 F 
ATOM     83  C   UNL A   1      35.869  33.572  31.479  1.00  0.00     0.060 A 
BRANCH  83  84
ATOM     84  S   UNL A   1      34.316  34.300  32.042  1.00  0.00     0.124 S 
ATOM     85  O   UNL A   1      33.619  34.518  30.780  1.00  0.00    -0.237 OA
ATOM     86  O   UNL A   1      33.776  33.249  32.898  1.00  0.00    -0.237 OA
ATOM     87  O   UNL A   1      34.748  35.507  32.742  1.00  0.00    -0.744 OA
ENDBRANCH  83  84
ENDBRANCH  51  76
BRANCH  63  88
ATOM     88  C   UNL A   1      44.942  34.595  31.052  1.00  0.00     0.058 A 
ATOM     89  C   UNL A   1      45.109  35.727  30.242  1.00  0.00     0.135 A 
ATOM     90  C   UNL A   1      45.322  34.690  32.401  1.00  0.00     0.135 A 
ATOM     91  F   UNL A   1      44.770  35.684  28.944  1.00  0.00    -0.206 F 
ATOM     92  C   UNL A   1      45.638  36.909  30.748  1.00  0.00     0.059 A 
ATOM     93  C   UNL A   1      45.830  35.869  32.935  1.00  0.00     0.059 A 
ATOM     94  F   UNL A   1      45.175  33.635  33.221  1.00  0.00    -0.206 F 
ATOM     95  C   UNL A   1      45.990  36.973  32.098  1.00  0.00     0.060 A 
BRANCH  95  96
ATOM     96  S   UNL A   1      46.620  38.532  32.755  1.00  0.00     0.124 S 
ATOM     97  O   UNL A   1      47.799  38.086  33.491  1.00  0.00    -0.237 OA
ATOM     98  O   UNL A   1      46.882  39.300  31.542  1.00  0.00    -0.237 OA
ATOM     99  O   UNL A   1      45.517  39.025  33.575  1.00  0.00    -0.744 OA
ENDBRANCH  95  96
ENDBRANCH  63  88
ENDBRANCH  37  38
ENDBRANCH  29  32
ENDBRANCH  27  28
ENDBRANCH  26  27
ENDBRANCH   1  26
TORSDOF 17
ENDMDL
MODEL 3
REMARK VINA RESULT:     -11.5      4.850     10.458
REMARK SMILES C[C@@H](C(=O)NCCCCNC(=O)c1ccc(-c2c3nc(c(-c4c(F)cc(S(=O)(=O)[O-])cc4F)c4ccc([nH]4)c(-c4c(F)cc(S(=O)(=O)[O-])cc4F)c4nc(c(-c5c(F)cc(S(=O)(=O)[O-])cc5F)c5ccc2[nH]5)C=C4)C=C3)cc1)S(=O)(=O)N[C@@]12C[C@@H]3C[C@@](C)(C[C@@](C)(C3)C1)C2
REMARK SMILES IDX 7 1 6 2 5 3 3 4 4 5 2 7 1 8 79 9 80 10 81 11 82 12 83 14
REMARK SMILES IDX 84 15 93 16 94 17 85 18 90 19 87 20 92 21 86 22 89 23 91 24
REMARK SMILES IDX 88 25 8 26 9 27 10 28 11 29 12 31 13 32 14 33 78 34 15 35
REMARK SMILES IDX 77 36 16 37 17 38 18 39 71 40 19 41 76 42 70 43 72 44 20 45
REMARK SMILES IDX 75 46 69 47 68 48 21 50 55 51 34 52 54 53 35 54 38 55 53 56
REMARK SMILES IDX 73 57 36 58 37 59 52 61 74 62 39 63 22 64 23 65 32 66 24 67
REMARK SMILES IDX 25 68 31 69 33 70 26 71 27 72 28 73 29 74 30 75 56 76 57 77
REMARK SMILES IDX 66 78 58 79 59 80 65 81 67 82 60 83 61 84 62 85 63 86 64 87
REMARK SMILES IDX 40 88 41 89 50 90 42 91 43 92 49 93 51 94 44 95 45 96 46 97
REMARK SMILES IDX 47 98 48 99
REMARK H PARENT 5 6 82 13 10 30 72 49 38 60
REMARK Flexibility Score: inf
ROOT
ATOM      1  C   UNL A   1      37.269  22.019  25.461  1.00  0.00     0.023 C 
ENDROOT
BRANCH   1   2
ATOM      2  C   UNL A   1      36.121  21.512  24.582  1.00  0.00     0.116 C 
BRANCH   2   3
ATOM      3  N   UNL A   1      35.622  22.584  23.738  1.00  0.00    -0.355 N 
ATOM      4  C   UNL A   1      34.394  22.850  23.202  1.00  0.00     0.239 C 
ATOM      5  O   UNL A   1      34.382  23.757  22.366  1.00  0.00    -0.274 OA
ATOM      6  H   UNL A   1      36.306  23.253  23.506  1.00  0.00     0.163 HD
BRANCH   4   7
ATOM      7  C   UNL A   1      33.128  22.157  23.681  1.00  0.00     0.209 C 
ATOM      8  C   UNL A   1      32.162  21.580  22.646  1.00  0.00     0.037 C 
BRANCH   7   9
ATOM      9  S   UNL A   1      32.280  23.198  24.923  1.00  0.00     0.223 S 
ATOM     10  O   UNL A   1      31.081  23.754  24.323  1.00  0.00    -0.212 OA
ATOM     11  O   UNL A   1      32.135  22.398  26.120  1.00  0.00    -0.212 OA
BRANCH   9  12
ATOM     12  N   UNL A   1      33.279  24.465  25.364  1.00  0.00    -0.208 NA
ATOM     13  H   UNL A   1      34.025  24.457  24.669  1.00  0.00     0.141 HD
BRANCH  12  14
ATOM     14  C   UNL A   1      32.929  25.894  25.521  1.00  0.00     0.034 C 
ATOM     15  C   UNL A   1      31.622  26.067  26.301  1.00  0.00     0.027 C 
ATOM     16  C   UNL A   1      34.063  26.690  26.194  1.00  0.00     0.030 C 
ATOM     17  C   UNL A   1      32.710  26.504  24.107  1.00  0.00     0.030 C 
ATOM     18  C   UNL A   1      31.235  27.541  26.431  1.00  0.00    -0.008 C 
ATOM     19  C   UNL A   1      33.683  28.184  26.335  1.00  0.00    -0.030 C 
ATOM     20  C   UNL A   1      32.313  28.002  24.202  1.00  0.00    -0.030 C 
ATOM     21  C   UNL A   1      32.371  28.287  27.149  1.00  0.00     0.010 C 
ATOM     22  C   UNL A   1      31.019  28.127  25.034  1.00  0.00     0.010 C 
ATOM     23  C   UNL A   1      33.438  28.773  24.929  1.00  0.00     0.013 C 
ATOM     24  C   UNL A   1      34.807  28.942  27.049  1.00  0.00     0.011 C 
ATOM     25  C   UNL A   1      32.083  28.595  22.808  1.00  0.00     0.011 C 
ENDBRANCH  12  14
ENDBRANCH   9  12
ENDBRANCH   7   9
ENDBRANCH   4   7
ENDBRANCH   2   3
ENDBRANCH   1   2
BRANCH   1  26
ATOM     26  C   UNL A   1      37.434  23.544  25.460  1.00  0.00     0.023 C 
BRANCH  26  27
ATOM     27  C   UNL A   1      38.351  24.099  26.548  1.00  0.00     0.116 C 
BRANCH  27  28
ATOM     28  N   UNL A   1      39.760  23.838  26.298  1.00  0.00    -0.352 N 
ATOM     29  C   UNL A   1      40.848  24.558  26.730  1.00  0.00     0.251 C 
ATOM     30  H   UNL A   1      39.960  23.044  25.750  1.00  0.00     0.163 HD
ATOM     31  O   UNL A   1      41.975  24.269  26.341  1.00  0.00    -0.269 OA
BRANCH  29  32
ATOM     32  C   UNL A   1      40.637  25.708  27.633  1.00  0.00     0.039 A 
ATOM     33  C   UNL A   1      39.661  25.615  28.627  1.00  0.00     0.014 A 
ATOM     34  C   UNL A   1      41.438  26.848  27.528  1.00  0.00     0.014 A 
ATOM     35  C   UNL A   1      39.542  26.637  29.572  1.00  0.00     0.010 A 
ATOM     36  C   UNL A   1      41.359  27.835  28.505  1.00  0.00     0.010 A 
ATOM     37  C   UNL A   1      40.418  27.734  29.543  1.00  0.00    -0.014 A 
BRANCH  37  38
ATOM     38  C   UNL A   1      40.395  28.773  30.604  1.00  0.00     0.031 A 
ATOM     39  C   UNL A   1      41.287  28.640  31.806  1.00  0.00     0.074 A 
ATOM     40  C   UNL A   1      39.504  29.781  30.525  1.00  0.00     0.049 A 
ATOM     41  N   UNL A   1      41.332  29.379  32.884  1.00  0.00    -0.248 NA
ATOM     42  C   UNL A   1      42.233  27.513  31.810  1.00  0.00     0.031 C 
ATOM     43  C   UNL A   1      38.549  29.986  29.433  1.00  0.00     0.029 A 
ATOM     44  N   UNL A   1      39.236  30.811  31.393  1.00  0.00    -0.354 N 
ATOM     45  C   UNL A   1      42.290  28.796  33.702  1.00  0.00     0.074 A 
ATOM     46  C   UNL A   1      42.777  27.619  33.014  1.00  0.00     0.031 C 
ATOM     47  C   UNL A   1      37.808  31.075  29.692  1.00  0.00     0.029 A 
ATOM     48  C   UNL A   1      38.204  31.624  30.984  1.00  0.00     0.049 A 
ATOM     49  H   UNL A   1      39.737  30.955  32.228  1.00  0.00     0.167 HD
ATOM     50  C   UNL A   1      42.737  29.214  34.911  1.00  0.00     0.037 A 
ATOM     51  C   UNL A   1      37.627  32.680  31.591  1.00  0.00     0.037 A 
ATOM     52  C   UNL A   1      42.273  30.405  35.573  1.00  0.00     0.049 A 
ATOM     53  C   UNL A   1      38.144  33.126  32.932  1.00  0.00     0.074 A 
ATOM     54  C   UNL A   1      42.725  30.961  36.756  1.00  0.00     0.029 A 
ATOM     55  N   UNL A   1      41.248  31.219  35.114  1.00  0.00    -0.354 N 
ATOM     56  N   UNL A   1      39.111  32.612  33.653  1.00  0.00    -0.248 NA
ATOM     57  C   UNL A   1      37.494  34.295  33.543  1.00  0.00     0.031 C 
ATOM     58  C   UNL A   1      41.942  32.086  37.038  1.00  0.00     0.029 A 
ATOM     59  C   UNL A   1      41.033  32.257  36.005  1.00  0.00     0.049 A 
ATOM     60  H   UNL A   1      40.747  31.080  34.277  1.00  0.00     0.167 HD
ATOM     61  C   UNL A   1      39.200  33.406  34.792  1.00  0.00     0.074 A 
ATOM     62  C   UNL A   1      38.197  34.443  34.657  1.00  0.00     0.031 C 
ATOM     63  C   UNL A   1      40.036  33.286  35.853  1.00  0.00     0.037 A 
BRANCH  50  64
ATOM     64  C   UNL A   1      43.785  28.384  35.598  1.00  0.00     0.058 A 
ATOM     65  C   UNL A   1      43.443  27.338  36.469  1.00  0.00     0.135 A 
ATOM     66  C   UNL A   1      45.148  28.606  35.344  1.00  0.00     0.135 A 
ATOM     67  F   UNL A   1      42.156  27.091  36.758  1.00  0.00    -0.206 F 
ATOM     68  C   UNL A   1      44.417  26.556  37.083  1.00  0.00     0.059 A 
ATOM     69  C   UNL A   1      46.138  27.820  35.927  1.00  0.00     0.059 A 
ATOM     70  F   UNL A   1      45.530  29.595  34.520  1.00  0.00    -0.206 F 
ATOM     71  C   UNL A   1      45.762  26.804  36.806  1.00  0.00     0.060 A 
BRANCH  71  72
ATOM     72  S   UNL A   1      47.010  25.773  37.601  1.00  0.00     0.124 S 
ATOM     73  O   UNL A   1      47.596  25.089  36.451  1.00  0.00    -0.237 OA
ATOM     74  O   UNL A   1      47.865  26.762  38.251  1.00  0.00    -0.237 OA
ATOM     75  O   UNL A   1      46.233  24.930  38.503  1.00  0.00    -0.744 OA
ENDBRANCH  71  72
ENDBRANCH  50  64
BRANCH  51  76
ATOM     76  C   UNL A   1      36.496  33.389  30.936  1.00  0.00     0.058 A 
ATOM     77  C   UNL A   1      35.191  33.287  31.440  1.00  0.00     0.135 A 
ATOM     78  C   UNL A   1      36.698  34.188  29.800  1.00  0.00     0.135 A 
ATOM     79  F   UNL A   1      34.946  32.531  32.521  1.00  0.00    -0.206 F 
ATOM     80  C   UNL A   1      34.122  33.938  30.831  1.00  0.00     0.059 A 
ATOM     81  C   UNL A   1      35.649  34.868  29.188  1.00  0.00     0.059 A 
ATOM     82  F   UNL A   1      37.930  34.333  29.289  1.00  0.00    -0.206 F 
ATOM     83  C   UNL A   1      34.362  34.727  29.705  1.00  0.00     0.060 A 
BRANCH  83  84
ATOM     84  S   UNL A   1      32.975  35.602  28.948  1.00  0.00     0.124 S 
ATOM     85  O   UNL A   1      33.656  36.691  28.258  1.00  0.00    -0.237 OA
ATOM     86  O   UNL A   1      32.390  34.571  28.096  1.00  0.00    -0.237 OA
ATOM     87  O   UNL A   1      32.160  35.991  30.095  1.00  0.00    -0.744 OA
ENDBRANCH  83  84
ENDBRANCH  51  76
BRANCH  63  88
ATOM     88  C   UNL A   1      39.924  34.311  36.946  1.00  0.00     0.058 A 
ATOM     89  C   UNL A   1      40.573  35.551  36.859  1.00  0.00     0.135 A 
ATOM     90  C   UNL A   1      39.096  34.079  38.056  1.00  0.00     0.135 A 
ATOM     91  F   UNL A   1      41.383  35.819  35.822  1.00  0.00    -0.206 F 
ATOM     92  C   UNL A   1      40.412  36.524  37.839  1.00  0.00     0.059 A 
ATOM     93  C   UNL A   1      38.900  35.046  39.036  1.00  0.00     0.059 A 
ATOM     94  F   UNL A   1      38.446  32.910  38.182  1.00  0.00    -0.206 F 
ATOM     95  C   UNL A   1      39.568  36.266  38.921  1.00  0.00     0.060 A 
BRANCH  95  96
ATOM     96  S   UNL A   1      39.322  37.560  40.155  1.00  0.00     0.124 S 
ATOM     97  O   UNL A   1      38.946  36.779  41.330  1.00  0.00    -0.237 OA
ATOM     98  O   UNL A   1      40.634  38.195  40.208  1.00  0.00    -0.237 OA
ATOM     99  O   UNL A   1      38.258  38.380  39.580  1.00  0.00    -0.744 OA
ENDBRANCH  95  96
ENDBRANCH  63  88
ENDBRANCH  37  38
ENDBRANCH  29  32
ENDBRANCH  27  28
ENDBRANCH  26  27
ENDBRANCH   1  26
TORSDOF 17
ENDMDL
