MODEL 1
REMARK VINA RESULT:     -12.2      0.000      0.000
REMARK SMILES O=C(NCCCCNC(=O)[C@@H](c1ccccc1)[C@H](C(=O)c1ccccc1)c1ccccc1)c1ccc(-c2c3nc(c(-c4c(F)cc(S(=O)(=O)[O-])cc4F)c4ccc([nH]4)c(-c4c(F)cc(S(=O)(=O)[O-])cc4F)c4nc(c(-c5c(F)cc(S(=O)(=O)[O-])cc5F)c5ccc2[nH]5)C=C4)C=C3)cc1
REMARK SMILES IDX 5 1 4 2 3 3 1 4 2 5 33 7 34 8 98 9 35 10 97 11 36 12 37 13
REMARK SMILES IDX 38 14 91 15 39 16 96 17 90 18 92 19 40 20 95 21 89 22 88 23
REMARK SMILES IDX 41 25 75 26 54 27 74 28 55 29 58 30 73 31 93 32 56 33 57 34
REMARK SMILES IDX 72 36 94 37 59 38 42 39 43 40 52 41 44 42 45 43 51 44 53 45
REMARK SMILES IDX 46 46 47 47 48 48 49 49 50 50 76 51 77 52 86 53 78 54 79 55
REMARK SMILES IDX 85 56 87 57 80 58 81 59 82 60 83 61 84 62 60 63 61 64 70 65
REMARK SMILES IDX 62 66 63 67 69 68 71 69 64 70 65 71 66 72 67 73 68 74 6 75
REMARK SMILES IDX 7 76 8 77 9 78 10 80 11 81 12 82 13 83 17 84 14 85 16 86
REMARK SMILES IDX 15 87 18 88 27 89 28 90 32 91 29 92 31 93 30 94 19 95 20 96
REMARK SMILES IDX 21 97 22 98 26 99 23 100 25 101 24 102
REMARK H PARENT 3 6 92 24 58 35 8 79
REMARK Flexibility Score: inf
ROOT
ATOM      1  C   UNL A   1      33.941  29.327  26.687  1.00  0.00     0.023 C 
ENDROOT
BRANCH   1   2
ATOM      2  C   UNL A   1      35.095  29.110  27.654  1.00  0.00     0.116 C 
BRANCH   2   3
ATOM      3  N   UNL A   1      35.131  30.116  28.707  1.00  0.00    -0.352 N 
ATOM      4  O   UNL A   1      35.964  31.217  30.489  1.00  0.00    -0.269 OA
ATOM      5  C   UNL A   1      36.173  30.490  29.522  1.00  0.00     0.251 C 
ATOM      6  H   UNL A   1      34.286  30.599  28.858  1.00  0.00     0.163 HD
BRANCH   5   7
ATOM      7  C   UNL A   1      37.532  29.993  29.235  1.00  0.00     0.039 A 
ATOM      8  C   UNL A   1      38.370  29.597  30.282  1.00  0.00     0.014 A 
ATOM      9  C   UNL A   1      37.980  29.940  27.914  1.00  0.00     0.014 A 
ATOM     10  C   UNL A   1      39.702  29.306  30.025  1.00  0.00     0.010 A 
ATOM     11  C   UNL A   1      39.294  29.553  27.649  1.00  0.00     0.010 A 
ATOM     12  C   UNL A   1      40.174  29.267  28.705  1.00  0.00    -0.014 A 
BRANCH  12  13
ATOM     13  C   UNL A   1      41.577  28.870  28.440  1.00  0.00     0.031 A 
ATOM     14  C   UNL A   1      42.684  29.884  28.471  1.00  0.00     0.074 A 
ATOM     15  C   UNL A   1      41.840  27.579  28.161  1.00  0.00     0.049 A 
ATOM     16  N   UNL A   1      43.950  29.729  28.185  1.00  0.00    -0.248 NA
ATOM     17  C   UNL A   1      42.320  31.254  28.866  1.00  0.00     0.031 C 
ATOM     18  C   UNL A   1      40.840  26.509  28.110  1.00  0.00     0.029 A 
ATOM     19  N   UNL A   1      43.018  26.945  27.867  1.00  0.00    -0.354 N 
ATOM     20  C   UNL A   1      44.531  30.983  28.333  1.00  0.00     0.074 A 
ATOM     21  C   UNL A   1      43.473  31.892  28.722  1.00  0.00     0.031 C 
ATOM     22  C   UNL A   1      41.449  25.350  27.824  1.00  0.00     0.029 A 
ATOM     23  C   UNL A   1      42.867  25.607  27.602  1.00  0.00     0.049 A 
ATOM     24  H   UNL A   1      43.889  27.406  27.848  1.00  0.00     0.167 HD
ATOM     25  C   UNL A   1      45.827  31.337  28.159  1.00  0.00     0.037 A 
ATOM     26  C   UNL A   1      43.761  24.690  27.189  1.00  0.00     0.037 A 
ATOM     27  C   UNL A   1      46.869  30.415  27.784  1.00  0.00     0.049 A 
ATOM     28  C   UNL A   1      45.186  25.107  26.984  1.00  0.00     0.074 A 
ATOM     29  C   UNL A   1      48.218  30.664  27.606  1.00  0.00     0.029 A 
ATOM     30  N   UNL A   1      46.675  29.064  27.527  1.00  0.00    -0.354 N 
ATOM     31  N   UNL A   1      45.722  26.294  27.137  1.00  0.00    -0.248 NA
ATOM     32  C   UNL A   1      46.127  24.069  26.548  1.00  0.00     0.031 C 
ATOM     33  C   UNL A   1      48.834  29.474  27.202  1.00  0.00     0.029 A 
ATOM     34  C   UNL A   1      47.876  28.471  27.174  1.00  0.00     0.049 A 
ATOM     35  H   UNL A   1      45.811  28.597  27.585  1.00  0.00     0.167 HD
ATOM     36  C   UNL A   1      47.070  26.144  26.837  1.00  0.00     0.074 A 
ATOM     37  C   UNL A   1      47.267  24.748  26.498  1.00  0.00     0.031 C 
ATOM     38  C   UNL A   1      48.053  27.076  26.848  1.00  0.00     0.037 A 
BRANCH  25  39
ATOM     39  C   UNL A   1      46.180  32.790  28.336  1.00  0.00     0.058 A 
ATOM     40  C   UNL A   1      46.670  33.294  29.551  1.00  0.00     0.135 A 
ATOM     41  C   UNL A   1      46.030  33.690  27.269  1.00  0.00     0.135 A 
ATOM     42  F   UNL A   1      46.821  32.480  30.608  1.00  0.00    -0.206 F 
ATOM     43  C   UNL A   1      46.956  34.646  29.716  1.00  0.00     0.059 A 
ATOM     44  C   UNL A   1      46.334  35.043  27.403  1.00  0.00     0.059 A 
ATOM     45  F   UNL A   1      45.570  33.263  26.083  1.00  0.00    -0.206 F 
ATOM     46  C   UNL A   1      46.776  35.514  28.639  1.00  0.00     0.060 A 
BRANCH  46  47
ATOM     47  S   UNL A   1      47.111  37.273  28.876  1.00  0.00     0.124 S 
ATOM     48  O   UNL A   1      46.690  37.463  30.261  1.00  0.00    -0.237 OA
ATOM     49  O   UNL A   1      48.548  37.354  28.636  1.00  0.00    -0.237 OA
ATOM     50  O   UNL A   1      46.273  37.918  27.870  1.00  0.00    -0.744 OA
ENDBRANCH  46  47
ENDBRANCH  25  39
BRANCH  26  51
ATOM     51  C   UNL A   1      43.305  23.299  26.943  1.00  0.00     0.058 A 
ATOM     52  C   UNL A   1      43.138  22.814  25.639  1.00  0.00     0.135 A 
ATOM     53  C   UNL A   1      43.118  22.401  28.007  1.00  0.00     0.135 A 
ATOM     54  F   UNL A   1      43.306  23.635  24.592  1.00  0.00    -0.206 F 
ATOM     55  C   UNL A   1      42.811  21.484  25.395  1.00  0.00     0.059 A 
ATOM     56  C   UNL A   1      42.813  21.063  27.788  1.00  0.00     0.059 A 
ATOM     57  F   UNL A   1      43.289  22.815  29.272  1.00  0.00    -0.206 F 
ATOM     58  C   UNL A   1      42.661  20.613  26.477  1.00  0.00     0.060 A 
BRANCH  58  59
ATOM     59  S   UNL A   1      42.333  18.869  26.147  1.00  0.00     0.124 S 
ATOM     60  O   UNL A   1      42.613  18.267  27.445  1.00  0.00    -0.237 OA
ATOM     61  O   UNL A   1      40.931  18.891  25.742  1.00  0.00    -0.237 OA
ATOM     62  O   UNL A   1      43.278  18.547  25.082  1.00  0.00    -0.744 OA
ENDBRANCH  58  59
ENDBRANCH  26  51
BRANCH  38  63
ATOM     63  C   UNL A   1      49.443  26.615  26.519  1.00  0.00     0.058 A 
ATOM     64  C   UNL A   1      50.285  26.057  27.492  1.00  0.00     0.135 A 
ATOM     65  C   UNL A   1      49.907  26.666  25.195  1.00  0.00     0.135 A 
ATOM     66  F   UNL A   1      49.890  25.996  28.773  1.00  0.00    -0.206 F 
ATOM     67  C   UNL A   1      51.547  25.570  27.164  1.00  0.00     0.059 A 
ATOM     68  C   UNL A   1      51.155  26.165  24.840  1.00  0.00     0.059 A 
ATOM     69  F   UNL A   1      49.135  27.187  24.227  1.00  0.00    -0.206 F 
ATOM     70  C   UNL A   1      51.970  25.623  25.834  1.00  0.00     0.060 A 
BRANCH  70  71
ATOM     71  S   UNL A   1      53.583  24.932  25.409  1.00  0.00     0.124 S 
ATOM     72  O   UNL A   1      53.871  25.612  24.150  1.00  0.00    -0.237 OA
ATOM     73  O   UNL A   1      54.405  25.331  26.548  1.00  0.00    -0.237 OA
ATOM     74  O   UNL A   1      53.321  23.500  25.304  1.00  0.00    -0.744 OA
ENDBRANCH  70  71
ENDBRANCH  38  63
ENDBRANCH  12  13
ENDBRANCH   5   7
ENDBRANCH   2   3
ENDBRANCH   1   2
BRANCH   1  75
ATOM     75  C   UNL A   1      34.115  28.634  25.346  1.00  0.00     0.023 C 
BRANCH  75  76
ATOM     76  C   UNL A   1      33.215  29.140  24.222  1.00  0.00     0.116 C 
BRANCH  76  77
ATOM     77  N   UNL A   1      33.455  28.559  22.917  1.00  0.00    -0.356 N 
ATOM     78  C   UNL A   1      33.530  27.243  22.545  1.00  0.00     0.228 C 
ATOM     79  H   UNL A   1      33.583  29.208  22.188  1.00  0.00     0.163 HD
ATOM     80  O   UNL A   1      33.764  27.008  21.355  1.00  0.00    -0.274 OA
BRANCH  78  81
ATOM     81  C   UNL A   1      33.350  26.082  23.556  1.00  0.00     0.124 C 
BRANCH  81  82
ATOM     82  C   UNL A   1      31.943  26.038  24.174  1.00  0.00    -0.035 A 
ATOM     83  C   UNL A   1      30.768  26.192  23.420  1.00  0.00     0.004 A 
ATOM     84  C   UNL A   1      31.782  25.970  25.565  1.00  0.00     0.004 A 
ATOM     85  C   UNL A   1      29.500  26.074  23.993  1.00  0.00     0.000 A 
ATOM     86  C   UNL A   1      30.516  25.854  26.150  1.00  0.00     0.000 A 
ATOM     87  C   UNL A   1      29.374  25.870  25.359  1.00  0.00     0.000 A 
ENDBRANCH  81  82
BRANCH  81  88
ATOM     88  C   UNL A   1      34.040  24.783  22.962  1.00  0.00     0.108 C 
BRANCH  88  89
ATOM     89  C   UNL A   1      35.053  24.102  23.925  1.00  0.00    -0.036 A 
ATOM     90  C   UNL A   1      35.925  23.123  23.409  1.00  0.00     0.004 A 
ATOM     91  C   UNL A   1      35.135  24.376  25.302  1.00  0.00     0.004 A 
ATOM     92  C   UNL A   1      36.825  22.441  24.237  1.00  0.00     0.000 A 
ATOM     93  C   UNL A   1      36.040  23.699  26.126  1.00  0.00     0.000 A 
ATOM     94  C   UNL A   1      36.881  22.728  25.596  1.00  0.00     0.000 A 
ENDBRANCH  88  89
BRANCH  88  95
ATOM     95  C   UNL A   1      33.058  23.712  22.414  1.00  0.00     0.171 C 
ATOM     96  O   UNL A   1      32.696  23.694  21.235  1.00  0.00    -0.293 OA
BRANCH  95  97
ATOM     97  C   UNL A   1      32.573  22.594  23.290  1.00  0.00     0.018 A 
ATOM     98  C   UNL A   1      32.812  21.281  22.850  1.00  0.00     0.012 A 
ATOM     99  C   UNL A   1      31.996  22.786  24.546  1.00  0.00     0.012 A 
ATOM    100  C   UNL A   1      32.616  20.197  23.706  1.00  0.00     0.001 A 
ATOM    101  C   UNL A   1      31.818  21.700  25.412  1.00  0.00     0.001 A 
ATOM    102  C   UNL A   1      32.153  20.411  25.000  1.00  0.00     0.000 A 
ENDBRANCH  95  97
ENDBRANCH  88  95
ENDBRANCH  81  88
ENDBRANCH  78  81
ENDBRANCH  76  77
ENDBRANCH  75  76
ENDBRANCH   1  75
TORSDOF 19
ENDMDL
MODEL 2
REMARK VINA RESULT:     -12.0      6.520     11.734
REMARK SMILES O=C(NCCCCNC(=O)[C@@H](c1ccccc1)[C@H](C(=O)c1ccccc1)c1ccccc1)c1ccc(-c2c3nc(c(-c4c(F)cc(S(=O)(=O)[O-])cc4F)c4ccc([nH]4)c(-c4c(F)cc(S(=O)(=O)[O-])cc4F)c4nc(c(-c5c(F)cc(S(=O)(=O)[O-])cc5F)c5ccc2[nH]5)C=C4)C=C3)cc1
REMARK SMILES IDX 5 1 4 2 3 3 1 4 2 5 33 7 34 8 98 9 35 10 97 11 36 12 37 13
REMARK SMILES IDX 38 14 91 15 39 16 96 17 90 18 92 19 40 20 95 21 89 22 88 23
REMARK SMILES IDX 41 25 75 26 54 27 74 28 55 29 58 30 73 31 93 32 56 33 57 34
REMARK SMILES IDX 72 36 94 37 59 38 42 39 43 40 52 41 44 42 45 43 51 44 53 45
REMARK SMILES IDX 46 46 47 47 48 48 49 49 50 50 76 51 77 52 86 53 78 54 79 55
REMARK SMILES IDX 85 56 87 57 80 58 81 59 82 60 83 61 84 62 60 63 61 64 70 65
REMARK SMILES IDX 62 66 63 67 69 68 71 69 64 70 65 71 66 72 67 73 68 74 6 75
REMARK SMILES IDX 7 76 8 77 9 78 10 80 11 81 12 82 13 83 17 84 14 85 16 86
REMARK SMILES IDX 15 87 18 88 27 89 28 90 32 91 29 92 31 93 30 94 19 95 20 96
REMARK SMILES IDX 21 97 22 98 26 99 23 100 25 101 24 102
REMARK H PARENT 3 6 92 24 58 35 8 79
REMARK Flexibility Score: inf
ROOT
ATOM      1  C   UNL A   1      37.734  24.091  26.301  1.00  0.00     0.023 C 
ENDROOT
BRANCH   1   2
ATOM      2  C   UNL A   1      39.095  23.869  26.941  1.00  0.00     0.116 C 
BRANCH   2   3
ATOM      3  N   UNL A   1      40.191  24.232  26.052  1.00  0.00    -0.352 N 
ATOM      4  O   UNL A   1      41.755  25.573  25.138  1.00  0.00    -0.269 OA
ATOM      5  C   UNL A   1      41.015  25.332  26.088  1.00  0.00     0.251 C 
ATOM      6  H   UNL A   1      40.368  23.599  25.320  1.00  0.00     0.163 HD
BRANCH   5   7
ATOM      7  C   UNL A   1      40.985  26.225  27.262  1.00  0.00     0.039 A 
ATOM      8  C   UNL A   1      40.193  25.903  28.368  1.00  0.00     0.014 A 
ATOM      9  C   UNL A   1      41.737  27.401  27.250  1.00  0.00     0.014 A 
ATOM     10  C   UNL A   1      40.025  26.829  29.388  1.00  0.00     0.010 A 
ATOM     11  C   UNL A   1      41.641  28.289  28.323  1.00  0.00     0.010 A 
ATOM     12  C   UNL A   1      40.758  28.025  29.382  1.00  0.00    -0.014 A 
BRANCH  12  13
ATOM     13  C   UNL A   1      40.634  28.965  30.521  1.00  0.00     0.031 A 
ATOM     14  C   UNL A   1      41.530  28.846  31.720  1.00  0.00     0.074 A 
ATOM     15  C   UNL A   1      39.695  29.928  30.463  1.00  0.00     0.049 A 
ATOM     16  N   UNL A   1      41.507  29.527  32.836  1.00  0.00    -0.248 NA
ATOM     17  C   UNL A   1      42.583  27.820  31.664  1.00  0.00     0.031 C 
ATOM     18  C   UNL A   1      38.775  30.139  29.342  1.00  0.00     0.029 A 
ATOM     19  N   UNL A   1      39.353  30.906  31.359  1.00  0.00    -0.354 N 
ATOM     20  C   UNL A   1      42.518  28.996  33.629  1.00  0.00     0.074 A 
ATOM     21  C   UNL A   1      43.126  27.923  32.869  1.00  0.00     0.031 C 
ATOM     22  C   UNL A   1      37.989  31.192  29.609  1.00  0.00     0.029 A 
ATOM     23  C   UNL A   1      38.301  31.684  30.945  1.00  0.00     0.049 A 
ATOM     24  H   UNL A   1      39.819  31.038  32.218  1.00  0.00     0.167 HD
ATOM     25  C   UNL A   1      42.897  29.371  34.874  1.00  0.00     0.037 A 
ATOM     26  C   UNL A   1      37.631  32.663  31.582  1.00  0.00     0.037 A 
ATOM     27  C   UNL A   1      42.287  30.450  35.609  1.00  0.00     0.049 A 
ATOM     28  C   UNL A   1      38.055  33.049  32.966  1.00  0.00     0.074 A 
ATOM     29  C   UNL A   1      42.612  30.928  36.866  1.00  0.00     0.029 A 
ATOM     30  N   UNL A   1      41.223  31.216  35.152  1.00  0.00    -0.354 N 
ATOM     31  N   UNL A   1      39.019  32.543  33.699  1.00  0.00    -0.248 NA
ATOM     32  C   UNL A   1      37.306  34.131  33.614  1.00  0.00     0.031 C 
ATOM     33  C   UNL A   1      41.719  31.957  37.186  1.00  0.00     0.029 A 
ATOM     34  C   UNL A   1      40.867  32.152  36.110  1.00  0.00     0.049 A 
ATOM     35  H   UNL A   1      40.785  31.110  34.278  1.00  0.00     0.167 HD
ATOM     36  C   UNL A   1      39.007  33.260  34.888  1.00  0.00     0.074 A 
ATOM     37  C   UNL A   1      37.942  34.238  34.774  1.00  0.00     0.031 C 
ATOM     38  C   UNL A   1      39.808  33.123  35.972  1.00  0.00     0.037 A 
BRANCH  25  39
ATOM     39  C   UNL A   1      43.999  28.583  35.531  1.00  0.00     0.058 A 
ATOM     40  C   UNL A   1      43.733  27.476  36.352  1.00  0.00     0.135 A 
ATOM     41  C   UNL A   1      45.342  28.941  35.331  1.00  0.00     0.135 A 
ATOM     42  F   UNL A   1      42.467  27.098  36.589  1.00  0.00    -0.206 F 
ATOM     43  C   UNL A   1      44.757  26.779  36.987  1.00  0.00     0.059 A 
ATOM     44  C   UNL A   1      46.384  28.242  35.936  1.00  0.00     0.059 A 
ATOM     45  F   UNL A   1      45.654  29.988  34.552  1.00  0.00    -0.206 F 
ATOM     46  C   UNL A   1      46.079  27.175  36.780  1.00  0.00     0.060 A 
BRANCH  46  47
ATOM     47  S   UNL A   1      47.396  26.289  37.641  1.00  0.00     0.124 S 
ATOM     48  O   UNL A   1      46.663  25.160  38.206  1.00  0.00    -0.237 OA
ATOM     49  O   UNL A   1      48.317  25.965  36.557  1.00  0.00    -0.237 OA
ATOM     50  O   UNL A   1      47.888  27.266  38.608  1.00  0.00    -0.744 OA
ENDBRANCH  46  47
ENDBRANCH  25  39
BRANCH  26  51
ATOM     51  C   UNL A   1      36.491  33.320  30.895  1.00  0.00     0.058 A 
ATOM     52  C   UNL A   1      35.177  33.140  31.345  1.00  0.00     0.135 A 
ATOM     53  C   UNL A   1      36.707  34.215  29.833  1.00  0.00     0.135 A 
ATOM     54  F   UNL A   1      34.923  32.296  32.356  1.00  0.00    -0.206 F 
ATOM     55  C   UNL A   1      34.113  33.832  30.774  1.00  0.00     0.059 A 
ATOM     56  C   UNL A   1      35.664  34.934  29.261  1.00  0.00     0.059 A 
ATOM     57  F   UNL A   1      37.952  34.435  29.383  1.00  0.00    -0.206 F 
ATOM     58  C   UNL A   1      34.369  34.735  29.739  1.00  0.00     0.060 A 
BRANCH  58  59
ATOM     59  S   UNL A   1      32.996  35.699  29.071  1.00  0.00     0.124 S 
ATOM     60  O   UNL A   1      32.362  34.731  28.184  1.00  0.00    -0.237 OA
ATOM     61  O   UNL A   1      32.250  36.046  30.277  1.00  0.00    -0.237 OA
ATOM     62  O   UNL A   1      33.663  36.819  28.413  1.00  0.00    -0.744 OA
ENDBRANCH  58  59
ENDBRANCH  26  51
BRANCH  38  63
ATOM     63  C   UNL A   1      39.594  34.077  37.112  1.00  0.00     0.058 A 
ATOM     64  C   UNL A   1      38.905  33.696  38.273  1.00  0.00     0.135 A 
ATOM     65  C   UNL A   1      40.150  35.365  37.067  1.00  0.00     0.135 A 
ATOM     66  F   UNL A   1      38.346  32.479  38.359  1.00  0.00    -0.206 F 
ATOM     67  C   UNL A   1      38.770  34.565  39.351  1.00  0.00     0.059 A 
ATOM     68  C   UNL A   1      40.046  36.242  38.141  1.00  0.00     0.059 A 
ATOM     69  F   UNL A   1      40.822  35.774  35.978  1.00  0.00    -0.206 F 
ATOM     70  C   UNL A   1      39.349  35.833  39.278  1.00  0.00     0.060 A 
BRANCH  70  71
ATOM     71  S   UNL A   1      39.221  36.929  40.707  1.00  0.00     0.124 S 
ATOM     72  O   UNL A   1      38.562  38.094  40.125  1.00  0.00    -0.237 OA
ATOM     73  O   UNL A   1      38.414  36.141  41.634  1.00  0.00    -0.237 OA
ATOM     74  O   UNL A   1      40.611  37.128  41.108  1.00  0.00    -0.744 OA
ENDBRANCH  70  71
ENDBRANCH  38  63
ENDBRANCH  12  13
ENDBRANCH   5   7
ENDBRANCH   2   3
ENDBRANCH   1   2
BRANCH   1  75
ATOM     75  C   UNL A   1      37.466  23.212  25.091  1.00  0.00     0.023 C 
BRANCH  75  76
ATOM     76  C   UNL A   1      36.852  21.847  25.392  1.00  0.00     0.116 C 
BRANCH  76  77
ATOM     77  N   UNL A   1      35.968  21.797  26.538  1.00  0.00    -0.356 N 
ATOM     78  C   UNL A   1      34.727  22.350  26.712  1.00  0.00     0.228 C 
ATOM     79  H   UNL A   1      36.312  21.290  27.309  1.00  0.00     0.163 HD
ATOM     80  O   UNL A   1      34.181  22.172  27.805  1.00  0.00    -0.274 OA
BRANCH  78  81
ATOM     81  C   UNL A   1      34.025  23.180  25.607  1.00  0.00     0.124 C 
BRANCH  81  82
ATOM     82  C   UNL A   1      33.369  22.305  24.526  1.00  0.00    -0.035 A 
ATOM     83  C   UNL A   1      32.849  21.027  24.784  1.00  0.00     0.004 A 
ATOM     84  C   UNL A   1      33.384  22.708  23.183  1.00  0.00     0.004 A 
ATOM     85  C   UNL A   1      32.191  20.283  23.801  1.00  0.00     0.000 A 
ATOM     86  C   UNL A   1      32.731  21.969  22.190  1.00  0.00     0.000 A 
ATOM     87  C   UNL A   1      32.103  20.771  22.507  1.00  0.00     0.000 A 
ENDBRANCH  81  82
BRANCH  81  88
ATOM     88  C   UNL A   1      33.246  24.379  26.293  1.00  0.00     0.108 C 
BRANCH  88  89
ATOM     89  C   UNL A   1      33.498  25.764  25.632  1.00  0.00    -0.036 A 
ATOM     90  C   UNL A   1      33.246  26.929  26.384  1.00  0.00     0.004 A 
ATOM     91  C   UNL A   1      33.933  25.935  24.306  1.00  0.00     0.004 A 
ATOM     92  C   UNL A   1      33.409  28.203  25.827  1.00  0.00     0.000 A 
ATOM     93  C   UNL A   1      34.102  27.209  23.754  1.00  0.00     0.000 A 
ATOM     94  C   UNL A   1      33.835  28.344  24.511  1.00  0.00     0.000 A 
ENDBRANCH  88  89
BRANCH  88  95
ATOM     95  C   UNL A   1      31.717  24.161  26.453  1.00  0.00     0.171 C 
ATOM     96  O   UNL A   1      31.231  23.619  27.448  1.00  0.00    -0.293 OA
BRANCH  95  97
ATOM     97  C   UNL A   1      30.754  24.686  25.427  1.00  0.00     0.018 A 
ATOM     98  C   UNL A   1      29.898  25.727  25.822  1.00  0.00     0.012 A 
ATOM     99  C   UNL A   1      30.734  24.268  24.096  1.00  0.00     0.012 A 
ATOM    100  C   UNL A   1      29.151  26.431  24.876  1.00  0.00     0.001 A 
ATOM    101  C   UNL A   1      30.001  24.986  23.144  1.00  0.00     0.001 A 
ATOM    102  C   UNL A   1      29.231  26.082  23.532  1.00  0.00     0.000 A 
ENDBRANCH  95  97
ENDBRANCH  88  95
ENDBRANCH  81  88
ENDBRANCH  78  81
ENDBRANCH  76  77
ENDBRANCH  75  76
ENDBRANCH   1  75
TORSDOF 19
ENDMDL
MODEL 3
REMARK VINA RESULT:     -12.0      2.537      4.098
REMARK SMILES O=C(NCCCCNC(=O)[C@@H](c1ccccc1)[C@H](C(=O)c1ccccc1)c1ccccc1)c1ccc(-c2c3nc(c(-c4c(F)cc(S(=O)(=O)[O-])cc4F)c4ccc([nH]4)c(-c4c(F)cc(S(=O)(=O)[O-])cc4F)c4nc(c(-c5c(F)cc(S(=O)(=O)[O-])cc5F)c5ccc2[nH]5)C=C4)C=C3)cc1
REMARK SMILES IDX 5 1 4 2 3 3 1 4 2 5 33 7 34 8 98 9 35 10 97 11 36 12 37 13
REMARK SMILES IDX 38 14 91 15 39 16 96 17 90 18 92 19 40 20 95 21 89 22 88 23
REMARK SMILES IDX 41 25 75 26 54 27 74 28 55 29 58 30 73 31 93 32 56 33 57 34
REMARK SMILES IDX 72 36 94 37 59 38 42 39 43 40 52 41 44 42 45 43 51 44 53 45
REMARK SMILES IDX 46 46 47 47 48 48 49 49 50 50 76 51 77 52 86 53 78 54 79 55
REMARK SMILES IDX 85 56 87 57 80 58 81 59 82 60 83 61 84 62 60 63 61 64 70 65
REMARK SMILES IDX 62 66 63 67 69 68 71 69 64 70 65 71 66 72 67 73 68 74 6 75
REMARK SMILES IDX 7 76 8 77 9 78 10 80 11 81 12 82 13 83 17 84 14 85 16 86
REMARK SMILES IDX 15 87 18 88 27 89 28 90 32 91 29 92 31 93 30 94 19 95 20 96
REMARK SMILES IDX 21 97 22 98 26 99 23 100 25 101 24 102
REMARK H PARENT 3 6 92 24 58 35 8 79
REMARK Flexibility Score: inf
ROOT
ATOM      1  C   UNL A   1      32.916  27.138  25.890  1.00  0.00     0.023 C 
ENDROOT
BRANCH   1   2
ATOM      2  C   UNL A   1      33.847  27.827  26.875  1.00  0.00     0.116 C 
BRANCH   2   3
ATOM      3  N   UNL A   1      33.475  29.217  27.108  1.00  0.00    -0.352 N 
ATOM      4  O   UNL A   1      33.630  31.276  28.011  1.00  0.00    -0.269 OA
ATOM      5  C   UNL A   1      34.184  30.218  27.728  1.00  0.00     0.251 C 
ATOM      6  H   UNL A   1      32.587  29.477  26.773  1.00  0.00     0.163 HD
BRANCH   5   7
ATOM      7  C   UNL A   1      35.603  29.999  28.068  1.00  0.00     0.039 A 
ATOM      8  C   UNL A   1      36.591  30.154  27.091  1.00  0.00     0.014 A 
ATOM      9  C   UNL A   1      35.948  29.617  29.366  1.00  0.00     0.014 A 
ATOM     10  C   UNL A   1      37.896  29.772  27.364  1.00  0.00     0.010 A 
ATOM     11  C   UNL A   1      37.279  29.324  29.665  1.00  0.00     0.010 A 
ATOM     12  C   UNL A   1      38.257  29.367  28.658  1.00  0.00    -0.014 A 
BRANCH  12  13
ATOM     13  C   UNL A   1      39.671  29.045  28.958  1.00  0.00     0.031 A 
ATOM     14  C   UNL A   1      40.588  30.076  29.552  1.00  0.00     0.074 A 
ATOM     15  C   UNL A   1      40.125  27.808  28.680  1.00  0.00     0.049 A 
ATOM     16  N   UNL A   1      41.868  29.993  29.801  1.00  0.00    -0.248 NA
ATOM     17  C   UNL A   1      39.990  31.374  29.902  1.00  0.00     0.031 C 
ATOM     18  C   UNL A   1      39.318  26.726  28.107  1.00  0.00     0.029 A 
ATOM     19  N   UNL A   1      41.365  27.249  28.835  1.00  0.00    -0.354 N 
ATOM     20  C   UNL A   1      42.240  31.233  30.308  1.00  0.00     0.074 A 
ATOM     21  C   UNL A   1      41.048  32.056  30.316  1.00  0.00     0.031 C 
ATOM     22  C   UNL A   1      40.079  25.630  27.979  1.00  0.00     0.029 A 
ATOM     23  C   UNL A   1      41.440  25.951  28.392  1.00  0.00     0.049 A 
ATOM     24  H   UNL A   1      42.130  27.731  29.227  1.00  0.00     0.167 HD
ATOM     25  C   UNL A   1      43.462  31.642  30.724  1.00  0.00     0.037 A 
ATOM     26  C   UNL A   1      42.492  25.118  28.293  1.00  0.00     0.037 A 
ATOM     27  C   UNL A   1      44.634  30.803  30.720  1.00  0.00     0.049 A 
ATOM     28  C   UNL A   1      43.840  25.597  28.742  1.00  0.00     0.074 A 
ATOM     29  C   UNL A   1      45.915  31.110  31.144  1.00  0.00     0.029 A 
ATOM     30  N   UNL A   1      44.667  29.491  30.265  1.00  0.00    -0.354 N 
ATOM     31  N   UNL A   1      44.173  26.769  29.227  1.00  0.00    -0.248 NA
ATOM     32  C   UNL A   1      44.954  24.649  28.629  1.00  0.00     0.031 C 
ATOM     33  C   UNL A   1      46.732  29.998  30.908  1.00  0.00     0.029 A 
ATOM     34  C   UNL A   1      45.950  28.981  30.381  1.00  0.00     0.049 A 
ATOM     35  H   UNL A   1      43.894  28.997  29.911  1.00  0.00     0.167 HD
ATOM     36  C   UNL A   1      45.533  26.694  29.498  1.00  0.00     0.074 A 
ATOM     37  C   UNL A   1      45.959  25.359  29.126  1.00  0.00     0.031 C 
ATOM     38  C   UNL A   1      46.351  27.644  30.013  1.00  0.00     0.037 A 
BRANCH  25  39
ATOM     39  C   UNL A   1      43.599  33.069  31.182  1.00  0.00     0.058 A 
ATOM     40  C   UNL A   1      43.900  34.111  30.291  1.00  0.00     0.135 A 
ATOM     41  C   UNL A   1      43.422  33.398  32.536  1.00  0.00     0.135 A 
ATOM     42  F   UNL A   1      44.093  33.851  28.988  1.00  0.00    -0.206 F 
ATOM     43  C   UNL A   1      44.063  35.421  30.732  1.00  0.00     0.059 A 
ATOM     44  C   UNL A   1      43.555  34.706  32.995  1.00  0.00     0.059 A 
ATOM     45  F   UNL A   1      43.129  32.442  33.432  1.00  0.00    -0.206 F 
ATOM     46  C   UNL A   1      43.898  35.707  32.088  1.00  0.00     0.060 A 
BRANCH  46  47
ATOM     47  S   UNL A   1      44.152  37.403  32.654  1.00  0.00     0.124 S 
ATOM     48  O   UNL A   1      43.980  38.151  31.412  1.00  0.00    -0.237 OA
ATOM     49  O   UNL A   1      43.091  37.566  33.643  1.00  0.00    -0.237 OA
ATOM     50  O   UNL A   1      45.509  37.382  33.192  1.00  0.00    -0.744 OA
ENDBRANCH  46  47
ENDBRANCH  25  39
BRANCH  26  51
ATOM     51  C   UNL A   1      42.285  23.758  27.736  1.00  0.00     0.058 A 
ATOM     52  C   UNL A   1      42.251  23.543  26.351  1.00  0.00     0.135 A 
ATOM     53  C   UNL A   1      42.212  22.636  28.578  1.00  0.00     0.135 A 
ATOM     54  F   UNL A   1      42.317  24.585  25.509  1.00  0.00    -0.206 F 
ATOM     55  C   UNL A   1      42.160  22.262  25.818  1.00  0.00     0.059 A 
ATOM     56  C   UNL A   1      42.144  21.345  28.069  1.00  0.00     0.059 A 
ATOM     57  F   UNL A   1      42.263  22.792  29.910  1.00  0.00    -0.206 F 
ATOM     58  C   UNL A   1      42.118  21.167  26.686  1.00  0.00     0.060 A 
BRANCH  58  59
ATOM     59  S   UNL A   1      42.100  19.505  25.983  1.00  0.00     0.124 S 
ATOM     60  O   UNL A   1      42.596  18.709  27.100  1.00  0.00    -0.237 OA
ATOM     61  O   UNL A   1      40.690  19.328  25.649  1.00  0.00    -0.237 OA
ATOM     62  O   UNL A   1      42.997  19.616  24.837  1.00  0.00    -0.744 OA
ENDBRANCH  58  59
ENDBRANCH  26  51
BRANCH  38  63
ATOM     63  C   UNL A   1      47.786  27.266  30.243  1.00  0.00     0.058 A 
ATOM     64  C   UNL A   1      48.780  27.530  29.290  1.00  0.00     0.135 A 
ATOM     65  C   UNL A   1      48.177  26.698  31.466  1.00  0.00     0.135 A 
ATOM     66  F   UNL A   1      48.454  28.061  28.101  1.00  0.00    -0.206 F 
ATOM     67  C   UNL A   1      50.117  27.237  29.539  1.00  0.00     0.059 A 
ATOM     68  C   UNL A   1      49.511  26.418  31.746  1.00  0.00     0.059 A 
ATOM     69  F   UNL A   1      47.262  26.432  32.412  1.00  0.00    -0.206 F 
ATOM     70  C   UNL A   1      50.473  26.687  30.773  1.00  0.00     0.060 A 
BRANCH  70  71
ATOM     71  S   UNL A   1      52.218  26.369  31.110  1.00  0.00     0.124 S 
ATOM     72  O   UNL A   1      52.151  25.103  31.833  1.00  0.00    -0.237 OA
ATOM     73  O   UNL A   1      52.789  26.304  29.768  1.00  0.00    -0.237 OA
ATOM     74  O   UNL A   1      52.626  27.525  31.903  1.00  0.00    -0.744 OA
ENDBRANCH  70  71
ENDBRANCH  38  63
ENDBRANCH  12  13
ENDBRANCH   5   7
ENDBRANCH   2   3
ENDBRANCH   1   2
BRANCH   1  75
ATOM     75  C   UNL A   1      31.503  26.933  26.409  1.00  0.00     0.023 C 
BRANCH  75  76
ATOM     76  C   UNL A   1      31.022  25.485  26.453  1.00  0.00     0.116 C 
BRANCH  76  77
ATOM     77  N   UNL A   1      30.426  24.985  25.231  1.00  0.00    -0.356 N 
ATOM     78  C   UNL A   1      30.909  24.074  24.329  1.00  0.00     0.228 C 
ATOM     79  H   UNL A   1      29.540  25.357  25.016  1.00  0.00     0.163 HD
ATOM     80  O   UNL A   1      30.203  23.828  23.346  1.00  0.00    -0.274 OA
BRANCH  78  81
ATOM     81  C   UNL A   1      32.284  23.381  24.504  1.00  0.00     0.124 C 
BRANCH  81  82
ATOM     82  C   UNL A   1      32.296  21.933  23.987  1.00  0.00    -0.035 A 
ATOM     83  C   UNL A   1      32.009  21.590  22.656  1.00  0.00     0.004 A 
ATOM     84  C   UNL A   1      32.468  20.864  24.879  1.00  0.00     0.004 A 
ATOM     85  C   UNL A   1      32.100  20.275  22.195  1.00  0.00     0.000 A 
ATOM     86  C   UNL A   1      32.557  19.542  24.428  1.00  0.00     0.000 A 
ATOM     87  C   UNL A   1      32.408  19.251  23.078  1.00  0.00     0.000 A 
ENDBRANCH  81  82
BRANCH  81  88
ATOM     88  C   UNL A   1      33.423  24.413  24.114  1.00  0.00     0.108 C 
BRANCH  88  89
ATOM     89  C   UNL A   1      34.868  23.881  24.330  1.00  0.00    -0.036 A 
ATOM     90  C   UNL A   1      35.439  23.051  23.345  1.00  0.00     0.004 A 
ATOM     91  C   UNL A   1      35.641  24.147  25.475  1.00  0.00     0.004 A 
ATOM     92  C   UNL A   1      36.717  22.503  23.507  1.00  0.00     0.000 A 
ATOM     93  C   UNL A   1      36.921  23.605  25.632  1.00  0.00     0.000 A 
ATOM     94  C   UNL A   1      37.458  22.778  24.651  1.00  0.00     0.000 A 
ENDBRANCH  88  89
BRANCH  88  95
ATOM     95  C   UNL A   1      33.308  25.007  22.683  1.00  0.00     0.171 C 
ATOM     96  O   UNL A   1      33.424  24.312  21.671  1.00  0.00    -0.293 OA
BRANCH  95  97
ATOM     97  C   UNL A   1      32.961  26.453  22.477  1.00  0.00     0.018 A 
ATOM     98  C   UNL A   1      31.600  26.779  22.361  1.00  0.00     0.012 A 
ATOM     99  C   UNL A   1      33.900  27.486  22.492  1.00  0.00     0.012 A 
ATOM    100  C   UNL A   1      31.180  28.108  22.412  1.00  0.00     0.001 A 
ATOM    101  C   UNL A   1      33.477  28.819  22.563  1.00  0.00     0.001 A 
ATOM    102  C   UNL A   1      32.118  29.126  22.549  1.00  0.00     0.000 A 
ENDBRANCH  95  97
ENDBRANCH  88  95
ENDBRANCH  81  88
ENDBRANCH  78  81
ENDBRANCH  76  77
ENDBRANCH  75  76
ENDBRANCH   1  75
TORSDOF 19
ENDMDL
