MODEL 1
REMARK VINA RESULT:     -11.5      0.000      0.000
REMARK SMILES C[C@@](NC(=O)c1cc(Br)c[nH]1)(C(=O)NCCCCNC(=O)c1ccc(-c2c3nc(c(-c4c(F)cc(S(=O)(=O)[O-])cc4F)c4ccc([nH]4)c(-c4c(F)cc(S(=O)(=O)[O-])cc4F)c4nc(c(-c5c(F)cc(S(=O)(=O)[O-])cc5F)c5ccc2[nH]5)C=C4)C=C3)cc1)C(F)(F)F
REMARK SMILES IDX 17 1 16 2 15 3 14 4 12 5 13 6 2 8 1 9 3 10 4 11 5 13 6 14
REMARK SMILES IDX 7 15 11 16 8 17 10 18 9 20 88 21 89 22 90 23 91 24 18 25
REMARK SMILES IDX 19 26 20 27 21 29 22 30 23 31 87 32 24 33 86 34 25 35 26 36
REMARK SMILES IDX 27 37 80 38 28 39 85 40 79 41 81 42 29 43 84 44 78 45 77 46
REMARK SMILES IDX 30 48 64 49 43 50 63 51 44 52 47 53 62 54 82 55 45 56 46 57
REMARK SMILES IDX 61 59 83 60 48 61 31 62 32 63 41 64 33 65 34 66 40 67 42 68
REMARK SMILES IDX 35 69 36 70 37 71 38 72 39 73 65 74 66 75 75 76 67 77 68 78
REMARK SMILES IDX 74 79 76 80 69 81 70 82 71 83 72 84 73 85 49 86 50 87 59 88
REMARK SMILES IDX 51 89 52 90 58 91 60 92 53 93 54 94 55 95 56 96 57 97
REMARK H PARENT 14 7 3 12 11 19 19 28 81 47 47 58
REMARK Flexibility Score: inf
ROOT
ATOM      1  C   UNL A   1      34.222  28.951  27.135  1.00  0.00     0.023 C 
ENDROOT
BRANCH   1   2
ATOM      2  C   UNL A   1      32.971  29.833  27.111  1.00  0.00     0.023 C 
BRANCH   2   3
ATOM      3  C   UNL A   1      32.459  30.172  25.713  1.00  0.00     0.116 C 
BRANCH   3   4
ATOM      4  N   UNL A   1      33.270  29.539  24.685  1.00  0.00    -0.354 N 
ATOM      5  C   UNL A   1      32.949  28.618  23.732  1.00  0.00     0.254 C 
ATOM      6  O   UNL A   1      33.863  28.262  22.985  1.00  0.00    -0.272 OA
ATOM      7  H   UNL A   1      34.212  29.825  24.676  1.00  0.00     0.163 HD
BRANCH   5   8
ATOM      8  C   UNL A   1      31.561  27.960  23.665  1.00  0.00     0.212 C 
ATOM      9  C   UNL A   1      31.686  26.721  22.749  1.00  0.00     0.056 C 
BRANCH   8  10
ATOM     10  N   UNL A   1      31.032  27.505  24.987  1.00  0.00    -0.329 N 
ATOM     11  C   UNL A   1      31.555  26.656  25.931  1.00  0.00     0.268 C 
ATOM     12  H   UNL A   1      30.152  27.880  25.224  1.00  0.00     0.165 HD
ATOM     13  O   UNL A   1      31.098  26.755  27.069  1.00  0.00    -0.268 OA
BRANCH  11  14
ATOM     14  C   UNL A   1      32.451  25.595  25.542  1.00  0.00     0.105 A 
ATOM     15  C   UNL A   1      33.840  25.638  25.599  1.00  0.00     0.049 A 
ATOM     16  N   UNL A   1      32.125  24.372  24.992  1.00  0.00    -0.356 N 
ATOM     17  C   UNL A   1      34.319  24.369  25.233  1.00  0.00     0.036 A 
ATOM     18  C   UNL A   1      33.251  23.595  24.868  1.00  0.00     0.098 A 
ATOM     19  H   UNL A   1      31.219  24.096  24.728  1.00  0.00     0.166 HD
ATOM     20  Br  UNL A   1      36.121  23.867  25.283  1.00  0.00    -0.049 Br
ENDBRANCH  11  14
ENDBRANCH   8  10
BRANCH   8  21
ATOM     21  C   UNL A   1      30.587  28.934  22.968  1.00  0.00     0.420 C 
ATOM     22  F   UNL A   1      31.172  29.688  22.012  1.00  0.00    -0.168 F 
ATOM     23  F   UNL A   1      29.604  28.227  22.343  1.00  0.00    -0.168 F 
ATOM     24  F   UNL A   1      29.963  29.762  23.837  1.00  0.00    -0.168 F 
ENDBRANCH   8  21
ENDBRANCH   5   8
ENDBRANCH   3   4
ENDBRANCH   2   3
ENDBRANCH   1   2
BRANCH   1  25
ATOM     25  C   UNL A   1      35.491  29.636  27.635  1.00  0.00     0.116 C 
BRANCH  25  26
ATOM     26  N   UNL A   1      35.352  30.143  28.992  1.00  0.00    -0.352 N 
ATOM     27  C   UNL A   1      36.309  30.272  29.970  1.00  0.00     0.251 C 
ATOM     28  H   UNL A   1      34.446  30.434  29.246  1.00  0.00     0.163 HD
ATOM     29  O   UNL A   1      35.982  30.563  31.116  1.00  0.00    -0.269 OA
BRANCH  27  30
ATOM     30  C   UNL A   1      37.729  30.028  29.637  1.00  0.00     0.039 A 
ATOM     31  C   UNL A   1      38.613  29.676  30.660  1.00  0.00     0.014 A 
ATOM     32  C   UNL A   1      38.178  30.130  28.318  1.00  0.00     0.014 A 
ATOM     33  C   UNL A   1      39.935  29.356  30.348  1.00  0.00     0.010 A 
ATOM     34  C   UNL A   1      39.480  29.750  28.000  1.00  0.00     0.010 A 
ATOM     35  C   UNL A   1      40.369  29.357  29.011  1.00  0.00    -0.014 A 
BRANCH  35  36
ATOM     36  C   UNL A   1      41.748  28.938  28.653  1.00  0.00     0.031 A 
ATOM     37  C   UNL A   1      42.860  29.951  28.622  1.00  0.00     0.074 A 
ATOM     38  C   UNL A   1      41.985  27.662  28.295  1.00  0.00     0.049 A 
ATOM     39  N   UNL A   1      44.110  29.793  28.269  1.00  0.00    -0.248 NA
ATOM     40  C   UNL A   1      42.515  31.327  29.013  1.00  0.00     0.031 C 
ATOM     41  C   UNL A   1      40.979  26.598  28.235  1.00  0.00     0.029 A 
ATOM     42  N   UNL A   1      43.145  27.043  27.900  1.00  0.00    -0.354 N 
ATOM     43  C   UNL A   1      44.696  31.048  28.384  1.00  0.00     0.074 A 
ATOM     44  C   UNL A   1      43.656  31.965  28.793  1.00  0.00     0.031 C 
ATOM     45  C   UNL A   1      41.567  25.458  27.841  1.00  0.00     0.029 A 
ATOM     46  C   UNL A   1      42.983  25.712  27.592  1.00  0.00     0.049 A 
ATOM     47  H   UNL A   1      44.010  27.506  27.842  1.00  0.00     0.167 HD
ATOM     48  C   UNL A   1      45.990  31.398  28.188  1.00  0.00     0.037 A 
ATOM     49  C   UNL A   1      43.873  24.801  27.152  1.00  0.00     0.037 A 
ATOM     50  C   UNL A   1      47.028  30.478  27.805  1.00  0.00     0.049 A 
ATOM     51  C   UNL A   1      45.308  25.210  26.958  1.00  0.00     0.074 A 
ATOM     52  C   UNL A   1      48.379  30.725  27.632  1.00  0.00     0.029 A 
ATOM     53  N   UNL A   1      46.832  29.130  27.537  1.00  0.00    -0.354 N 
ATOM     54  N   UNL A   1      45.857  26.389  27.128  1.00  0.00    -0.248 NA
ATOM     55  C   UNL A   1      46.244  24.166  26.522  1.00  0.00     0.031 C 
ATOM     56  C   UNL A   1      48.995  29.535  27.231  1.00  0.00     0.029 A 
ATOM     57  C   UNL A   1      48.034  28.536  27.190  1.00  0.00     0.049 A 
ATOM     58  H   UNL A   1      45.966  28.665  27.588  1.00  0.00     0.167 HD
ATOM     59  C   UNL A   1      47.207  26.223  26.840  1.00  0.00     0.074 A 
ATOM     60  C   UNL A   1      47.393  24.828  26.497  1.00  0.00     0.031 C 
ATOM     61  C   UNL A   1      48.202  27.144  26.858  1.00  0.00     0.037 A 
BRANCH  48  62
ATOM     62  C   UNL A   1      46.354  32.841  28.398  1.00  0.00     0.058 A 
ATOM     63  C   UNL A   1      46.837  33.304  29.633  1.00  0.00     0.135 A 
ATOM     64  C   UNL A   1      46.244  33.769  27.349  1.00  0.00     0.135 A 
ATOM     65  F   UNL A   1      46.947  32.461  30.674  1.00  0.00    -0.206 F 
ATOM     66  C   UNL A   1      47.167  34.639  29.832  1.00  0.00     0.059 A 
ATOM     67  C   UNL A   1      46.593  35.106  27.519  1.00  0.00     0.059 A 
ATOM     68  F   UNL A   1      45.789  33.380  26.148  1.00  0.00    -0.206 F 
ATOM     69  C   UNL A   1      47.038  35.534  28.769  1.00  0.00     0.060 A 
BRANCH  69  70
ATOM     70  S   UNL A   1      47.469  37.266  29.041  1.00  0.00     0.124 S 
ATOM     71  O   UNL A   1      48.005  37.223  30.398  1.00  0.00    -0.237 OA
ATOM     72  O   UNL A   1      48.444  37.517  27.984  1.00  0.00    -0.237 OA
ATOM     73  O   UNL A   1      46.195  37.961  28.890  1.00  0.00    -0.744 OA
ENDBRANCH  69  70
ENDBRANCH  48  62
BRANCH  49  74
ATOM     74  C   UNL A   1      43.436  23.405  26.888  1.00  0.00     0.058 A 
ATOM     75  C   UNL A   1      43.331  22.919  25.577  1.00  0.00     0.135 A 
ATOM     76  C   UNL A   1      43.133  22.527  27.940  1.00  0.00     0.135 A 
ATOM     77  F   UNL A   1      43.605  23.724  24.539  1.00  0.00    -0.206 F 
ATOM     78  C   UNL A   1      42.930  21.614  25.315  1.00  0.00     0.059 A 
ATOM     79  C   UNL A   1      42.750  21.210  27.704  1.00  0.00     0.059 A 
ATOM     80  F   UNL A   1      43.236  22.940  29.213  1.00  0.00    -0.206 F 
ATOM     81  C   UNL A   1      42.643  20.765  26.386  1.00  0.00     0.060 A 
BRANCH  81  82
ATOM     82  S   UNL A   1      42.176  19.055  26.038  1.00  0.00     0.124 S 
ATOM     83  O   UNL A   1      42.505  18.398  27.298  1.00  0.00    -0.237 OA
ATOM     84  O   UNL A   1      40.754  19.180  25.735  1.00  0.00    -0.237 OA
ATOM     85  O   UNL A   1      43.021  18.703  24.901  1.00  0.00    -0.744 OA
ENDBRANCH  81  82
ENDBRANCH  49  74
BRANCH  61  86
ATOM     86  C   UNL A   1      49.588  26.668  26.525  1.00  0.00     0.058 A 
ATOM     87  C   UNL A   1      50.447  26.159  27.511  1.00  0.00     0.135 A 
ATOM     88  C   UNL A   1      50.040  26.672  25.196  1.00  0.00     0.135 A 
ATOM     89  F   UNL A   1      50.063  26.140  28.797  1.00  0.00    -0.206 F 
ATOM     90  C   UNL A   1      51.718  25.689  27.193  1.00  0.00     0.059 A 
ATOM     91  C   UNL A   1      51.297  26.186  24.853  1.00  0.00     0.059 A 
ATOM     92  F   UNL A   1      49.252  27.140  24.215  1.00  0.00    -0.206 F 
ATOM     93  C   UNL A   1      52.133  25.705  25.860  1.00  0.00     0.060 A 
BRANCH  93  94
ATOM     94  S   UNL A   1      53.770  25.059  25.453  1.00  0.00     0.124 S 
ATOM     95  O   UNL A   1      54.051  25.743  24.195  1.00  0.00    -0.237 OA
ATOM     96  O   UNL A   1      54.568  25.483  26.598  1.00  0.00    -0.237 OA
ATOM     97  O   UNL A   1      53.549  23.620  25.350  1.00  0.00    -0.744 OA
ENDBRANCH  93  94
ENDBRANCH  61  86
ENDBRANCH  35  36
ENDBRANCH  27  30
ENDBRANCH  25  26
ENDBRANCH   1  25
TORSDOF 17
ENDMDL
MODEL 2
REMARK VINA RESULT:     -11.4      6.750     12.039
REMARK SMILES C[C@@](NC(=O)c1cc(Br)c[nH]1)(C(=O)NCCCCNC(=O)c1ccc(-c2c3nc(c(-c4c(F)cc(S(=O)(=O)[O-])cc4F)c4ccc([nH]4)c(-c4c(F)cc(S(=O)(=O)[O-])cc4F)c4nc(c(-c5c(F)cc(S(=O)(=O)[O-])cc5F)c5ccc2[nH]5)C=C4)C=C3)cc1)C(F)(F)F
REMARK SMILES IDX 17 1 16 2 15 3 14 4 12 5 13 6 2 8 1 9 3 10 4 11 5 13 6 14
REMARK SMILES IDX 7 15 11 16 8 17 10 18 9 20 88 21 89 22 90 23 91 24 18 25
REMARK SMILES IDX 19 26 20 27 21 29 22 30 23 31 87 32 24 33 86 34 25 35 26 36
REMARK SMILES IDX 27 37 80 38 28 39 85 40 79 41 81 42 29 43 84 44 78 45 77 46
REMARK SMILES IDX 30 48 64 49 43 50 63 51 44 52 47 53 62 54 82 55 45 56 46 57
REMARK SMILES IDX 61 59 83 60 48 61 31 62 32 63 41 64 33 65 34 66 40 67 42 68
REMARK SMILES IDX 35 69 36 70 37 71 38 72 39 73 65 74 66 75 75 76 67 77 68 78
REMARK SMILES IDX 74 79 76 80 69 81 70 82 71 83 72 84 73 85 49 86 50 87 59 88
REMARK SMILES IDX 51 89 52 90 58 91 60 92 53 93 54 94 55 95 56 96 57 97
REMARK H PARENT 14 7 3 12 11 19 19 28 81 47 47 58
REMARK Flexibility Score: inf
ROOT
ATOM      1  C   UNL A   1      37.448  23.297  25.593  1.00  0.00     0.023 C 
ENDROOT
BRANCH   1   2
ATOM      2  C   UNL A   1      36.123  23.927  25.152  1.00  0.00     0.023 C 
BRANCH   2   3
ATOM      3  C   UNL A   1      34.882  23.304  25.783  1.00  0.00     0.116 C 
BRANCH   3   4
ATOM      4  N   UNL A   1      34.224  22.389  24.864  1.00  0.00    -0.354 N 
ATOM      5  C   UNL A   1      33.172  22.574  24.017  1.00  0.00     0.254 C 
ATOM      6  O   UNL A   1      32.829  21.596  23.347  1.00  0.00    -0.272 OA
ATOM      7  H   UNL A   1      34.603  21.480  24.853  1.00  0.00     0.163 HD
BRANCH   5   8
ATOM      8  C   UNL A   1      32.369  23.885  23.982  1.00  0.00     0.212 C 
ATOM      9  C   UNL A   1      30.949  23.540  23.480  1.00  0.00     0.056 C 
BRANCH   8  10
ATOM     10  N   UNL A   1      32.239  24.561  25.309  1.00  0.00    -0.329 N 
ATOM     11  C   UNL A   1      31.261  25.380  25.818  1.00  0.00     0.268 C 
ATOM     12  H   UNL A   1      32.985  24.390  25.928  1.00  0.00     0.165 HD
ATOM     13  O   UNL A   1      31.217  25.484  27.043  1.00  0.00    -0.268 OA
BRANCH  11  14
ATOM     14  C   UNL A   1      30.468  26.203  24.939  1.00  0.00     0.105 A 
ATOM     15  C   UNL A   1      30.876  27.395  24.349  1.00  0.00     0.049 A 
ATOM     16  N   UNL A   1      29.155  26.015  24.559  1.00  0.00    -0.356 N 
ATOM     17  C   UNL A   1      29.848  27.817  23.490  1.00  0.00     0.036 A 
ATOM     18  C   UNL A   1      28.795  26.953  23.623  1.00  0.00     0.098 A 
ATOM     19  H   UNL A   1      28.563  25.310  24.906  1.00  0.00     0.166 HD
ATOM     20  Br  UNL A   1      29.964  29.301  22.356  1.00  0.00    -0.049 Br
ENDBRANCH  11  14
ENDBRANCH   8  10
BRANCH   8  21
ATOM     21  C   UNL A   1      33.001  24.820  22.928  1.00  0.00     0.420 C 
ATOM     22  F   UNL A   1      33.735  25.819  23.463  1.00  0.00    -0.168 F 
ATOM     23  F   UNL A   1      33.851  24.107  22.137  1.00  0.00    -0.168 F 
ATOM     24  F   UNL A   1      32.083  25.367  22.097  1.00  0.00    -0.168 F 
ENDBRANCH   8  21
ENDBRANCH   5   8
ENDBRANCH   3   4
ENDBRANCH   2   3
ENDBRANCH   1   2
BRANCH   1  25
ATOM     25  C   UNL A   1      38.352  24.201  26.428  1.00  0.00     0.116 C 
BRANCH  25  26
ATOM     26  N   UNL A   1      39.764  23.978  26.158  1.00  0.00    -0.352 N 
ATOM     27  C   UNL A   1      40.851  24.707  26.579  1.00  0.00     0.251 C 
ATOM     28  H   UNL A   1      39.970  23.196  25.597  1.00  0.00     0.163 HD
ATOM     29  O   UNL A   1      41.963  24.473  26.118  1.00  0.00    -0.269 OA
BRANCH  27  30
ATOM     30  C   UNL A   1      40.663  25.793  27.564  1.00  0.00     0.039 A 
ATOM     31  C   UNL A   1      39.686  25.647  28.553  1.00  0.00     0.014 A 
ATOM     32  C   UNL A   1      41.460  26.939  27.521  1.00  0.00     0.014 A 
ATOM     33  C   UNL A   1      39.558  26.622  29.543  1.00  0.00     0.010 A 
ATOM     34  C   UNL A   1      41.373  27.880  28.544  1.00  0.00     0.010 A 
ATOM     35  C   UNL A   1      40.423  27.729  29.566  1.00  0.00    -0.014 A 
BRANCH  35  36
ATOM     36  C   UNL A   1      40.356  28.732  30.659  1.00  0.00     0.031 A 
ATOM     37  C   UNL A   1      41.247  28.598  31.863  1.00  0.00     0.074 A 
ATOM     38  C   UNL A   1      39.448  29.726  30.596  1.00  0.00     0.049 A 
ATOM     39  N   UNL A   1      41.287  29.332  32.945  1.00  0.00    -0.248 NA
ATOM     40  C   UNL A   1      42.201  27.478  31.861  1.00  0.00     0.031 C 
ATOM     41  C   UNL A   1      38.491  29.930  29.505  1.00  0.00     0.029 A 
ATOM     42  N   UNL A   1      39.170  30.743  31.474  1.00  0.00    -0.354 N 
ATOM     43  C   UNL A   1      42.257  28.756  33.757  1.00  0.00     0.074 A 
ATOM     44  C   UNL A   1      42.749  27.586  33.063  1.00  0.00     0.031 C 
ATOM     45  C   UNL A   1      37.744  31.013  29.773  1.00  0.00     0.029 A 
ATOM     46  C   UNL A   1      38.144  31.562  31.065  1.00  0.00     0.049 A 
ATOM     47  H   UNL A   1      39.659  30.874  32.318  1.00  0.00     0.167 HD
ATOM     48  C   UNL A   1      42.713  29.179  34.961  1.00  0.00     0.037 A 
ATOM     49  C   UNL A   1      37.585  32.631  31.665  1.00  0.00     0.037 A 
ATOM     50  C   UNL A   1      42.239  30.358  35.637  1.00  0.00     0.049 A 
ATOM     51  C   UNL A   1      38.119  33.090  32.994  1.00  0.00     0.074 A 
ATOM     52  C   UNL A   1      42.674  30.897  36.834  1.00  0.00     0.029 A 
ATOM     53  N   UNL A   1      41.224  31.182  35.173  1.00  0.00    -0.354 N 
ATOM     54  N   UNL A   1      39.078  32.568  33.720  1.00  0.00    -0.248 NA
ATOM     55  C   UNL A   1      37.503  34.288  33.581  1.00  0.00     0.031 C 
ATOM     56  C   UNL A   1      41.901  32.031  37.111  1.00  0.00     0.029 A 
ATOM     57  C   UNL A   1      41.010  32.219  36.065  1.00  0.00     0.049 A 
ATOM     58  H   UNL A   1      40.729  31.049  34.332  1.00  0.00     0.167 HD
ATOM     59  C   UNL A   1      39.195  33.384  34.838  1.00  0.00     0.074 A 
ATOM     60  C   UNL A   1      38.217  34.443  34.687  1.00  0.00     0.031 C 
ATOM     61  C   UNL A   1      40.037  33.268  35.895  1.00  0.00     0.037 A 
BRANCH  48  62
ATOM     62  C   UNL A   1      43.790  28.361  35.617  1.00  0.00     0.058 A 
ATOM     63  C   UNL A   1      43.482  27.347  36.538  1.00  0.00     0.135 A 
ATOM     64  C   UNL A   1      45.143  28.575  35.306  1.00  0.00     0.135 A 
ATOM     65  F   UNL A   1      42.205  27.111  36.882  1.00  0.00    -0.206 F 
ATOM     66  C   UNL A   1      44.477  26.595  37.152  1.00  0.00     0.059 A 
ATOM     67  C   UNL A   1      46.155  27.817  35.890  1.00  0.00     0.059 A 
ATOM     68  F   UNL A   1      45.493  29.531  34.432  1.00  0.00    -0.206 F 
ATOM     69  C   UNL A   1      45.812  26.840  36.824  1.00  0.00     0.060 A 
BRANCH  69  70
ATOM     70  S   UNL A   1      47.093  25.857  37.629  1.00  0.00     0.124 S 
ATOM     71  O   UNL A   1      47.173  24.699  36.743  1.00  0.00    -0.237 OA
ATOM     72  O   UNL A   1      48.243  26.755  37.601  1.00  0.00    -0.237 OA
ATOM     73  O   UNL A   1      46.540  25.597  38.954  1.00  0.00    -0.744 OA
ENDBRANCH  69  70
ENDBRANCH  48  62
BRANCH  49  74
ATOM     74  C   UNL A   1      36.469  33.353  31.000  1.00  0.00     0.058 A 
ATOM     75  C   UNL A   1      35.160  33.269  31.495  1.00  0.00     0.135 A 
ATOM     76  C   UNL A   1      36.692  34.156  29.872  1.00  0.00     0.135 A 
ATOM     77  F   UNL A   1      34.897  32.508  32.570  1.00  0.00    -0.206 F 
ATOM     78  C   UNL A   1      34.107  33.944  30.889  1.00  0.00     0.059 A 
ATOM     79  C   UNL A   1      35.659  34.859  29.260  1.00  0.00     0.059 A 
ATOM     80  F   UNL A   1      37.931  34.284  29.371  1.00  0.00    -0.206 F 
ATOM     81  C   UNL A   1      34.367  34.739  29.771  1.00  0.00     0.060 A 
BRANCH  81  82
ATOM     82  S   UNL A   1      33.003  35.657  29.023  1.00  0.00     0.124 S 
ATOM     83  O   UNL A   1      32.242  36.064  30.198  1.00  0.00    -0.237 OA
ATOM     84  O   UNL A   1      33.702  36.724  28.314  1.00  0.00    -0.237 OA
ATOM     85  O   UNL A   1      32.362  34.664  28.167  1.00  0.00    -0.744 OA
ENDBRANCH  81  82
ENDBRANCH  49  74
BRANCH  61  86
ATOM     86  C   UNL A   1      39.958  34.327  36.959  1.00  0.00     0.058 A 
ATOM     87  C   UNL A   1      40.707  35.510  36.874  1.00  0.00     0.135 A 
ATOM     88  C   UNL A   1      39.084  34.177  38.047  1.00  0.00     0.135 A 
ATOM     89  F   UNL A   1      41.562  35.697  35.857  1.00  0.00    -0.206 F 
ATOM     90  C   UNL A   1      40.607  36.503  37.845  1.00  0.00     0.059 A 
ATOM     91  C   UNL A   1      38.951  35.166  39.016  1.00  0.00     0.059 A 
ATOM     92  F   UNL A   1      38.338  33.067  38.168  1.00  0.00    -0.206 F 
ATOM     93  C   UNL A   1      39.724  36.321  38.912  1.00  0.00     0.060 A 
BRANCH  93  94
ATOM     94  S   UNL A   1      39.575  37.631  40.146  1.00  0.00     0.124 S 
ATOM     95  O   UNL A   1      39.784  36.891  41.386  1.00  0.00    -0.237 OA
ATOM     96  O   UNL A   1      40.645  38.546  39.765  1.00  0.00    -0.237 OA
ATOM     97  O   UNL A   1      38.222  38.138  39.939  1.00  0.00    -0.744 OA
ENDBRANCH  93  94
ENDBRANCH  61  86
ENDBRANCH  35  36
ENDBRANCH  27  30
ENDBRANCH  25  26
ENDBRANCH   1  25
TORSDOF 17
ENDMDL
MODEL 3
REMARK VINA RESULT:     -11.3      1.250      1.941
REMARK SMILES C[C@@](NC(=O)c1cc(Br)c[nH]1)(C(=O)NCCCCNC(=O)c1ccc(-c2c3nc(c(-c4c(F)cc(S(=O)(=O)[O-])cc4F)c4ccc([nH]4)c(-c4c(F)cc(S(=O)(=O)[O-])cc4F)c4nc(c(-c5c(F)cc(S(=O)(=O)[O-])cc5F)c5ccc2[nH]5)C=C4)C=C3)cc1)C(F)(F)F
REMARK SMILES IDX 17 1 16 2 15 3 14 4 12 5 13 6 2 8 1 9 3 10 4 11 5 13 6 14
REMARK SMILES IDX 7 15 11 16 8 17 10 18 9 20 88 21 89 22 90 23 91 24 18 25
REMARK SMILES IDX 19 26 20 27 21 29 22 30 23 31 87 32 24 33 86 34 25 35 26 36
REMARK SMILES IDX 27 37 80 38 28 39 85 40 79 41 81 42 29 43 84 44 78 45 77 46
REMARK SMILES IDX 30 48 64 49 43 50 63 51 44 52 47 53 62 54 82 55 45 56 46 57
REMARK SMILES IDX 61 59 83 60 48 61 31 62 32 63 41 64 33 65 34 66 40 67 42 68
REMARK SMILES IDX 35 69 36 70 37 71 38 72 39 73 65 74 66 75 75 76 67 77 68 78
REMARK SMILES IDX 74 79 76 80 69 81 70 82 71 83 72 84 73 85 49 86 50 87 59 88
REMARK SMILES IDX 51 89 52 90 58 91 60 92 53 93 54 94 55 95 56 96 57 97
REMARK H PARENT 14 7 3 12 11 19 19 28 81 47 47 58
REMARK Flexibility Score: inf
ROOT
ATOM      1  C   UNL A   1      33.795  29.414  27.018  1.00  0.00     0.023 C 
ENDROOT
BRANCH   1   2
ATOM      2  C   UNL A   1      33.650  28.529  25.776  1.00  0.00     0.023 C 
BRANCH   2   3
ATOM      3  C   UNL A   1      33.624  27.031  26.064  1.00  0.00     0.116 C 
BRANCH   3   4
ATOM      4  N   UNL A   1      33.963  26.258  24.879  1.00  0.00    -0.354 N 
ATOM      5  C   UNL A   1      33.174  25.587  23.993  1.00  0.00     0.254 C 
ATOM      6  O   UNL A   1      33.756  25.013  23.067  1.00  0.00    -0.272 OA
ATOM      7  H   UNL A   1      34.927  26.213  24.684  1.00  0.00     0.163 HD
BRANCH   5   8
ATOM      8  C   UNL A   1      31.658  25.437  24.196  1.00  0.00     0.212 C 
ATOM      9  C   UNL A   1      31.146  24.450  23.123  1.00  0.00     0.056 C 
BRANCH   8  10
ATOM     10  N   UNL A   1      31.267  24.906  25.538  1.00  0.00    -0.329 N 
ATOM     11  C   UNL A   1      31.795  23.896  26.302  1.00  0.00     0.268 C 
ATOM     12  H   UNL A   1      30.493  25.360  25.945  1.00  0.00     0.165 HD
ATOM     13  O   UNL A   1      31.527  23.921  27.503  1.00  0.00    -0.268 OA
BRANCH  11  14
ATOM     14  C   UNL A   1      32.464  22.781  25.679  1.00  0.00     0.105 A 
ATOM     15  C   UNL A   1      31.887  21.555  25.366  1.00  0.00     0.049 A 
ATOM     16  N   UNL A   1      33.794  22.682  25.326  1.00  0.00    -0.356 N 
ATOM     17  C   UNL A   1      32.847  20.796  24.678  1.00  0.00     0.036 A 
ATOM     18  C   UNL A   1      34.018  21.505  24.653  1.00  0.00     0.098 A 
ATOM     19  H   UNL A   1      34.482  23.355  25.526  1.00  0.00     0.166 HD
ATOM     20  Br  UNL A   1      32.521  19.118  23.919  1.00  0.00    -0.049 Br
ENDBRANCH  11  14
ENDBRANCH   8  10
BRANCH   8  21
ATOM     21  C   UNL A   1      30.987  26.798  23.906  1.00  0.00     0.420 C 
ATOM     22  F   UNL A   1      31.763  27.640  23.192  1.00  0.00    -0.168 F 
ATOM     23  F   UNL A   1      29.860  26.601  23.165  1.00  0.00    -0.168 F 
ATOM     24  F   UNL A   1      30.591  27.437  25.031  1.00  0.00    -0.168 F 
ENDBRANCH   8  21
ENDBRANCH   5   8
ENDBRANCH   3   4
ENDBRANCH   2   3
ENDBRANCH   1   2
BRANCH   1  25
ATOM     25  C   UNL A   1      35.150  29.338  27.716  1.00  0.00     0.116 C 
BRANCH  25  26
ATOM     26  N   UNL A   1      35.237  30.234  28.860  1.00  0.00    -0.352 N 
ATOM     27  C   UNL A   1      36.309  30.483  29.684  1.00  0.00     0.251 C 
ATOM     28  H   UNL A   1      34.415  30.731  29.073  1.00  0.00     0.163 HD
ATOM     29  O   UNL A   1      36.158  31.145  30.705  1.00  0.00    -0.269 OA
BRANCH  27  30
ATOM     30  C   UNL A   1      37.634  29.922  29.345  1.00  0.00     0.039 A 
ATOM     31  C   UNL A   1      38.036  29.895  28.007  1.00  0.00     0.014 A 
ATOM     32  C   UNL A   1      38.481  29.442  30.348  1.00  0.00     0.014 A 
ATOM     33  C   UNL A   1      39.319  29.452  27.682  1.00  0.00     0.010 A 
ATOM     34  C   UNL A   1      39.782  29.059  30.028  1.00  0.00     0.010 A 
ATOM     35  C   UNL A   1      40.213  29.063  28.693  1.00  0.00    -0.014 A 
BRANCH  35  36
ATOM     36  C   UNL A   1      41.608  28.668  28.372  1.00  0.00     0.031 A 
ATOM     37  C   UNL A   1      42.695  29.707  28.324  1.00  0.00     0.074 A 
ATOM     38  C   UNL A   1      41.883  27.386  28.061  1.00  0.00     0.049 A 
ATOM     39  N   UNL A   1      43.954  29.568  27.998  1.00  0.00    -0.248 NA
ATOM     40  C   UNL A   1      42.309  31.086  28.663  1.00  0.00     0.031 C 
ATOM     41  C   UNL A   1      40.904  26.297  28.020  1.00  0.00     0.029 A 
ATOM     42  N   UNL A   1      43.063  26.784  27.706  1.00  0.00    -0.354 N 
ATOM     43  C   UNL A   1      44.508  30.840  28.080  1.00  0.00     0.074 A 
ATOM     44  C   UNL A   1      43.438  31.745  28.440  1.00  0.00     0.031 C 
ATOM     45  C   UNL A   1      41.527  25.158  27.675  1.00  0.00     0.029 A 
ATOM     46  C   UNL A   1      42.940  25.440  27.441  1.00  0.00     0.049 A 
ATOM     47  H   UNL A   1      43.918  27.267  27.647  1.00  0.00     0.167 HD
ATOM     48  C   UNL A   1      45.796  31.216  27.893  1.00  0.00     0.037 A 
ATOM     49  C   UNL A   1      43.860  24.537  27.047  1.00  0.00     0.037 A 
ATOM     50  C   UNL A   1      46.863  30.310  27.559  1.00  0.00     0.049 A 
ATOM     51  C   UNL A   1      45.287  24.976  26.862  1.00  0.00     0.074 A 
ATOM     52  C   UNL A   1      48.209  30.586  27.400  1.00  0.00     0.029 A 
ATOM     53  N   UNL A   1      46.704  28.950  27.333  1.00  0.00    -0.354 N 
ATOM     54  N   UNL A   1      45.804  26.172  27.001  1.00  0.00    -0.248 NA
ATOM     55  C   UNL A   1      46.256  23.941  26.477  1.00  0.00     0.031 C 
ATOM     56  C   UNL A   1      48.861  29.398  27.049  1.00  0.00     0.029 A 
ATOM     57  C   UNL A   1      47.926  28.375  27.026  1.00  0.00     0.049 A 
ATOM     58  H   UNL A   1      45.849  28.465  27.386  1.00  0.00     0.167 HD
ATOM     59  C   UNL A   1      47.162  26.032  26.741  1.00  0.00     0.074 A 
ATOM     60  C   UNL A   1      47.388  24.631  26.449  1.00  0.00     0.031 C 
ATOM     61  C   UNL A   1      48.134  26.977  26.745  1.00  0.00     0.037 A 
BRANCH  48  62
ATOM     62  C   UNL A   1      46.121  32.674  28.060  1.00  0.00     0.058 A 
ATOM     63  C   UNL A   1      46.574  33.189  29.286  1.00  0.00     0.135 A 
ATOM     64  C   UNL A   1      46.002  33.564  26.980  1.00  0.00     0.135 A 
ATOM     65  F   UNL A   1      46.690  32.384  30.355  1.00  0.00    -0.206 F 
ATOM     66  C   UNL A   1      46.868  34.539  29.444  1.00  0.00     0.059 A 
ATOM     67  C   UNL A   1      46.315  34.915  27.109  1.00  0.00     0.059 A 
ATOM     68  F   UNL A   1      45.574  33.125  25.786  1.00  0.00    -0.206 F 
ATOM     69  C   UNL A   1      46.732  35.395  28.350  1.00  0.00     0.060 A 
BRANCH  69  70
ATOM     70  S   UNL A   1      47.115  37.145  28.571  1.00  0.00     0.124 S 
ATOM     71  O   UNL A   1      48.426  37.238  27.936  1.00  0.00    -0.237 OA
ATOM     72  O   UNL A   1      46.021  37.798  27.860  1.00  0.00    -0.237 OA
ATOM     73  O   UNL A   1      47.105  37.315  30.020  1.00  0.00    -0.744 OA
ENDBRANCH  69  70
ENDBRANCH  48  62
BRANCH  49  74
ATOM     74  C   UNL A   1      43.461  23.123  26.823  1.00  0.00     0.058 A 
ATOM     75  C   UNL A   1      43.395  22.589  25.528  1.00  0.00     0.135 A 
ATOM     76  C   UNL A   1      43.158  22.274  27.899  1.00  0.00     0.135 A 
ATOM     77  F   UNL A   1      43.671  23.365  24.468  1.00  0.00    -0.206 F 
ATOM     78  C   UNL A   1      43.031  21.266  25.304  1.00  0.00     0.059 A 
ATOM     79  C   UNL A   1      42.811  20.941  27.701  1.00  0.00     0.059 A 
ATOM     80  F   UNL A   1      43.224  22.733  29.158  1.00  0.00    -0.206 F 
ATOM     81  C   UNL A   1      42.742  20.449  26.398  1.00  0.00     0.060 A 
BRANCH  81  82
ATOM     82  S   UNL A   1      42.323  18.716  26.101  1.00  0.00     0.124 S 
ATOM     83  O   UNL A   1      40.910  18.811  25.751  1.00  0.00    -0.237 OA
ATOM     84  O   UNL A   1      43.229  18.363  25.012  1.00  0.00    -0.237 OA
ATOM     85  O   UNL A   1      42.617  18.079  27.380  1.00  0.00    -0.744 OA
ENDBRANCH  81  82
ENDBRANCH  49  74
BRANCH  61  86
ATOM     86  C   UNL A   1      49.537  26.525  26.450  1.00  0.00     0.058 A 
ATOM     87  C   UNL A   1      50.056  26.542  25.147  1.00  0.00     0.135 A 
ATOM     88  C   UNL A   1      50.386  26.121  27.493  1.00  0.00     0.135 A 
ATOM     89  F   UNL A   1      49.282  26.914  24.116  1.00  0.00    -0.206 F 
ATOM     90  C   UNL A   1      51.366  26.154  24.884  1.00  0.00     0.059 A 
ATOM     91  C   UNL A   1      51.706  25.751  27.255  1.00  0.00     0.059 A 
ATOM     92  F   UNL A   1      49.939  26.096  28.758  1.00  0.00    -0.206 F 
ATOM     93  C   UNL A   1      52.184  25.761  25.945  1.00  0.00     0.060 A 
BRANCH  93  94
ATOM     94  S   UNL A   1      53.893  25.294  25.597  1.00  0.00     0.124 S 
ATOM     95  O   UNL A   1      53.710  24.096  24.783  1.00  0.00    -0.237 OA
ATOM     96  O   UNL A   1      54.403  26.467  24.895  1.00  0.00    -0.237 OA
ATOM     97  O   UNL A   1      54.460  25.071  26.924  1.00  0.00    -0.744 OA
ENDBRANCH  93  94
ENDBRANCH  61  86
ENDBRANCH  35  36
ENDBRANCH  27  30
ENDBRANCH  25  26
ENDBRANCH   1  25
TORSDOF 17
ENDMDL
