MODEL 1
REMARK VINA RESULT:     -11.9      0.000      0.000
REMARK SMILES CC[NH+]1CC[NH+]([C@@H]2CC(=O)N(c3ccc(C(=O)NCCCCNC(=O)c4ccc(-c5c6nc(c(-c7c(F)cc(S(=O)(=O)[O-])cc7F)c7ccc([nH]7)c(-c7c(F)cc(S(=O)(=O)[O-])cc7F)c7nc(c(-c8c(F)cc(S(=O)(=O)[O-])cc8F)c8ccc5[nH]8)C=C7)C=C6)cc4)cc3)C2=O)CC1
REMARK SMILES IDX 20 1 19 2 18 3 16 4 17 5 15 7 12 8 13 9 93 10 14 11 92 12
REMARK SMILES IDX 11 13 7 14 8 15 94 16 9 17 95 18 10 19 6 20 3 21 4 22 97 23
REMARK SMILES IDX 5 25 96 26 2 28 1 29 21 30 22 31 23 32 24 33 25 35 26 36
REMARK SMILES IDX 27 37 91 38 28 39 90 40 29 41 30 42 31 43 84 44 32 45 89 46
REMARK SMILES IDX 83 47 85 48 33 49 88 50 82 51 81 52 34 54 68 55 47 56 67 57
REMARK SMILES IDX 48 58 51 59 66 60 86 61 49 62 50 63 65 65 87 66 52 67 35 68
REMARK SMILES IDX 36 69 45 70 37 71 38 72 44 73 46 74 39 75 40 76 41 77 42 78
REMARK SMILES IDX 43 79 69 80 70 81 79 82 71 83 72 84 78 85 80 86 73 87 74 88
REMARK SMILES IDX 75 89 76 90 77 91 53 92 54 93 63 94 55 95 56 96 62 97 64 98
REMARK SMILES IDX 57 99 58 100 59 101 60 102 61 103
REMARK H PARENT 18 6 3 24 6 27 23 34 85 53 51 64
REMARK Flexibility Score: inf
ROOT
ATOM      1  C   UNL A   1      42.704  22.818  28.506  1.00  0.00     0.023 C 
ENDROOT
BRANCH   1   2
ATOM      2  C   UNL A   1      41.432  22.006  28.238  1.00  0.00     0.116 C 
BRANCH   2   3
ATOM      3  N   UNL A   1      41.718  20.854  27.404  1.00  0.00    -0.352 N 
ATOM      4  C   UNL A   1      41.018  20.256  26.387  1.00  0.00     0.251 C 
ATOM      5  O   UNL A   1      41.549  19.302  25.817  1.00  0.00    -0.269 OA
ATOM      6  H   UNL A   1      42.578  20.420  27.605  1.00  0.00     0.163 HD
BRANCH   4   7
ATOM      7  C   UNL A   1      39.674  20.716  25.918  1.00  0.00     0.039 A 
ATOM      8  C   UNL A   1      37.165  21.747  25.112  1.00  0.00     0.052 A 
ATOM      9  C   UNL A   1      38.123  22.588  25.687  1.00  0.00     0.027 A 
ATOM     10  C   UNL A   1      37.482  20.405  24.916  1.00  0.00     0.027 A 
ATOM     11  C   UNL A   1      39.354  22.069  26.112  1.00  0.00     0.016 A 
ATOM     12  C   UNL A   1      38.737  19.913  25.271  1.00  0.00     0.016 A 
BRANCH   8  13
ATOM     13  N   UNL A   1      35.900  22.228  24.725  1.00  0.00    -0.245 N 
ATOM     14  C   UNL A   1      34.209  23.350  23.543  1.00  0.00     0.285 C 
ATOM     15  C   UNL A   1      33.600  22.646  24.747  1.00  0.00     0.176 C 
ATOM     16  C   UNL A   1      35.669  22.913  23.556  1.00  0.00     0.292 C 
ATOM     17  C   UNL A   1      34.758  22.027  25.458  1.00  0.00     0.240 C 
ATOM     18  O   UNL A   1      36.466  23.139  22.654  1.00  0.00    -0.267 OA
ATOM     19  O   UNL A   1      34.637  21.467  26.540  1.00  0.00    -0.274 OA
BRANCH  14  20
ATOM     20  N   UNL A   1      34.091  24.814  23.413  1.00  0.00    -0.315 N 
ATOM     21  N   UNL A   1      31.499  26.297  23.842  1.00  0.00    -0.326 N 
ATOM     22  C   UNL A   1      31.780  25.565  22.589  1.00  0.00     0.324 C 
ATOM     23  C   UNL A   1      32.291  25.723  24.946  1.00  0.00     0.324 C 
ATOM     24  H   UNL A   1      30.515  26.188  24.087  1.00  0.00     0.348 HD
ATOM     25  C   UNL A   1      33.272  25.276  22.283  1.00  0.00     0.325 C 
ATOM     26  C   UNL A   1      33.792  25.572  24.635  1.00  0.00     0.325 C 
ATOM     27  H   UNL A   1      35.061  25.044  23.197  1.00  0.00     0.349 HD
BRANCH  21  28
ATOM     28  C   UNL A   1      31.715  27.741  23.668  1.00  0.00     0.259 C 
ATOM     29  C   UNL A   1      31.455  28.532  24.947  1.00  0.00     0.071 C 
ENDBRANCH  21  28
ENDBRANCH  14  20
ENDBRANCH   8  13
ENDBRANCH   4   7
ENDBRANCH   2   3
ENDBRANCH   1   2
BRANCH   1  30
ATOM     30  C   UNL A   1      43.698  22.834  27.346  1.00  0.00     0.023 C 
BRANCH  30  31
ATOM     31  C   UNL A   1      43.877  24.192  26.684  1.00  0.00     0.116 C 
BRANCH  31  32
ATOM     32  N   UNL A   1      42.821  24.515  25.736  1.00  0.00    -0.352 N 
ATOM     33  C   UNL A   1      41.775  25.394  25.902  1.00  0.00     0.251 C 
ATOM     34  H   UNL A   1      42.859  24.046  24.872  1.00  0.00     0.163 HD
ATOM     35  O   UNL A   1      40.901  25.487  25.056  1.00  0.00    -0.269 OA
BRANCH  33  36
ATOM     36  C   UNL A   1      41.708  26.186  27.149  1.00  0.00     0.039 A 
ATOM     37  C   UNL A   1      42.524  27.313  27.272  1.00  0.00     0.014 A 
ATOM     38  C   UNL A   1      40.802  25.850  28.158  1.00  0.00     0.014 A 
ATOM     39  C   UNL A   1      42.381  28.144  28.383  1.00  0.00     0.010 A 
ATOM     40  C   UNL A   1      40.616  26.715  29.231  1.00  0.00     0.010 A 
ATOM     41  C   UNL A   1      41.402  27.872  29.352  1.00  0.00    -0.014 A 
BRANCH  41  42
ATOM     42  C   UNL A   1      41.177  28.787  30.498  1.00  0.00     0.031 A 
ATOM     43  C   UNL A   1      42.024  28.661  31.734  1.00  0.00     0.074 A 
ATOM     44  C   UNL A   1      40.165  29.675  30.450  1.00  0.00     0.049 A 
ATOM     45  N   UNL A   1      41.933  29.311  32.864  1.00  0.00    -0.248 NA
ATOM     46  C   UNL A   1      43.097  27.653  31.707  1.00  0.00     0.031 C 
ATOM     47  C   UNL A   1      39.239  29.849  29.328  1.00  0.00     0.029 A 
ATOM     48  N   UNL A   1      39.734  30.592  31.377  1.00  0.00    -0.354 N 
ATOM     49  C   UNL A   1      42.915  28.777  33.689  1.00  0.00     0.074 A 
ATOM     50  C   UNL A   1      43.568  27.723  32.945  1.00  0.00     0.031 C 
ATOM     51  C   UNL A   1      38.364  30.824  29.624  1.00  0.00     0.029 A 
ATOM     52  C   UNL A   1      38.644  31.322  30.968  1.00  0.00     0.049 A 
ATOM     53  H   UNL A   1      40.166  30.714  32.253  1.00  0.00     0.167 HD
ATOM     54  C   UNL A   1      43.254  29.147  34.947  1.00  0.00     0.037 A 
ATOM     55  C   UNL A   1      37.945  32.282  31.606  1.00  0.00     0.037 A 
ATOM     56  C   UNL A   1      42.635  30.232  35.662  1.00  0.00     0.049 A 
ATOM     57  C   UNL A   1      38.364  32.690  32.993  1.00  0.00     0.074 A 
ATOM     58  C   UNL A   1      42.969  30.742  36.903  1.00  0.00     0.029 A 
ATOM     59  N   UNL A   1      41.560  30.974  35.199  1.00  0.00    -0.354 N 
ATOM     60  N   UNL A   1      39.349  32.228  33.726  1.00  0.00    -0.248 NA
ATOM     61  C   UNL A   1      37.581  33.755  33.638  1.00  0.00     0.031 C 
ATOM     62  C   UNL A   1      42.072  31.772  37.208  1.00  0.00     0.029 A 
ATOM     63  C   UNL A   1      41.206  31.928  36.138  1.00  0.00     0.049 A 
ATOM     64  H   UNL A   1      41.115  30.843  34.331  1.00  0.00     0.167 HD
ATOM     65  C   UNL A   1      39.323  32.967  34.904  1.00  0.00     0.074 A 
ATOM     66  C   UNL A   1      38.232  33.911  34.783  1.00  0.00     0.031 C 
ATOM     67  C   UNL A   1      40.130  32.873  35.989  1.00  0.00     0.037 A 
BRANCH  54  68
ATOM     68  C   UNL A   1      44.355  28.388  35.631  1.00  0.00     0.058 A 
ATOM     69  C   UNL A   1      45.699  28.777  35.515  1.00  0.00     0.135 A 
ATOM     70  C   UNL A   1      44.056  27.302  36.470  1.00  0.00     0.135 A 
ATOM     71  F   UNL A   1      46.039  29.797  34.713  1.00  0.00    -0.206 F 
ATOM     72  C   UNL A   1      46.709  28.109  36.198  1.00  0.00     0.059 A 
ATOM     73  C   UNL A   1      45.048  26.634  37.180  1.00  0.00     0.059 A 
ATOM     74  F   UNL A   1      42.787  26.887  36.612  1.00  0.00    -0.206 F 
ATOM     75  C   UNL A   1      46.373  27.040  37.032  1.00  0.00     0.060 A 
BRANCH  75  76
ATOM     76  S   UNL A   1      47.693  26.209  37.941  1.00  0.00     0.124 S 
ATOM     77  O   UNL A   1      47.585  24.847  37.429  1.00  0.00    -0.237 OA
ATOM     78  O   UNL A   1      48.877  26.951  37.522  1.00  0.00    -0.237 OA
ATOM     79  O   UNL A   1      47.306  26.387  39.337  1.00  0.00    -0.744 OA
ENDBRANCH  75  76
ENDBRANCH  54  68
BRANCH  55  80
ATOM     80  C   UNL A   1      36.789  32.940  30.944  1.00  0.00     0.058 A 
ATOM     81  C   UNL A   1      36.987  33.902  29.942  1.00  0.00     0.135 A 
ATOM     82  C   UNL A   1      35.468  32.645  31.315  1.00  0.00     0.135 A 
ATOM     83  F   UNL A   1      38.232  34.220  29.556  1.00  0.00    -0.206 F 
ATOM     84  C   UNL A   1      35.919  34.573  29.354  1.00  0.00     0.059 A 
ATOM     85  C   UNL A   1      34.383  33.286  30.725  1.00  0.00     0.059 A 
ATOM     86  F   UNL A   1      35.224  31.718  32.254  1.00  0.00    -0.206 F 
ATOM     87  C   UNL A   1      34.621  34.263  29.758  1.00  0.00     0.060 A 
BRANCH  87  88
ATOM     88  S   UNL A   1      33.239  35.131  28.985  1.00  0.00     0.124 S 
ATOM     89  O   UNL A   1      32.376  35.386  30.131  1.00  0.00    -0.237 OA
ATOM     90  O   UNL A   1      33.894  36.301  28.406  1.00  0.00    -0.237 OA
ATOM     91  O   UNL A   1      32.736  34.161  28.016  1.00  0.00    -0.744 OA
ENDBRANCH  87  88
ENDBRANCH  55  80
BRANCH  67  92
ATOM     92  C   UNL A   1      39.895  33.842  37.112  1.00  0.00     0.058 A 
ATOM     93  C   UNL A   1      40.483  35.116  37.119  1.00  0.00     0.135 A 
ATOM     94  C   UNL A   1      39.028  33.510  38.165  1.00  0.00     0.135 A 
ATOM     95  F   UNL A   1      41.324  35.478  36.137  1.00  0.00    -0.206 F 
ATOM     96  C   UNL A   1      40.235  36.022  38.144  1.00  0.00     0.059 A 
ATOM     97  C   UNL A   1      38.747  34.409  39.188  1.00  0.00     0.059 A 
ATOM     98  F   UNL A   1      38.434  32.306  38.198  1.00  0.00    -0.206 F 
ATOM     99  C   UNL A   1      39.365  35.660  39.175  1.00  0.00     0.060 A 
BRANCH  99 100
ATOM    100  S   UNL A   1      39.020  36.857  40.482  1.00  0.00     0.124 S 
ATOM    101  O   UNL A   1      40.361  37.134  40.986  1.00  0.00    -0.237 OA
ATOM    102  O   UNL A   1      38.381  37.946  39.750  1.00  0.00    -0.237 OA
ATOM    103  O   UNL A   1      38.145  36.123  41.391  1.00  0.00    -0.744 OA
ENDBRANCH  99 100
ENDBRANCH  67  92
ENDBRANCH  41  42
ENDBRANCH  33  36
ENDBRANCH  31  32
ENDBRANCH  30  31
ENDBRANCH   1  30
TORSDOF 17
ENDMDL
MODEL 2
REMARK VINA RESULT:     -11.7      1.272      2.378
REMARK SMILES CC[NH+]1CC[NH+]([C@@H]2CC(=O)N(c3ccc(C(=O)NCCCCNC(=O)c4ccc(-c5c6nc(c(-c7c(F)cc(S(=O)(=O)[O-])cc7F)c7ccc([nH]7)c(-c7c(F)cc(S(=O)(=O)[O-])cc7F)c7nc(c(-c8c(F)cc(S(=O)(=O)[O-])cc8F)c8ccc5[nH]8)C=C7)C=C6)cc4)cc3)C2=O)CC1
REMARK SMILES IDX 20 1 19 2 18 3 16 4 17 5 15 7 12 8 13 9 93 10 14 11 92 12
REMARK SMILES IDX 11 13 7 14 8 15 94 16 9 17 95 18 10 19 6 20 3 21 4 22 97 23
REMARK SMILES IDX 5 25 96 26 2 28 1 29 21 30 22 31 23 32 24 33 25 35 26 36
REMARK SMILES IDX 27 37 91 38 28 39 90 40 29 41 30 42 31 43 84 44 32 45 89 46
REMARK SMILES IDX 83 47 85 48 33 49 88 50 82 51 81 52 34 54 68 55 47 56 67 57
REMARK SMILES IDX 48 58 51 59 66 60 86 61 49 62 50 63 65 65 87 66 52 67 35 68
REMARK SMILES IDX 36 69 45 70 37 71 38 72 44 73 46 74 39 75 40 76 41 77 42 78
REMARK SMILES IDX 43 79 69 80 70 81 79 82 71 83 72 84 78 85 80 86 73 87 74 88
REMARK SMILES IDX 75 89 76 90 77 91 53 92 54 93 63 94 55 95 56 96 62 97 64 98
REMARK SMILES IDX 57 99 58 100 59 101 60 102 61 103
REMARK H PARENT 18 6 3 24 6 27 23 34 85 53 51 64
REMARK Flexibility Score: inf
ROOT
ATOM      1  C   UNL A   1      40.075  22.915  27.596  1.00  0.00     0.023 C 
ENDROOT
BRANCH   1   2
ATOM      2  C   UNL A   1      39.034  23.152  26.496  1.00  0.00     0.116 C 
BRANCH   2   3
ATOM      3  N   UNL A   1      38.706  21.914  25.817  1.00  0.00    -0.352 N 
ATOM      4  C   UNL A   1      37.574  21.492  25.167  1.00  0.00     0.251 C 
ATOM      5  O   UNL A   1      37.608  20.383  24.630  1.00  0.00    -0.269 OA
ATOM      6  H   UNL A   1      39.434  21.251  25.822  1.00  0.00     0.163 HD
BRANCH   4   7
ATOM      7  C   UNL A   1      36.327  22.308  25.050  1.00  0.00     0.039 A 
ATOM      8  C   UNL A   1      33.996  23.862  24.646  1.00  0.00     0.052 A 
ATOM      9  C   UNL A   1      34.698  23.345  23.553  1.00  0.00     0.027 A 
ATOM     10  C   UNL A   1      34.447  23.571  25.931  1.00  0.00     0.027 A 
ATOM     11  C   UNL A   1      35.868  22.600  23.755  1.00  0.00     0.016 A 
ATOM     12  C   UNL A   1      35.568  22.766  26.125  1.00  0.00     0.016 A 
BRANCH   8  13
ATOM     13  N   UNL A   1      32.848  24.659  24.475  1.00  0.00    -0.245 N 
ATOM     14  C   UNL A   1      31.459  26.521  24.129  1.00  0.00     0.285 C 
ATOM     15  C   UNL A   1      30.599  25.284  24.342  1.00  0.00     0.176 C 
ATOM     16  C   UNL A   1      32.885  25.983  24.111  1.00  0.00     0.292 C 
ATOM     17  C   UNL A   1      31.569  24.182  24.618  1.00  0.00     0.240 C 
ATOM     18  O   UNL A   1      33.870  26.645  23.804  1.00  0.00    -0.267 OA
ATOM     19  O   UNL A   1      31.207  23.060  24.943  1.00  0.00    -0.274 OA
BRANCH  14  20
ATOM     20  N   UNL A   1      31.333  27.670  25.045  1.00  0.00    -0.315 N 
ATOM     21  N   UNL A   1      33.692  29.331  25.926  1.00  0.00    -0.326 N 
ATOM     22  C   UNL A   1      33.405  28.008  26.520  1.00  0.00     0.324 C 
ATOM     23  C   UNL A   1      33.113  29.409  24.572  1.00  0.00     0.324 C 
ATOM     24  H   UNL A   1      34.700  29.451  25.832  1.00  0.00     0.348 HD
ATOM     25  C   UNL A   1      31.953  27.487  26.364  1.00  0.00     0.325 C 
ATOM     26  C   UNL A   1      31.631  28.999  24.494  1.00  0.00     0.325 C 
ATOM     27  H   UNL A   1      30.323  27.667  25.182  1.00  0.00     0.349 HD
BRANCH  21  28
ATOM     28  C   UNL A   1      33.236  30.414  26.811  1.00  0.00     0.259 C 
ATOM     29  C   UNL A   1      34.375  31.034  27.616  1.00  0.00     0.071 C 
ENDBRANCH  21  28
ENDBRANCH  14  20
ENDBRANCH   8  13
ENDBRANCH   4   7
ENDBRANCH   2   3
ENDBRANCH   1   2
BRANCH   1  30
ATOM     30  C   UNL A   1      41.397  22.333  27.098  1.00  0.00     0.023 C 
BRANCH  30  31
ATOM     31  C   UNL A   1      42.534  23.340  26.997  1.00  0.00     0.116 C 
BRANCH  31  32
ATOM     32  N   UNL A   1      42.438  24.202  25.829  1.00  0.00    -0.352 N 
ATOM     33  C   UNL A   1      42.142  25.546  25.791  1.00  0.00     0.251 C 
ATOM     34  H   UNL A   1      42.605  23.772  24.960  1.00  0.00     0.163 HD
ATOM     35  O   UNL A   1      41.994  26.119  24.724  1.00  0.00    -0.269 OA
BRANCH  33  36
ATOM     36  C   UNL A   1      41.958  26.266  27.069  1.00  0.00     0.039 A 
ATOM     37  C   UNL A   1      42.974  27.115  27.513  1.00  0.00     0.014 A 
ATOM     38  C   UNL A   1      40.765  26.147  27.788  1.00  0.00     0.014 A 
ATOM     39  C   UNL A   1      42.764  27.900  28.647  1.00  0.00     0.010 A 
ATOM     40  C   UNL A   1      40.534  26.978  28.879  1.00  0.00     0.010 A 
ATOM     41  C   UNL A   1      41.530  27.865  29.317  1.00  0.00    -0.014 A 
BRANCH  41  42
ATOM     42  C   UNL A   1      41.257  28.751  30.474  1.00  0.00     0.031 A 
ATOM     43  C   UNL A   1      42.057  28.600  31.738  1.00  0.00     0.074 A 
ATOM     44  C   UNL A   1      40.243  29.636  30.409  1.00  0.00     0.049 A 
ATOM     45  N   UNL A   1      41.919  29.223  32.879  1.00  0.00    -0.248 NA
ATOM     46  C   UNL A   1      43.136  27.598  31.729  1.00  0.00     0.031 C 
ATOM     47  C   UNL A   1      39.360  29.832  29.256  1.00  0.00     0.029 A 
ATOM     48  N   UNL A   1      39.772  30.528  31.340  1.00  0.00    -0.354 N 
ATOM     49  C   UNL A   1      42.872  28.673  33.729  1.00  0.00     0.074 A 
ATOM     50  C   UNL A   1      43.559  27.641  32.986  1.00  0.00     0.031 C 
ATOM     51  C   UNL A   1      38.468  30.796  29.542  1.00  0.00     0.029 A 
ATOM     52  C   UNL A   1      38.694  31.263  30.906  1.00  0.00     0.049 A 
ATOM     53  H   UNL A   1      40.169  30.632  32.235  1.00  0.00     0.167 HD
ATOM     54  C   UNL A   1      43.160  29.015  35.007  1.00  0.00     0.037 A 
ATOM     55  C   UNL A   1      37.966  32.204  31.540  1.00  0.00     0.037 A 
ATOM     56  C   UNL A   1      42.509  30.080  35.723  1.00  0.00     0.049 A 
ATOM     57  C   UNL A   1      38.330  32.581  32.952  1.00  0.00     0.074 A 
ATOM     58  C   UNL A   1      42.792  30.562  36.988  1.00  0.00     0.029 A 
ATOM     59  N   UNL A   1      41.449  30.828  35.237  1.00  0.00    -0.354 N 
ATOM     60  N   UNL A   1      39.288  32.106  33.710  1.00  0.00    -0.248 NA
ATOM     61  C   UNL A   1      37.517  33.627  33.590  1.00  0.00     0.031 C 
ATOM     62  C   UNL A   1      41.879  31.580  37.282  1.00  0.00     0.029 A 
ATOM     63  C   UNL A   1      41.054  31.758  36.184  1.00  0.00     0.049 A 
ATOM     64  H   UNL A   1      41.038  30.715  34.350  1.00  0.00     0.167 HD
ATOM     65  C   UNL A   1      39.213  32.817  34.903  1.00  0.00     0.074 A 
ATOM     66  C   UNL A   1      38.123  33.759  34.763  1.00  0.00     0.031 C 
ATOM     67  C   UNL A   1      39.978  32.701  36.016  1.00  0.00     0.037 A 
BRANCH  54  68
ATOM     68  C   UNL A   1      44.239  28.246  35.715  1.00  0.00     0.058 A 
ATOM     69  C   UNL A   1      45.584  28.642  35.659  1.00  0.00     0.135 A 
ATOM     70  C   UNL A   1      43.914  27.139  36.516  1.00  0.00     0.135 A 
ATOM     71  F   UNL A   1      45.950  29.683  34.893  1.00  0.00    -0.206 F 
ATOM     72  C   UNL A   1      46.572  27.963  36.364  1.00  0.00     0.059 A 
ATOM     73  C   UNL A   1      44.882  26.459  37.248  1.00  0.00     0.059 A 
ATOM     74  F   UNL A   1      42.642  26.716  36.600  1.00  0.00    -0.206 F 
ATOM     75  C   UNL A   1      46.210  26.874  37.159  1.00  0.00     0.060 A 
BRANCH  75  76
ATOM     76  S   UNL A   1      47.498  26.027  38.099  1.00  0.00     0.124 S 
ATOM     77  O   UNL A   1      48.078  25.159  37.080  1.00  0.00    -0.237 OA
ATOM     78  O   UNL A   1      48.341  27.134  38.542  1.00  0.00    -0.237 OA
ATOM     79  O   UNL A   1      46.756  25.347  39.155  1.00  0.00    -0.744 OA
ENDBRANCH  75  76
ENDBRANCH  54  68
BRANCH  55  80
ATOM     80  C   UNL A   1      36.832  32.873  30.850  1.00  0.00     0.058 A 
ATOM     81  C   UNL A   1      37.063  33.837  29.857  1.00  0.00     0.135 A 
ATOM     82  C   UNL A   1      35.500  32.585  31.184  1.00  0.00     0.135 A 
ATOM     83  F   UNL A   1      38.321  34.148  29.506  1.00  0.00    -0.206 F 
ATOM     84  C   UNL A   1      36.017  34.517  29.244  1.00  0.00     0.059 A 
ATOM     85  C   UNL A   1      34.436  33.235  30.568  1.00  0.00     0.059 A 
ATOM     86  F   UNL A   1      35.225  31.655  32.113  1.00  0.00    -0.206 F 
ATOM     87  C   UNL A   1      34.706  34.214  29.611  1.00  0.00     0.060 A 
BRANCH  87  88
ATOM     88  S   UNL A   1      33.351  35.095  28.805  1.00  0.00     0.124 S 
ATOM     89  O   UNL A   1      32.576  35.551  29.952  1.00  0.00    -0.237 OA
ATOM     90  O   UNL A   1      34.057  36.131  28.057  1.00  0.00    -0.237 OA
ATOM     91  O   UNL A   1      32.723  34.061  27.986  1.00  0.00    -0.744 OA
ENDBRANCH  87  88
ENDBRANCH  55  80
BRANCH  67  92
ATOM     92  C   UNL A   1      39.696  33.642  37.151  1.00  0.00     0.058 A 
ATOM     93  C   UNL A   1      38.779  33.320  38.163  1.00  0.00     0.135 A 
ATOM     94  C   UNL A   1      40.391  34.858  37.254  1.00  0.00     0.135 A 
ATOM     95  F   UNL A   1      38.084  32.173  38.106  1.00  0.00    -0.206 F 
ATOM     96  C   UNL A   1      38.547  34.181  39.230  1.00  0.00     0.059 A 
ATOM     97  C   UNL A   1      40.192  35.723  38.325  1.00  0.00     0.059 A 
ATOM     98  F   UNL A   1      41.286  35.206  36.315  1.00  0.00    -0.206 F 
ATOM     99  C   UNL A   1      39.258  35.381  39.302  1.00  0.00     0.060 A 
BRANCH  99 100
ATOM    100  S   UNL A   1      38.976  36.475  40.711  1.00  0.00     0.124 S 
ATOM    101  O   UNL A   1      38.026  35.698  41.500  1.00  0.00    -0.237 OA
ATOM    102  O   UNL A   1      40.315  36.606  41.279  1.00  0.00    -0.237 OA
ATOM    103  O   UNL A   1      38.442  37.687  40.097  1.00  0.00    -0.744 OA
ENDBRANCH  99 100
ENDBRANCH  67  92
ENDBRANCH  41  42
ENDBRANCH  33  36
ENDBRANCH  31  32
ENDBRANCH  30  31
ENDBRANCH   1  30
TORSDOF 17
ENDMDL
MODEL 3
REMARK VINA RESULT:     -11.6      1.322      8.318
REMARK SMILES CC[NH+]1CC[NH+]([C@@H]2CC(=O)N(c3ccc(C(=O)NCCCCNC(=O)c4ccc(-c5c6nc(c(-c7c(F)cc(S(=O)(=O)[O-])cc7F)c7ccc([nH]7)c(-c7c(F)cc(S(=O)(=O)[O-])cc7F)c7nc(c(-c8c(F)cc(S(=O)(=O)[O-])cc8F)c8ccc5[nH]8)C=C7)C=C6)cc4)cc3)C2=O)CC1
REMARK SMILES IDX 20 1 19 2 18 3 16 4 17 5 15 7 12 8 13 9 93 10 14 11 92 12
REMARK SMILES IDX 11 13 7 14 8 15 94 16 9 17 95 18 10 19 6 20 3 21 4 22 97 23
REMARK SMILES IDX 5 25 96 26 2 28 1 29 21 30 22 31 23 32 24 33 25 35 26 36
REMARK SMILES IDX 27 37 91 38 28 39 90 40 29 41 30 42 31 43 84 44 32 45 89 46
REMARK SMILES IDX 83 47 85 48 33 49 88 50 82 51 81 52 34 54 68 55 47 56 67 57
REMARK SMILES IDX 48 58 51 59 66 60 86 61 49 62 50 63 65 65 87 66 52 67 35 68
REMARK SMILES IDX 36 69 45 70 37 71 38 72 44 73 46 74 39 75 40 76 41 77 42 78
REMARK SMILES IDX 43 79 69 80 70 81 79 82 71 83 72 84 78 85 80 86 73 87 74 88
REMARK SMILES IDX 75 89 76 90 77 91 53 92 54 93 63 94 55 95 56 96 62 97 64 98
REMARK SMILES IDX 57 99 58 100 59 101 60 102 61 103
REMARK H PARENT 18 6 3 24 6 27 23 34 85 53 51 64
REMARK Flexibility Score: inf
ROOT
ATOM      1  C   UNL A   1      40.210  22.609  27.602  1.00  0.00     0.023 C 
ENDROOT
BRANCH   1   2
ATOM      2  C   UNL A   1      39.219  22.859  26.459  1.00  0.00     0.116 C 
BRANCH   2   3
ATOM      3  N   UNL A   1      38.850  21.616  25.811  1.00  0.00    -0.352 N 
ATOM      4  C   UNL A   1      37.691  21.200  25.206  1.00  0.00     0.251 C 
ATOM      5  O   UNL A   1      37.692  20.083  24.686  1.00  0.00    -0.269 OA
ATOM      6  H   UNL A   1      39.568  20.942  25.803  1.00  0.00     0.163 HD
BRANCH   4   7
ATOM      7  C   UNL A   1      36.453  22.033  25.118  1.00  0.00     0.039 A 
ATOM      8  C   UNL A   1      34.156  23.651  24.777  1.00  0.00     0.052 A 
ATOM      9  C   UNL A   1      34.969  23.339  23.683  1.00  0.00     0.027 A 
ATOM     10  C   UNL A   1      34.480  23.125  26.025  1.00  0.00     0.027 A 
ATOM     11  C   UNL A   1      36.121  22.561  23.860  1.00  0.00     0.016 A 
ATOM     12  C   UNL A   1      35.586  22.290  26.178  1.00  0.00     0.016 A 
BRANCH   8  13
ATOM     13  N   UNL A   1      33.021  24.473  24.642  1.00  0.00    -0.245 N 
ATOM     14  C   UNL A   1      31.664  26.372  24.377  1.00  0.00     0.285 C 
ATOM     15  C   UNL A   1      30.784  25.142  24.540  1.00  0.00     0.176 C 
ATOM     16  C   UNL A   1      33.081  25.811  24.334  1.00  0.00     0.292 C 
ATOM     17  C   UNL A   1      31.735  24.013  24.767  1.00  0.00     0.240 C 
ATOM     18  O   UNL A   1      34.076  26.468  24.053  1.00  0.00    -0.267 OA
ATOM     19  O   UNL A   1      31.354  22.884  25.045  1.00  0.00    -0.274 OA
BRANCH  14  20
ATOM     20  N   UNL A   1      31.559  27.483  25.340  1.00  0.00    -0.315 N 
ATOM     21  N   UNL A   1      33.843  29.365  25.930  1.00  0.00    -0.326 N 
ATOM     22  C   UNL A   1      33.781  28.007  26.512  1.00  0.00     0.324 C 
ATOM     23  C   UNL A   1      33.066  29.408  24.677  1.00  0.00     0.324 C 
ATOM     24  H   UNL A   1      34.808  29.592  25.696  1.00  0.00     0.348 HD
ATOM     25  C   UNL A   1      32.381  27.340  26.550  1.00  0.00     0.325 C 
ATOM     26  C   UNL A   1      31.637  28.847  24.799  1.00  0.00     0.325 C 
ATOM     27  H   UNL A   1      30.585  27.372  25.622  1.00  0.00     0.349 HD
BRANCH  21  28
ATOM     28  C   UNL A   1      33.415  30.377  26.908  1.00  0.00     0.259 C 
ATOM     29  C   UNL A   1      34.575  30.920  27.737  1.00  0.00     0.071 C 
ENDBRANCH  21  28
ENDBRANCH  14  20
ENDBRANCH   8  13
ENDBRANCH   4   7
ENDBRANCH   2   3
ENDBRANCH   1   2
BRANCH   1  30
ATOM     30  C   UNL A   1      41.631  22.289  27.145  1.00  0.00     0.023 C 
BRANCH  30  31
ATOM     31  C   UNL A   1      42.548  23.498  27.032  1.00  0.00     0.116 C 
BRANCH  31  32
ATOM     32  N   UNL A   1      42.227  24.362  25.906  1.00  0.00    -0.352 N 
ATOM     33  C   UNL A   1      41.773  25.661  25.938  1.00  0.00     0.251 C 
ATOM     34  H   UNL A   1      42.349  23.968  25.012  1.00  0.00     0.163 HD
ATOM     35  O   UNL A   1      41.446  26.229  24.909  1.00  0.00    -0.269 OA
BRANCH  33  36
ATOM     36  C   UNL A   1      41.645  26.333  27.248  1.00  0.00     0.039 A 
ATOM     37  C   UNL A   1      42.649  27.217  27.650  1.00  0.00     0.014 A 
ATOM     38  C   UNL A   1      40.512  26.135  28.042  1.00  0.00     0.014 A 
ATOM     39  C   UNL A   1      42.483  27.957  28.820  1.00  0.00     0.010 A 
ATOM     40  C   UNL A   1      40.319  26.921  29.173  1.00  0.00     0.010 A 
ATOM     41  C   UNL A   1      41.301  27.842  29.571  1.00  0.00    -0.014 A 
BRANCH  41  42
ATOM     42  C   UNL A   1      41.068  28.679  30.773  1.00  0.00     0.031 A 
ATOM     43  C   UNL A   1      39.956  29.691  30.776  1.00  0.00     0.074 A 
ATOM     44  C   UNL A   1      41.902  28.577  31.826  1.00  0.00     0.049 A 
ATOM     45  N   UNL A   1      39.642  30.566  31.695  1.00  0.00    -0.248 NA
ATOM     46  C   UNL A   1      39.102  29.748  29.578  1.00  0.00     0.031 C 
ATOM     47  C   UNL A   1      43.051  27.672  31.915  1.00  0.00     0.029 A 
ATOM     48  N   UNL A   1      41.922  29.253  33.021  1.00  0.00    -0.354 N 
ATOM     49  C   UNL A   1      38.574  31.292  31.179  1.00  0.00     0.074 A 
ATOM     50  C   UNL A   1      38.317  30.782  29.851  1.00  0.00     0.031 C 
ATOM     51  C   UNL A   1      43.651  27.835  33.107  1.00  0.00     0.029 A 
ATOM     52  C   UNL A   1      42.951  28.877  33.852  1.00  0.00     0.049 A 
ATOM     53  H   UNL A   1      41.261  29.941  33.261  1.00  0.00     0.167 HD
ATOM     54  C   UNL A   1      37.862  32.280  31.769  1.00  0.00     0.037 A 
ATOM     55  C   UNL A   1      43.295  29.327  35.075  1.00  0.00     0.037 A 
ATOM     56  C   UNL A   1      38.090  32.747  33.111  1.00  0.00     0.049 A 
ATOM     57  C   UNL A   1      42.466  30.408  35.716  1.00  0.00     0.074 A 
ATOM     58  C   UNL A   1      37.365  33.679  33.830  1.00  0.00     0.029 A 
ATOM     59  N   UNL A   1      39.117  32.315  33.936  1.00  0.00    -0.354 N 
ATOM     60  N   UNL A   1      41.410  31.025  35.244  1.00  0.00    -0.248 NA
ATOM     61  C   UNL A   1      42.872  30.849  37.058  1.00  0.00     0.031 C 
ATOM     62  C   UNL A   1      37.974  33.838  35.079  1.00  0.00     0.029 A 
ATOM     63  C   UNL A   1      39.055  32.975  35.151  1.00  0.00     0.049 A 
ATOM     64  H   UNL A   1      39.790  31.639  33.693  1.00  0.00     0.167 HD
ATOM     65  C   UNL A   1      41.007  31.903  36.243  1.00  0.00     0.074 A 
ATOM     66  C   UNL A   1      41.926  31.732  37.348  1.00  0.00     0.031 C 
ATOM     67  C   UNL A   1      39.968  32.774  36.247  1.00  0.00     0.037 A 
BRANCH  54  68
ATOM     68  C   UNL A   1      36.755  32.918  30.979  1.00  0.00     0.058 A 
ATOM     69  C   UNL A   1      35.405  32.654  31.259  1.00  0.00     0.135 A 
ATOM     70  C   UNL A   1      37.046  33.857  29.977  1.00  0.00     0.135 A 
ATOM     71  F   UNL A   1      35.074  31.751  32.196  1.00  0.00    -0.206 F 
ATOM     72  C   UNL A   1      34.382  33.291  30.566  1.00  0.00     0.059 A 
ATOM     73  C   UNL A   1      36.038  34.523  29.287  1.00  0.00     0.059 A 
ATOM     74  F   UNL A   1      38.321  34.142  29.667  1.00  0.00    -0.206 F 
ATOM     75  C   UNL A   1      34.708  34.228  29.583  1.00  0.00     0.060 A 
BRANCH  75  76
ATOM     76  S   UNL A   1      33.368  35.074  28.720  1.00  0.00     0.124 S 
ATOM     77  O   UNL A   1      34.101  36.086  27.966  1.00  0.00    -0.237 OA
ATOM     78  O   UNL A   1      32.777  34.000  27.930  1.00  0.00    -0.237 OA
ATOM     79  O   UNL A   1      32.533  35.582  29.805  1.00  0.00    -0.744 OA
ENDBRANCH  75  76
ENDBRANCH  54  68
BRANCH  55  80
ATOM     80  C   UNL A   1      44.465  28.752  35.789  1.00  0.00     0.058 A 
ATOM     81  C   UNL A   1      44.306  27.687  36.689  1.00  0.00     0.135 A 
ATOM     82  C   UNL A   1      45.758  29.268  35.610  1.00  0.00     0.135 A 
ATOM     83  F   UNL A   1      43.088  27.163  36.896  1.00  0.00    -0.206 F 
ATOM     84  C   UNL A   1      45.379  27.177  37.412  1.00  0.00     0.059 A 
ATOM     85  C   UNL A   1      46.851  28.759  36.304  1.00  0.00     0.059 A 
ATOM     86  F   UNL A   1      45.967  30.273  34.744  1.00  0.00    -0.206 F 
ATOM     87  C   UNL A   1      46.647  27.724  37.217  1.00  0.00     0.060 A 
BRANCH  87  88
ATOM     88  S   UNL A   1      48.038  27.051  38.152  1.00  0.00     0.124 S 
ATOM     89  O   UNL A   1      49.050  26.912  37.112  1.00  0.00    -0.237 OA
ATOM     90  O   UNL A   1      48.279  28.096  39.143  1.00  0.00    -0.237 OA
ATOM     91  O   UNL A   1      47.505  25.802  38.688  1.00  0.00    -0.744 OA
ENDBRANCH  87  88
ENDBRANCH  55  80
BRANCH  67  92
ATOM     92  C   UNL A   1      39.741  33.576  37.497  1.00  0.00     0.058 A 
ATOM     93  C   UNL A   1      40.420  34.781  37.731  1.00  0.00     0.135 A 
ATOM     94  C   UNL A   1      38.794  33.157  38.445  1.00  0.00     0.135 A 
ATOM     95  F   UNL A   1      41.339  35.220  36.858  1.00  0.00    -0.206 F 
ATOM     96  C   UNL A   1      40.181  35.536  38.874  1.00  0.00     0.059 A 
ATOM     97  C   UNL A   1      38.522  33.908  39.583  1.00  0.00     0.059 A 
ATOM     98  F   UNL A   1      38.112  32.015  38.261  1.00  0.00    -0.206 F 
ATOM     99  C   UNL A   1      39.230  35.091  39.795  1.00  0.00     0.060 A 
BRANCH  99 100
ATOM    100  S   UNL A   1      38.900  36.097  41.258  1.00  0.00     0.124 S 
ATOM    101  O   UNL A   1      38.666  37.409  40.664  1.00  0.00    -0.237 OA
ATOM    102  O   UNL A   1      37.728  35.442  41.831  1.00  0.00    -0.237 OA
ATOM    103  O   UNL A   1      40.126  35.970  42.040  1.00  0.00    -0.744 OA
ENDBRANCH  99 100
ENDBRANCH  67  92
ENDBRANCH  41  42
ENDBRANCH  33  36
ENDBRANCH  31  32
ENDBRANCH  30  31
ENDBRANCH   1  30
TORSDOF 17
ENDMDL
