MODEL 1
REMARK VINA RESULT:     -11.5      0.000      0.000
REMARK SMILES CC[C@](C)(NC(=O)[C@](C)([NH3+])c1ccccc1)C(=O)NCCCCNC(=O)c1ccc(-c2c3nc(c(-c4c(F)cc(S(=O)(=O)[O-])cc4F)c4ccc([nH]4)c(-c4c(F)cc(S(=O)(=O)[O-])cc4F)c4nc(c(-c5c(F)cc(S(=O)(=O)[O-])cc5F)c5ccc2[nH]5)C=C4)C=C3)cc1
REMARK SMILES IDX 21 1 20 2 19 3 17 4 18 5 3 7 4 8 2 9 1 10 5 11 6 12 7 14
REMARK SMILES IDX 8 15 9 16 10 17 11 21 12 22 16 23 13 24 15 25 14 26 22 27
REMARK SMILES IDX 23 28 24 29 25 30 26 32 27 33 28 34 92 35 29 36 91 37 30 38
REMARK SMILES IDX 31 39 32 40 85 41 33 42 90 43 84 44 86 45 34 46 89 47 83 48
REMARK SMILES IDX 82 49 35 51 69 52 48 53 68 54 49 55 52 56 67 57 87 58 50 59
REMARK SMILES IDX 51 60 66 62 88 63 53 64 36 65 37 66 46 67 38 68 39 69 45 70
REMARK SMILES IDX 47 71 40 72 41 73 42 74 43 75 44 76 70 77 71 78 80 79 72 80
REMARK SMILES IDX 73 81 79 82 81 83 74 84 75 85 76 86 77 87 78 88 54 89 55 90
REMARK SMILES IDX 64 91 56 92 57 93 63 94 65 95 58 96 59 97 60 98 61 99 62 100
REMARK H PARENT 19 6 5 13 10 18 10 19 10 20 24 31 86 50 52 61
REMARK Flexibility Score: inf
ROOT
ATOM      1  C   UNL A   1      37.030  23.502  24.394  1.00  0.00     0.023 C 
ENDROOT
BRANCH   1   2
ATOM      2  C   UNL A   1      36.069  22.615  23.599  1.00  0.00     0.116 C 
BRANCH   2   3
ATOM      3  N   UNL A   1      34.947  21.952  24.249  1.00  0.00    -0.354 N 
ATOM      4  C   UNL A   1      33.640  22.352  24.440  1.00  0.00     0.245 C 
ATOM      5  O   UNL A   1      32.765  21.481  24.377  1.00  0.00    -0.272 OA
ATOM      6  H   UNL A   1      35.157  21.062  24.615  1.00  0.00     0.163 HD
BRANCH   4   7
ATOM      7  C   UNL A   1      33.243  23.849  24.565  1.00  0.00     0.116 C 
ATOM      8  C   UNL A   1      33.876  24.574  25.784  1.00  0.00     0.045 C 
BRANCH   7   9
ATOM      9  C   UNL A   1      31.700  23.898  24.878  1.00  0.00     0.035 C 
ATOM     10  C   UNL A   1      31.194  23.782  26.305  1.00  0.00     0.007 C 
ENDBRANCH   7   9
BRANCH   7  11
ATOM     11  N   UNL A   1      33.624  24.590  23.353  1.00  0.00    -0.336 N 
ATOM     12  C   UNL A   1      33.207  25.750  22.778  1.00  0.00     0.286 C 
ATOM     13  H   UNL A   1      34.339  24.145  22.844  1.00  0.00     0.164 HD
ATOM     14  O   UNL A   1      33.665  25.884  21.623  1.00  0.00    -0.267 OA
BRANCH  12  15
ATOM     15  C   UNL A   1      32.260  26.922  23.330  1.00  0.00     0.196 C 
ATOM     16  C   UNL A   1      30.805  26.441  23.138  1.00  0.00     0.096 C 
BRANCH  15  17
ATOM     17  N   UNL A   1      32.391  28.026  22.316  1.00  0.00    -0.341 N 
ATOM     18  H   UNL A   1      31.707  27.888  21.573  1.00  0.00     0.345 HD
ATOM     19  H   UNL A   1      33.330  28.015  21.919  1.00  0.00     0.345 HD
ATOM     20  H   UNL A   1      32.224  28.925  22.769  1.00  0.00     0.345 HD
ENDBRANCH  15  17
BRANCH  15  21
ATOM     21  C   UNL A   1      32.476  27.513  24.737  1.00  0.00     0.022 A 
ATOM     22  C   UNL A   1      33.701  28.073  25.139  1.00  0.00     0.011 A 
ATOM     23  C   UNL A   1      31.493  27.435  25.746  1.00  0.00     0.011 A 
ATOM     24  C   UNL A   1      33.880  28.639  26.411  1.00  0.00     0.001 A 
ATOM     25  C   UNL A   1      31.656  28.005  27.016  1.00  0.00     0.001 A 
ATOM     26  C   UNL A   1      32.847  28.632  27.340  1.00  0.00     0.000 A 
ENDBRANCH  15  21
ENDBRANCH  12  15
ENDBRANCH   7  11
ENDBRANCH   4   7
ENDBRANCH   2   3
ENDBRANCH   1   2
BRANCH   1  27
ATOM     27  C   UNL A   1      37.547  23.098  25.770  1.00  0.00     0.023 C 
BRANCH  27  28
ATOM     28  C   UNL A   1      38.406  24.097  26.516  1.00  0.00     0.116 C 
BRANCH  28  29
ATOM     29  N   UNL A   1      39.797  23.988  26.117  1.00  0.00    -0.352 N 
ATOM     30  C   UNL A   1      40.840  24.819  26.444  1.00  0.00     0.251 C 
ATOM     31  H   UNL A   1      40.020  23.222  25.541  1.00  0.00     0.163 HD
ATOM     32  O   UNL A   1      41.887  24.758  25.794  1.00  0.00    -0.269 OA
BRANCH  30  33
ATOM     33  C   UNL A   1      40.709  25.789  27.554  1.00  0.00     0.039 A 
ATOM     34  C   UNL A   1      41.614  26.849  27.643  1.00  0.00     0.014 A 
ATOM     35  C   UNL A   1      39.714  25.641  28.528  1.00  0.00     0.014 A 
ATOM     36  C   UNL A   1      41.503  27.775  28.685  1.00  0.00     0.010 A 
ATOM     37  C   UNL A   1      39.557  26.607  29.522  1.00  0.00     0.010 A 
ATOM     38  C   UNL A   1      40.464  27.673  29.624  1.00  0.00    -0.014 A 
BRANCH  38  39
ATOM     39  C   UNL A   1      40.337  28.654  30.735  1.00  0.00     0.031 A 
ATOM     40  C   UNL A   1      41.204  28.527  31.961  1.00  0.00     0.074 A 
ATOM     41  C   UNL A   1      39.424  29.644  30.656  1.00  0.00     0.049 A 
ATOM     42  N   UNL A   1      41.228  29.270  33.038  1.00  0.00    -0.248 NA
ATOM     43  C   UNL A   1      42.154  27.402  31.990  1.00  0.00     0.031 C 
ATOM     44  C   UNL A   1      38.495  29.849  29.544  1.00  0.00     0.029 A 
ATOM     45  N   UNL A   1      39.125  30.661  31.528  1.00  0.00    -0.354 N 
ATOM     46  C   UNL A   1      42.187  28.704  33.870  1.00  0.00     0.074 A 
ATOM     47  C   UNL A   1      42.678  27.519  33.201  1.00  0.00     0.031 C 
ATOM     48  C   UNL A   1      37.746  30.935  29.790  1.00  0.00     0.029 A 
ATOM     49  C   UNL A   1      38.113  31.485  31.092  1.00  0.00     0.049 A 
ATOM     50  H   UNL A   1      39.589  30.788  32.387  1.00  0.00     0.167 HD
ATOM     51  C   UNL A   1      42.639  29.145  35.070  1.00  0.00     0.037 A 
ATOM     52  C   UNL A   1      37.542  32.557  31.675  1.00  0.00     0.037 A 
ATOM     53  C   UNL A   1      42.156  30.333  35.725  1.00  0.00     0.049 A 
ATOM     54  C   UNL A   1      38.051  33.021  33.014  1.00  0.00     0.074 A 
ATOM     55  C   UNL A   1      42.580  30.889  36.918  1.00  0.00     0.029 A 
ATOM     56  N   UNL A   1      41.139  31.145  35.245  1.00  0.00    -0.354 N 
ATOM     57  N   UNL A   1      39.004  32.511  33.757  1.00  0.00    -0.248 NA
ATOM     58  C   UNL A   1      37.412  34.212  33.591  1.00  0.00     0.031 C 
ATOM     59  C   UNL A   1      41.784  32.009  37.186  1.00  0.00     0.029 A 
ATOM     60  C   UNL A   1      40.905  32.185  36.130  1.00  0.00     0.049 A 
ATOM     61  H   UNL A   1      40.654  31.005  34.399  1.00  0.00     0.167 HD
ATOM     62  C   UNL A   1      39.098  33.332  34.874  1.00  0.00     0.074 A 
ATOM     63  C   UNL A   1      38.115  34.382  34.704  1.00  0.00     0.031 C 
ATOM     64  C   UNL A   1      39.924  33.228  35.945  1.00  0.00     0.037 A 
BRANCH  51  65
ATOM     65  C   UNL A   1      43.713  28.339  35.750  1.00  0.00     0.058 A 
ATOM     66  C   UNL A   1      45.077  28.592  35.527  1.00  0.00     0.135 A 
ATOM     67  C   UNL A   1      43.380  27.323  36.660  1.00  0.00     0.135 A 
ATOM     68  F   UNL A   1      45.457  29.541  34.657  1.00  0.00    -0.206 F 
ATOM     69  C   UNL A   1      46.070  27.845  36.156  1.00  0.00     0.059 A 
ATOM     70  C   UNL A   1      44.356  26.584  37.324  1.00  0.00     0.059 A 
ATOM     71  F   UNL A   1      42.093  27.038  36.913  1.00  0.00    -0.206 F 
ATOM     72  C   UNL A   1      45.698  26.842  37.052  1.00  0.00     0.060 A 
BRANCH  72  73
ATOM     73  S   UNL A   1      46.999  25.883  37.857  1.00  0.00     0.124 S 
ATOM     74  O   UNL A   1      47.697  25.317  36.707  1.00  0.00    -0.237 OA
ATOM     75  O   UNL A   1      47.728  26.908  38.598  1.00  0.00    -0.237 OA
ATOM     76  O   UNL A   1      46.261  24.927  38.676  1.00  0.00    -0.744 OA
ENDBRANCH  72  73
ENDBRANCH  51  65
BRANCH  52  77
ATOM     77  C   UNL A   1      36.434  33.273  30.986  1.00  0.00     0.058 A 
ATOM     78  C   UNL A   1      35.108  33.158  31.428  1.00  0.00     0.135 A 
ATOM     79  C   UNL A   1      36.682  34.099  29.878  1.00  0.00     0.135 A 
ATOM     80  F   UNL A   1      34.817  32.375  32.478  1.00  0.00    -0.206 F 
ATOM     81  C   UNL A   1      34.065  33.823  30.790  1.00  0.00     0.059 A 
ATOM     82  C   UNL A   1      35.661  34.797  29.240  1.00  0.00     0.059 A 
ATOM     83  F   UNL A   1      37.935  34.255  29.423  1.00  0.00    -0.206 F 
ATOM     84  C   UNL A   1      34.353  34.643  29.699  1.00  0.00     0.060 A 
BRANCH  84  85
ATOM     85  S   UNL A   1      32.999  35.541  28.909  1.00  0.00     0.124 S 
ATOM     86  O   UNL A   1      32.215  35.966  30.065  1.00  0.00    -0.237 OA
ATOM     87  O   UNL A   1      33.707  36.597  28.194  1.00  0.00    -0.237 OA
ATOM     88  O   UNL A   1      32.375  34.530  28.061  1.00  0.00    -0.744 OA
ENDBRANCH  84  85
ENDBRANCH  52  77
BRANCH  64  89
ATOM     89  C   UNL A   1      39.829  34.293  37.004  1.00  0.00     0.058 A 
ATOM     90  C   UNL A   1      40.494  35.523  36.879  1.00  0.00     0.135 A 
ATOM     91  C   UNL A   1      39.016  34.101  38.133  1.00  0.00     0.135 A 
ATOM     92  F   UNL A   1      41.288  35.758  35.823  1.00  0.00    -0.206 F 
ATOM     93  C   UNL A   1      40.376  36.515  37.848  1.00  0.00     0.059 A 
ATOM     94  C   UNL A   1      38.859  35.090  39.099  1.00  0.00     0.059 A 
ATOM     95  F   UNL A   1      38.348  32.948  38.298  1.00  0.00    -0.206 F 
ATOM     96  C   UNL A   1      39.553  36.290  38.953  1.00  0.00     0.060 A 
BRANCH  96  97
ATOM     97  S   UNL A   1      39.381  37.600  40.184  1.00  0.00     0.124 S 
ATOM     98  O   UNL A   1      40.722  38.174  40.190  1.00  0.00    -0.237 OA
ATOM     99  O   UNL A   1      38.335  38.437  39.605  1.00  0.00    -0.237 OA
ATOM    100  O   UNL A   1      39.001  36.880  41.396  1.00  0.00    -0.744 OA
ENDBRANCH  96  97
ENDBRANCH  64  89
ENDBRANCH  38  39
ENDBRANCH  30  33
ENDBRANCH  28  29
ENDBRANCH  27  28
ENDBRANCH   1  27
TORSDOF 19
ENDMDL
MODEL 2
REMARK VINA RESULT:     -11.1      4.774     10.349
REMARK SMILES CC[C@](C)(NC(=O)[C@](C)([NH3+])c1ccccc1)C(=O)NCCCCNC(=O)c1ccc(-c2c3nc(c(-c4c(F)cc(S(=O)(=O)[O-])cc4F)c4ccc([nH]4)c(-c4c(F)cc(S(=O)(=O)[O-])cc4F)c4nc(c(-c5c(F)cc(S(=O)(=O)[O-])cc5F)c5ccc2[nH]5)C=C4)C=C3)cc1
REMARK SMILES IDX 21 1 20 2 19 3 17 4 18 5 3 7 4 8 2 9 1 10 5 11 6 12 7 14
REMARK SMILES IDX 8 15 9 16 10 17 11 21 12 22 16 23 13 24 15 25 14 26 22 27
REMARK SMILES IDX 23 28 24 29 25 30 26 32 27 33 28 34 92 35 29 36 91 37 30 38
REMARK SMILES IDX 31 39 32 40 85 41 33 42 90 43 84 44 86 45 34 46 89 47 83 48
REMARK SMILES IDX 82 49 35 51 69 52 48 53 68 54 49 55 52 56 67 57 87 58 50 59
REMARK SMILES IDX 51 60 66 62 88 63 53 64 36 65 37 66 46 67 38 68 39 69 45 70
REMARK SMILES IDX 47 71 40 72 41 73 42 74 43 75 44 76 70 77 71 78 80 79 72 80
REMARK SMILES IDX 73 81 79 82 81 83 74 84 75 85 76 86 77 87 78 88 54 89 55 90
REMARK SMILES IDX 64 91 56 92 57 93 63 94 65 95 58 96 59 97 60 98 61 99 62 100
REMARK H PARENT 19 6 5 13 10 18 10 19 10 20 24 31 86 50 52 61
REMARK Flexibility Score: inf
ROOT
ATOM      1  C   UNL A   1      33.505  27.801  24.457  1.00  0.00     0.023 C 
ENDROOT
BRANCH   1   2
ATOM      2  C   UNL A   1      32.864  27.032  23.299  1.00  0.00     0.116 C 
BRANCH   2   3
ATOM      3  N   UNL A   1      33.509  25.857  22.729  1.00  0.00    -0.354 N 
ATOM      4  C   UNL A   1      33.033  24.584  22.489  1.00  0.00     0.245 C 
ATOM      5  O   UNL A   1      33.442  24.008  21.475  1.00  0.00    -0.272 OA
ATOM      6  H   UNL A   1      34.449  25.995  22.469  1.00  0.00     0.163 HD
BRANCH   4   7
ATOM      7  C   UNL A   1      31.908  23.946  23.349  1.00  0.00     0.116 C 
ATOM      8  C   UNL A   1      30.517  24.615  23.173  1.00  0.00     0.045 C 
BRANCH   7   9
ATOM      9  C   UNL A   1      32.256  24.231  24.859  1.00  0.00     0.035 C 
ATOM     10  C   UNL A   1      31.162  24.567  25.857  1.00  0.00     0.007 C 
ENDBRANCH   7   9
BRANCH   7  11
ATOM     11  N   UNL A   1      31.763  22.517  23.037  1.00  0.00    -0.336 N 
ATOM     12  C   UNL A   1      32.395  21.385  23.448  1.00  0.00     0.286 C 
ATOM     13  H   UNL A   1      31.050  22.340  22.382  1.00  0.00     0.164 HD
ATOM     14  O   UNL A   1      32.084  20.400  22.745  1.00  0.00    -0.267 OA
BRANCH  12  15
ATOM     15  C   UNL A   1      33.435  21.130  24.644  1.00  0.00     0.196 C 
ATOM     16  C   UNL A   1      33.800  19.629  24.598  1.00  0.00     0.096 C 
BRANCH  15  17
ATOM     17  N   UNL A   1      32.610  21.243  25.896  1.00  0.00    -0.341 N 
ATOM     18  H   UNL A   1      33.225  21.249  26.709  1.00  0.00     0.345 HD
ATOM     19  H   UNL A   1      31.973  20.449  25.958  1.00  0.00     0.345 HD
ATOM     20  H   UNL A   1      32.071  22.109  25.871  1.00  0.00     0.345 HD
ENDBRANCH  15  17
BRANCH  15  21
ATOM     21  C   UNL A   1      34.691  22.010  24.796  1.00  0.00     0.022 A 
ATOM     22  C   UNL A   1      35.536  22.310  23.714  1.00  0.00     0.011 A 
ATOM     23  C   UNL A   1      35.132  22.484  26.049  1.00  0.00     0.011 A 
ATOM     24  C   UNL A   1      36.660  23.140  23.853  1.00  0.00     0.001 A 
ATOM     25  C   UNL A   1      36.245  23.322  26.200  1.00  0.00     0.001 A 
ATOM     26  C   UNL A   1      36.997  23.671  25.092  1.00  0.00     0.000 A 
ENDBRANCH  15  21
ENDBRANCH  12  15
ENDBRANCH   7  11
ENDBRANCH   4   7
ENDBRANCH   2   3
ENDBRANCH   1   2
BRANCH   1  27
ATOM     27  C   UNL A   1      32.941  27.743  25.872  1.00  0.00     0.023 C 
BRANCH  27  28
ATOM     28  C   UNL A   1      33.845  28.181  27.005  1.00  0.00     0.116 C 
BRANCH  28  29
ATOM     29  N   UNL A   1      33.628  29.577  27.334  1.00  0.00    -0.352 N 
ATOM     30  C   UNL A   1      34.448  30.416  28.047  1.00  0.00     0.251 C 
ATOM     31  H   UNL A   1      32.789  29.971  27.005  1.00  0.00     0.163 HD
ATOM     32  O   UNL A   1      33.993  31.476  28.487  1.00  0.00    -0.269 OA
BRANCH  30  33
ATOM     33  C   UNL A   1      35.861  30.053  28.299  1.00  0.00     0.039 A 
ATOM     34  C   UNL A   1      36.788  30.164  27.260  1.00  0.00     0.014 A 
ATOM     35  C   UNL A   1      36.271  29.574  29.549  1.00  0.00     0.014 A 
ATOM     36  C   UNL A   1      38.126  29.826  27.482  1.00  0.00     0.010 A 
ATOM     37  C   UNL A   1      37.619  29.311  29.790  1.00  0.00     0.010 A 
ATOM     38  C   UNL A   1      38.558  29.413  28.754  1.00  0.00    -0.014 A 
BRANCH  38  39
ATOM     39  C   UNL A   1      39.981  29.054  28.999  1.00  0.00     0.031 A 
ATOM     40  C   UNL A   1      40.931  30.072  29.574  1.00  0.00     0.074 A 
ATOM     41  C   UNL A   1      40.428  27.822  28.681  1.00  0.00     0.049 A 
ATOM     42  N   UNL A   1      42.207  29.955  29.841  1.00  0.00    -0.248 NA
ATOM     43  C   UNL A   1      40.379  31.406  29.866  1.00  0.00     0.031 C 
ATOM     44  C   UNL A   1      39.620  26.761  28.076  1.00  0.00     0.029 A 
ATOM     45  N   UNL A   1      41.670  27.254  28.816  1.00  0.00    -0.354 N 
ATOM     46  C   UNL A   1      42.609  31.195  30.327  1.00  0.00     0.074 A 
ATOM     47  C   UNL A   1      41.458  32.067  30.259  1.00  0.00     0.031 C 
ATOM     48  C   UNL A   1      40.380  25.666  27.915  1.00  0.00     0.029 A 
ATOM     49  C   UNL A   1      41.738  25.956  28.367  1.00  0.00     0.049 A 
ATOM     50  H   UNL A   1      42.442  27.733  29.196  1.00  0.00     0.167 HD
ATOM     51  C   UNL A   1      43.819  31.565  30.812  1.00  0.00     0.037 A 
ATOM     52  C   UNL A   1      42.775  25.097  28.320  1.00  0.00     0.037 A 
ATOM     53  C   UNL A   1      44.959  30.687  30.891  1.00  0.00     0.049 A 
ATOM     54  C   UNL A   1      44.114  25.534  28.852  1.00  0.00     0.074 A 
ATOM     55  C   UNL A   1      46.214  30.953  31.407  1.00  0.00     0.029 A 
ATOM     56  N   UNL A   1      44.982  29.377  30.436  1.00  0.00    -0.354 N 
ATOM     57  N   UNL A   1      44.459  26.690  29.368  1.00  0.00    -0.248 NA
ATOM     58  C   UNL A   1      45.203  24.549  28.803  1.00  0.00     0.031 C 
ATOM     59  C   UNL A   1      47.013  29.820  31.218  1.00  0.00     0.029 A 
ATOM     60  C   UNL A   1      46.239  28.828  30.638  1.00  0.00     0.049 A 
ATOM     61  H   UNL A   1      44.220  28.905  30.030  1.00  0.00     0.167 HD
ATOM     62  C   UNL A   1      45.795  26.562  29.731  1.00  0.00     0.074 A 
ATOM     63  C   UNL A   1      46.193  25.212  29.388  1.00  0.00     0.031 C 
ATOM     64  C   UNL A   1      46.620  27.479  30.296  1.00  0.00     0.037 A 
BRANCH  51  65
ATOM     65  C   UNL A   1      43.971  32.981  31.300  1.00  0.00     0.058 A 
ATOM     66  C   UNL A   1      44.398  34.014  30.449  1.00  0.00     0.135 A 
ATOM     67  C   UNL A   1      43.657  33.320  32.627  1.00  0.00     0.135 A 
ATOM     68  F   UNL A   1      44.726  33.748  29.174  1.00  0.00    -0.206 F 
ATOM     69  C   UNL A   1      44.539  35.322  30.902  1.00  0.00     0.059 A 
ATOM     70  C   UNL A   1      43.761  34.628  33.094  1.00  0.00     0.059 A 
ATOM     71  F   UNL A   1      43.244  32.375  33.486  1.00  0.00    -0.206 F 
ATOM     72  C   UNL A   1      44.219  35.619  32.227  1.00  0.00     0.060 A 
BRANCH  72  73
ATOM     73  S   UNL A   1      44.409  37.321  32.798  1.00  0.00     0.124 S 
ATOM     74  O   UNL A   1      43.276  37.450  33.709  1.00  0.00    -0.237 OA
ATOM     75  O   UNL A   1      45.727  37.293  33.426  1.00  0.00    -0.237 OA
ATOM     76  O   UNL A   1      44.319  38.105  31.570  1.00  0.00    -0.744 OA
ENDBRANCH  72  73
ENDBRANCH  51  65
BRANCH  52  77
ATOM     77  C   UNL A   1      42.581  23.730  27.762  1.00  0.00     0.058 A 
ATOM     78  C   UNL A   1      42.602  23.502  26.378  1.00  0.00     0.135 A 
ATOM     79  C   UNL A   1      42.386  22.624  28.602  1.00  0.00     0.135 A 
ATOM     80  F   UNL A   1      42.778  24.528  25.531  1.00  0.00    -0.206 F 
ATOM     81  C   UNL A   1      42.421  22.229  25.846  1.00  0.00     0.059 A 
ATOM     82  C   UNL A   1      42.230  21.336  28.096  1.00  0.00     0.059 A 
ATOM     83  F   UNL A   1      42.372  22.785  29.935  1.00  0.00    -0.206 F 
ATOM     84  C   UNL A   1      42.240  21.151  26.714  1.00  0.00     0.060 A 
BRANCH  84  85
ATOM     85  S   UNL A   1      42.056  19.496  26.014  1.00  0.00     0.124 S 
ATOM     86  O   UNL A   1      40.614  19.425  25.802  1.00  0.00    -0.237 OA
ATOM     87  O   UNL A   1      42.875  19.580  24.810  1.00  0.00    -0.237 OA
ATOM     88  O   UNL A   1      42.583  18.628  27.063  1.00  0.00    -0.744 OA
ENDBRANCH  84  85
ENDBRANCH  52  77
BRANCH  64  89
ATOM     89  C   UNL A   1      48.026  27.048  30.615  1.00  0.00     0.058 A 
ATOM     90  C   UNL A   1      49.095  27.307  29.743  1.00  0.00     0.135 A 
ATOM     91  C   UNL A   1      48.315  26.416  31.836  1.00  0.00     0.135 A 
ATOM     92  F   UNL A   1      48.875  27.903  28.562  1.00  0.00    -0.206 F 
ATOM     93  C   UNL A   1      50.398  26.933  30.060  1.00  0.00     0.059 A 
ATOM     94  C   UNL A   1      49.614  26.061  32.186  1.00  0.00     0.059 A 
ATOM     95  F   UNL A   1      47.332  26.154  32.712  1.00  0.00    -0.206 F 
ATOM     96  C   UNL A   1      50.647  26.313  31.286  1.00  0.00     0.060 A 
BRANCH  96  97
ATOM     97  S   UNL A   1      52.347  25.866  31.698  1.00  0.00     0.124 S 
ATOM     98  O   UNL A   1      53.022  26.066  30.420  1.00  0.00    -0.237 OA
ATOM     99  O   UNL A   1      52.677  26.826  32.747  1.00  0.00    -0.237 OA
ATOM    100  O   UNL A   1      52.237  24.478  32.138  1.00  0.00    -0.744 OA
ENDBRANCH  96  97
ENDBRANCH  64  89
ENDBRANCH  38  39
ENDBRANCH  30  33
ENDBRANCH  28  29
ENDBRANCH  27  28
ENDBRANCH   1  27
TORSDOF 19
ENDMDL
MODEL 3
REMARK VINA RESULT:     -11.1      6.645     12.117
REMARK SMILES CC[C@](C)(NC(=O)[C@](C)([NH3+])c1ccccc1)C(=O)NCCCCNC(=O)c1ccc(-c2c3nc(c(-c4c(F)cc(S(=O)(=O)[O-])cc4F)c4ccc([nH]4)c(-c4c(F)cc(S(=O)(=O)[O-])cc4F)c4nc(c(-c5c(F)cc(S(=O)(=O)[O-])cc5F)c5ccc2[nH]5)C=C4)C=C3)cc1
REMARK SMILES IDX 21 1 20 2 19 3 17 4 18 5 3 7 4 8 2 9 1 10 5 11 6 12 7 14
REMARK SMILES IDX 8 15 9 16 10 17 11 21 12 22 16 23 13 24 15 25 14 26 22 27
REMARK SMILES IDX 23 28 24 29 25 30 26 32 27 33 28 34 92 35 29 36 91 37 30 38
REMARK SMILES IDX 31 39 32 40 85 41 33 42 90 43 84 44 86 45 34 46 89 47 83 48
REMARK SMILES IDX 82 49 35 51 69 52 48 53 68 54 49 55 52 56 67 57 87 58 50 59
REMARK SMILES IDX 51 60 66 62 88 63 53 64 36 65 37 66 46 67 38 68 39 69 45 70
REMARK SMILES IDX 47 71 40 72 41 73 42 74 43 75 44 76 70 77 71 78 80 79 72 80
REMARK SMILES IDX 73 81 79 82 81 83 74 84 75 85 76 86 77 87 78 88 54 89 55 90
REMARK SMILES IDX 64 91 56 92 57 93 63 94 65 95 58 96 59 97 60 98 61 99 62 100
REMARK H PARENT 19 6 5 13 10 18 10 19 10 20 24 31 86 50 52 61
REMARK Flexibility Score: inf
ROOT
ATOM      1  C   UNL A   1      33.028  30.290  27.058  1.00  0.00     0.023 C 
ENDROOT
BRANCH   1   2
ATOM      2  C   UNL A   1      31.911  29.742  26.167  1.00  0.00     0.116 C 
BRANCH   2   3
ATOM      3  N   UNL A   1      31.980  29.858  24.717  1.00  0.00    -0.354 N 
ATOM      4  C   UNL A   1      31.777  28.927  23.719  1.00  0.00     0.245 C 
ATOM      5  O   UNL A   1      31.240  29.320  22.677  1.00  0.00    -0.272 OA
ATOM      6  H   UNL A   1      32.212  30.758  24.392  1.00  0.00     0.163 HD
BRANCH   4   7
ATOM      7  C   UNL A   1      32.051  27.413  23.933  1.00  0.00     0.116 C 
ATOM      8  C   UNL A   1      33.529  27.076  24.267  1.00  0.00     0.045 C 
BRANCH   7   9
ATOM      9  C   UNL A   1      31.822  26.698  22.548  1.00  0.00     0.035 C 
ATOM     10  C   UNL A   1      33.001  26.221  21.717  1.00  0.00     0.007 C 
ENDBRANCH   7   9
BRANCH   7  11
ATOM     11  N   UNL A   1      31.211  26.882  25.017  1.00  0.00    -0.336 N 
ATOM     12  C   UNL A   1      30.801  25.636  25.379  1.00  0.00     0.286 C 
ATOM     13  H   UNL A   1      30.869  27.585  25.613  1.00  0.00     0.164 HD
ATOM     14  O   UNL A   1      29.907  25.679  26.250  1.00  0.00    -0.267 OA
BRANCH  12  15
ATOM     15  C   UNL A   1      31.267  24.183  24.880  1.00  0.00     0.196 C 
ATOM     16  C   UNL A   1      30.630  23.969  23.489  1.00  0.00     0.096 C 
BRANCH  15  17
ATOM     17  N   UNL A   1      30.512  23.220  25.755  1.00  0.00    -0.341 N 
ATOM     18  H   UNL A   1      31.172  22.674  26.308  1.00  0.00     0.345 HD
ATOM     19  H   UNL A   1      29.957  22.594  25.172  1.00  0.00     0.345 HD
ATOM     20  H   UNL A   1      29.894  23.741  26.378  1.00  0.00     0.345 HD
ENDBRANCH  15  17
BRANCH  15  21
ATOM     21  C   UNL A   1      32.758  23.791  24.882  1.00  0.00     0.022 A 
ATOM     22  C   UNL A   1      33.384  23.207  23.768  1.00  0.00     0.011 A 
ATOM     23  C   UNL A   1      33.563  23.896  26.036  1.00  0.00     0.011 A 
ATOM     24  C   UNL A   1      34.751  22.884  23.766  1.00  0.00     0.001 A 
ATOM     25  C   UNL A   1      34.930  23.586  26.044  1.00  0.00     0.001 A 
ATOM     26  C   UNL A   1      35.531  23.102  24.895  1.00  0.00     0.000 A 
ENDBRANCH  15  21
ENDBRANCH  12  15
ENDBRANCH   7  11
ENDBRANCH   4   7
ENDBRANCH   2   3
ENDBRANCH   1   2
BRANCH   1  27
ATOM     27  C   UNL A   1      33.978  29.370  27.816  1.00  0.00     0.023 C 
BRANCH  27  28
ATOM     28  C   UNL A   1      35.377  29.881  28.090  1.00  0.00     0.116 C 
BRANCH  28  29
ATOM     29  N   UNL A   1      35.441  30.563  29.369  1.00  0.00    -0.352 N 
ATOM     30  C   UNL A   1      36.486  30.599  30.259  1.00  0.00     0.251 C 
ATOM     31  H   UNL A   1      34.634  31.062  29.632  1.00  0.00     0.163 HD
ATOM     32  O   UNL A   1      36.281  30.971  31.417  1.00  0.00    -0.269 OA
BRANCH  30  33
ATOM     33  C   UNL A   1      37.844  30.184  29.841  1.00  0.00     0.039 A 
ATOM     34  C   UNL A   1      38.761  29.777  30.812  1.00  0.00     0.014 A 
ATOM     35  C   UNL A   1      38.229  30.224  28.495  1.00  0.00     0.014 A 
ATOM     36  C   UNL A   1      40.048  29.382  30.433  1.00  0.00     0.010 A 
ATOM     37  C   UNL A   1      39.485  29.756  28.111  1.00  0.00     0.010 A 
ATOM     38  C   UNL A   1      40.417  29.350  29.078  1.00  0.00    -0.014 A 
BRANCH  38  39
ATOM     39  C   UNL A   1      41.782  28.928  28.666  1.00  0.00     0.031 A 
ATOM     40  C   UNL A   1      42.904  29.933  28.622  1.00  0.00     0.074 A 
ATOM     41  C   UNL A   1      42.010  27.649  28.304  1.00  0.00     0.049 A 
ATOM     42  N   UNL A   1      44.154  29.762  28.272  1.00  0.00    -0.248 NA
ATOM     43  C   UNL A   1      42.573  31.318  28.999  1.00  0.00     0.031 C 
ATOM     44  C   UNL A   1      40.998  26.591  28.260  1.00  0.00     0.029 A 
ATOM     45  N   UNL A   1      43.162  27.022  27.900  1.00  0.00    -0.354 N 
ATOM     46  C   UNL A   1      44.754  31.012  28.383  1.00  0.00     0.074 A 
ATOM     47  C   UNL A   1      43.718  31.944  28.771  1.00  0.00     0.031 C 
ATOM     48  C   UNL A   1      41.578  25.444  27.876  1.00  0.00     0.029 A 
ATOM     49  C   UNL A   1      42.993  25.688  27.609  1.00  0.00     0.049 A 
ATOM     50  H   UNL A   1      44.029  27.483  27.824  1.00  0.00     0.167 HD
ATOM     51  C   UNL A   1      46.055  31.349  28.205  1.00  0.00     0.037 A 
ATOM     52  C   UNL A   1      43.875  24.767  27.171  1.00  0.00     0.037 A 
ATOM     53  C   UNL A   1      47.085  30.414  27.832  1.00  0.00     0.049 A 
ATOM     54  C   UNL A   1      45.312  25.166  26.968  1.00  0.00     0.074 A 
ATOM     55  C   UNL A   1      48.439  30.646  27.671  1.00  0.00     0.029 A 
ATOM     56  N   UNL A   1      46.875  29.071  27.556  1.00  0.00    -0.354 N 
ATOM     57  N   UNL A   1      45.875  26.339  27.140  1.00  0.00    -0.248 NA
ATOM     58  C   UNL A   1      46.236  24.117  26.517  1.00  0.00     0.031 C 
ATOM     59  C   UNL A   1      49.040  29.456  27.248  1.00  0.00     0.029 A 
ATOM     60  C   UNL A   1      48.071  28.467  27.203  1.00  0.00     0.049 A 
ATOM     61  H   UNL A   1      46.005  28.613  27.605  1.00  0.00     0.167 HD
ATOM     62  C   UNL A   1      47.222  26.162  26.847  1.00  0.00     0.074 A 
ATOM     63  C   UNL A   1      47.393  24.767  26.499  1.00  0.00     0.031 C 
ATOM     64  C   UNL A   1      48.228  27.072  26.864  1.00  0.00     0.037 A 
BRANCH  51  65
ATOM     65  C   UNL A   1      46.438  32.789  28.417  1.00  0.00     0.058 A 
ATOM     66  C   UNL A   1      46.919  33.252  29.653  1.00  0.00     0.135 A 
ATOM     67  C   UNL A   1      46.355  33.715  27.364  1.00  0.00     0.135 A 
ATOM     68  F   UNL A   1      47.006  32.416  30.700  1.00  0.00    -0.206 F 
ATOM     69  C   UNL A   1      47.271  34.584  29.848  1.00  0.00     0.059 A 
ATOM     70  C   UNL A   1      46.732  35.046  27.527  1.00  0.00     0.059 A 
ATOM     71  F   UNL A   1      45.905  33.331  26.159  1.00  0.00    -0.206 F 
ATOM     72  C   UNL A   1      47.173  35.474  28.778  1.00  0.00     0.060 A 
BRANCH  72  73
ATOM     73  S   UNL A   1      47.633  37.198  29.048  1.00  0.00     0.124 S 
ATOM     74  O   UNL A   1      47.164  37.414  30.413  1.00  0.00    -0.237 OA
ATOM     75  O   UNL A   1      49.083  37.165  28.875  1.00  0.00    -0.237 OA
ATOM     76  O   UNL A   1      46.898  37.915  28.012  1.00  0.00    -0.744 OA
ENDBRANCH  72  73
ENDBRANCH  51  65
BRANCH  52  77
ATOM     77  C   UNL A   1      43.423  23.373  26.912  1.00  0.00     0.058 A 
ATOM     78  C   UNL A   1      43.270  22.890  25.603  1.00  0.00     0.135 A 
ATOM     79  C   UNL A   1      43.148  22.491  27.968  1.00  0.00     0.135 A 
ATOM     80  F   UNL A   1      43.512  23.696  24.558  1.00  0.00    -0.206 F 
ATOM     81  C   UNL A   1      42.847  21.589  25.350  1.00  0.00     0.059 A 
ATOM     82  C   UNL A   1      42.750  21.176  27.742  1.00  0.00     0.059 A 
ATOM     83  F   UNL A   1      43.292  22.898  29.239  1.00  0.00    -0.206 F 
ATOM     84  C   UNL A   1      42.594  20.738  26.428  1.00  0.00     0.060 A 
BRANCH  84  85
ATOM     85  S   UNL A   1      42.094  19.036  26.087  1.00  0.00     0.124 S 
ATOM     86  O   UNL A   1      42.924  18.711  24.932  1.00  0.00    -0.237 OA
ATOM     87  O   UNL A   1      42.441  18.360  27.333  1.00  0.00    -0.237 OA
ATOM     88  O   UNL A   1      40.663  19.152  25.823  1.00  0.00    -0.744 OA
ENDBRANCH  84  85
ENDBRANCH  52  77
BRANCH  64  89
ATOM     89  C   UNL A   1      49.612  26.586  26.531  1.00  0.00     0.058 A 
ATOM     90  C   UNL A   1      50.447  26.008  27.499  1.00  0.00     0.135 A 
ATOM     91  C   UNL A   1      50.088  26.651  25.210  1.00  0.00     0.135 A 
ATOM     92  F   UNL A   1      50.045  25.926  28.776  1.00  0.00    -0.206 F 
ATOM     93  C   UNL A   1      51.715  25.532  27.175  1.00  0.00     0.059 A 
ATOM     94  C   UNL A   1      51.339  26.153  24.859  1.00  0.00     0.059 A 
ATOM     95  F   UNL A   1      49.327  27.184  24.242  1.00  0.00    -0.206 F 
ATOM     96  C   UNL A   1      52.150  25.607  25.852  1.00  0.00     0.060 A 
BRANCH  96  97
ATOM     97  S   UNL A   1      53.782  24.953  25.441  1.00  0.00     0.124 S 
ATOM     98  O   UNL A   1      53.463  23.580  25.066  1.00  0.00    -0.237 OA
ATOM     99  O   UNL A   1      54.204  25.827  24.350  1.00  0.00    -0.237 OA
ATOM    100  O   UNL A   1      54.534  25.106  26.684  1.00  0.00    -0.744 OA
ENDBRANCH  96  97
ENDBRANCH  64  89
ENDBRANCH  38  39
ENDBRANCH  30  33
ENDBRANCH  28  29
ENDBRANCH  27  28
ENDBRANCH   1  27
TORSDOF 19
ENDMDL
