MODEL 1
REMARK VINA RESULT:     -12.2      0.000      0.000
REMARK SMILES CC(C)c1cc2c(cc1Cl)C=C(C(=O)NCCCCNC(=O)c1ccc(-c3c4nc(c(-c5c(F)cc(S(=O)(=O)[O-])cc5F)c5ccc([nH]5)c(-c5c(F)cc(S(=O)(=O)[O-])cc5F)c5nc(c(-c6c(F)cc(S(=O)(=O)[O-])cc6F)c6ccc3[nH]6)C=C5)C=C4)cc1)[C@@H](C(F)(F)F)O2
REMARK SMILES IDX 18 1 17 2 16 3 15 4 13 5 14 6 12 8 4 9 5 10 9 11 6 12 8 13
REMARK SMILES IDX 10 14 7 15 94 16 11 17 89 18 2 19 1 20 3 21 90 22 91 23
REMARK SMILES IDX 92 24 93 25 19 26 20 27 21 28 22 30 23 31 24 32 88 33 25 34
REMARK SMILES IDX 87 35 26 36 27 37 28 38 81 39 29 40 86 41 80 42 82 43 30 44
REMARK SMILES IDX 85 45 79 46 78 47 31 49 65 50 44 51 64 52 45 53 48 54 63 55
REMARK SMILES IDX 83 56 46 57 47 58 62 60 84 61 49 62 32 63 33 64 42 65 34 66
REMARK SMILES IDX 35 67 41 68 43 69 36 70 37 71 38 72 39 73 40 74 66 75 67 76
REMARK SMILES IDX 76 77 68 78 69 79 75 80 77 81 70 82 71 83 72 84 73 85 74 86
REMARK SMILES IDX 50 87 51 88 60 89 52 90 53 91 59 92 61 93 54 94 55 95 56 96
REMARK SMILES IDX 57 97 58 98
REMARK H PARENT 15 7 20 29 82 48 48 59
REMARK Flexibility Score: inf
ROOT
ATOM      1  C   UNL A   1      32.986  28.381  27.178  1.00  0.00     0.023 C 
ENDROOT
BRANCH   1   2
ATOM      2  C   UNL A   1      31.802  29.297  26.854  1.00  0.00     0.023 C 
BRANCH   2   3
ATOM      3  C   UNL A   1      32.049  30.263  25.698  1.00  0.00     0.116 C 
BRANCH   3   4
ATOM      4  N   UNL A   1      30.957  30.268  24.742  1.00  0.00    -0.352 N 
ATOM      5  C   UNL A   1      30.414  29.400  23.858  1.00  0.00     0.251 C 
ATOM      6  O   UNL A   1      29.450  29.831  23.216  1.00  0.00    -0.270 OA
ATOM      7  H   UNL A   1      30.486  31.133  24.735  1.00  0.00     0.163 HD
BRANCH   5   8
ATOM      8  C   UNL A   1      30.887  28.004  23.616  1.00  0.00     0.067 C 
ATOM      9  C   UNL A   1      31.658  22.998  23.950  1.00  0.00    -0.023 A 
ATOM     10  C   UNL A   1      31.934  23.994  22.991  1.00  0.00     0.052 A 
ATOM     11  C   UNL A   1      30.961  23.392  25.108  1.00  0.00     0.045 A 
ATOM     12  C   UNL A   1      31.549  25.319  23.185  1.00  0.00     0.128 A 
ATOM     13  C   UNL A   1      30.569  24.728  25.293  1.00  0.00     0.032 A 
ATOM     14  Cl  UNL A   1      30.511  22.290  26.361  1.00  0.00    -0.084 Cl
ATOM     15  C   UNL A   1      30.862  25.696  24.331  1.00  0.00     0.019 A 
ATOM     16  O   UNL A   1      31.838  26.193  22.178  1.00  0.00    -0.475 OA
ATOM     17  C   UNL A   1      30.425  27.078  24.479  1.00  0.00     0.025 C 
ATOM     18  C   UNL A   1      31.852  27.606  22.534  1.00  0.00     0.314 C 
BRANCH   9  19
ATOM     19  C   UNL A   1      32.116  21.584  23.622  1.00  0.00     0.014 C 
ATOM     20  C   UNL A   1      32.006  21.215  22.142  1.00  0.00     0.012 C 
ATOM     21  C   UNL A   1      33.505  21.279  24.189  1.00  0.00     0.012 C 
ENDBRANCH   9  19
BRANCH  18  22
ATOM     22  C   UNL A   1      33.300  28.024  22.850  1.00  0.00     0.429 C 
ATOM     23  F   UNL A   1      33.658  27.589  24.085  1.00  0.00    -0.167 F 
ATOM     24  F   UNL A   1      34.197  27.499  21.984  1.00  0.00    -0.167 F 
ATOM     25  F   UNL A   1      33.469  29.366  22.830  1.00  0.00    -0.167 F 
ENDBRANCH  18  22
ENDBRANCH   5   8
ENDBRANCH   3   4
ENDBRANCH   2   3
ENDBRANCH   1   2
BRANCH   1  26
ATOM     26  C   UNL A   1      34.337  29.078  27.340  1.00  0.00     0.116 C 
BRANCH  26  27
ATOM     27  N   UNL A   1      34.313  30.235  28.225  1.00  0.00    -0.352 N 
ATOM     28  C   UNL A   1      35.345  30.722  28.998  1.00  0.00     0.251 C 
ATOM     29  H   UNL A   1      33.461  30.726  28.277  1.00  0.00     0.163 HD
ATOM     30  O   UNL A   1      35.172  31.676  29.749  1.00  0.00    -0.269 OA
BRANCH  28  31
ATOM     31  C   UNL A   1      36.646  30.028  28.942  1.00  0.00     0.039 A 
ATOM     32  C   UNL A   1      37.168  29.430  30.090  1.00  0.00     0.014 A 
ATOM     33  C   UNL A   1      37.396  30.089  27.765  1.00  0.00     0.014 A 
ATOM     34  C   UNL A   1      38.504  29.050  30.113  1.00  0.00     0.010 A 
ATOM     35  C   UNL A   1      38.719  29.644  27.771  1.00  0.00     0.010 A 
ATOM     36  C   UNL A   1      39.300  29.178  28.961  1.00  0.00    -0.014 A 
BRANCH  36  37
ATOM     37  C   UNL A   1      40.751  28.870  29.045  1.00  0.00     0.031 A 
ATOM     38  C   UNL A   1      41.270  27.523  28.612  1.00  0.00     0.074 A 
ATOM     39  C   UNL A   1      41.608  29.834  29.433  1.00  0.00     0.049 A 
ATOM     40  N   UNL A   1      42.503  27.082  28.598  1.00  0.00    -0.248 NA
ATOM     41  C   UNL A   1      40.281  26.544  28.133  1.00  0.00     0.031 C 
ATOM     42  C   UNL A   1      41.223  31.184  29.849  1.00  0.00     0.029 A 
ATOM     43  N   UNL A   1      42.977  29.838  29.508  1.00  0.00    -0.354 N 
ATOM     44  C   UNL A   1      42.436  25.774  28.132  1.00  0.00     0.074 A 
ATOM     45  C   UNL A   1      41.040  25.483  27.889  1.00  0.00     0.031 C 
ATOM     46  C   UNL A   1      42.332  31.903  30.079  1.00  0.00     0.029 A 
ATOM     47  C   UNL A   1      43.501  31.052  29.880  1.00  0.00     0.049 A 
ATOM     48  H   UNL A   1      43.530  29.047  29.313  1.00  0.00     0.167 HD
ATOM     49  C   UNL A   1      43.448  24.900  27.916  1.00  0.00     0.037 A 
ATOM     50  C   UNL A   1      44.780  31.437  30.049  1.00  0.00     0.037 A 
ATOM     51  C   UNL A   1      44.839  25.203  28.127  1.00  0.00     0.049 A 
ATOM     52  C   UNL A   1      45.881  30.441  29.824  1.00  0.00     0.074 A 
ATOM     53  C   UNL A   1      45.937  24.382  27.938  1.00  0.00     0.029 A 
ATOM     54  N   UNL A   1      45.326  26.426  28.562  1.00  0.00    -0.354 N 
ATOM     55  N   UNL A   1      45.793  29.197  29.421  1.00  0.00    -0.248 NA
ATOM     56  C   UNL A   1      47.251  30.896  30.096  1.00  0.00     0.031 C 
ATOM     57  C   UNL A   1      47.087  25.103  28.280  1.00  0.00     0.029 A 
ATOM     58  C   UNL A   1      46.706  26.381  28.655  1.00  0.00     0.049 A 
ATOM     59  H   UNL A   1      44.770  27.212  28.773  1.00  0.00     0.167 HD
ATOM     60  C   UNL A   1      47.097  28.717  29.392  1.00  0.00     0.074 A 
ATOM     61  C   UNL A   1      47.956  29.812  29.797  1.00  0.00     0.031 C 
ATOM     62  C   UNL A   1      47.541  27.479  29.069  1.00  0.00     0.037 A 
BRANCH  49  63
ATOM     63  C   UNL A   1      43.094  23.523  27.430  1.00  0.00     0.058 A 
ATOM     64  C   UNL A   1      43.221  23.168  26.078  1.00  0.00     0.135 A 
ATOM     65  C   UNL A   1      42.682  22.531  28.334  1.00  0.00     0.135 A 
ATOM     66  F   UNL A   1      43.592  24.084  25.171  1.00  0.00    -0.206 F 
ATOM     67  C   UNL A   1      42.943  21.878  25.639  1.00  0.00     0.059 A 
ATOM     68  C   UNL A   1      42.415  21.230  27.919  1.00  0.00     0.059 A 
ATOM     69  F   UNL A   1      42.542  22.823  29.637  1.00  0.00    -0.206 F 
ATOM     70  C   UNL A   1      42.541  20.915  26.567  1.00  0.00     0.060 A 
BRANCH  70  71
ATOM     71  S   UNL A   1      42.200  19.241  25.983  1.00  0.00     0.124 S 
ATOM     72  O   UNL A   1      40.758  19.299  25.761  1.00  0.00    -0.237 OA
ATOM     73  O   UNL A   1      43.023  19.155  24.780  1.00  0.00    -0.237 OA
ATOM     74  O   UNL A   1      42.630  18.399  27.095  1.00  0.00    -0.744 OA
ENDBRANCH  70  71
ENDBRANCH  49  63
BRANCH  50  75
ATOM     75  C   UNL A   1      45.079  32.832  30.455  1.00  0.00     0.058 A 
ATOM     76  C   UNL A   1      45.244  33.167  31.805  1.00  0.00     0.135 A 
ATOM     77  C   UNL A   1      45.247  33.845  29.499  1.00  0.00     0.135 A 
ATOM     78  F   UNL A   1      45.086  32.231  32.753  1.00  0.00    -0.206 F 
ATOM     79  C   UNL A   1      45.567  34.462  32.197  1.00  0.00     0.059 A 
ATOM     80  C   UNL A   1      45.590  35.141  29.864  1.00  0.00     0.059 A 
ATOM     81  F   UNL A   1      45.113  33.567  28.193  1.00  0.00    -0.206 F 
ATOM     82  C   UNL A   1      45.743  35.441  31.217  1.00  0.00     0.060 A 
BRANCH  82  83
ATOM     83  S   UNL A   1      46.236  37.103  31.726  1.00  0.00     0.124 S 
ATOM     84  O   UNL A   1      46.424  36.925  33.161  1.00  0.00    -0.237 OA
ATOM     85  O   UNL A   1      47.450  37.319  30.945  1.00  0.00    -0.237 OA
ATOM     86  O   UNL A   1      45.094  37.923  31.332  1.00  0.00    -0.744 OA
ENDBRANCH  82  83
ENDBRANCH  50  75
BRANCH  62  87
ATOM     87  C   UNL A   1      49.020  27.240  29.146  1.00  0.00     0.058 A 
ATOM     88  C   UNL A   1      49.857  27.523  28.055  1.00  0.00     0.135 A 
ATOM     89  C   UNL A   1      49.611  26.779  30.332  1.00  0.00     0.135 A 
ATOM     90  F   UNL A   1      49.335  27.959  26.899  1.00  0.00    -0.206 F 
ATOM     91  C   UNL A   1      51.232  27.342  28.135  1.00  0.00     0.059 A 
ATOM     92  C   UNL A   1      50.987  26.608  30.439  1.00  0.00     0.059 A 
ATOM     93  F   UNL A   1      48.851  26.504  31.403  1.00  0.00    -0.206 F 
ATOM     94  C   UNL A   1      51.789  26.885  29.331  1.00  0.00     0.060 A 
BRANCH  94  95
ATOM     95  S   UNL A   1      53.581  26.691  29.433  1.00  0.00     0.124 S 
ATOM     96  O   UNL A   1      53.871  25.981  28.193  1.00  0.00    -0.237 OA
ATOM     97  O   UNL A   1      54.044  28.074  29.497  1.00  0.00    -0.237 OA
ATOM     98  O   UNL A   1      53.768  25.918  30.659  1.00  0.00    -0.744 OA
ENDBRANCH  94  95
ENDBRANCH  62  87
ENDBRANCH  36  37
ENDBRANCH  28  31
ENDBRANCH  26  27
ENDBRANCH   1  26
TORSDOF 16
ENDMDL
MODEL 2
REMARK VINA RESULT:     -12.1      1.333      8.240
REMARK SMILES CC(C)c1cc2c(cc1Cl)C=C(C(=O)NCCCCNC(=O)c1ccc(-c3c4nc(c(-c5c(F)cc(S(=O)(=O)[O-])cc5F)c5ccc([nH]5)c(-c5c(F)cc(S(=O)(=O)[O-])cc5F)c5nc(c(-c6c(F)cc(S(=O)(=O)[O-])cc6F)c6ccc3[nH]6)C=C5)C=C4)cc1)[C@@H](C(F)(F)F)O2
REMARK SMILES IDX 18 1 17 2 16 3 15 4 13 5 14 6 12 8 4 9 5 10 9 11 6 12 8 13
REMARK SMILES IDX 10 14 7 15 94 16 11 17 89 18 2 19 1 20 3 21 90 22 91 23
REMARK SMILES IDX 92 24 93 25 19 26 20 27 21 28 22 30 23 31 24 32 88 33 25 34
REMARK SMILES IDX 87 35 26 36 27 37 28 38 81 39 29 40 86 41 80 42 82 43 30 44
REMARK SMILES IDX 85 45 79 46 78 47 31 49 65 50 44 51 64 52 45 53 48 54 63 55
REMARK SMILES IDX 83 56 46 57 47 58 62 60 84 61 49 62 32 63 33 64 42 65 34 66
REMARK SMILES IDX 35 67 41 68 43 69 36 70 37 71 38 72 39 73 40 74 66 75 67 76
REMARK SMILES IDX 76 77 68 78 69 79 75 80 77 81 70 82 71 83 72 84 73 85 74 86
REMARK SMILES IDX 50 87 51 88 60 89 52 90 53 91 59 92 61 93 54 94 55 95 56 96
REMARK SMILES IDX 57 97 58 98
REMARK H PARENT 15 7 20 29 82 48 48 59
REMARK Flexibility Score: inf
ROOT
ATOM      1  C   UNL A   1      33.465  28.657  27.409  1.00  0.00     0.023 C 
ENDROOT
BRANCH   1   2
ATOM      2  C   UNL A   1      32.176  29.343  26.947  1.00  0.00     0.023 C 
BRANCH   2   3
ATOM      3  C   UNL A   1      32.351  30.276  25.752  1.00  0.00     0.116 C 
BRANCH   3   4
ATOM      4  N   UNL A   1      31.190  30.278  24.880  1.00  0.00    -0.352 N 
ATOM      5  C   UNL A   1      30.578  29.403  24.049  1.00  0.00     0.251 C 
ATOM      6  O   UNL A   1      29.571  29.833  23.476  1.00  0.00    -0.270 OA
ATOM      7  H   UNL A   1      30.725  31.146  24.898  1.00  0.00     0.163 HD
BRANCH   5   8
ATOM      8  C   UNL A   1      31.023  28.001  23.789  1.00  0.00     0.067 C 
ATOM      9  C   UNL A   1      31.719  22.982  24.077  1.00  0.00    -0.023 A 
ATOM     10  C   UNL A   1      31.993  23.979  23.119  1.00  0.00     0.052 A 
ATOM     11  C   UNL A   1      31.051  23.379  25.251  1.00  0.00     0.045 A 
ATOM     12  C   UNL A   1      31.633  25.309  23.329  1.00  0.00     0.128 A 
ATOM     13  C   UNL A   1      30.684  24.720  25.452  1.00  0.00     0.032 A 
ATOM     14  Cl  UNL A   1      30.607  22.277  26.505  1.00  0.00    -0.084 Cl
ATOM     15  C   UNL A   1      30.974  25.689  24.490  1.00  0.00     0.019 A 
ATOM     16  O   UNL A   1      31.917  26.185  22.322  1.00  0.00    -0.475 OA
ATOM     17  C   UNL A   1      30.563  27.077  24.655  1.00  0.00     0.025 C 
ATOM     18  C   UNL A   1      31.960  27.595  22.687  1.00  0.00     0.314 C 
BRANCH   9  19
ATOM     19  C   UNL A   1      32.148  21.563  23.731  1.00  0.00     0.014 C 
ATOM     20  C   UNL A   1      32.153  21.255  22.233  1.00  0.00     0.012 C 
ATOM     21  C   UNL A   1      33.468  21.176  24.402  1.00  0.00     0.012 C 
ENDBRANCH   9  19
BRANCH  18  22
ATOM     22  C   UNL A   1      33.421  27.988  22.977  1.00  0.00     0.429 C 
ATOM     23  F   UNL A   1      33.587  29.328  22.837  1.00  0.00    -0.167 F 
ATOM     24  F   UNL A   1      33.803  27.685  24.240  1.00  0.00    -0.167 F 
ATOM     25  F   UNL A   1      34.297  27.384  22.143  1.00  0.00    -0.167 F 
ENDBRANCH  18  22
ENDBRANCH   5   8
ENDBRANCH   3   4
ENDBRANCH   2   3
ENDBRANCH   1   2
BRANCH   1  26
ATOM     26  C   UNL A   1      34.714  29.539  27.427  1.00  0.00     0.116 C 
BRANCH  26  27
ATOM     27  N   UNL A   1      34.846  30.366  28.619  1.00  0.00    -0.352 N 
ATOM     28  C   UNL A   1      35.965  30.528  29.407  1.00  0.00     0.251 C 
ATOM     29  H   UNL A   1      34.044  30.867  28.892  1.00  0.00     0.163 HD
ATOM     30  O   UNL A   1      35.924  31.212  30.424  1.00  0.00    -0.269 OA
BRANCH  28  31
ATOM     31  C   UNL A   1      37.196  29.808  29.029  1.00  0.00     0.039 A 
ATOM     32  C   UNL A   1      37.964  29.174  30.008  1.00  0.00     0.014 A 
ATOM     33  C   UNL A   1      37.642  29.878  27.707  1.00  0.00     0.014 A 
ATOM     34  C   UNL A   1      39.256  28.766  29.701  1.00  0.00     0.010 A 
ATOM     35  C   UNL A   1      38.916  29.404  27.387  1.00  0.00     0.010 A 
ATOM     36  C   UNL A   1      39.754  28.902  28.394  1.00  0.00    -0.014 A 
BRANCH  36  37
ATOM     37  C   UNL A   1      41.174  28.561  28.120  1.00  0.00     0.031 A 
ATOM     38  C   UNL A   1      42.256  29.593  28.304  1.00  0.00     0.074 A 
ATOM     39  C   UNL A   1      41.494  27.296  27.785  1.00  0.00     0.049 A 
ATOM     40  N   UNL A   1      43.547  29.472  28.130  1.00  0.00    -0.248 NA
ATOM     41  C   UNL A   1      41.836  30.935  28.740  1.00  0.00     0.031 C 
ATOM     42  C   UNL A   1      40.534  26.204  27.604  1.00  0.00     0.029 A 
ATOM     43  N   UNL A   1      42.714  26.707  27.572  1.00  0.00    -0.354 N 
ATOM     44  C   UNL A   1      44.090  30.720  28.413  1.00  0.00     0.074 A 
ATOM     45  C   UNL A   1      42.988  31.593  28.755  1.00  0.00     0.031 C 
ATOM     46  C   UNL A   1      41.205  25.068  27.365  1.00  0.00     0.029 A 
ATOM     47  C   UNL A   1      42.636  25.359  27.322  1.00  0.00     0.049 A 
ATOM     48  H   UNL A   1      43.564  27.204  27.596  1.00  0.00     0.167 HD
ATOM     49  C   UNL A   1      45.391  31.099  28.399  1.00  0.00     0.037 A 
ATOM     50  C   UNL A   1      43.605  24.457  27.078  1.00  0.00     0.037 A 
ATOM     51  C   UNL A   1      46.488  30.221  28.091  1.00  0.00     0.049 A 
ATOM     52  C   UNL A   1      45.036  24.910  27.047  1.00  0.00     0.074 A 
ATOM     53  C   UNL A   1      47.840  30.514  28.049  1.00  0.00     0.029 A 
ATOM     54  N   UNL A   1      46.362  28.875  27.784  1.00  0.00    -0.354 N 
ATOM     55  N   UNL A   1      45.525  26.104  27.279  1.00  0.00    -0.248 NA
ATOM     56  C   UNL A   1      46.043  23.898  26.702  1.00  0.00     0.031 C 
ATOM     57  C   UNL A   1      48.530  29.349  27.696  1.00  0.00     0.029 A 
ATOM     58  C   UNL A   1      47.610  28.325  27.545  1.00  0.00     0.049 A 
ATOM     59  H   UNL A   1      45.510  28.382  27.743  1.00  0.00     0.167 HD
ATOM     60  C   UNL A   1      46.899  25.989  27.106  1.00  0.00     0.074 A 
ATOM     61  C   UNL A   1      47.165  24.604  26.772  1.00  0.00     0.031 C 
ATOM     62  C   UNL A   1      47.852  26.946  27.205  1.00  0.00     0.037 A 
BRANCH  49  63
ATOM     63  C   UNL A   1      45.706  32.533  28.721  1.00  0.00     0.058 A 
ATOM     64  C   UNL A   1      45.716  33.522  27.726  1.00  0.00     0.135 A 
ATOM     65  C   UNL A   1      45.941  32.931  30.047  1.00  0.00     0.135 A 
ATOM     66  F   UNL A   1      45.516  33.191  26.441  1.00  0.00    -0.206 F 
ATOM     67  C   UNL A   1      45.956  34.857  28.034  1.00  0.00     0.059 A 
ATOM     68  C   UNL A   1      46.167  34.263  30.379  1.00  0.00     0.059 A 
ATOM     69  F   UNL A   1      45.946  32.021  31.034  1.00  0.00    -0.206 F 
ATOM     70  C   UNL A   1      46.180  35.219  29.364  1.00  0.00     0.060 A 
BRANCH  70  71
ATOM     71  S   UNL A   1      46.474  36.958  29.749  1.00  0.00     0.124 S 
ATOM     72  O   UNL A   1      47.345  36.854  30.916  1.00  0.00    -0.237 OA
ATOM     73  O   UNL A   1      47.107  37.447  28.529  1.00  0.00    -0.237 OA
ATOM     74  O   UNL A   1      45.136  37.479  30.010  1.00  0.00    -0.744 OA
ENDBRANCH  70  71
ENDBRANCH  49  63
BRANCH  50  75
ATOM     75  C   UNL A   1      43.244  23.038  26.843  1.00  0.00     0.058 A 
ATOM     76  C   UNL A   1      43.310  22.484  25.558  1.00  0.00     0.135 A 
ATOM     77  C   UNL A   1      42.870  22.199  27.904  1.00  0.00     0.135 A 
ATOM     78  F   UNL A   1      43.656  23.250  24.514  1.00  0.00    -0.206 F 
ATOM     79  C   UNL A   1      43.016  21.143  25.330  1.00  0.00     0.059 A 
ATOM     80  C   UNL A   1      42.593  20.852  27.705  1.00  0.00     0.059 A 
ATOM     81  F   UNL A   1      42.809  22.684  29.154  1.00  0.00    -0.206 F 
ATOM     82  C   UNL A   1      42.663  20.334  26.413  1.00  0.00     0.060 A 
BRANCH  82  83
ATOM     83  S   UNL A   1      42.356  18.578  26.124  1.00  0.00     0.124 S 
ATOM     84  O   UNL A   1      40.945  18.585  25.752  1.00  0.00    -0.237 OA
ATOM     85  O   UNL A   1      43.297  18.271  25.051  1.00  0.00    -0.237 OA
ATOM     86  O   UNL A   1      42.669  17.970  27.413  1.00  0.00    -0.744 OA
ENDBRANCH  82  83
ENDBRANCH  50  75
BRANCH  62  87
ATOM     87  C   UNL A   1      49.269  26.531  26.944  1.00  0.00     0.058 A 
ATOM     88  C   UNL A   1      49.814  26.585  25.652  1.00  0.00     0.135 A 
ATOM     89  C   UNL A   1      50.104  26.128  27.998  1.00  0.00     0.135 A 
ATOM     90  F   UNL A   1      49.052  26.957  24.613  1.00  0.00    -0.206 F 
ATOM     91  C   UNL A   1      51.139  26.240  25.412  1.00  0.00     0.059 A 
ATOM     92  C   UNL A   1      51.437  25.795  27.783  1.00  0.00     0.059 A 
ATOM     93  F   UNL A   1      49.628  26.069  29.252  1.00  0.00    -0.206 F 
ATOM     94  C   UNL A   1      51.943  25.847  26.483  1.00  0.00     0.060 A 
BRANCH  94  95
ATOM     95  S   UNL A   1      53.672  25.438  26.163  1.00  0.00     0.124 S 
ATOM     96  O   UNL A   1      53.562  24.078  25.648  1.00  0.00    -0.237 OA
ATOM     97  O   UNL A   1      54.062  26.456  25.192  1.00  0.00    -0.237 OA
ATOM     98  O   UNL A   1      54.297  25.564  27.477  1.00  0.00    -0.744 OA
ENDBRANCH  94  95
ENDBRANCH  62  87
ENDBRANCH  36  37
ENDBRANCH  28  31
ENDBRANCH  26  27
ENDBRANCH   1  26
TORSDOF 16
ENDMDL
MODEL 3
REMARK VINA RESULT:     -12.0      1.089      1.887
REMARK SMILES CC(C)c1cc2c(cc1Cl)C=C(C(=O)NCCCCNC(=O)c1ccc(-c3c4nc(c(-c5c(F)cc(S(=O)(=O)[O-])cc5F)c5ccc([nH]5)c(-c5c(F)cc(S(=O)(=O)[O-])cc5F)c5nc(c(-c6c(F)cc(S(=O)(=O)[O-])cc6F)c6ccc3[nH]6)C=C5)C=C4)cc1)[C@@H](C(F)(F)F)O2
REMARK SMILES IDX 18 1 17 2 16 3 15 4 13 5 14 6 12 8 4 9 5 10 9 11 6 12 8 13
REMARK SMILES IDX 10 14 7 15 94 16 11 17 89 18 2 19 1 20 3 21 90 22 91 23
REMARK SMILES IDX 92 24 93 25 19 26 20 27 21 28 22 30 23 31 24 32 88 33 25 34
REMARK SMILES IDX 87 35 26 36 27 37 28 38 81 39 29 40 86 41 80 42 82 43 30 44
REMARK SMILES IDX 85 45 79 46 78 47 31 49 65 50 44 51 64 52 45 53 48 54 63 55
REMARK SMILES IDX 83 56 46 57 47 58 62 60 84 61 49 62 32 63 33 64 42 65 34 66
REMARK SMILES IDX 35 67 41 68 43 69 36 70 37 71 38 72 39 73 40 74 66 75 67 76
REMARK SMILES IDX 76 77 68 78 69 79 75 80 77 81 70 82 71 83 72 84 73 85 74 86
REMARK SMILES IDX 50 87 51 88 60 89 52 90 53 91 59 92 61 93 54 94 55 95 56 96
REMARK SMILES IDX 57 97 58 98
REMARK H PARENT 15 7 20 29 82 48 48 59
REMARK Flexibility Score: inf
ROOT
ATOM      1  C   UNL A   1      32.679  28.420  27.002  1.00  0.00     0.023 C 
ENDROOT
BRANCH   1   2
ATOM      2  C   UNL A   1      31.598  29.481  26.775  1.00  0.00     0.023 C 
BRANCH   2   3
ATOM      3  C   UNL A   1      31.548  30.037  25.355  1.00  0.00     0.116 C 
BRANCH   3   4
ATOM      4  N   UNL A   1      30.600  29.325  24.518  1.00  0.00    -0.352 N 
ATOM      5  C   UNL A   1      30.566  28.154  23.839  1.00  0.00     0.251 C 
ATOM      6  O   UNL A   1      29.515  27.925  23.231  1.00  0.00    -0.270 OA
ATOM      7  H   UNL A   1      29.758  29.826  24.416  1.00  0.00     0.163 HD
BRANCH   5   8
ATOM      8  C   UNL A   1      31.676  27.156  23.782  1.00  0.00     0.067 C 
ATOM      9  C   UNL A   1      34.872  23.362  24.855  1.00  0.00    -0.023 A 
ATOM     10  C   UNL A   1      34.596  24.150  23.719  1.00  0.00     0.052 A 
ATOM     11  C   UNL A   1      34.086  23.583  26.001  1.00  0.00     0.045 A 
ATOM     12  C   UNL A   1      33.598  25.122  23.732  1.00  0.00     0.128 A 
ATOM     13  C   UNL A   1      33.076  24.559  26.004  1.00  0.00     0.032 A 
ATOM     14  Cl  UNL A   1      34.269  22.678  27.461  1.00  0.00    -0.084 Cl
ATOM     15  C   UNL A   1      32.828  25.331  24.869  1.00  0.00     0.019 A 
ATOM     16  O   UNL A   1      33.393  25.804  22.568  1.00  0.00    -0.475 OA
ATOM     17  C   UNL A   1      31.755  26.316  24.832  1.00  0.00     0.025 C 
ATOM     18  C   UNL A   1      32.696  27.079  22.681  1.00  0.00     0.314 C 
BRANCH   9  19
ATOM     19  C   UNL A   1      35.978  22.325  24.717  1.00  0.00     0.014 C 
ATOM     20  C   UNL A   1      35.495  20.876  24.808  1.00  0.00     0.012 C 
ATOM     21  C   UNL A   1      36.848  22.564  23.481  1.00  0.00     0.012 C 
ENDBRANCH   9  19
BRANCH  18  22
ATOM     22  C   UNL A   1      33.739  28.209  22.760  1.00  0.00     0.429 C 
ATOM     23  F   UNL A   1      34.689  28.044  21.804  1.00  0.00    -0.167 F 
ATOM     24  F   UNL A   1      33.200  29.434  22.556  1.00  0.00    -0.167 F 
ATOM     25  F   UNL A   1      34.372  28.249  23.954  1.00  0.00    -0.167 F 
ENDBRANCH  18  22
ENDBRANCH   5   8
ENDBRANCH   3   4
ENDBRANCH   2   3
ENDBRANCH   1   2
BRANCH   1  26
ATOM     26  C   UNL A   1      34.062  28.954  27.373  1.00  0.00     0.116 C 
BRANCH  26  27
ATOM     27  N   UNL A   1      34.044  30.226  28.085  1.00  0.00    -0.352 N 
ATOM     28  C   UNL A   1      35.083  30.820  28.767  1.00  0.00     0.251 C 
ATOM     29  H   UNL A   1      33.190  30.716  28.077  1.00  0.00     0.163 HD
ATOM     30  O   UNL A   1      34.915  31.871  29.377  1.00  0.00    -0.269 OA
BRANCH  28  31
ATOM     31  C   UNL A   1      36.387  30.130  28.794  1.00  0.00     0.039 A 
ATOM     32  C   UNL A   1      36.870  29.597  29.990  1.00  0.00     0.014 A 
ATOM     33  C   UNL A   1      37.177  30.131  27.642  1.00  0.00     0.014 A 
ATOM     34  C   UNL A   1      38.205  29.224  30.079  1.00  0.00     0.010 A 
ATOM     35  C   UNL A   1      38.500  29.691  27.718  1.00  0.00     0.010 A 
ATOM     36  C   UNL A   1      39.041  29.294  28.951  1.00  0.00    -0.014 A 
BRANCH  36  37
ATOM     37  C   UNL A   1      40.488  28.996  29.101  1.00  0.00     0.031 A 
ATOM     38  C   UNL A   1      41.039  27.657  28.682  1.00  0.00     0.074 A 
ATOM     39  C   UNL A   1      41.317  29.963  29.538  1.00  0.00     0.049 A 
ATOM     40  N   UNL A   1      42.274  27.227  28.723  1.00  0.00    -0.248 NA
ATOM     41  C   UNL A   1      40.082  26.675  28.148  1.00  0.00     0.031 C 
ATOM     42  C   UNL A   1      40.901  31.307  29.947  1.00  0.00     0.029 A 
ATOM     43  N   UNL A   1      42.681  29.978  29.678  1.00  0.00    -0.354 N 
ATOM     44  C   UNL A   1      42.241  25.922  28.243  1.00  0.00     0.074 A 
ATOM     45  C   UNL A   1      40.860  25.622  27.930  1.00  0.00     0.031 C 
ATOM     46  C   UNL A   1      41.992  32.033  30.236  1.00  0.00     0.029 A 
ATOM     47  C   UNL A   1      43.177  31.192  30.086  1.00  0.00     0.049 A 
ATOM     48  H   UNL A   1      43.249  29.194  29.503  1.00  0.00     0.167 HD
ATOM     49  C   UNL A   1      43.270  25.059  28.068  1.00  0.00     0.037 A 
ATOM     50  C   UNL A   1      44.443  31.586  30.319  1.00  0.00     0.037 A 
ATOM     51  C   UNL A   1      44.646  25.371  28.348  1.00  0.00     0.049 A 
ATOM     52  C   UNL A   1      45.561  30.601  30.139  1.00  0.00     0.074 A 
ATOM     53  C   UNL A   1      45.759  24.561  28.204  1.00  0.00     0.029 A 
ATOM     54  N   UNL A   1      45.101  26.594  28.817  1.00  0.00    -0.354 N 
ATOM     55  N   UNL A   1      45.504  29.360  29.721  1.00  0.00    -0.248 NA
ATOM     56  C   UNL A   1      46.913  31.065  30.480  1.00  0.00     0.031 C 
ATOM     57  C   UNL A   1      46.885  25.288  28.607  1.00  0.00     0.029 A 
ATOM     58  C   UNL A   1      46.476  26.559  28.975  1.00  0.00     0.049 A 
ATOM     59  H   UNL A   1      44.529  27.373  29.008  1.00  0.00     0.167 HD
ATOM     60  C   UNL A   1      46.811  28.891  29.751  1.00  0.00     0.074 A 
ATOM     61  C   UNL A   1      47.641  29.989  30.206  1.00  0.00     0.031 C 
ATOM     62  C   UNL A   1      47.281  27.660  29.438  1.00  0.00     0.037 A 
BRANCH  49  63
ATOM     63  C   UNL A   1      42.951  23.684  27.553  1.00  0.00     0.058 A 
ATOM     64  C   UNL A   1      43.089  23.359  26.195  1.00  0.00     0.135 A 
ATOM     65  C   UNL A   1      42.562  22.664  28.436  1.00  0.00     0.135 A 
ATOM     66  F   UNL A   1      43.439  24.302  25.307  1.00  0.00    -0.206 F 
ATOM     67  C   UNL A   1      42.844  22.072  25.729  1.00  0.00     0.059 A 
ATOM     68  C   UNL A   1      42.328  21.365  27.994  1.00  0.00     0.059 A 
ATOM     69  F   UNL A   1      42.412  22.925  29.744  1.00  0.00    -0.206 F 
ATOM     70  C   UNL A   1      42.464  21.080  26.636  1.00  0.00     0.060 A 
BRANCH  70  71
ATOM     71  S   UNL A   1      42.167  19.410  26.018  1.00  0.00     0.124 S 
ATOM     72  O   UNL A   1      42.946  19.415  24.783  1.00  0.00    -0.237 OA
ATOM     73  O   UNL A   1      42.694  18.578  27.095  1.00  0.00    -0.237 OA
ATOM     74  O   UNL A   1      40.718  19.364  25.845  1.00  0.00    -0.744 OA
ENDBRANCH  70  71
ENDBRANCH  49  63
BRANCH  50  75
ATOM     75  C   UNL A   1      44.710  32.980  30.751  1.00  0.00     0.058 A 
ATOM     76  C   UNL A   1      44.961  33.987  29.810  1.00  0.00     0.135 A 
ATOM     77  C   UNL A   1      44.675  33.338  32.107  1.00  0.00     0.135 A 
ATOM     78  F   UNL A   1      45.009  33.688  28.504  1.00  0.00    -0.206 F 
ATOM     79  C   UNL A   1      45.169  35.306  30.198  1.00  0.00     0.059 A 
ATOM     80  C   UNL A   1      44.859  34.653  32.518  1.00  0.00     0.059 A 
ATOM     81  F   UNL A   1      44.423  32.409  33.042  1.00  0.00    -0.206 F 
ATOM     82  C   UNL A   1      45.111  35.630  31.556  1.00  0.00     0.060 A 
BRANCH  82  83
ATOM     83  S   UNL A   1      45.308  37.357  32.049  1.00  0.00     0.124 S 
ATOM     84  O   UNL A   1      46.476  37.280  32.920  1.00  0.00    -0.237 OA
ATOM     85  O   UNL A   1      45.510  38.024  30.767  1.00  0.00    -0.237 OA
ATOM     86  O   UNL A   1      44.043  37.659  32.710  1.00  0.00    -0.744 OA
ENDBRANCH  82  83
ENDBRANCH  50  75
BRANCH  62  87
ATOM     87  C   UNL A   1      48.756  27.432  29.583  1.00  0.00     0.058 A 
ATOM     88  C   UNL A   1      49.290  26.863  30.750  1.00  0.00     0.135 A 
ATOM     89  C   UNL A   1      49.635  27.733  28.532  1.00  0.00     0.135 A 
ATOM     90  F   UNL A   1      48.488  26.565  31.784  1.00  0.00    -0.206 F 
ATOM     91  C   UNL A   1      50.651  26.613  30.874  1.00  0.00     0.059 A 
ATOM     92  C   UNL A   1      50.998  27.475  28.628  1.00  0.00     0.059 A 
ATOM     93  F   UNL A   1      49.168  28.271  27.394  1.00  0.00    -0.206 F 
ATOM     94  C   UNL A   1      51.498  26.922  29.807  1.00  0.00     0.060 A 
BRANCH  94  95
ATOM     95  S   UNL A   1      53.259  26.556  29.966  1.00  0.00     0.124 S 
ATOM     96  O   UNL A   1      53.806  27.873  30.269  1.00  0.00    -0.237 OA
ATOM     97  O   UNL A   1      53.282  25.590  31.061  1.00  0.00    -0.237 OA
ATOM     98  O   UNL A   1      53.611  26.015  28.656  1.00  0.00    -0.744 OA
ENDBRANCH  94  95
ENDBRANCH  62  87
ENDBRANCH  36  37
ENDBRANCH  28  31
ENDBRANCH  26  27
ENDBRANCH   1  26
TORSDOF 16
ENDMDL
