MODEL 1
REMARK VINA RESULT:     -10.3      0.000      0.000
REMARK SMILES C=CCN(CC(=O)NCCCCNC(=O)c1ccc(-c2c3nc(c(-c4c(F)cc(S(=O)(=O)[O-])cc4F)c4ccc([nH]4)c(-c4c(F)cc(S(=O)(=O)[O-])cc4F)c4nc(c(-c5c(F)cc(S(=O)(=O)[O-])cc5F)c5ccc2[nH]5)C=C4)C=C3)cc1)c1nc2ccccc2s1
REMARK SMILES IDX 10 1 9 2 8 3 6 4 7 5 5 7 4 8 3 9 2 10 1 11 82 12 83 13 90 14
REMARK SMILES IDX 84 15 89 16 85 17 88 18 86 19 87 20 11 21 12 22 13 23 14 24
REMARK SMILES IDX 15 26 16 27 17 28 81 29 18 30 80 31 19 32 20 33 21 34 74 35
REMARK SMILES IDX 22 36 79 37 73 38 75 39 23 40 78 41 72 42 71 43 24 45 58 46
REMARK SMILES IDX 37 47 57 48 38 49 41 50 56 51 76 52 39 53 40 54 55 56 77 57
REMARK SMILES IDX 42 58 25 59 26 60 35 61 27 62 28 63 34 64 36 65 29 66 30 67
REMARK SMILES IDX 31 68 32 69 33 70 59 71 60 72 69 73 61 74 62 75 68 76 70 77
REMARK SMILES IDX 63 78 64 79 65 80 66 81 67 82 43 83 44 84 53 85 45 86 46 87
REMARK SMILES IDX 52 88 54 89 47 90 48 91 49 92 50 93 51 94
REMARK H PARENT 8 6 13 25 75 44 41 55
REMARK Flexibility Score: inf
ROOT
ATOM      1  C   UNL A   1      32.061  26.759  25.670  1.00  0.00     0.023 C 
ENDROOT
BRANCH   1   2
ATOM      2  C   UNL A   1      31.133  25.554  25.800  1.00  0.00     0.116 C 
BRANCH   2   3
ATOM      3  N   UNL A   1      31.491  24.700  26.906  1.00  0.00    -0.355 N 
ATOM      4  C   UNL A   1      31.859  23.382  26.897  1.00  0.00     0.239 C 
ATOM      5  O   UNL A   1      32.292  22.907  27.952  1.00  0.00    -0.273 OA
ATOM      6  H   UNL A   1      31.468  25.125  27.794  1.00  0.00     0.163 HD
BRANCH   4   7
ATOM      7  C   UNL A   1      31.861  22.570  25.589  1.00  0.00     0.219 C 
BRANCH   7   8
ATOM      8  N   UNL A   1      32.768  23.055  24.527  1.00  0.00    -0.335 N 
BRANCH   8   9
ATOM      9  C   UNL A   1      32.217  23.323  23.211  1.00  0.00     0.146 C 
BRANCH   9  10
ATOM     10  C   UNL A   1      32.410  22.188  22.253  1.00  0.00    -0.014 C 
ATOM     11  C   UNL A   1      32.066  20.923  22.538  1.00  0.00     0.006 C 
ENDBRANCH   9  10
ENDBRANCH   8   9
BRANCH   8  12
ATOM     12  C   UNL A   1      34.108  23.076  24.807  1.00  0.00     0.187 A 
ATOM     13  N   UNL A   1      34.850  21.992  24.764  1.00  0.00    -0.220 NA
ATOM     14  S   UNL A   1      34.989  24.480  25.304  1.00  0.00    -0.097 S 
ATOM     15  C   UNL A   1      36.144  22.235  25.172  1.00  0.00     0.084 A 
ATOM     16  C   UNL A   1      36.398  23.541  25.578  1.00  0.00     0.056 A 
ATOM     17  C   UNL A   1      37.185  21.288  25.229  1.00  0.00     0.030 A 
ATOM     18  C   UNL A   1      37.644  23.926  26.101  1.00  0.00     0.021 A 
ATOM     19  C   UNL A   1      38.434  21.660  25.733  1.00  0.00     0.002 A 
ATOM     20  C   UNL A   1      38.654  22.960  26.179  1.00  0.00     0.002 A 
ENDBRANCH   8  12
ENDBRANCH   7   8
ENDBRANCH   4   7
ENDBRANCH   2   3
ENDBRANCH   1   2
BRANCH   1  21
ATOM     21  C   UNL A   1      32.322  27.510  26.977  1.00  0.00     0.023 C 
BRANCH  21  22
ATOM     22  C   UNL A   1      33.657  28.244  27.059  1.00  0.00     0.116 C 
BRANCH  22  23
ATOM     23  N   UNL A   1      33.521  29.639  27.448  1.00  0.00    -0.352 N 
ATOM     24  C   UNL A   1      34.451  30.471  28.031  1.00  0.00     0.251 C 
ATOM     25  H   UNL A   1      32.643  30.045  27.268  1.00  0.00     0.163 HD
ATOM     26  O   UNL A   1      34.121  31.588  28.403  1.00  0.00    -0.269 OA
BRANCH  24  27
ATOM     27  C   UNL A   1      35.837  29.991  28.239  1.00  0.00     0.039 A 
ATOM     28  C   UNL A   1      36.754  30.114  27.192  1.00  0.00     0.014 A 
ATOM     29  C   UNL A   1      36.236  29.440  29.460  1.00  0.00     0.014 A 
ATOM     30  C   UNL A   1      38.088  29.753  27.396  1.00  0.00     0.010 A 
ATOM     31  C   UNL A   1      37.580  29.149  29.683  1.00  0.00     0.010 A 
ATOM     32  C   UNL A   1      38.523  29.306  28.655  1.00  0.00    -0.014 A 
BRANCH  32  33
ATOM     33  C   UNL A   1      39.958  29.020  28.918  1.00  0.00     0.031 A 
ATOM     34  C   UNL A   1      40.548  27.684  28.551  1.00  0.00     0.074 A 
ATOM     35  C   UNL A   1      40.714  29.942  29.550  1.00  0.00     0.049 A 
ATOM     36  N   UNL A   1      41.757  27.233  28.760  1.00  0.00    -0.248 NA
ATOM     37  C   UNL A   1      39.656  26.718  27.887  1.00  0.00     0.031 C 
ATOM     38  C   UNL A   1      40.242  31.250  30.013  1.00  0.00     0.029 A 
ATOM     39  N   UNL A   1      42.033  29.916  29.931  1.00  0.00    -0.354 N 
ATOM     40  C   UNL A   1      41.768  25.930  28.276  1.00  0.00     0.074 A 
ATOM     41  C   UNL A   1      40.433  25.647  27.796  1.00  0.00     0.031 C 
ATOM     42  C   UNL A   1      41.256  31.902  30.604  1.00  0.00     0.029 A 
ATOM     43  C   UNL A   1      42.440  31.049  30.598  1.00  0.00     0.049 A 
ATOM     44  H   UNL A   1      42.632  29.157  29.744  1.00  0.00     0.167 HD
ATOM     45  C   UNL A   1      42.801  25.056  28.221  1.00  0.00     0.037 A 
ATOM     46  C   UNL A   1      43.627  31.361  31.155  1.00  0.00     0.037 A 
ATOM     47  C   UNL A   1      44.138  25.359  28.662  1.00  0.00     0.049 A 
ATOM     48  C   UNL A   1      44.764  30.378  31.056  1.00  0.00     0.074 A 
ATOM     49  C   UNL A   1      45.273  24.571  28.560  1.00  0.00     0.029 A 
ATOM     50  N   UNL A   1      44.522  26.532  29.293  1.00  0.00    -0.354 N 
ATOM     51  N   UNL A   1      44.778  29.187  30.506  1.00  0.00    -0.248 NA
ATOM     52  C   UNL A   1      46.050  30.783  31.643  1.00  0.00     0.031 C 
ATOM     53  C   UNL A   1      46.330  25.246  29.178  1.00  0.00     0.029 A 
ATOM     54  C   UNL A   1      45.869  26.477  29.611  1.00  0.00     0.049 A 
ATOM     55  H   UNL A   1      43.926  27.291  29.485  1.00  0.00     0.167 HD
ATOM     56  C   UNL A   1      46.078  28.714  30.657  1.00  0.00     0.074 A 
ATOM     57  C   UNL A   1      46.825  29.754  31.332  1.00  0.00     0.031 C 
ATOM     58  C   UNL A   1      46.604  27.525  30.274  1.00  0.00     0.037 A 
BRANCH  45  59
ATOM     59  C   UNL A   1      42.545  23.686  27.656  1.00  0.00     0.058 A 
ATOM     60  C   UNL A   1      42.598  23.432  26.277  1.00  0.00     0.135 A 
ATOM     61  C   UNL A   1      42.338  22.594  28.516  1.00  0.00     0.135 A 
ATOM     62  F   UNL A   1      42.778  24.441  25.411  1.00  0.00    -0.206 F 
ATOM     63  C   UNL A   1      42.450  22.146  25.769  1.00  0.00     0.059 A 
ATOM     64  C   UNL A   1      42.213  21.295  28.031  1.00  0.00     0.059 A 
ATOM     65  F   UNL A   1      42.275  22.781  29.843  1.00  0.00    -0.206 F 
ATOM     66  C   UNL A   1      42.267  21.082  26.654  1.00  0.00     0.060 A 
BRANCH  66  67
ATOM     67  S   UNL A   1      42.130  19.414  25.978  1.00  0.00     0.124 S 
ATOM     68  O   UNL A   1      42.650  18.610  27.080  1.00  0.00    -0.237 OA
ATOM     69  O   UNL A   1      40.698  19.296  25.730  1.00  0.00    -0.237 OA
ATOM     70  O   UNL A   1      42.969  19.459  24.785  1.00  0.00    -0.744 OA
ENDBRANCH  66  67
ENDBRANCH  45  59
BRANCH  46  71
ATOM     71  C   UNL A   1      43.807  32.657  31.865  1.00  0.00     0.058 A 
ATOM     72  C   UNL A   1      43.617  32.760  33.251  1.00  0.00     0.135 A 
ATOM     73  C   UNL A   1      44.146  33.826  31.165  1.00  0.00     0.135 A 
ATOM     74  F   UNL A   1      43.288  31.673  33.966  1.00  0.00    -0.206 F 
ATOM     75  C   UNL A   1      43.721  33.980  33.914  1.00  0.00     0.059 A 
ATOM     76  C   UNL A   1      44.286  35.052  31.811  1.00  0.00     0.059 A 
ATOM     77  F   UNL A   1      44.358  33.781  29.841  1.00  0.00    -0.206 F 
ATOM     78  C   UNL A   1      44.052  35.121  33.183  1.00  0.00     0.060 A 
BRANCH  78  79
ATOM     79  S   UNL A   1      44.195  36.698  34.052  1.00  0.00     0.124 S 
ATOM     80  O   UNL A   1      45.634  36.928  34.006  1.00  0.00    -0.237 OA
ATOM     81  O   UNL A   1      43.379  37.580  33.225  1.00  0.00    -0.237 OA
ATOM     82  O   UNL A   1      43.644  36.402  35.372  1.00  0.00    -0.744 OA
ENDBRANCH  78  79
ENDBRANCH  46  71
BRANCH  58  83
ATOM     83  C   UNL A   1      48.068  27.296  30.536  1.00  0.00     0.058 A 
ATOM     84  C   UNL A   1      49.050  27.626  29.589  1.00  0.00     0.135 A 
ATOM     85  C   UNL A   1      48.496  26.784  31.772  1.00  0.00     0.135 A 
ATOM     86  F   UNL A   1      48.695  28.112  28.389  1.00  0.00    -0.206 F 
ATOM     87  C   UNL A   1      50.403  27.431  29.848  1.00  0.00     0.059 A 
ATOM     88  C   UNL A   1      49.844  26.611  32.064  1.00  0.00     0.059 A 
ATOM     89  F   UNL A   1      47.599  26.463  32.719  1.00  0.00    -0.206 F 
ATOM     90  C   UNL A   1      50.790  26.925  31.090  1.00  0.00     0.060 A 
BRANCH  90  91
ATOM     91  S   UNL A   1      52.551  26.703  31.423  1.00  0.00     0.124 S 
ATOM     92  O   UNL A   1      52.731  27.528  32.614  1.00  0.00    -0.237 OA
ATOM     93  O   UNL A   1      52.651  25.262  31.628  1.00  0.00    -0.237 OA
ATOM     94  O   UNL A   1      53.192  27.204  30.211  1.00  0.00    -0.744 OA
ENDBRANCH  90  91
ENDBRANCH  58  83
ENDBRANCH  32  33
ENDBRANCH  24  27
ENDBRANCH  22  23
ENDBRANCH  21  22
ENDBRANCH   1  21
TORSDOF 18
ENDMDL
MODEL 2
REMARK VINA RESULT:     -10.3      0.621      8.360
REMARK SMILES C=CCN(CC(=O)NCCCCNC(=O)c1ccc(-c2c3nc(c(-c4c(F)cc(S(=O)(=O)[O-])cc4F)c4ccc([nH]4)c(-c4c(F)cc(S(=O)(=O)[O-])cc4F)c4nc(c(-c5c(F)cc(S(=O)(=O)[O-])cc5F)c5ccc2[nH]5)C=C4)C=C3)cc1)c1nc2ccccc2s1
REMARK SMILES IDX 10 1 9 2 8 3 6 4 7 5 5 7 4 8 3 9 2 10 1 11 82 12 83 13 90 14
REMARK SMILES IDX 84 15 89 16 85 17 88 18 86 19 87 20 11 21 12 22 13 23 14 24
REMARK SMILES IDX 15 26 16 27 17 28 81 29 18 30 80 31 19 32 20 33 21 34 74 35
REMARK SMILES IDX 22 36 79 37 73 38 75 39 23 40 78 41 72 42 71 43 24 45 58 46
REMARK SMILES IDX 37 47 57 48 38 49 41 50 56 51 76 52 39 53 40 54 55 56 77 57
REMARK SMILES IDX 42 58 25 59 26 60 35 61 27 62 28 63 34 64 36 65 29 66 30 67
REMARK SMILES IDX 31 68 32 69 33 70 59 71 60 72 69 73 61 74 62 75 68 76 70 77
REMARK SMILES IDX 63 78 64 79 65 80 66 81 67 82 43 83 44 84 53 85 45 86 46 87
REMARK SMILES IDX 52 88 54 89 47 90 48 91 49 92 50 93 51 94
REMARK H PARENT 8 6 13 25 75 44 41 55
REMARK Flexibility Score: inf
ROOT
ATOM      1  C   UNL A   1      32.048  26.708  25.850  1.00  0.00     0.023 C 
ENDROOT
BRANCH   1   2
ATOM      2  C   UNL A   1      31.029  25.589  26.043  1.00  0.00     0.116 C 
BRANCH   2   3
ATOM      3  N   UNL A   1      31.454  24.620  27.024  1.00  0.00    -0.355 N 
ATOM      4  C   UNL A   1      31.804  23.309  26.849  1.00  0.00     0.239 C 
ATOM      5  O   UNL A   1      32.304  22.722  27.814  1.00  0.00    -0.273 OA
ATOM      6  H   UNL A   1      31.498  24.948  27.951  1.00  0.00     0.163 HD
BRANCH   4   7
ATOM      7  C   UNL A   1      31.705  22.641  25.466  1.00  0.00     0.219 C 
BRANCH   7   8
ATOM      8  N   UNL A   1      32.613  23.168  24.425  1.00  0.00    -0.335 N 
BRANCH   8   9
ATOM      9  C   UNL A   1      32.063  23.491  23.121  1.00  0.00     0.146 C 
BRANCH   9  10
ATOM     10  C   UNL A   1      32.319  24.909  22.712  1.00  0.00    -0.014 C 
ATOM     11  C   UNL A   1      32.819  25.246  21.514  1.00  0.00     0.006 C 
ENDBRANCH   9  10
ENDBRANCH   8   9
BRANCH   8  12
ATOM     12  C   UNL A   1      33.953  23.176  24.706  1.00  0.00     0.187 A 
ATOM     13  N   UNL A   1      34.697  22.099  24.599  1.00  0.00    -0.220 NA
ATOM     14  S   UNL A   1      34.830  24.550  25.286  1.00  0.00    -0.097 S 
ATOM     15  C   UNL A   1      35.991  22.320  25.021  1.00  0.00     0.084 A 
ATOM     16  C   UNL A   1      36.241  23.600  25.504  1.00  0.00     0.056 A 
ATOM     17  C   UNL A   1      37.034  21.374  25.021  1.00  0.00     0.030 A 
ATOM     18  C   UNL A   1      37.486  23.956  26.049  1.00  0.00     0.021 A 
ATOM     19  C   UNL A   1      38.282  21.719  25.547  1.00  0.00     0.002 A 
ATOM     20  C   UNL A   1      38.499  22.991  26.070  1.00  0.00     0.002 A 
ENDBRANCH   8  12
ENDBRANCH   7   8
ENDBRANCH   4   7
ENDBRANCH   2   3
ENDBRANCH   1   2
BRANCH   1  21
ATOM     21  C   UNL A   1      32.084  27.743  26.976  1.00  0.00     0.023 C 
BRANCH  21  22
ATOM     22  C   UNL A   1      33.446  28.374  27.245  1.00  0.00     0.116 C 
BRANCH  22  23
ATOM     23  N   UNL A   1      33.371  29.800  27.526  1.00  0.00    -0.352 N 
ATOM     24  C   UNL A   1      34.333  30.631  28.055  1.00  0.00     0.251 C 
ATOM     25  H   UNL A   1      32.513  30.230  27.308  1.00  0.00     0.163 HD
ATOM     26  O   UNL A   1      34.052  31.787  28.337  1.00  0.00    -0.269 OA
BRANCH  24  27
ATOM     27  C   UNL A   1      35.695  30.107  28.312  1.00  0.00     0.039 A 
ATOM     28  C   UNL A   1      36.623  30.105  27.267  1.00  0.00     0.014 A 
ATOM     29  C   UNL A   1      36.062  29.638  29.576  1.00  0.00     0.014 A 
ATOM     30  C   UNL A   1      37.937  29.701  27.510  1.00  0.00     0.010 A 
ATOM     31  C   UNL A   1      37.390  29.305  29.833  1.00  0.00     0.010 A 
ATOM     32  C   UNL A   1      38.344  29.336  28.805  1.00  0.00    -0.014 A 
BRANCH  32  33
ATOM     33  C   UNL A   1      39.764  29.008  29.102  1.00  0.00     0.031 A 
ATOM     34  C   UNL A   1      40.689  30.060  29.654  1.00  0.00     0.074 A 
ATOM     35  C   UNL A   1      40.237  27.779  28.807  1.00  0.00     0.049 A 
ATOM     36  N   UNL A   1      41.968  29.977  29.913  1.00  0.00    -0.248 NA
ATOM     37  C   UNL A   1      40.108  31.386  29.926  1.00  0.00     0.031 C 
ATOM     38  C   UNL A   1      39.456  26.692  28.210  1.00  0.00     0.029 A 
ATOM     39  N   UNL A   1      41.491  27.240  28.953  1.00  0.00    -0.354 N 
ATOM     40  C   UNL A   1      42.350  31.238  30.356  1.00  0.00     0.074 A 
ATOM     41  C   UNL A   1      41.176  32.081  30.296  1.00  0.00     0.031 C 
ATOM     42  C   UNL A   1      40.245  25.618  28.050  1.00  0.00     0.029 A 
ATOM     43  C   UNL A   1      41.595  25.945  28.496  1.00  0.00     0.049 A 
ATOM     44  H   UNL A   1      42.246  27.733  29.346  1.00  0.00     0.167 HD
ATOM     45  C   UNL A   1      43.564  31.650  30.792  1.00  0.00     0.037 A 
ATOM     46  C   UNL A   1      42.658  25.120  28.430  1.00  0.00     0.037 A 
ATOM     47  C   UNL A   1      44.719  30.795  30.890  1.00  0.00     0.049 A 
ATOM     48  C   UNL A   1      43.990  25.598  28.945  1.00  0.00     0.074 A 
ATOM     49  C   UNL A   1      45.968  31.097  31.406  1.00  0.00     0.029 A 
ATOM     50  N   UNL A   1      44.774  29.478  30.459  1.00  0.00    -0.354 N 
ATOM     51  N   UNL A   1      44.307  26.767  29.451  1.00  0.00    -0.248 NA
ATOM     52  C   UNL A   1      45.109  24.646  28.889  1.00  0.00     0.031 C 
ATOM     53  C   UNL A   1      46.793  29.981  31.238  1.00  0.00     0.029 A 
ATOM     54  C   UNL A   1      46.042  28.965  30.672  1.00  0.00     0.049 A 
ATOM     55  H   UNL A   1      44.022  28.982  30.061  1.00  0.00     0.167 HD
ATOM     56  C   UNL A   1      45.651  26.679  29.798  1.00  0.00     0.074 A 
ATOM     57  C   UNL A   1      46.083  25.338  29.461  1.00  0.00     0.031 C 
ATOM     58  C   UNL A   1      46.456  27.623  30.343  1.00  0.00     0.037 A 
BRANCH  45  59
ATOM     59  C   UNL A   1      43.722  33.087  31.208  1.00  0.00     0.058 A 
ATOM     60  C   UNL A   1      43.568  33.491  32.543  1.00  0.00     0.135 A 
ATOM     61  C   UNL A   1      44.126  34.055  30.273  1.00  0.00     0.135 A 
ATOM     62  F   UNL A   1      43.168  32.611  33.474  1.00  0.00    -0.206 F 
ATOM     63  C   UNL A   1      43.804  34.804  32.936  1.00  0.00     0.059 A 
ATOM     64  C   UNL A   1      44.392  35.368  30.649  1.00  0.00     0.059 A 
ATOM     65  F   UNL A   1      44.285  33.722  28.983  1.00  0.00    -0.206 F 
ATOM     66  C   UNL A   1      44.224  35.734  31.983  1.00  0.00     0.060 A 
BRANCH  66  67
ATOM     67  S   UNL A   1      44.576  37.420  32.523  1.00  0.00     0.124 S 
ATOM     68  O   UNL A   1      45.726  37.212  33.398  1.00  0.00    -0.237 OA
ATOM     69  O   UNL A   1      44.853  38.099  31.263  1.00  0.00    -0.237 OA
ATOM     70  O   UNL A   1      43.345  37.827  33.194  1.00  0.00    -0.744 OA
ENDBRANCH  66  67
ENDBRANCH  45  59
BRANCH  46  71
ATOM     71  C   UNL A   1      42.516  23.757  27.850  1.00  0.00     0.058 A 
ATOM     72  C   UNL A   1      42.465  23.558  26.462  1.00  0.00     0.135 A 
ATOM     73  C   UNL A   1      42.402  22.626  28.674  1.00  0.00     0.135 A 
ATOM     74  F   UNL A   1      42.566  24.606  25.630  1.00  0.00    -0.206 F 
ATOM     75  C   UNL A   1      42.270  22.294  25.911  1.00  0.00     0.059 A 
ATOM     76  C   UNL A   1      42.237  21.348  28.146  1.00  0.00     0.059 A 
ATOM     77  F   UNL A   1      42.464  22.755  30.008  1.00  0.00    -0.206 F 
ATOM     78  C   UNL A   1      42.152  21.196  26.764  1.00  0.00     0.060 A 
BRANCH  78  79
ATOM     79  S   UNL A   1      41.909  19.559  26.041  1.00  0.00     0.124 S 
ATOM     80  O   UNL A   1      42.788  19.619  24.878  1.00  0.00    -0.237 OA
ATOM     81  O   UNL A   1      42.338  18.678  27.122  1.00  0.00    -0.237 OA
ATOM     82  O   UNL A   1      40.478  19.531  25.751  1.00  0.00    -0.744 OA
ENDBRANCH  78  79
ENDBRANCH  46  71
BRANCH  58  83
ATOM     83  C   UNL A   1      47.876  27.234  30.650  1.00  0.00     0.058 A 
ATOM     84  C   UNL A   1      48.890  27.309  29.682  1.00  0.00     0.135 A 
ATOM     85  C   UNL A   1      48.236  26.828  31.946  1.00  0.00     0.135 A 
ATOM     86  F   UNL A   1      48.599  27.685  28.427  1.00  0.00    -0.206 F 
ATOM     87  C   UNL A   1      50.206  26.968  29.981  1.00  0.00     0.059 A 
ATOM     88  C   UNL A   1      49.551  26.514  32.274  1.00  0.00     0.059 A 
ATOM     89  F   UNL A   1      47.308  26.751  32.913  1.00  0.00    -0.206 F 
ATOM     90  C   UNL A   1      50.526  26.574  31.281  1.00  0.00     0.060 A 
BRANCH  90  91
ATOM     91  S   UNL A   1      52.243  26.162  31.662  1.00  0.00     0.124 S 
ATOM     92  O   UNL A   1      52.500  27.016  32.817  1.00  0.00    -0.237 OA
ATOM     93  O   UNL A   1      52.167  24.730  31.934  1.00  0.00    -0.237 OA
ATOM     94  O   UNL A   1      52.958  26.525  30.442  1.00  0.00    -0.744 OA
ENDBRANCH  90  91
ENDBRANCH  58  83
ENDBRANCH  32  33
ENDBRANCH  24  27
ENDBRANCH  22  23
ENDBRANCH  21  22
ENDBRANCH   1  21
TORSDOF 18
ENDMDL
MODEL 3
REMARK VINA RESULT:     -10.2      3.381      9.412
REMARK SMILES C=CCN(CC(=O)NCCCCNC(=O)c1ccc(-c2c3nc(c(-c4c(F)cc(S(=O)(=O)[O-])cc4F)c4ccc([nH]4)c(-c4c(F)cc(S(=O)(=O)[O-])cc4F)c4nc(c(-c5c(F)cc(S(=O)(=O)[O-])cc5F)c5ccc2[nH]5)C=C4)C=C3)cc1)c1nc2ccccc2s1
REMARK SMILES IDX 10 1 9 2 8 3 6 4 7 5 5 7 4 8 3 9 2 10 1 11 82 12 83 13 90 14
REMARK SMILES IDX 84 15 89 16 85 17 88 18 86 19 87 20 11 21 12 22 13 23 14 24
REMARK SMILES IDX 15 26 16 27 17 28 81 29 18 30 80 31 19 32 20 33 21 34 74 35
REMARK SMILES IDX 22 36 79 37 73 38 75 39 23 40 78 41 72 42 71 43 24 45 58 46
REMARK SMILES IDX 37 47 57 48 38 49 41 50 56 51 76 52 39 53 40 54 55 56 77 57
REMARK SMILES IDX 42 58 25 59 26 60 35 61 27 62 28 63 34 64 36 65 29 66 30 67
REMARK SMILES IDX 31 68 32 69 33 70 59 71 60 72 69 73 61 74 62 75 68 76 70 77
REMARK SMILES IDX 63 78 64 79 65 80 66 81 67 82 43 83 44 84 53 85 45 86 46 87
REMARK SMILES IDX 52 88 54 89 47 90 48 91 49 92 50 93 51 94
REMARK H PARENT 8 6 13 25 75 44 41 55
REMARK Flexibility Score: inf
ROOT
ATOM      1  C   UNL A   1      33.582  28.447  27.151  1.00  0.00     0.023 C 
ENDROOT
BRANCH   1   2
ATOM      2  C   UNL A   1      32.080  28.375  26.889  1.00  0.00     0.116 C 
BRANCH   2   3
ATOM      3  N   UNL A   1      31.542  27.058  27.128  1.00  0.00    -0.355 N 
ATOM      4  C   UNL A   1      31.623  25.937  26.349  1.00  0.00     0.239 C 
ATOM      5  O   UNL A   1      31.233  24.873  26.843  1.00  0.00    -0.273 OA
ATOM      6  H   UNL A   1      31.045  26.951  27.971  1.00  0.00     0.163 HD
BRANCH   4   7
ATOM      7  C   UNL A   1      32.301  25.980  24.967  1.00  0.00     0.219 C 
BRANCH   7   8
ATOM      8  N   UNL A   1      31.430  25.682  23.810  1.00  0.00    -0.335 N 
BRANCH   8   9
ATOM      9  C   UNL A   1      31.666  24.462  23.058  1.00  0.00     0.146 C 
BRANCH   9  10
ATOM     10  C   UNL A   1      33.097  24.294  22.649  1.00  0.00    -0.014 C 
ATOM     11  C   UNL A   1      33.871  23.291  23.089  1.00  0.00     0.006 C 
ENDBRANCH   9  10
ENDBRANCH   8   9
BRANCH   8  12
ATOM     12  C   UNL A   1      30.548  26.653  23.421  1.00  0.00     0.187 A 
ATOM     13  N   UNL A   1      30.932  27.730  22.774  1.00  0.00    -0.220 NA
ATOM     14  S   UNL A   1      28.852  26.639  23.767  1.00  0.00    -0.097 S 
ATOM     15  C   UNL A   1      29.890  28.609  22.569  1.00  0.00     0.084 A 
ATOM     16  C   UNL A   1      28.671  28.214  23.108  1.00  0.00     0.056 A 
ATOM     17  C   UNL A   1      29.971  29.844  21.897  1.00  0.00     0.030 A 
ATOM     18  C   UNL A   1      27.535  29.038  23.058  1.00  0.00     0.021 A 
ATOM     19  C   UNL A   1      28.844  30.669  21.826  1.00  0.00     0.002 A 
ATOM     20  C   UNL A   1      27.646  30.276  22.415  1.00  0.00     0.002 A 
ENDBRANCH   8  12
ENDBRANCH   7   8
ENDBRANCH   4   7
ENDBRANCH   2   3
ENDBRANCH   1   2
BRANCH   1  21
ATOM     21  C   UNL A   1      34.139  29.864  27.299  1.00  0.00     0.023 C 
BRANCH  21  22
ATOM     22  C   UNL A   1      35.493  29.969  27.993  1.00  0.00     0.116 C 
BRANCH  22  23
ATOM     23  N   UNL A   1      35.391  30.369  29.389  1.00  0.00    -0.352 N 
ATOM     24  C   UNL A   1      36.383  30.456  30.340  1.00  0.00     0.251 C 
ATOM     25  H   UNL A   1      34.488  30.609  29.696  1.00  0.00     0.163 HD
ATOM     26  O   UNL A   1      36.092  30.694  31.504  1.00  0.00    -0.269 OA
BRANCH  24  27
ATOM     27  C   UNL A   1      37.794  30.224  29.952  1.00  0.00     0.039 A 
ATOM     28  C   UNL A   1      38.726  29.931  30.952  1.00  0.00     0.014 A 
ATOM     29  C   UNL A   1      38.193  30.276  28.614  1.00  0.00     0.014 A 
ATOM     30  C   UNL A   1      40.041  29.619  30.601  1.00  0.00     0.010 A 
ATOM     31  C   UNL A   1      39.486  29.895  28.262  1.00  0.00     0.010 A 
ATOM     32  C   UNL A   1      40.424  29.558  29.250  1.00  0.00    -0.014 A 
BRANCH  32  33
ATOM     33  C   UNL A   1      41.790  29.123  28.856  1.00  0.00     0.031 A 
ATOM     34  C   UNL A   1      42.915  30.122  28.778  1.00  0.00     0.074 A 
ATOM     35  C   UNL A   1      42.002  27.838  28.502  1.00  0.00     0.049 A 
ATOM     36  N   UNL A   1      44.151  29.941  28.394  1.00  0.00    -0.248 NA
ATOM     37  C   UNL A   1      42.602  31.511  29.155  1.00  0.00     0.031 C 
ATOM     38  C   UNL A   1      40.980  26.788  28.475  1.00  0.00     0.029 A 
ATOM     39  N   UNL A   1      43.141  27.198  28.079  1.00  0.00    -0.354 N 
ATOM     40  C   UNL A   1      44.758  31.190  28.461  1.00  0.00     0.074 A 
ATOM     41  C   UNL A   1      43.745  32.130  28.887  1.00  0.00     0.031 C 
ATOM     42  C   UNL A   1      41.539  25.637  28.068  1.00  0.00     0.029 A 
ATOM     43  C   UNL A   1      42.948  25.870  27.769  1.00  0.00     0.049 A 
ATOM     44  H   UNL A   1      44.014  27.647  28.004  1.00  0.00     0.167 HD
ATOM     45  C   UNL A   1      46.048  31.518  28.210  1.00  0.00     0.037 A 
ATOM     46  C   UNL A   1      43.804  24.949  27.285  1.00  0.00     0.037 A 
ATOM     47  C   UNL A   1      47.062  30.570  27.827  1.00  0.00     0.049 A 
ATOM     48  C   UNL A   1      45.238  25.338  27.038  1.00  0.00     0.074 A 
ATOM     49  C   UNL A   1      48.417  30.792  27.640  1.00  0.00     0.029 A 
ATOM     50  N   UNL A   1      46.839  29.227  27.565  1.00  0.00    -0.354 N 
ATOM     51  N   UNL A   1      45.815  26.506  27.201  1.00  0.00    -0.248 NA
ATOM     52  C   UNL A   1      46.141  24.286  26.549  1.00  0.00     0.031 C 
ATOM     53  C   UNL A   1      49.001  29.596  27.214  1.00  0.00     0.029 A 
ATOM     54  C   UNL A   1      48.024  28.616  27.191  1.00  0.00     0.049 A 
ATOM     55  H   UNL A   1      45.967  28.775  27.635  1.00  0.00     0.167 HD
ATOM     56  C   UNL A   1      47.151  26.320  26.862  1.00  0.00     0.074 A 
ATOM     57  C   UNL A   1      47.301  24.925  26.503  1.00  0.00     0.031 C 
ATOM     58  C   UNL A   1      48.162  27.223  26.847  1.00  0.00     0.037 A 
BRANCH  45  59
ATOM     59  C   UNL A   1      46.454  32.960  28.343  1.00  0.00     0.058 A 
ATOM     60  C   UNL A   1      46.974  33.473  29.541  1.00  0.00     0.135 A 
ATOM     61  C   UNL A   1      46.412  33.814  27.229  1.00  0.00     0.135 A 
ATOM     62  F   UNL A   1      47.023  32.706  30.641  1.00  0.00    -0.206 F 
ATOM     63  C   UNL A   1      47.432  34.783  29.632  1.00  0.00     0.059 A 
ATOM     64  C   UNL A   1      46.888  35.120  27.290  1.00  0.00     0.059 A 
ATOM     65  F   UNL A   1      45.921  33.375  26.059  1.00  0.00    -0.206 F 
ATOM     66  C   UNL A   1      47.393  35.597  28.498  1.00  0.00     0.060 A 
BRANCH  66  67
ATOM     67  S   UNL A   1      48.042  37.277  28.622  1.00  0.00     0.124 S 
ATOM     68  O   UNL A   1      49.041  37.283  27.558  1.00  0.00    -0.237 OA
ATOM     69  O   UNL A   1      46.854  38.088  28.379  1.00  0.00    -0.237 OA
ATOM     70  O   UNL A   1      48.573  37.339  29.980  1.00  0.00    -0.744 OA
ENDBRANCH  66  67
ENDBRANCH  45  59
BRANCH  46  71
ATOM     71  C   UNL A   1      43.334  23.567  26.993  1.00  0.00     0.058 A 
ATOM     72  C   UNL A   1      43.149  22.629  28.020  1.00  0.00     0.135 A 
ATOM     73  C   UNL A   1      43.087  23.149  25.676  1.00  0.00     0.135 A 
ATOM     74  F   UNL A   1      43.376  22.976  29.296  1.00  0.00    -0.206 F 
ATOM     75  C   UNL A   1      42.770  21.316  27.750  1.00  0.00     0.059 A 
ATOM     76  C   UNL A   1      42.677  21.850  25.384  1.00  0.00     0.059 A 
ATOM     77  F   UNL A   1      43.229  24.011  24.657  1.00  0.00    -0.206 F 
ATOM     78  C   UNL A   1      42.541  20.937  26.427  1.00  0.00     0.060 A 
BRANCH  78  79
ATOM     79  S   UNL A   1      42.040  19.235  26.087  1.00  0.00     0.124 S 
ATOM     80  O   UNL A   1      40.600  19.385  25.905  1.00  0.00    -0.237 OA
ATOM     81  O   UNL A   1      42.807  18.922  24.887  1.00  0.00    -0.237 OA
ATOM     82  O   UNL A   1      42.453  18.519  27.291  1.00  0.00    -0.744 OA
ENDBRANCH  78  79
ENDBRANCH  46  71
BRANCH  58  83
ATOM     83  C   UNL A   1      49.531  26.728  26.469  1.00  0.00     0.058 A 
ATOM     84  C   UNL A   1      50.344  26.033  27.379  1.00  0.00     0.135 A 
ATOM     85  C   UNL A   1      50.016  26.908  25.164  1.00  0.00     0.135 A 
ATOM     86  F   UNL A   1      49.931  25.839  28.642  1.00  0.00    -0.206 F 
ATOM     87  C   UNL A   1      51.601  25.559  27.015  1.00  0.00     0.059 A 
ATOM     88  C   UNL A   1      51.255  26.414  24.769  1.00  0.00     0.059 A 
ATOM     89  F   UNL A   1      49.274  27.554  24.250  1.00  0.00    -0.206 F 
ATOM     90  C   UNL A   1      52.046  25.753  25.707  1.00  0.00     0.060 A 
BRANCH  90  91
ATOM     91  S   UNL A   1      53.667  25.107  25.240  1.00  0.00     0.124 S 
ATOM     92  O   UNL A   1      53.772  25.552  23.854  1.00  0.00    -0.237 OA
ATOM     93  O   UNL A   1      54.553  25.772  26.190  1.00  0.00    -0.237 OA
ATOM     94  O   UNL A   1      53.526  23.666  25.427  1.00  0.00    -0.744 OA
ENDBRANCH  90  91
ENDBRANCH  58  83
ENDBRANCH  32  33
ENDBRANCH  24  27
ENDBRANCH  22  23
ENDBRANCH  21  22
ENDBRANCH   1  21
TORSDOF 18
ENDMDL
