MODEL 1
REMARK VINA RESULT:     -11.7      0.000      0.000
REMARK SMILES Cc1cc(C(=O)NCCCCNC(=O)c2ccc(-c3c4nc(c(-c5c(F)cc(S(=O)(=O)[O-])cc5F)c5ccc([nH]5)c(-c5c(F)cc(S(=O)(=O)[O-])cc5F)c5nc(c(-c6c(F)cc(S(=O)(=O)[O-])cc6F)c6ccc3[nH]6)C=C5)C=C4)cc2)c(NC(=O)c2nc(C(C)(C)C)n[nH]2)s1
REMARK SMILES IDX 9 1 8 2 7 3 5 4 6 5 4 7 1 8 2 9 3 10 94 11 81 12 82 13 83 14
REMARK SMILES IDX 84 16 85 17 86 18 93 19 87 20 92 21 88 23 89 24 90 25 91 26
REMARK SMILES IDX 10 27 11 28 12 29 13 30 14 32 15 33 16 34 80 35 17 36 79 37
REMARK SMILES IDX 18 38 19 39 20 40 73 41 21 42 78 43 72 44 74 45 22 46 77 47
REMARK SMILES IDX 71 48 70 49 23 51 57 52 36 53 56 54 37 55 40 56 55 57 75 58
REMARK SMILES IDX 38 59 39 60 54 62 76 63 41 64 24 65 25 66 34 67 26 68 27 69
REMARK SMILES IDX 33 70 35 71 28 72 29 73 30 74 31 75 32 76 58 77 59 78 68 79
REMARK SMILES IDX 60 80 61 81 67 82 69 83 62 84 63 85 64 86 65 87 66 88 42 89
REMARK SMILES IDX 43 90 52 91 44 92 45 93 51 94 53 95 46 96 47 97 48 98 49 99
REMARK SMILES IDX 50 100
REMARK H PARENT 7 6 82 15 93 22 12 31 74 50 40 61
REMARK Flexibility Score: inf
ROOT
ATOM      1  C   UNL A   1      33.706  27.437  24.673  1.00  0.00     0.023 C 
ENDROOT
BRANCH   1   2
ATOM      2  C   UNL A   1      32.937  26.754  23.542  1.00  0.00     0.116 C 
BRANCH   2   3
ATOM      3  N   UNL A   1      33.647  25.603  23.032  1.00  0.00    -0.352 N 
ATOM      4  C   UNL A   1      33.729  24.300  23.445  1.00  0.00     0.254 C 
ATOM      5  O   UNL A   1      34.410  23.554  22.735  1.00  0.00    -0.269 OA
ATOM      6  H   UNL A   1      34.178  25.794  22.226  1.00  0.00     0.163 HD
BRANCH   4   7
ATOM      7  C   UNL A   1      33.055  23.774  24.647  1.00  0.00     0.074 A 
ATOM      8  C   UNL A   1      30.093  22.717  26.801  1.00  0.00     0.056 C 
ATOM      9  C   UNL A   1      31.398  23.083  26.184  1.00  0.00     0.004 A 
ATOM     10  C   UNL A   1      31.652  23.685  24.971  1.00  0.00     0.031 A 
ATOM     11  S   UNL A   1      32.839  22.781  27.017  1.00  0.00    -0.122 S 
ATOM     12  C   UNL A   1      33.803  23.239  25.702  1.00  0.00     0.108 A 
BRANCH  12  13
ATOM     13  N   UNL A   1      35.187  23.133  25.744  1.00  0.00    -0.310 N 
ATOM     14  C   UNL A   1      36.063  22.069  25.656  1.00  0.00     0.293 C 
ATOM     15  H   UNL A   1      35.639  23.999  25.861  1.00  0.00     0.171 HD
ATOM     16  O   UNL A   1      37.256  22.303  25.871  1.00  0.00    -0.265 OA
BRANCH  14  17
ATOM     17  C   UNL A   1      35.615  20.766  25.242  1.00  0.00     0.214 A 
ATOM     18  N   UNL A   1      34.367  20.430  24.978  1.00  0.00    -0.207 NA
ATOM     19  N   UNL A   1      36.406  19.666  25.083  1.00  0.00    -0.255 N 
ATOM     20  C   UNL A   1      34.465  19.124  24.565  1.00  0.00     0.156 A 
ATOM     21  N   UNL A   1      35.702  18.610  24.641  1.00  0.00    -0.158 NA
ATOM     22  H   UNL A   1      37.372  19.649  25.269  1.00  0.00     0.192 HD
BRANCH  20  23
ATOM     23  C   UNL A   1      33.259  18.351  24.093  1.00  0.00     0.024 C 
ATOM     24  C   UNL A   1      33.722  17.184  23.204  1.00  0.00     0.019 C 
ATOM     25  C   UNL A   1      32.483  17.782  25.300  1.00  0.00     0.019 C 
ATOM     26  C   UNL A   1      32.289  19.241  23.290  1.00  0.00     0.019 C 
ENDBRANCH  20  23
ENDBRANCH  14  17
ENDBRANCH  12  13
ENDBRANCH   4   7
ENDBRANCH   2   3
ENDBRANCH   1   2
BRANCH   1  27
ATOM     27  C   UNL A   1      32.820  27.965  25.809  1.00  0.00     0.023 C 
BRANCH  27  28
ATOM     28  C   UNL A   1      33.551  28.312  27.105  1.00  0.00     0.116 C 
BRANCH  28  29
ATOM     29  N   UNL A   1      33.434  29.711  27.484  1.00  0.00    -0.352 N 
ATOM     30  C   UNL A   1      34.391  30.527  28.044  1.00  0.00     0.251 C 
ATOM     31  H   UNL A   1      32.556  30.128  27.320  1.00  0.00     0.163 HD
ATOM     32  O   UNL A   1      34.106  31.663  28.391  1.00  0.00    -0.269 OA
BRANCH  30  33
ATOM     33  C   UNL A   1      35.752  29.990  28.264  1.00  0.00     0.039 A 
ATOM     34  C   UNL A   1      36.673  30.053  27.217  1.00  0.00     0.014 A 
ATOM     35  C   UNL A   1      36.123  29.469  29.506  1.00  0.00     0.014 A 
ATOM     36  C   UNL A   1      37.995  29.660  27.439  1.00  0.00     0.010 A 
ATOM     37  C   UNL A   1      37.454  29.136  29.742  1.00  0.00     0.010 A 
ATOM     38  C   UNL A   1      38.405  29.236  28.714  1.00  0.00    -0.014 A 
BRANCH  38  39
ATOM     39  C   UNL A   1      39.824  28.911  28.997  1.00  0.00     0.031 A 
ATOM     40  C   UNL A   1      40.738  29.955  29.576  1.00  0.00     0.074 A 
ATOM     41  C   UNL A   1      40.307  27.697  28.664  1.00  0.00     0.049 A 
ATOM     42  N   UNL A   1      42.022  29.888  29.813  1.00  0.00    -0.248 NA
ATOM     43  C   UNL A   1      40.133  31.256  29.908  1.00  0.00     0.031 C 
ATOM     44  C   UNL A   1      39.532  26.618  28.046  1.00  0.00     0.029 A 
ATOM     45  N   UNL A   1      41.568  27.169  28.784  1.00  0.00    -0.354 N 
ATOM     46  C   UNL A   1      42.382  31.136  30.307  1.00  0.00     0.074 A 
ATOM     47  C   UNL A   1      41.190  31.957  30.291  1.00  0.00     0.031 C 
ATOM     48  C   UNL A   1      40.331  25.554  27.857  1.00  0.00     0.029 A 
ATOM     49  C   UNL A   1      41.679  25.884  28.308  1.00  0.00     0.049 A 
ATOM     50  H   UNL A   1      42.323  27.665  29.174  1.00  0.00     0.167 HD
ATOM     51  C   UNL A   1      43.591  31.552  30.756  1.00  0.00     0.037 A 
ATOM     52  C   UNL A   1      42.747  25.066  28.237  1.00  0.00     0.037 A 
ATOM     53  C   UNL A   1      44.765  30.722  30.799  1.00  0.00     0.049 A 
ATOM     54  C   UNL A   1      44.074  25.547  28.757  1.00  0.00     0.074 A 
ATOM     55  C   UNL A   1      46.023  31.035  31.286  1.00  0.00     0.029 A 
ATOM     56  N   UNL A   1      44.828  29.413  30.343  1.00  0.00    -0.354 N 
ATOM     57  N   UNL A   1      44.382  26.713  29.274  1.00  0.00    -0.248 NA
ATOM     58  C   UNL A   1      45.197  24.603  28.690  1.00  0.00     0.031 C 
ATOM     59  C   UNL A   1      46.853  29.925  31.097  1.00  0.00     0.029 A 
ATOM     60  C   UNL A   1      46.104  28.909  30.528  1.00  0.00     0.049 A 
ATOM     61  H   UNL A   1      44.076  28.917  29.946  1.00  0.00     0.167 HD
ATOM     62  C   UNL A   1      45.727  26.632  29.618  1.00  0.00     0.074 A 
ATOM     63  C   UNL A   1      46.170  25.300  29.261  1.00  0.00     0.031 C 
ATOM     64  C   UNL A   1      46.524  27.575  30.177  1.00  0.00     0.037 A 
BRANCH  51  65
ATOM     65  C   UNL A   1      43.699  32.967  31.252  1.00  0.00     0.058 A 
ATOM     66  C   UNL A   1      43.563  33.277  32.614  1.00  0.00     0.135 A 
ATOM     67  C   UNL A   1      43.984  34.018  30.366  1.00  0.00     0.135 A 
ATOM     68  F   UNL A   1      43.275  32.312  33.502  1.00  0.00    -0.206 F 
ATOM     69  C   UNL A   1      43.682  34.582  33.078  1.00  0.00     0.059 A 
ATOM     70  C   UNL A   1      44.131  35.329  30.811  1.00  0.00     0.059 A 
ATOM     71  F   UNL A   1      44.120  33.777  29.052  1.00  0.00    -0.206 F 
ATOM     72  C   UNL A   1      43.965  35.602  32.168  1.00  0.00     0.060 A 
BRANCH  72  73
ATOM     73  S   UNL A   1      44.127  37.290  32.788  1.00  0.00     0.124 S 
ATOM     74  O   UNL A   1      43.005  37.365  33.718  1.00  0.00    -0.237 OA
ATOM     75  O   UNL A   1      45.453  37.274  33.397  1.00  0.00    -0.237 OA
ATOM     76  O   UNL A   1      44.002  38.107  31.586  1.00  0.00    -0.744 OA
ENDBRANCH  72  73
ENDBRANCH  51  65
BRANCH  52  77
ATOM     77  C   UNL A   1      42.604  23.699  27.671  1.00  0.00     0.058 A 
ATOM     78  C   UNL A   1      42.361  22.597  28.503  1.00  0.00     0.135 A 
ATOM     79  C   UNL A   1      42.710  23.465  26.291  1.00  0.00     0.135 A 
ATOM     80  F   UNL A   1      42.255  22.769  29.830  1.00  0.00    -0.206 F 
ATOM     81  C   UNL A   1      42.250  21.308  27.993  1.00  0.00     0.059 A 
ATOM     82  C   UNL A   1      42.580  22.189  25.754  1.00  0.00     0.059 A 
ATOM     83  F   UNL A   1      42.923  24.491  25.450  1.00  0.00    -0.206 F 
ATOM     84  C   UNL A   1      42.363  21.114  26.615  1.00  0.00     0.060 A 
BRANCH  84  85
ATOM     85  S   UNL A   1      42.184  19.442  25.956  1.00  0.00     0.124 S 
ATOM     86  O   UNL A   1      42.700  18.636  27.056  1.00  0.00    -0.237 OA
ATOM     87  O   UNL A   1      40.746  19.356  25.720  1.00  0.00    -0.237 OA
ATOM     88  O   UNL A   1      43.008  19.469  24.751  1.00  0.00    -0.744 OA
ENDBRANCH  84  85
ENDBRANCH  52  77
BRANCH  64  89
ATOM     89  C   UNL A   1      47.946  27.191  30.471  1.00  0.00     0.058 A 
ATOM     90  C   UNL A   1      48.982  27.453  29.561  1.00  0.00     0.135 A 
ATOM     91  C   UNL A   1      48.283  26.603  31.701  1.00  0.00     0.135 A 
ATOM     92  F   UNL A   1      48.709  28.008  28.370  1.00  0.00    -0.206 F 
ATOM     93  C   UNL A   1      50.301  27.126  29.852  1.00  0.00     0.059 A 
ATOM     94  C   UNL A   1      49.599  26.289  32.022  1.00  0.00     0.059 A 
ATOM     95  F   UNL A   1      47.329  26.341  32.609  1.00  0.00    -0.206 F 
ATOM     96  C   UNL A   1      50.600  26.545  31.086  1.00  0.00     0.060 A 
BRANCH  96  97
ATOM     97  S   UNL A   1      52.322  26.157  31.468  1.00  0.00     0.124 S 
ATOM     98  O   UNL A   1      52.186  24.899  32.194  1.00  0.00    -0.237 OA
ATOM     99  O   UNL A   1      52.924  26.062  30.141  1.00  0.00    -0.237 OA
ATOM    100  O   UNL A   1      52.758  27.300  32.266  1.00  0.00    -0.744 OA
ENDBRANCH  96  97
ENDBRANCH  64  89
ENDBRANCH  38  39
ENDBRANCH  30  33
ENDBRANCH  28  29
ENDBRANCH  27  28
ENDBRANCH   1  27
TORSDOF 17
ENDMDL
MODEL 2
REMARK VINA RESULT:     -11.7      2.764      3.533
REMARK SMILES Cc1cc(C(=O)NCCCCNC(=O)c2ccc(-c3c4nc(c(-c5c(F)cc(S(=O)(=O)[O-])cc5F)c5ccc([nH]5)c(-c5c(F)cc(S(=O)(=O)[O-])cc5F)c5nc(c(-c6c(F)cc(S(=O)(=O)[O-])cc6F)c6ccc3[nH]6)C=C5)C=C4)cc2)c(NC(=O)c2nc(C(C)(C)C)n[nH]2)s1
REMARK SMILES IDX 9 1 8 2 7 3 5 4 6 5 4 7 1 8 2 9 3 10 94 11 81 12 82 13 83 14
REMARK SMILES IDX 84 16 85 17 86 18 93 19 87 20 92 21 88 23 89 24 90 25 91 26
REMARK SMILES IDX 10 27 11 28 12 29 13 30 14 32 15 33 16 34 80 35 17 36 79 37
REMARK SMILES IDX 18 38 19 39 20 40 73 41 21 42 78 43 72 44 74 45 22 46 77 47
REMARK SMILES IDX 71 48 70 49 23 51 57 52 36 53 56 54 37 55 40 56 55 57 75 58
REMARK SMILES IDX 38 59 39 60 54 62 76 63 41 64 24 65 25 66 34 67 26 68 27 69
REMARK SMILES IDX 33 70 35 71 28 72 29 73 30 74 31 75 32 76 58 77 59 78 68 79
REMARK SMILES IDX 60 80 61 81 67 82 69 83 62 84 63 85 64 86 65 87 66 88 42 89
REMARK SMILES IDX 43 90 52 91 44 92 45 93 51 94 53 95 46 96 47 97 48 98 49 99
REMARK SMILES IDX 50 100
REMARK H PARENT 7 6 82 15 93 22 12 31 74 50 40 61
REMARK Flexibility Score: inf
ROOT
ATOM      1  C   UNL A   1      32.210  27.819  27.163  1.00  0.00     0.023 C 
ENDROOT
BRANCH   1   2
ATOM      2  C   UNL A   1      31.038  27.341  26.306  1.00  0.00     0.116 C 
BRANCH   2   3
ATOM      3  N   UNL A   1      30.739  25.946  26.540  1.00  0.00    -0.352 N 
ATOM      4  C   UNL A   1      31.087  24.796  25.884  1.00  0.00     0.254 C 
ATOM      5  O   UNL A   1      30.684  23.745  26.392  1.00  0.00    -0.269 OA
ATOM      6  H   UNL A   1      30.172  25.792  27.330  1.00  0.00     0.163 HD
BRANCH   4   7
ATOM      7  C   UNL A   1      31.899  24.765  24.653  1.00  0.00     0.074 A 
ATOM      8  C   UNL A   1      32.712  25.453  20.993  1.00  0.00     0.056 C 
ATOM      9  C   UNL A   1      32.624  25.037  22.420  1.00  0.00     0.004 A 
ATOM     10  C   UNL A   1      31.580  25.177  23.308  1.00  0.00     0.031 A 
ATOM     11  S   UNL A   1      33.932  24.251  23.150  1.00  0.00    -0.122 S 
ATOM     12  C   UNL A   1      33.214  24.286  24.685  1.00  0.00     0.108 A 
BRANCH  12  13
ATOM     13  N   UNL A   1      33.882  23.820  25.810  1.00  0.00    -0.310 N 
ATOM     14  C   UNL A   1      33.919  22.600  26.456  1.00  0.00     0.293 C 
ATOM     15  H   UNL A   1      34.448  24.502  26.236  1.00  0.00     0.171 HD
ATOM     16  O   UNL A   1      34.522  22.552  27.532  1.00  0.00    -0.265 OA
BRANCH  14  17
ATOM     17  C   UNL A   1      33.359  21.419  25.855  1.00  0.00     0.214 A 
ATOM     18  N   UNL A   1      34.046  20.392  25.394  1.00  0.00    -0.207 NA
ATOM     19  N   UNL A   1      32.033  21.186  25.644  1.00  0.00    -0.255 N 
ATOM     20  C   UNL A   1      33.075  19.507  24.994  1.00  0.00     0.156 A 
ATOM     21  N   UNL A   1      31.822  19.971  25.108  1.00  0.00    -0.158 NA
ATOM     22  H   UNL A   1      31.318  21.828  25.858  1.00  0.00     0.192 HD
BRANCH  20  23
ATOM     23  C   UNL A   1      33.422  18.142  24.453  1.00  0.00     0.024 C 
ATOM     24  C   UNL A   1      32.865  18.007  23.026  1.00  0.00     0.019 C 
ATOM     25  C   UNL A   1      34.954  17.958  24.413  1.00  0.00     0.019 C 
ATOM     26  C   UNL A   1      32.837  17.017  25.330  1.00  0.00     0.019 C 
ENDBRANCH  20  23
ENDBRANCH  14  17
ENDBRANCH  12  13
ENDBRANCH   4   7
ENDBRANCH   2   3
ENDBRANCH   1   2
BRANCH   1  27
ATOM     27  C   UNL A   1      33.588  27.604  26.523  1.00  0.00     0.023 C 
BRANCH  27  28
ATOM     28  C   UNL A   1      34.147  28.798  25.750  1.00  0.00     0.116 C 
BRANCH  28  29
ATOM     29  N   UNL A   1      33.776  30.085  26.318  1.00  0.00    -0.352 N 
ATOM     30  C   UNL A   1      34.393  30.778  27.335  1.00  0.00     0.251 C 
ATOM     31  H   UNL A   1      32.982  30.515  25.924  1.00  0.00     0.163 HD
ATOM     32  O   UNL A   1      33.902  31.812  27.761  1.00  0.00    -0.269 OA
BRANCH  30  33
ATOM     33  C   UNL A   1      35.627  30.226  27.934  1.00  0.00     0.039 A 
ATOM     34  C   UNL A   1      36.837  30.404  27.259  1.00  0.00     0.014 A 
ATOM     35  C   UNL A   1      35.593  29.577  29.170  1.00  0.00     0.014 A 
ATOM     36  C   UNL A   1      38.028  29.995  27.862  1.00  0.00     0.010 A 
ATOM     37  C   UNL A   1      36.786  29.225  29.795  1.00  0.00     0.010 A 
ATOM     38  C   UNL A   1      38.016  29.438  29.152  1.00  0.00    -0.014 A 
BRANCH  38  39
ATOM     39  C   UNL A   1      39.277  29.089  29.851  1.00  0.00     0.031 A 
ATOM     40  C   UNL A   1      39.722  29.883  31.048  1.00  0.00     0.074 A 
ATOM     41  C   UNL A   1      40.057  28.105  29.363  1.00  0.00     0.049 A 
ATOM     42  N   UNL A   1      40.829  29.786  31.738  1.00  0.00    -0.248 NA
ATOM     43  C   UNL A   1      38.814  30.945  31.514  1.00  0.00     0.031 C 
ATOM     44  C   UNL A   1      39.760  27.298  28.175  1.00  0.00     0.029 A 
ATOM     45  N   UNL A   1      41.267  27.621  29.793  1.00  0.00    -0.354 N 
ATOM     46  C   UNL A   1      40.759  30.778  32.708  1.00  0.00     0.074 A 
ATOM     47  C   UNL A   1      39.522  31.497  32.489  1.00  0.00     0.031 C 
ATOM     48  C   UNL A   1      40.752  26.413  27.984  1.00  0.00     0.029 A 
ATOM     49  C   UNL A   1      41.770  26.607  29.012  1.00  0.00     0.049 A 
ATOM     50  H   UNL A   1      41.733  27.969  30.588  1.00  0.00     0.167 HD
ATOM     51  C   UNL A   1      41.634  31.048  33.706  1.00  0.00     0.037 A 
ATOM     52  C   UNL A   1      42.923  25.917  29.108  1.00  0.00     0.037 A 
ATOM     53  C   UNL A   1      42.846  30.309  33.939  1.00  0.00     0.049 A 
ATOM     54  C   UNL A   1      43.870  26.227  30.236  1.00  0.00     0.074 A 
ATOM     55  C   UNL A   1      43.771  30.472  34.956  1.00  0.00     0.029 A 
ATOM     56  N   UNL A   1      43.302  29.264  33.148  1.00  0.00    -0.354 N 
ATOM     57  N   UNL A   1      43.759  27.132  31.180  1.00  0.00    -0.248 NA
ATOM     58  C   UNL A   1      45.095  25.420  30.316  1.00  0.00     0.031 C 
ATOM     59  C   UNL A   1      44.801  29.544  34.763  1.00  0.00     0.029 A 
ATOM     60  C   UNL A   1      44.498  28.779  33.649  1.00  0.00     0.049 A 
ATOM     61  H   UNL A   1      42.841  28.919  32.349  1.00  0.00     0.167 HD
ATOM     62  C   UNL A   1      44.886  26.985  31.980  1.00  0.00     0.074 A 
ATOM     63  C   UNL A   1      45.659  25.898  31.417  1.00  0.00     0.031 C 
ATOM     64  C   UNL A   1      45.248  27.688  33.081  1.00  0.00     0.037 A 
BRANCH  51  65
ATOM     65  C   UNL A   1      41.302  32.184  34.634  1.00  0.00     0.058 A 
ATOM     66  C   UNL A   1      41.772  33.484  34.396  1.00  0.00     0.135 A 
ATOM     67  C   UNL A   1      40.471  31.980  35.748  1.00  0.00     0.135 A 
ATOM     68  F   UNL A   1      42.583  33.731  33.355  1.00  0.00    -0.206 F 
ATOM     69  C   UNL A   1      41.451  34.539  35.243  1.00  0.00     0.059 A 
ATOM     70  C   UNL A   1      40.116  33.027  36.595  1.00  0.00     0.059 A 
ATOM     71  F   UNL A   1      39.996  30.755  36.022  1.00  0.00    -0.206 F 
ATOM     72  C   UNL A   1      40.623  34.301  36.340  1.00  0.00     0.060 A 
BRANCH  72  73
ATOM     73  S   UNL A   1      40.206  35.684  37.423  1.00  0.00     0.124 S 
ATOM     74  O   UNL A   1      39.805  36.699  36.454  1.00  0.00    -0.237 OA
ATOM     75  O   UNL A   1      39.131  35.129  38.240  1.00  0.00    -0.237 OA
ATOM     76  O   UNL A   1      41.454  35.950  38.130  1.00  0.00    -0.744 OA
ENDBRANCH  72  73
ENDBRANCH  51  65
BRANCH  52  77
ATOM     77  C   UNL A   1      43.239  24.851  28.123  1.00  0.00     0.058 A 
ATOM     78  C   UNL A   1      42.907  23.513  28.379  1.00  0.00     0.135 A 
ATOM     79  C   UNL A   1      43.880  25.145  26.910  1.00  0.00     0.135 A 
ATOM     80  F   UNL A   1      42.297  23.181  29.527  1.00  0.00    -0.206 F 
ATOM     81  C   UNL A   1      43.219  22.499  27.479  1.00  0.00     0.059 A 
ATOM     82  C   UNL A   1      44.182  24.152  25.983  1.00  0.00     0.059 A 
ATOM     83  F   UNL A   1      44.201  26.414  26.609  1.00  0.00    -0.206 F 
ATOM     84  C   UNL A   1      43.859  22.829  26.284  1.00  0.00     0.060 A 
BRANCH  84  85
ATOM     85  S   UNL A   1      44.229  21.512  25.105  1.00  0.00     0.124 S 
ATOM     86  O   UNL A   1      43.176  20.548  25.403  1.00  0.00    -0.237 OA
ATOM     87  O   UNL A   1      44.119  22.203  23.824  1.00  0.00    -0.237 OA
ATOM     88  O   UNL A   1      45.582  21.105  25.474  1.00  0.00    -0.744 OA
ENDBRANCH  84  85
ENDBRANCH  52  77
BRANCH  64  89
ATOM     89  C   UNL A   1      46.519  27.280  33.772  1.00  0.00     0.058 A 
ATOM     90  C   UNL A   1      47.753  27.860  33.443  1.00  0.00     0.135 A 
ATOM     91  C   UNL A   1      46.491  26.337  34.812  1.00  0.00     0.135 A 
ATOM     92  F   UNL A   1      47.833  28.762  32.451  1.00  0.00    -0.206 F 
ATOM     93  C   UNL A   1      48.922  27.504  34.107  1.00  0.00     0.059 A 
ATOM     94  C   UNL A   1      47.643  25.984  35.506  1.00  0.00     0.059 A 
ATOM     95  F   UNL A   1      45.332  25.761  35.171  1.00  0.00    -0.206 F 
ATOM     96  C   UNL A   1      48.856  26.566  35.140  1.00  0.00     0.060 A 
BRANCH  96  97
ATOM     97  S   UNL A   1      50.373  26.138  36.020  1.00  0.00     0.124 S 
ATOM     98  O   UNL A   1      51.366  26.917  35.290  1.00  0.00    -0.237 OA
ATOM     99  O   UNL A   1      50.085  26.590  37.378  1.00  0.00    -0.237 OA
ATOM    100  O   UNL A   1      50.464  24.690  35.854  1.00  0.00    -0.744 OA
ENDBRANCH  96  97
ENDBRANCH  64  89
ENDBRANCH  38  39
ENDBRANCH  30  33
ENDBRANCH  28  29
ENDBRANCH  27  28
ENDBRANCH   1  27
TORSDOF 17
ENDMDL
MODEL 3
REMARK VINA RESULT:     -11.7      2.700      3.753
REMARK SMILES Cc1cc(C(=O)NCCCCNC(=O)c2ccc(-c3c4nc(c(-c5c(F)cc(S(=O)(=O)[O-])cc5F)c5ccc([nH]5)c(-c5c(F)cc(S(=O)(=O)[O-])cc5F)c5nc(c(-c6c(F)cc(S(=O)(=O)[O-])cc6F)c6ccc3[nH]6)C=C5)C=C4)cc2)c(NC(=O)c2nc(C(C)(C)C)n[nH]2)s1
REMARK SMILES IDX 9 1 8 2 7 3 5 4 6 5 4 7 1 8 2 9 3 10 94 11 81 12 82 13 83 14
REMARK SMILES IDX 84 16 85 17 86 18 93 19 87 20 92 21 88 23 89 24 90 25 91 26
REMARK SMILES IDX 10 27 11 28 12 29 13 30 14 32 15 33 16 34 80 35 17 36 79 37
REMARK SMILES IDX 18 38 19 39 20 40 73 41 21 42 78 43 72 44 74 45 22 46 77 47
REMARK SMILES IDX 71 48 70 49 23 51 57 52 36 53 56 54 37 55 40 56 55 57 75 58
REMARK SMILES IDX 38 59 39 60 54 62 76 63 41 64 24 65 25 66 34 67 26 68 27 69
REMARK SMILES IDX 33 70 35 71 28 72 29 73 30 74 31 75 32 76 58 77 59 78 68 79
REMARK SMILES IDX 60 80 61 81 67 82 69 83 62 84 63 85 64 86 65 87 66 88 42 89
REMARK SMILES IDX 43 90 52 91 44 92 45 93 51 94 53 95 46 96 47 97 48 98 49 99
REMARK SMILES IDX 50 100
REMARK H PARENT 7 6 82 15 93 22 12 31 74 50 40 61
REMARK Flexibility Score: inf
ROOT
ATOM      1  C   UNL A   1      32.570  28.748  27.393  1.00  0.00     0.023 C 
ENDROOT
BRANCH   1   2
ATOM      2  C   UNL A   1      31.675  28.004  26.401  1.00  0.00     0.116 C 
BRANCH   2   3
ATOM      3  N   UNL A   1      31.389  26.658  26.845  1.00  0.00    -0.352 N 
ATOM      4  C   UNL A   1      31.599  25.427  26.283  1.00  0.00     0.254 C 
ATOM      5  O   UNL A   1      31.264  24.459  26.971  1.00  0.00    -0.269 OA
ATOM      6  H   UNL A   1      30.958  26.618  27.729  1.00  0.00     0.163 HD
BRANCH   4   7
ATOM      7  C   UNL A   1      32.195  25.224  24.949  1.00  0.00     0.074 A 
ATOM      8  C   UNL A   1      32.539  25.667  21.179  1.00  0.00     0.056 C 
ATOM      9  C   UNL A   1      32.603  25.308  22.623  1.00  0.00     0.004 A 
ATOM     10  C   UNL A   1      31.747  25.652  23.647  1.00  0.00     0.031 A 
ATOM     11  S   UNL A   1      33.855  24.324  23.192  1.00  0.00    -0.122 S 
ATOM     12  C   UNL A   1      33.399  24.523  24.812  1.00  0.00     0.108 A 
BRANCH  12  13
ATOM     13  N   UNL A   1      34.143  23.974  25.848  1.00  0.00    -0.310 N 
ATOM     14  C   UNL A   1      34.165  22.731  26.450  1.00  0.00     0.293 C 
ATOM     15  H   UNL A   1      34.790  24.605  26.236  1.00  0.00     0.171 HD
ATOM     16  O   UNL A   1      34.866  22.606  27.457  1.00  0.00    -0.265 OA
BRANCH  14  17
ATOM     17  C   UNL A   1      33.473  21.610  25.871  1.00  0.00     0.214 A 
ATOM     18  N   UNL A   1      34.043  20.542  25.347  1.00  0.00    -0.207 NA
ATOM     19  N   UNL A   1      32.121  21.485  25.752  1.00  0.00    -0.255 N 
ATOM     20  C   UNL A   1      32.980  19.744  25.003  1.00  0.00     0.156 A 
ATOM     21  N   UNL A   1      31.778  20.302  25.213  1.00  0.00    -0.158 NA
ATOM     22  H   UNL A   1      31.475  22.176  26.025  1.00  0.00     0.192 HD
BRANCH  20  23
ATOM     23  C   UNL A   1      33.179  18.369  24.418  1.00  0.00     0.024 C 
ATOM     24  C   UNL A   1      32.530  17.326  25.344  1.00  0.00     0.019 C 
ATOM     25  C   UNL A   1      32.520  18.280  23.025  1.00  0.00     0.019 C 
ATOM     26  C   UNL A   1      34.674  18.031  24.251  1.00  0.00     0.019 C 
ENDBRANCH  20  23
ENDBRANCH  14  17
ENDBRANCH  12  13
ENDBRANCH   4   7
ENDBRANCH   2   3
ENDBRANCH   1   2
BRANCH   1  27
ATOM     27  C   UNL A   1      33.858  29.311  26.779  1.00  0.00     0.023 C 
BRANCH  27  28
ATOM     28  C   UNL A   1      35.108  29.191  27.650  1.00  0.00     0.116 C 
BRANCH  28  29
ATOM     29  N   UNL A   1      35.151  30.149  28.744  1.00  0.00    -0.352 N 
ATOM     30  C   UNL A   1      36.225  30.500  29.530  1.00  0.00     0.251 C 
ATOM     31  H   UNL A   1      34.302  30.605  28.949  1.00  0.00     0.163 HD
ATOM     32  O   UNL A   1      36.076  31.260  30.474  1.00  0.00    -0.269 OA
BRANCH  30  33
ATOM     33  C   UNL A   1      37.549  29.903  29.243  1.00  0.00     0.039 A 
ATOM     34  C   UNL A   1      37.960  29.794  27.913  1.00  0.00     0.014 A 
ATOM     35  C   UNL A   1      38.389  29.496  30.282  1.00  0.00     0.014 A 
ATOM     36  C   UNL A   1      39.251  29.345  27.627  1.00  0.00     0.010 A 
ATOM     37  C   UNL A   1      39.695  29.105  29.998  1.00  0.00     0.010 A 
ATOM     38  C   UNL A   1      40.142  29.034  28.669  1.00  0.00    -0.014 A 
BRANCH  38  39
ATOM     39  C   UNL A   1      41.548  28.651  28.390  1.00  0.00     0.031 A 
ATOM     40  C   UNL A   1      42.626  29.698  28.368  1.00  0.00     0.074 A 
ATOM     41  C   UNL A   1      41.839  27.371  28.085  1.00  0.00     0.049 A 
ATOM     42  N   UNL A   1      43.891  29.573  28.062  1.00  0.00    -0.248 NA
ATOM     43  C   UNL A   1      42.223  31.073  28.708  1.00  0.00     0.031 C 
ATOM     44  C   UNL A   1      40.870  26.273  28.021  1.00  0.00     0.029 A 
ATOM     45  N   UNL A   1      43.031  26.776  27.757  1.00  0.00    -0.354 N 
ATOM     46  C   UNL A   1      44.432  30.849  28.159  1.00  0.00     0.074 A 
ATOM     47  C   UNL A   1      43.348  31.743  28.505  1.00  0.00     0.031 C 
ATOM     48  C   UNL A   1      41.510  25.139  27.690  1.00  0.00     0.029 A 
ATOM     49  C   UNL A   1      42.925  25.431  27.488  1.00  0.00     0.049 A 
ATOM     50  H   UNL A   1      43.884  27.266  27.717  1.00  0.00     0.167 HD
ATOM     51  C   UNL A   1      45.720  31.237  27.998  1.00  0.00     0.037 A 
ATOM     52  C   UNL A   1      43.861  24.537  27.114  1.00  0.00     0.037 A 
ATOM     53  C   UNL A   1      46.801  30.339  27.684  1.00  0.00     0.049 A 
ATOM     54  C   UNL A   1      45.287  24.990  26.958  1.00  0.00     0.074 A 
ATOM     55  C   UNL A   1      48.148  30.626  27.554  1.00  0.00     0.029 A 
ATOM     56  N   UNL A   1      46.658  28.978  27.457  1.00  0.00    -0.354 N 
ATOM     57  N   UNL A   1      45.790  26.192  27.110  1.00  0.00    -0.248 NA
ATOM     58  C   UNL A   1      46.273  23.968  26.585  1.00  0.00     0.031 C 
ATOM     59  C   UNL A   1      48.817  29.444  27.219  1.00  0.00     0.029 A 
ATOM     60  C   UNL A   1      47.892  28.414  27.178  1.00  0.00     0.049 A 
ATOM     61  H   UNL A   1      45.806  28.486  27.490  1.00  0.00     0.167 HD
ATOM     62  C   UNL A   1      47.155  26.065  26.877  1.00  0.00     0.074 A 
ATOM     63  C   UNL A   1      47.400  24.667  26.586  1.00  0.00     0.031 C 
ATOM     64  C   UNL A   1      48.118  27.018  26.902  1.00  0.00     0.037 A 
BRANCH  51  65
ATOM     65  C   UNL A   1      46.035  32.696  28.174  1.00  0.00     0.058 A 
ATOM     66  C   UNL A   1      45.937  33.600  27.105  1.00  0.00     0.135 A 
ATOM     67  C   UNL A   1      46.397  33.205  29.432  1.00  0.00     0.135 A 
ATOM     68  F   UNL A   1      45.611  33.165  25.878  1.00  0.00    -0.206 F 
ATOM     69  C   UNL A   1      46.210  34.953  27.271  1.00  0.00     0.059 A 
ATOM     70  C   UNL A   1      46.650  34.560  29.627  1.00  0.00     0.059 A 
ATOM     71  F   UNL A   1      46.508  32.382  30.488  1.00  0.00    -0.206 F 
ATOM     72  C   UNL A   1      46.567  35.424  28.536  1.00  0.00     0.060 A 
BRANCH  72  73
ATOM     73  S   UNL A   1      46.906  37.185  28.736  1.00  0.00     0.124 S 
ATOM     74  O   UNL A   1      46.205  37.749  27.587  1.00  0.00    -0.237 OA
ATOM     75  O   UNL A   1      46.316  37.472  30.040  1.00  0.00    -0.237 OA
ATOM     76  O   UNL A   1      48.362  37.259  28.680  1.00  0.00    -0.744 OA
ENDBRANCH  72  73
ENDBRANCH  51  65
BRANCH  52  77
ATOM     77  C   UNL A   1      43.486  23.117  26.882  1.00  0.00     0.058 A 
ATOM     78  C   UNL A   1      43.374  22.606  25.581  1.00  0.00     0.135 A 
ATOM     79  C   UNL A   1      43.232  22.245  27.951  1.00  0.00     0.135 A 
ATOM     80  F   UNL A   1      43.604  23.403  24.526  1.00  0.00    -0.206 F 
ATOM     81  C   UNL A   1      43.000  21.288  25.345  1.00  0.00     0.059 A 
ATOM     82  C   UNL A   1      42.880  20.915  27.742  1.00  0.00     0.059 A 
ATOM     83  F   UNL A   1      43.346  22.681  29.217  1.00  0.00    -0.206 F 
ATOM     84  C   UNL A   1      42.753  20.450  26.434  1.00  0.00     0.060 A 
BRANCH  84  85
ATOM     85  S   UNL A   1      42.303  18.729  26.120  1.00  0.00     0.124 S 
ATOM     86  O   UNL A   1      40.897  18.857  25.753  1.00  0.00    -0.237 OA
ATOM     87  O   UNL A   1      43.215  18.363  25.041  1.00  0.00    -0.237 OA
ATOM     88  O   UNL A   1      42.565  18.078  27.400  1.00  0.00    -0.744 OA
ENDBRANCH  84  85
ENDBRANCH  52  77
BRANCH  64  89
ATOM     89  C   UNL A   1      49.531  26.578  26.641  1.00  0.00     0.058 A 
ATOM     90  C   UNL A   1      50.378  26.170  27.683  1.00  0.00     0.135 A 
ATOM     91  C   UNL A   1      50.025  26.515  25.328  1.00  0.00     0.135 A 
ATOM     92  F   UNL A   1      49.955  26.219  28.956  1.00  0.00    -0.206 F 
ATOM     93  C   UNL A   1      51.674  25.733  27.433  1.00  0.00     0.059 A 
ATOM     94  C   UNL A   1      51.309  26.058  25.054  1.00  0.00     0.059 A 
ATOM     95  F   UNL A   1      49.249  26.885  24.296  1.00  0.00    -0.206 F 
ATOM     96  C   UNL A   1      52.130  25.679  26.114  1.00  0.00     0.060 A 
BRANCH  96  97
ATOM     97  S   UNL A   1      53.802  25.075  25.799  1.00  0.00     0.124 S 
ATOM     98  O   UNL A   1      54.265  26.009  24.779  1.00  0.00    -0.237 OA
ATOM     99  O   UNL A   1      54.434  25.203  27.109  1.00  0.00    -0.237 OA
ATOM    100  O   UNL A   1      53.587  23.704  25.345  1.00  0.00    -0.744 OA
ENDBRANCH  96  97
ENDBRANCH  64  89
ENDBRANCH  38  39
ENDBRANCH  30  33
ENDBRANCH  28  29
ENDBRANCH  27  28
ENDBRANCH   1  27
TORSDOF 17
ENDMDL
