MODEL 1
REMARK VINA RESULT:     -11.9      0.000      0.000
REMARK SMILES N#C/C(=C\c1ccc(Oc2ccccc2Cl)c([N+](=O)[O-])c1)C(=O)NCCCCNC(=O)c1ccc(-c2c3nc(c(-c4c(F)cc(S(=O)(=O)[O-])cc4F)c4ccc([nH]4)c(-c4c(F)cc(S(=O)(=O)[O-])cc4F)c4nc(c(-c5c(F)cc(S(=O)(=O)[O-])cc5F)c5ccc2[nH]5)C=C4)C=C3)cc1
REMARK SMILES IDX 26 1 25 2 24 3 22 4 23 5 3 7 4 8 2 9 1 10 5 11 6 12 21 13
REMARK SMILES IDX 7 14 17 15 8 16 18 17 19 18 20 19 9 20 10 21 11 22 15 23
REMARK SMILES IDX 12 24 14 25 16 26 13 27 27 28 28 29 29 30 30 31 31 33 32 34
REMARK SMILES IDX 33 35 97 36 34 37 96 38 35 39 36 40 37 41 90 42 38 43 95 44
REMARK SMILES IDX 89 45 91 46 39 47 94 48 88 49 87 50 40 52 74 53 53 54 73 55
REMARK SMILES IDX 54 56 57 57 72 58 92 59 55 60 56 61 71 63 93 64 58 65 41 66
REMARK SMILES IDX 42 67 51 68 43 69 44 70 50 71 52 72 45 73 46 74 47 75 48 76
REMARK SMILES IDX 49 77 75 78 76 79 85 80 77 81 78 82 84 83 86 84 79 85 80 86
REMARK SMILES IDX 81 87 82 88 83 89 59 90 60 91 69 92 61 93 62 94 68 95 70 96
REMARK SMILES IDX 63 97 64 98 65 99 66 100 67 101
REMARK H PARENT 24 6 29 32 91 51 57 62
REMARK Flexibility Score: inf
ROOT
ATOM      1  C   UNL A   1      40.253  22.491  27.634  1.00  0.00     0.023 C 
ENDROOT
BRANCH   1   2
ATOM      2  C   UNL A   1      39.302  22.558  26.434  1.00  0.00     0.116 C 
BRANCH   2   3
ATOM      3  N   UNL A   1      39.008  21.236  25.914  1.00  0.00    -0.351 N 
ATOM      4  C   UNL A   1      37.941  20.727  25.238  1.00  0.00     0.261 C 
ATOM      5  O   UNL A   1      38.015  19.552  24.877  1.00  0.00    -0.268 OA
ATOM      6  H   UNL A   1      39.719  20.578  26.083  1.00  0.00     0.163 HD
BRANCH   4   7
ATOM      7  C   UNL A   1      36.717  21.514  24.914  1.00  0.00     0.117 C 
ATOM      8  C   UNL A   1      35.475  21.381  25.443  1.00  0.00     0.033 C 
BRANCH   7   9
ATOM      9  C   UNL A   1      36.791  22.427  23.701  1.00  0.00     0.105 C 
ATOM     10  N   UNL A   1      36.852  23.184  22.695  1.00  0.00    -0.192 NA
ENDBRANCH   7   9
BRANCH   8  11
ATOM     11  C   UNL A   1      34.275  22.156  25.038  1.00  0.00    -0.017 A 
ATOM     12  C   UNL A   1      33.551  21.757  23.911  1.00  0.00     0.012 A 
ATOM     13  C   UNL A   1      33.809  23.253  25.772  1.00  0.00     0.098 A 
ATOM     14  C   UNL A   1      32.369  22.423  23.548  1.00  0.00     0.055 A 
ATOM     15  C   UNL A   1      32.576  23.850  25.454  1.00  0.00     0.312 A 
ATOM     16  C   UNL A   1      31.856  23.481  24.315  1.00  0.00     0.204 A 
BRANCH  15  17
ATOM     17  N   UNL A   1      32.058  24.761  26.454  1.00  0.00     0.066 N 
ATOM     18  O   UNL A   1      32.415  25.944  26.381  1.00  0.00    -0.258 OA
ATOM     19  O   UNL A   1      31.251  24.298  27.272  1.00  0.00    -0.258 OA
ENDBRANCH  15  17
BRANCH  16  20
ATOM     20  O   UNL A   1      30.677  23.985  23.807  1.00  0.00    -0.449 OA
BRANCH  20  21
ATOM     21  C   UNL A   1      30.575  25.302  23.441  1.00  0.00     0.146 A 
ATOM     22  C   UNL A   1      29.540  26.022  24.050  1.00  0.00     0.049 A 
ATOM     23  C   UNL A   1      31.395  25.930  22.496  1.00  0.00     0.083 A 
ATOM     24  C   UNL A   1      29.390  27.384  23.798  1.00  0.00     0.004 A 
ATOM     25  C   UNL A   1      31.254  27.300  22.260  1.00  0.00     0.024 A 
ATOM     26  Cl  UNL A   1      32.600  25.068  21.609  1.00  0.00    -0.080 Cl
ATOM     27  C   UNL A   1      30.261  28.028  22.921  1.00  0.00     0.002 A 
ENDBRANCH  20  21
ENDBRANCH  16  20
ENDBRANCH   8  11
ENDBRANCH   4   7
ENDBRANCH   2   3
ENDBRANCH   1   2
BRANCH   1  28
ATOM     28  C   UNL A   1      41.697  22.122  27.285  1.00  0.00     0.023 C 
BRANCH  28  29
ATOM     29  C   UNL A   1      42.640  23.306  27.114  1.00  0.00     0.116 C 
BRANCH  29  30
ATOM     30  N   UNL A   1      42.358  24.110  25.933  1.00  0.00    -0.352 N 
ATOM     31  C   UNL A   1      41.960  25.428  25.886  1.00  0.00     0.251 C 
ATOM     32  H   UNL A   1      42.465  23.657  25.066  1.00  0.00     0.163 HD
ATOM     33  O   UNL A   1      41.667  25.948  24.820  1.00  0.00    -0.269 OA
BRANCH  31  34
ATOM     34  C   UNL A   1      41.845  26.178  27.154  1.00  0.00     0.039 A 
ATOM     35  C   UNL A   1      42.827  27.120  27.468  1.00  0.00     0.014 A 
ATOM     36  C   UNL A   1      40.740  25.996  27.987  1.00  0.00     0.014 A 
ATOM     37  C   UNL A   1      42.661  27.934  28.590  1.00  0.00     0.010 A 
ATOM     38  C   UNL A   1      40.543  26.855  29.063  1.00  0.00     0.010 A 
ATOM     39  C   UNL A   1      41.499  27.833  29.374  1.00  0.00    -0.014 A 
BRANCH  39  40
ATOM     40  C   UNL A   1      41.261  28.746  30.519  1.00  0.00     0.031 A 
ATOM     41  C   UNL A   1      42.107  28.634  31.755  1.00  0.00     0.074 A 
ATOM     42  C   UNL A   1      40.236  29.618  30.473  1.00  0.00     0.049 A 
ATOM     43  N   UNL A   1      42.011  29.289  32.884  1.00  0.00    -0.248 NA
ATOM     44  C   UNL A   1      43.186  27.633  31.732  1.00  0.00     0.031 C 
ATOM     45  C   UNL A   1      39.309  29.779  29.350  1.00  0.00     0.029 A 
ATOM     46  N   UNL A   1      39.793  30.528  31.400  1.00  0.00    -0.354 N 
ATOM     47  C   UNL A   1      43.000  28.769  33.709  1.00  0.00     0.074 A 
ATOM     48  C   UNL A   1      43.650  27.707  32.970  1.00  0.00     0.031 C 
ATOM     49  C   UNL A   1      38.426  30.746  29.644  1.00  0.00     0.029 A 
ATOM     50  C   UNL A   1      38.699  31.252  30.986  1.00  0.00     0.049 A 
ATOM     51  H   UNL A   1      40.219  30.653  32.278  1.00  0.00     0.167 HD
ATOM     52  C   UNL A   1      43.352  29.155  34.958  1.00  0.00     0.037 A 
ATOM     53  C   UNL A   1      37.997  32.212  31.617  1.00  0.00     0.037 A 
ATOM     54  C   UNL A   1      42.720  30.231  35.676  1.00  0.00     0.049 A 
ATOM     55  C   UNL A   1      38.415  32.638  32.997  1.00  0.00     0.074 A 
ATOM     56  C   UNL A   1      43.043  30.745  36.918  1.00  0.00     0.029 A 
ATOM     57  N   UNL A   1      41.632  30.958  35.212  1.00  0.00    -0.354 N 
ATOM     58  N   UNL A   1      39.396  32.181  33.738  1.00  0.00    -0.248 NA
ATOM     59  C   UNL A   1      37.634  33.712  33.626  1.00  0.00     0.031 C 
ATOM     60  C   UNL A   1      42.127  31.760  37.222  1.00  0.00     0.029 A 
ATOM     61  C   UNL A   1      41.261  31.906  36.151  1.00  0.00     0.049 A 
ATOM     62  H   UNL A   1      41.189  30.821  34.343  1.00  0.00     0.167 HD
ATOM     63  C   UNL A   1      39.368  32.928  34.910  1.00  0.00     0.074 A 
ATOM     64  C   UNL A   1      38.277  33.872  34.775  1.00  0.00     0.031 C 
ATOM     65  C   UNL A   1      40.173  32.841  35.998  1.00  0.00     0.037 A 
BRANCH  52  66
ATOM     66  C   UNL A   1      44.475  28.406  35.620  1.00  0.00     0.058 A 
ATOM     67  C   UNL A   1      44.234  27.286  36.433  1.00  0.00     0.135 A 
ATOM     68  C   UNL A   1      45.808  28.812  35.445  1.00  0.00     0.135 A 
ATOM     69  F   UNL A   1      42.977  26.865  36.649  1.00  0.00    -0.206 F 
ATOM     70  C   UNL A   1      45.269  26.624  37.085  1.00  0.00     0.059 A 
ATOM     71  C   UNL A   1      46.862  28.145  36.064  1.00  0.00     0.059 A 
ATOM     72  F   UNL A   1      46.096  29.875  34.678  1.00  0.00    -0.206 F 
ATOM     73  C   UNL A   1      46.579  27.065  36.899  1.00  0.00     0.060 A 
BRANCH  73  74
ATOM     74  S   UNL A   1      47.909  26.214  37.773  1.00  0.00     0.124 S 
ATOM     75  O   UNL A   1      48.049  27.044  38.966  1.00  0.00    -0.237 OA
ATOM     76  O   UNL A   1      47.343  24.886  37.990  1.00  0.00    -0.237 OA
ATOM     77  O   UNL A   1      49.023  26.272  36.834  1.00  0.00    -0.744 OA
ENDBRANCH  73  74
ENDBRANCH  52  66
BRANCH  53  78
ATOM     78  C   UNL A   1      36.854  32.864  30.927  1.00  0.00     0.058 A 
ATOM     79  C   UNL A   1      35.532  32.572  31.297  1.00  0.00     0.135 A 
ATOM     80  C   UNL A   1      37.055  33.815  29.915  1.00  0.00     0.135 A 
ATOM     81  F   UNL A   1      35.290  31.665  32.256  1.00  0.00    -0.206 F 
ATOM     82  C   UNL A   1      34.450  33.194  30.684  1.00  0.00     0.059 A 
ATOM     83  C   UNL A   1      35.989  34.466  29.302  1.00  0.00     0.059 A 
ATOM     84  F   UNL A   1      38.302  34.140  29.537  1.00  0.00    -0.206 F 
ATOM     85  C   UNL A   1      34.689  34.144  29.690  1.00  0.00     0.060 A 
BRANCH  85  86
ATOM     86  S   UNL A   1      33.279  34.999  28.953  1.00  0.00     0.124 S 
ATOM     87  O   UNL A   1      32.443  35.247  30.122  1.00  0.00    -0.237 OA
ATOM     88  O   UNL A   1      33.909  36.173  28.357  1.00  0.00    -0.237 OA
ATOM     89  O   UNL A   1      32.758  34.025  27.999  1.00  0.00    -0.744 OA
ENDBRANCH  85  86
ENDBRANCH  53  78
BRANCH  65  90
ATOM     90  C   UNL A   1      39.925  33.810  37.119  1.00  0.00     0.058 A 
ATOM     91  C   UNL A   1      40.483  35.097  37.114  1.00  0.00     0.135 A 
ATOM     92  C   UNL A   1      39.078  33.463  38.184  1.00  0.00     0.135 A 
ATOM     93  F   UNL A   1      41.306  35.474  36.123  1.00  0.00    -0.206 F 
ATOM     94  C   UNL A   1      40.223  36.004  38.137  1.00  0.00     0.059 A 
ATOM     95  C   UNL A   1      38.785  34.362  39.204  1.00  0.00     0.059 A 
ATOM     96  F   UNL A   1      38.513  32.246  38.229  1.00  0.00    -0.206 F 
ATOM     97  C   UNL A   1      39.371  35.627  39.177  1.00  0.00     0.060 A 
BRANCH  97  98
ATOM     98  S   UNL A   1      39.008  36.824  40.479  1.00  0.00     0.124 S 
ATOM     99  O   UNL A   1      38.030  36.097  41.282  1.00  0.00    -0.237 OA
ATOM    100  O   UNL A   1      40.316  37.020  41.098  1.00  0.00    -0.237 OA
ATOM    101  O   UNL A   1      38.490  37.975  39.748  1.00  0.00    -0.744 OA
ENDBRANCH  97  98
ENDBRANCH  65  90
ENDBRANCH  39  40
ENDBRANCH  31  34
ENDBRANCH  29  30
ENDBRANCH  28  29
ENDBRANCH   1  28
TORSDOF 19
ENDMDL
MODEL 2
REMARK VINA RESULT:     -11.7      6.251     11.732
REMARK SMILES N#C/C(=C\c1ccc(Oc2ccccc2Cl)c([N+](=O)[O-])c1)C(=O)NCCCCNC(=O)c1ccc(-c2c3nc(c(-c4c(F)cc(S(=O)(=O)[O-])cc4F)c4ccc([nH]4)c(-c4c(F)cc(S(=O)(=O)[O-])cc4F)c4nc(c(-c5c(F)cc(S(=O)(=O)[O-])cc5F)c5ccc2[nH]5)C=C4)C=C3)cc1
REMARK SMILES IDX 26 1 25 2 24 3 22 4 23 5 3 7 4 8 2 9 1 10 5 11 6 12 21 13
REMARK SMILES IDX 7 14 17 15 8 16 18 17 19 18 20 19 9 20 10 21 11 22 15 23
REMARK SMILES IDX 12 24 14 25 16 26 13 27 27 28 28 29 29 30 30 31 31 33 32 34
REMARK SMILES IDX 33 35 97 36 34 37 96 38 35 39 36 40 37 41 90 42 38 43 95 44
REMARK SMILES IDX 89 45 91 46 39 47 94 48 88 49 87 50 40 52 74 53 53 54 73 55
REMARK SMILES IDX 54 56 57 57 72 58 92 59 55 60 56 61 71 63 93 64 58 65 41 66
REMARK SMILES IDX 42 67 51 68 43 69 44 70 50 71 52 72 45 73 46 74 47 75 48 76
REMARK SMILES IDX 49 77 75 78 76 79 85 80 77 81 78 82 84 83 86 84 79 85 80 86
REMARK SMILES IDX 81 87 82 88 83 89 59 90 60 91 69 92 61 93 62 94 68 95 70 96
REMARK SMILES IDX 63 97 64 98 65 99 66 100 67 101
REMARK H PARENT 24 6 29 32 91 51 57 62
REMARK Flexibility Score: inf
ROOT
ATOM      1  C   UNL A   1      34.271  30.152  27.852  1.00  0.00     0.023 C 
ENDROOT
BRANCH   1   2
ATOM      2  C   UNL A   1      34.848  29.100  26.898  1.00  0.00     0.116 C 
BRANCH   2   3
ATOM      3  N   UNL A   1      34.374  29.295  25.541  1.00  0.00    -0.351 N 
ATOM      4  C   UNL A   1      33.671  28.501  24.686  1.00  0.00     0.261 C 
ATOM      5  O   UNL A   1      33.367  28.984  23.595  1.00  0.00    -0.268 OA
ATOM      6  H   UNL A   1      34.604  30.174  25.165  1.00  0.00     0.163 HD
BRANCH   4   7
ATOM      7  C   UNL A   1      33.256  27.106  25.007  1.00  0.00     0.117 C 
ATOM      8  C   UNL A   1      33.645  25.958  24.399  1.00  0.00     0.033 C 
BRANCH   7   9
ATOM      9  C   UNL A   1      32.100  26.942  25.979  1.00  0.00     0.105 C 
ATOM     10  N   UNL A   1      31.140  26.807  26.786  1.00  0.00    -0.192 NA
ENDBRANCH   7   9
BRANCH   8  11
ATOM     11  C   UNL A   1      33.151  24.596  24.723  1.00  0.00    -0.017 A 
ATOM     12  C   UNL A   1      32.020  24.103  24.066  1.00  0.00     0.012 A 
ATOM     13  C   UNL A   1      33.803  23.761  25.638  1.00  0.00     0.098 A 
ATOM     14  C   UNL A   1      31.574  22.791  24.296  1.00  0.00     0.055 A 
ATOM     15  C   UNL A   1      33.405  22.421  25.788  1.00  0.00     0.312 A 
ATOM     16  C   UNL A   1      32.261  21.922  25.160  1.00  0.00     0.204 A 
BRANCH  15  17
ATOM     17  N   UNL A   1      34.331  21.581  26.520  1.00  0.00     0.066 N 
ATOM     18  O   UNL A   1      34.045  21.313  27.694  1.00  0.00    -0.258 OA
ATOM     19  O   UNL A   1      35.311  21.150  25.898  1.00  0.00    -0.258 OA
ENDBRANCH  15  17
BRANCH  16  20
ATOM     20  O   UNL A   1      31.680  20.673  25.231  1.00  0.00    -0.449 OA
BRANCH  20  21
ATOM     21  C   UNL A   1      32.284  19.584  24.656  1.00  0.00     0.146 A 
ATOM     22  C   UNL A   1      32.825  18.651  25.549  1.00  0.00     0.049 A 
ATOM     23  C   UNL A   1      32.418  19.385  23.277  1.00  0.00     0.083 A 
ATOM     24  C   UNL A   1      33.402  17.476  25.071  1.00  0.00     0.004 A 
ATOM     25  C   UNL A   1      32.979  18.197  22.802  1.00  0.00     0.024 A 
ATOM     26  Cl  UNL A   1      31.896  20.560  22.125  1.00  0.00    -0.080 Cl
ATOM     27  C   UNL A   1      33.458  17.238  23.699  1.00  0.00     0.002 A 
ENDBRANCH  20  21
ENDBRANCH  16  20
ENDBRANCH   8  11
ENDBRANCH   4   7
ENDBRANCH   2   3
ENDBRANCH   1   2
BRANCH   1  28
ATOM     28  C   UNL A   1      34.849  31.558  27.675  1.00  0.00     0.023 C 
BRANCH  28  29
ATOM     29  C   UNL A   1      35.849  31.980  28.745  1.00  0.00     0.116 C 
BRANCH  29  30
ATOM     30  N   UNL A   1      35.610  31.362  30.041  1.00  0.00    -0.352 N 
ATOM     31  C   UNL A   1      36.480  30.594  30.782  1.00  0.00     0.251 C 
ATOM     32  H   UNL A   1      34.721  31.513  30.435  1.00  0.00     0.163 HD
ATOM     33  O   UNL A   1      36.109  30.060  31.816  1.00  0.00    -0.269 OA
BRANCH  31  34
ATOM     34  C   UNL A   1      37.852  30.388  30.271  1.00  0.00     0.039 A 
ATOM     35  C   UNL A   1      38.930  30.620  31.128  1.00  0.00     0.014 A 
ATOM     36  C   UNL A   1      38.061  29.905  28.978  1.00  0.00     0.014 A 
ATOM     37  C   UNL A   1      40.222  30.297  30.707  1.00  0.00     0.010 A 
ATOM     38  C   UNL A   1      39.339  29.520  28.588  1.00  0.00     0.010 A 
ATOM     39  C   UNL A   1      40.431  29.710  29.449  1.00  0.00    -0.014 A 
BRANCH  39  40
ATOM     40  C   UNL A   1      41.783  29.280  29.014  1.00  0.00     0.031 A 
ATOM     41  C   UNL A   1      42.903  30.278  28.949  1.00  0.00     0.074 A 
ATOM     42  C   UNL A   1      41.979  28.010  28.607  1.00  0.00     0.049 A 
ATOM     43  N   UNL A   1      44.132  30.115  28.531  1.00  0.00    -0.248 NA
ATOM     44  C   UNL A   1      42.593  31.651  29.383  1.00  0.00     0.031 C 
ATOM     45  C   UNL A   1      40.955  26.964  28.572  1.00  0.00     0.029 A 
ATOM     46  N   UNL A   1      43.106  27.386  28.135  1.00  0.00    -0.354 N 
ATOM     47  C   UNL A   1      44.735  31.363  28.633  1.00  0.00     0.074 A 
ATOM     48  C   UNL A   1      43.721  32.284  29.102  1.00  0.00     0.031 C 
ATOM     49  C   UNL A   1      41.506  25.823  28.127  1.00  0.00     0.029 A 
ATOM     50  C   UNL A   1      42.912  26.063  27.815  1.00  0.00     0.049 A 
ATOM     51  H   UNL A   1      43.973  27.842  28.036  1.00  0.00     0.167 HD
ATOM     52  C   UNL A   1      46.021  31.706  28.383  1.00  0.00     0.037 A 
ATOM     53  C   UNL A   1      43.771  25.149  27.324  1.00  0.00     0.037 A 
ATOM     54  C   UNL A   1      47.030  30.778  27.944  1.00  0.00     0.049 A 
ATOM     55  C   UNL A   1      45.198  25.545  27.069  1.00  0.00     0.074 A 
ATOM     56  C   UNL A   1      48.376  31.008  27.725  1.00  0.00     0.029 A 
ATOM     57  N   UNL A   1      46.801  29.439  27.656  1.00  0.00    -0.354 N 
ATOM     58  N   UNL A   1      45.769  26.715  27.235  1.00  0.00    -0.248 NA
ATOM     59  C   UNL A   1      46.099  24.500  26.566  1.00  0.00     0.031 C 
ATOM     60  C   UNL A   1      48.954  29.818  27.270  1.00  0.00     0.029 A 
ATOM     61  C   UNL A   1      47.978  28.835  27.245  1.00  0.00     0.049 A 
ATOM     62  H   UNL A   1      45.930  28.986  27.732  1.00  0.00     0.167 HD
ATOM     63  C   UNL A   1      47.102  26.541  26.880  1.00  0.00     0.074 A 
ATOM     64  C   UNL A   1      47.253  25.151  26.499  1.00  0.00     0.031 C 
ATOM     65  C   UNL A   1      48.109  27.448  26.872  1.00  0.00     0.037 A 
BRANCH  52  66
ATOM     66  C   UNL A   1      46.401  33.146  28.583  1.00  0.00     0.058 A 
ATOM     67  C   UNL A   1      46.826  33.629  29.831  1.00  0.00     0.135 A 
ATOM     68  C   UNL A   1      46.338  34.058  27.516  1.00  0.00     0.135 A 
ATOM     69  F   UNL A   1      46.888  32.806  30.889  1.00  0.00    -0.206 F 
ATOM     70  C   UNL A   1      47.130  34.973  30.027  1.00  0.00     0.059 A 
ATOM     71  C   UNL A   1      46.667  35.400  27.682  1.00  0.00     0.059 A 
ATOM     72  F   UNL A   1      45.940  33.650  26.300  1.00  0.00    -0.206 F 
ATOM     73  C   UNL A   1      47.041  35.852  28.947  1.00  0.00     0.060 A 
BRANCH  73  74
ATOM     74  S   UNL A   1      47.412  37.597  29.221  1.00  0.00     0.124 S 
ATOM     75  O   UNL A   1      46.335  38.242  28.475  1.00  0.00    -0.237 OA
ATOM     76  O   UNL A   1      47.330  37.710  30.675  1.00  0.00    -0.237 OA
ATOM     77  O   UNL A   1      48.748  37.752  28.658  1.00  0.00    -0.744 OA
ENDBRANCH  73  74
ENDBRANCH  52  66
BRANCH  53  78
ATOM     78  C   UNL A   1      43.307  23.756  27.086  1.00  0.00     0.058 A 
ATOM     79  C   UNL A   1      43.183  22.850  28.149  1.00  0.00     0.135 A 
ATOM     80  C   UNL A   1      42.945  23.315  25.804  1.00  0.00     0.135 A 
ATOM     81  F   UNL A   1      43.522  23.225  29.392  1.00  0.00    -0.206 F 
ATOM     82  C   UNL A   1      42.721  21.553  27.951  1.00  0.00     0.059 A 
ATOM     83  C   UNL A   1      42.461  22.029  25.584  1.00  0.00     0.059 A 
ATOM     84  F   UNL A   1      43.031  24.150  24.757  1.00  0.00    -0.206 F 
ATOM     85  C   UNL A   1      42.358  21.154  26.664  1.00  0.00     0.060 A 
BRANCH  85  86
ATOM     86  S   UNL A   1      41.692  19.491  26.430  1.00  0.00     0.124 S 
ATOM     87  O   UNL A   1      42.413  19.051  25.242  1.00  0.00    -0.237 OA
ATOM     88  O   UNL A   1      42.058  18.834  27.681  1.00  0.00    -0.237 OA
ATOM     89  O   UNL A   1      40.262  19.726  26.251  1.00  0.00    -0.744 OA
ENDBRANCH  85  86
ENDBRANCH  53  78
BRANCH  65  90
ATOM     90  C   UNL A   1      49.473  26.964  26.466  1.00  0.00     0.058 A 
ATOM     91  C   UNL A   1      50.387  26.468  27.408  1.00  0.00     0.135 A 
ATOM     92  C   UNL A   1      49.846  26.946  25.113  1.00  0.00     0.135 A 
ATOM     93  F   UNL A   1      50.080  26.471  28.715  1.00  0.00    -0.206 F 
ATOM     94  C   UNL A   1      51.635  25.988  27.024  1.00  0.00     0.059 A 
ATOM     95  C   UNL A   1      51.079  26.448  24.704  1.00  0.00     0.059 A 
ATOM     96  F   UNL A   1      49.003  27.400  24.173  1.00  0.00    -0.206 F 
ATOM     97  C   UNL A   1      51.971  25.980  25.668  1.00  0.00     0.060 A 
BRANCH  97  98
ATOM     98  S   UNL A   1      53.577  25.318  25.176  1.00  0.00     0.124 S 
ATOM     99  O   UNL A   1      54.450  25.873  26.205  1.00  0.00    -0.237 OA
ATOM    100  O   UNL A   1      53.356  23.877  25.242  1.00  0.00    -0.237 OA
ATOM    101  O   UNL A   1      53.769  25.856  23.833  1.00  0.00    -0.744 OA
ENDBRANCH  97  98
ENDBRANCH  65  90
ENDBRANCH  39  40
ENDBRANCH  31  34
ENDBRANCH  29  30
ENDBRANCH  28  29
ENDBRANCH   1  28
TORSDOF 19
ENDMDL
MODEL 3
REMARK VINA RESULT:     -11.3      1.358      2.258
REMARK SMILES N#C/C(=C\c1ccc(Oc2ccccc2Cl)c([N+](=O)[O-])c1)C(=O)NCCCCNC(=O)c1ccc(-c2c3nc(c(-c4c(F)cc(S(=O)(=O)[O-])cc4F)c4ccc([nH]4)c(-c4c(F)cc(S(=O)(=O)[O-])cc4F)c4nc(c(-c5c(F)cc(S(=O)(=O)[O-])cc5F)c5ccc2[nH]5)C=C4)C=C3)cc1
REMARK SMILES IDX 26 1 25 2 24 3 22 4 23 5 3 7 4 8 2 9 1 10 5 11 6 12 21 13
REMARK SMILES IDX 7 14 17 15 8 16 18 17 19 18 20 19 9 20 10 21 11 22 15 23
REMARK SMILES IDX 12 24 14 25 16 26 13 27 27 28 28 29 29 30 30 31 31 33 32 34
REMARK SMILES IDX 33 35 97 36 34 37 96 38 35 39 36 40 37 41 90 42 38 43 95 44
REMARK SMILES IDX 89 45 91 46 39 47 94 48 88 49 87 50 40 52 74 53 53 54 73 55
REMARK SMILES IDX 54 56 57 57 72 58 92 59 55 60 56 61 71 63 93 64 58 65 41 66
REMARK SMILES IDX 42 67 51 68 43 69 44 70 50 71 52 72 45 73 46 74 47 75 48 76
REMARK SMILES IDX 49 77 75 78 76 79 85 80 77 81 78 82 84 83 86 84 79 85 80 86
REMARK SMILES IDX 81 87 82 88 83 89 59 90 60 91 69 92 61 93 62 94 68 95 70 96
REMARK SMILES IDX 63 97 64 98 65 99 66 100 67 101
REMARK H PARENT 24 6 29 32 91 51 57 62
REMARK Flexibility Score: inf
ROOT
ATOM      1  C   UNL A   1      38.372  23.264  26.193  1.00  0.00     0.023 C 
ENDROOT
BRANCH   1   2
ATOM      2  C   UNL A   1      37.215  22.507  25.532  1.00  0.00     0.116 C 
BRANCH   2   3
ATOM      3  N   UNL A   1      36.226  22.089  26.508  1.00  0.00    -0.351 N 
ATOM      4  C   UNL A   1      34.932  22.454  26.725  1.00  0.00     0.261 C 
ATOM      5  O   UNL A   1      34.326  21.864  27.620  1.00  0.00    -0.268 OA
ATOM      6  H   UNL A   1      36.555  21.408  27.137  1.00  0.00     0.163 HD
BRANCH   4   7
ATOM      7  C   UNL A   1      34.229  23.508  25.940  1.00  0.00     0.117 C 
ATOM      8  C   UNL A   1      34.773  24.446  25.126  1.00  0.00     0.033 C 
BRANCH   7   9
ATOM      9  C   UNL A   1      32.753  23.714  26.239  1.00  0.00     0.105 C 
ATOM     10  N   UNL A   1      31.529  23.885  26.488  1.00  0.00    -0.192 NA
ENDBRANCH   7   9
BRANCH   8  11
ATOM     11  C   UNL A   1      34.026  25.513  24.414  1.00  0.00    -0.017 A 
ATOM     12  C   UNL A   1      33.602  25.292  23.100  1.00  0.00     0.012 A 
ATOM     13  C   UNL A   1      33.686  26.725  25.025  1.00  0.00     0.098 A 
ATOM     14  C   UNL A   1      32.827  26.252  22.428  1.00  0.00     0.055 A 
ATOM     15  C   UNL A   1      32.832  27.635  24.377  1.00  0.00     0.312 A 
ATOM     16  C   UNL A   1      32.424  27.441  23.055  1.00  0.00     0.204 A 
BRANCH  15  17
ATOM     17  N   UNL A   1      32.310  28.695  25.216  1.00  0.00     0.066 N 
ATOM     18  O   UNL A   1      32.751  29.836  25.025  1.00  0.00    -0.258 OA
ATOM     19  O   UNL A   1      31.422  28.388  26.022  1.00  0.00    -0.258 OA
ENDBRANCH  15  17
BRANCH  16  20
ATOM     20  O   UNL A   1      31.650  28.238  22.238  1.00  0.00    -0.449 OA
BRANCH  20  21
ATOM     21  C   UNL A   1      30.347  28.520  22.560  1.00  0.00     0.146 A 
ATOM     22  C   UNL A   1      29.938  29.839  22.330  1.00  0.00     0.049 A 
ATOM     23  C   UNL A   1      29.452  27.603  23.125  1.00  0.00     0.083 A 
ATOM     24  C   UNL A   1      28.616  30.214  22.562  1.00  0.00     0.004 A 
ATOM     25  C   UNL A   1      28.123  27.977  23.337  1.00  0.00     0.024 A 
ATOM     26  Cl  UNL A   1      29.929  26.003  23.560  1.00  0.00    -0.080 Cl
ATOM     27  C   UNL A   1      27.703  29.278  23.043  1.00  0.00     0.002 A 
ENDBRANCH  20  21
ENDBRANCH  16  20
ENDBRANCH   8  11
ENDBRANCH   4   7
ENDBRANCH   2   3
ENDBRANCH   1   2
BRANCH   1  28
ATOM     28  C   UNL A   1      39.557  22.387  26.602  1.00  0.00     0.023 C 
BRANCH  28  29
ATOM     29  C   UNL A   1      40.817  23.151  26.992  1.00  0.00     0.116 C 
BRANCH  29  30
ATOM     30  N   UNL A   1      41.394  23.919  25.898  1.00  0.00    -0.352 N 
ATOM     31  C   UNL A   1      41.770  25.244  25.905  1.00  0.00     0.251 C 
ATOM     32  H   UNL A   1      41.533  23.432  25.054  1.00  0.00     0.163 HD
ATOM     33  O   UNL A   1      42.156  25.784  24.879  1.00  0.00    -0.269 OA
BRANCH  31  34
ATOM     34  C   UNL A   1      41.646  26.008  27.164  1.00  0.00     0.039 A 
ATOM     35  C   UNL A   1      42.664  26.897  27.514  1.00  0.00     0.014 A 
ATOM     36  C   UNL A   1      40.499  25.892  27.953  1.00  0.00     0.014 A 
ATOM     37  C   UNL A   1      42.497  27.727  28.625  1.00  0.00     0.010 A 
ATOM     38  C   UNL A   1      40.306  26.767  29.016  1.00  0.00     0.010 A 
ATOM     39  C   UNL A   1      41.301  27.694  29.360  1.00  0.00    -0.014 A 
BRANCH  39  40
ATOM     40  C   UNL A   1      41.067  28.626  30.492  1.00  0.00     0.031 A 
ATOM     41  C   UNL A   1      41.872  28.492  31.753  1.00  0.00     0.074 A 
ATOM     42  C   UNL A   1      40.080  29.538  30.409  1.00  0.00     0.049 A 
ATOM     43  N   UNL A   1      41.770  29.161  32.873  1.00  0.00    -0.248 NA
ATOM     44  C   UNL A   1      42.910  27.448  31.769  1.00  0.00     0.031 C 
ATOM     45  C   UNL A   1      39.193  29.726  29.258  1.00  0.00     0.029 A 
ATOM     46  N   UNL A   1      39.648  30.474  31.315  1.00  0.00    -0.354 N 
ATOM     47  C   UNL A   1      42.713  28.608  33.730  1.00  0.00     0.074 A 
ATOM     48  C   UNL A   1      43.341  27.514  33.018  1.00  0.00     0.031 C 
ATOM     49  C   UNL A   1      38.341  30.731  29.518  1.00  0.00     0.029 A 
ATOM     50  C   UNL A   1      38.596  31.237  30.863  1.00  0.00     0.049 A 
ATOM     51  H   UNL A   1      40.053  30.589  32.205  1.00  0.00     0.167 HD
ATOM     52  C   UNL A   1      43.045  28.992  34.986  1.00  0.00     0.037 A 
ATOM     53  C   UNL A   1      37.916  32.230  31.467  1.00  0.00     0.037 A 
ATOM     54  C   UNL A   1      42.436  30.098  35.676  1.00  0.00     0.049 A 
ATOM     55  C   UNL A   1      38.310  32.651  32.855  1.00  0.00     0.074 A 
ATOM     56  C   UNL A   1      42.743  30.610  36.923  1.00  0.00     0.029 A 
ATOM     57  N   UNL A   1      41.392  30.864  35.175  1.00  0.00    -0.354 N 
ATOM     58  N   UNL A   1      39.251  32.162  33.628  1.00  0.00    -0.248 NA
ATOM     59  C   UNL A   1      37.556  33.762  33.452  1.00  0.00     0.031 C 
ATOM     60  C   UNL A   1      41.861  31.663  37.192  1.00  0.00     0.029 A 
ATOM     61  C   UNL A   1      41.032  31.835  36.095  1.00  0.00     0.049 A 
ATOM     62  H   UNL A   1      40.969  30.737  34.295  1.00  0.00     0.167 HD
ATOM     63  C   UNL A   1      39.218  32.920  34.793  1.00  0.00     0.074 A 
ATOM     64  C   UNL A   1      38.172  33.906  34.619  1.00  0.00     0.031 C 
ATOM     65  C   UNL A   1      39.988  32.811  35.903  1.00  0.00     0.037 A 
BRANCH  52  66
ATOM     66  C   UNL A   1      44.117  28.204  35.686  1.00  0.00     0.058 A 
ATOM     67  C   UNL A   1      43.804  27.137  36.545  1.00  0.00     0.135 A 
ATOM     68  C   UNL A   1      45.473  28.519  35.502  1.00  0.00     0.135 A 
ATOM     69  F   UNL A   1      42.524  26.804  36.771  1.00  0.00    -0.206 F 
ATOM     70  C   UNL A   1      44.794  26.441  37.231  1.00  0.00     0.059 A 
ATOM     71  C   UNL A   1      46.482  27.816  36.155  1.00  0.00     0.059 A 
ATOM     72  F   UNL A   1      45.829  29.529  34.691  1.00  0.00    -0.206 F 
ATOM     73  C   UNL A   1      46.130  26.793  37.034  1.00  0.00     0.060 A 
BRANCH  73  74
ATOM     74  S   UNL A   1      47.402  25.900  37.952  1.00  0.00     0.124 S 
ATOM     75  O   UNL A   1      48.504  26.857  37.926  1.00  0.00    -0.237 OA
ATOM     76  O   UNL A   1      46.769  25.700  39.252  1.00  0.00    -0.237 OA
ATOM     77  O   UNL A   1      47.603  24.690  37.163  1.00  0.00    -0.744 OA
ENDBRANCH  73  74
ENDBRANCH  52  66
BRANCH  53  78
ATOM     78  C   UNL A   1      36.820  32.921  30.738  1.00  0.00     0.058 A 
ATOM     79  C   UNL A   1      35.480  32.562  30.951  1.00  0.00     0.135 A 
ATOM     80  C   UNL A   1      37.082  33.973  29.848  1.00  0.00     0.135 A 
ATOM     81  F   UNL A   1      35.180  31.558  31.789  1.00  0.00    -0.206 F 
ATOM     82  C   UNL A   1      34.439  33.217  30.303  1.00  0.00     0.059 A 
ATOM     83  C   UNL A   1      36.056  34.658  29.204  1.00  0.00     0.059 A 
ATOM     84  F   UNL A   1      38.346  34.364  29.624  1.00  0.00    -0.206 F 
ATOM     85  C   UNL A   1      34.737  34.268  29.434  1.00  0.00     0.060 A 
BRANCH  85  86
ATOM     86  S   UNL A   1      33.373  35.159  28.654  1.00  0.00     0.124 S 
ATOM     87  O   UNL A   1      32.568  34.062  28.129  1.00  0.00    -0.237 OA
ATOM     88  O   UNL A   1      32.800  35.890  29.779  1.00  0.00    -0.237 OA
ATOM     89  O   UNL A   1      34.042  35.986  27.654  1.00  0.00    -0.744 OA
ENDBRANCH  85  86
ENDBRANCH  53  78
BRANCH  65  90
ATOM     90  C   UNL A   1      39.748  33.799  37.010  1.00  0.00     0.058 A 
ATOM     91  C   UNL A   1      38.951  33.480  38.120  1.00  0.00     0.135 A 
ATOM     92  C   UNL A   1      40.366  35.059  36.983  1.00  0.00     0.135 A 
ATOM     93  F   UNL A   1      38.332  32.291  38.189  1.00  0.00    -0.206 F 
ATOM     94  C   UNL A   1      38.760  34.385  39.159  1.00  0.00     0.059 A 
ATOM     95  C   UNL A   1      40.209  35.970  38.022  1.00  0.00     0.059 A 
ATOM     96  F   UNL A   1      41.146  35.408  35.948  1.00  0.00    -0.206 F 
ATOM     97  C   UNL A   1      39.395  35.628  39.102  1.00  0.00     0.060 A 
BRANCH  97  98
ATOM     98  S   UNL A   1      39.173  36.780  40.474  1.00  0.00     0.124 S 
ATOM     99  O   UNL A   1      38.257  36.038  41.334  1.00  0.00    -0.237 OA
ATOM    100  O   UNL A   1      40.534  36.932  40.980  1.00  0.00    -0.237 OA
ATOM    101  O   UNL A   1      38.613  37.966  39.835  1.00  0.00    -0.744 OA
ENDBRANCH  97  98
ENDBRANCH  65  90
ENDBRANCH  39  40
ENDBRANCH  31  34
ENDBRANCH  29  30
ENDBRANCH  28  29
ENDBRANCH   1  28
TORSDOF 19
ENDMDL
