MODEL 1
REMARK VINA RESULT:      -8.2      0.000      0.000
REMARK SMILES C[C@@H](CC(=O)NCCCCNC(=O)c1ccc(-c2c3nc(c(-c4c(F)cc(S(=O)(=O)[O-])cc4F)c4ccc([nH]4)c(-c4c(F)cc(S(=O)(=O)[O-])cc4F)c4nc(c(-c5c(F)cc(S(=O)(=O)[O-])cc5F)c5ccc2[nH]5)C=C4)C=C3)cc1)CC(=O)N(C)C[C@H]1CCC[N@H+]1C
REMARK SMILES IDX 7 1 6 2 4 3 5 4 3 6 2 7 1 8 80 9 81 10 82 11 83 12 84 13
REMARK SMILES IDX 85 14 86 15 87 16 90 17 88 18 89 19 91 20 8 22 9 23 10 24
REMARK SMILES IDX 11 25 12 26 13 28 14 29 15 30 79 31 16 32 78 33 17 34 18 35
REMARK SMILES IDX 19 36 72 37 20 38 77 39 71 40 73 41 21 42 76 43 70 44 69 45
REMARK SMILES IDX 22 47 56 48 35 49 55 50 36 51 39 52 54 53 74 54 37 55 38 56
REMARK SMILES IDX 53 58 75 59 40 60 23 61 24 62 33 63 25 64 26 65 32 66 34 67
REMARK SMILES IDX 27 68 28 69 29 70 30 71 31 72 57 73 58 74 67 75 59 76 60 77
REMARK SMILES IDX 66 78 68 79 61 80 62 81 63 82 64 83 65 84 41 85 42 86 51 87
REMARK SMILES IDX 43 88 44 89 50 90 52 91 45 92 46 93 47 94 48 95 49 96
REMARK H PARENT 6 5 90 21 11 27 73 46 39 57
REMARK Flexibility Score: inf
ROOT
ATOM      1  C   UNL A   1      44.021  24.312  26.725  1.00  0.00     0.116 C 
ENDROOT
BRANCH   1   2
ATOM      2  N   UNL A   1      45.237  24.440  27.502  1.00  0.00    -0.356 N 
ATOM      3  C   UNL A   1      46.515  24.654  27.086  1.00  0.00     0.220 C 
ATOM      4  O   UNL A   1      47.418  24.599  27.921  1.00  0.00    -0.275 OA
ATOM      5  H   UNL A   1      45.123  24.360  28.477  1.00  0.00     0.163 HD
BRANCH   3   6
ATOM      6  C   UNL A   1      46.824  24.956  25.628  1.00  0.00     0.103 C 
BRANCH   6   7
ATOM      7  C   UNL A   1      47.242  26.401  25.264  1.00  0.00     0.004 C 
ATOM      8  C   UNL A   1      48.743  26.510  24.972  1.00  0.00     0.009 C 
BRANCH   7   9
ATOM      9  C   UNL A   1      46.724  27.459  26.259  1.00  0.00     0.104 C 
BRANCH   9  10
ATOM     10  C   UNL A   1      46.769  28.878  25.702  1.00  0.00     0.222 C 
ATOM     11  O   UNL A   1      46.456  29.061  24.523  1.00  0.00    -0.275 OA
BRANCH  10  12
ATOM     12  N   UNL A   1      47.227  29.917  26.507  1.00  0.00    -0.340 N 
ATOM     13  C   UNL A   1      48.324  29.831  27.461  1.00  0.00     0.147 C 
BRANCH  12  14
ATOM     14  C   UNL A   1      46.474  31.181  26.534  1.00  0.00     0.184 C 
BRANCH  14  15
ATOM     15  C   UNL A   1      44.964  31.051  26.900  1.00  0.00     0.203 C 
ATOM     16  C   UNL A   1      44.802  30.678  28.378  1.00  0.00     0.073 C 
ATOM     17  N   UNL A   1      44.162  32.292  26.894  1.00  0.00    -0.333 N 
ATOM     18  C   UNL A   1      44.805  32.012  29.124  1.00  0.00     0.068 C 
ATOM     19  C   UNL A   1      44.586  33.072  28.051  1.00  0.00     0.262 C 
ATOM     20  C   UNL A   1      44.146  33.038  25.651  1.00  0.00     0.333 C 
ATOM     21  H   UNL A   1      43.176  32.042  26.966  1.00  0.00     0.348 HD
ENDBRANCH  14  15
ENDBRANCH  12  14
ENDBRANCH  10  12
ENDBRANCH   9  10
ENDBRANCH   7   9
ENDBRANCH   6   7
ENDBRANCH   3   6
ENDBRANCH   1   2
BRANCH   1  22
ATOM     22  C   UNL A   1      43.860  22.886  26.209  1.00  0.00     0.023 C 
BRANCH  22  23
ATOM     23  C   UNL A   1      42.516  22.564  25.562  1.00  0.00     0.023 C 
BRANCH  23  24
ATOM     24  C   UNL A   1      41.427  22.154  26.538  1.00  0.00     0.116 C 
BRANCH  24  25
ATOM     25  N   UNL A   1      40.101  22.112  25.938  1.00  0.00    -0.352 N 
ATOM     26  C   UNL A   1      39.088  23.041  26.018  1.00  0.00     0.251 C 
ATOM     27  H   UNL A   1      39.901  21.309  25.404  1.00  0.00     0.163 HD
ATOM     28  O   UNL A   1      37.991  22.795  25.534  1.00  0.00    -0.269 OA
BRANCH  26  29
ATOM     29  C   UNL A   1      39.329  24.314  26.732  1.00  0.00     0.039 A 
ATOM     30  C   UNL A   1      38.865  24.453  28.041  1.00  0.00     0.014 A 
ATOM     31  C   UNL A   1      40.055  25.343  26.128  1.00  0.00     0.014 A 
ATOM     32  C   UNL A   1      39.201  25.594  28.774  1.00  0.00     0.010 A 
ATOM     33  C   UNL A   1      40.462  26.434  26.885  1.00  0.00     0.010 A 
ATOM     34  C   UNL A   1      40.039  26.573  28.215  1.00  0.00    -0.014 A 
BRANCH  34  35
ATOM     35  C   UNL A   1      40.485  27.756  28.994  1.00  0.00     0.031 A 
ATOM     36  C   UNL A   1      41.828  27.740  29.671  1.00  0.00     0.074 A 
ATOM     37  C   UNL A   1      39.649  28.798  29.165  1.00  0.00     0.049 A 
ATOM     38  N   UNL A   1      42.351  28.614  30.490  1.00  0.00    -0.248 NA
ATOM     39  C   UNL A   1      42.679  26.563  29.427  1.00  0.00     0.031 C 
ATOM     40  C   UNL A   1      38.295  28.902  28.614  1.00  0.00     0.029 A 
ATOM     41  N   UNL A   1      39.808  29.966  29.868  1.00  0.00    -0.354 N 
ATOM     42  C   UNL A   1      43.573  28.081  30.882  1.00  0.00     0.074 A 
ATOM     43  C   UNL A   1      43.692  26.785  30.251  1.00  0.00     0.031 C 
ATOM     44  C   UNL A   1      37.758  30.078  28.981  1.00  0.00     0.029 A 
ATOM     45  C   UNL A   1      38.713  30.796  29.820  1.00  0.00     0.049 A 
ATOM     46  H   UNL A   1      40.630  30.189  30.361  1.00  0.00     0.167 HD
ATOM     47  C   UNL A   1      44.523  28.632  31.675  1.00  0.00     0.037 A 
ATOM     48  C   UNL A   1      38.501  31.998  30.389  1.00  0.00     0.037 A 
ATOM     49  C   UNL A   1      44.422  29.945  32.253  1.00  0.00     0.049 A 
ATOM     50  C   UNL A   1      39.592  32.614  31.222  1.00  0.00     0.074 A 
ATOM     51  C   UNL A   1      45.359  30.628  33.008  1.00  0.00     0.029 A 
ATOM     52  N   UNL A   1      43.320  30.780  32.131  1.00  0.00    -0.354 N 
ATOM     53  N   UNL A   1      40.767  32.121  31.533  1.00  0.00    -0.248 NA
ATOM     54  C   UNL A   1      39.333  33.951  31.775  1.00  0.00     0.031 C 
ATOM     55  C   UNL A   1      44.813  31.866  33.363  1.00  0.00     0.029 A 
ATOM     56  C   UNL A   1      43.551  31.968  32.801  1.00  0.00     0.049 A 
ATOM     57  H   UNL A   1      42.496  30.558  31.639  1.00  0.00     0.167 HD
ATOM     58  C   UNL A   1      41.397  33.096  32.299  1.00  0.00     0.074 A 
ATOM     59  C   UNL A   1      40.477  34.211  32.393  1.00  0.00     0.031 C 
ATOM     60  C   UNL A   1      42.625  33.070  32.871  1.00  0.00     0.037 A 
BRANCH  47  61
ATOM     61  C   UNL A   1      45.759  27.820  31.945  1.00  0.00     0.058 A 
ATOM     62  C   UNL A   1      46.895  27.919  31.127  1.00  0.00     0.135 A 
ATOM     63  C   UNL A   1      45.815  26.946  33.041  1.00  0.00     0.135 A 
ATOM     64  F   UNL A   1      46.889  28.728  30.055  1.00  0.00    -0.206 F 
ATOM     65  C   UNL A   1      48.032  27.155  31.366  1.00  0.00     0.059 A 
ATOM     66  C   UNL A   1      46.951  26.191  33.316  1.00  0.00     0.059 A 
ATOM     67  F   UNL A   1      44.754  26.812  33.855  1.00  0.00    -0.206 F 
ATOM     68  C   UNL A   1      48.049  26.290  32.461  1.00  0.00     0.060 A 
BRANCH  68  69
ATOM     69  S   UNL A   1      49.529  25.300  32.756  1.00  0.00     0.124 S 
ATOM     70  O   UNL A   1      50.400  26.270  33.414  1.00  0.00    -0.237 OA
ATOM     71  O   UNL A   1      49.025  24.225  33.604  1.00  0.00    -0.237 OA
ATOM     72  O   UNL A   1      49.939  24.897  31.415  1.00  0.00    -0.744 OA
ENDBRANCH  68  69
ENDBRANCH  47  61
BRANCH  48  73
ATOM     73  C   UNL A   1      37.219  32.713  30.162  1.00  0.00     0.058 A 
ATOM     74  C   UNL A   1      36.122  32.508  31.012  1.00  0.00     0.135 A 
ATOM     75  C   UNL A   1      37.067  33.625  29.106  1.00  0.00     0.135 A 
ATOM     76  F   UNL A   1      36.220  31.643  32.034  1.00  0.00    -0.206 F 
ATOM     77  C   UNL A   1      34.914  33.169  30.817  1.00  0.00     0.059 A 
ATOM     78  C   UNL A   1      35.875  34.314  28.902  1.00  0.00     0.059 A 
ATOM     79  F   UNL A   1      38.092  33.870  28.276  1.00  0.00    -0.206 F 
ATOM     80  C   UNL A   1      34.800  34.072  29.758  1.00  0.00     0.060 A 
BRANCH  80  81
ATOM     81  S   UNL A   1      33.246  34.967  29.545  1.00  0.00     0.124 S 
ATOM     82  O   UNL A   1      32.518  34.080  28.646  1.00  0.00    -0.237 OA
ATOM     83  O   UNL A   1      32.744  35.043  30.913  1.00  0.00    -0.237 OA
ATOM     84  O   UNL A   1      33.672  36.241  28.971  1.00  0.00    -0.744 OA
ENDBRANCH  80  81
ENDBRANCH  48  73
BRANCH  60  85
ATOM     85  C   UNL A   1      43.060  34.295  33.624  1.00  0.00     0.058 A 
ATOM     86  C   UNL A   1      42.725  34.484  34.973  1.00  0.00     0.135 A 
ATOM     87  C   UNL A   1      43.870  35.258  33.003  1.00  0.00     0.135 A 
ATOM     88  F   UNL A   1      41.948  33.593  35.608  1.00  0.00    -0.206 F 
ATOM     89  C   UNL A   1      43.166  35.598  35.678  1.00  0.00     0.059 A 
ATOM     90  C   UNL A   1      44.340  36.369  33.696  1.00  0.00     0.059 A 
ATOM     91  F   UNL A   1      44.225  35.116  31.716  1.00  0.00    -0.206 F 
ATOM     92  C   UNL A   1      43.974  36.535  35.030  1.00  0.00     0.060 A 
BRANCH  92  93
ATOM     93  S   UNL A   1      44.575  37.958  35.967  1.00  0.00     0.124 S 
ATOM     94  O   UNL A   1      46.020  37.771  35.886  1.00  0.00    -0.237 OA
ATOM     95  O   UNL A   1      44.039  39.083  35.208  1.00  0.00    -0.237 OA
ATOM     96  O   UNL A   1      43.988  37.765  37.289  1.00  0.00    -0.744 OA
ENDBRANCH  92  93
ENDBRANCH  60  85
ENDBRANCH  34  35
ENDBRANCH  26  29
ENDBRANCH  24  25
ENDBRANCH  23  24
ENDBRANCH  22  23
ENDBRANCH   1  22
TORSDOF 20
ENDMDL
MODEL 2
REMARK VINA RESULT:      -7.7      5.155     12.194
REMARK SMILES C[C@@H](CC(=O)NCCCCNC(=O)c1ccc(-c2c3nc(c(-c4c(F)cc(S(=O)(=O)[O-])cc4F)c4ccc([nH]4)c(-c4c(F)cc(S(=O)(=O)[O-])cc4F)c4nc(c(-c5c(F)cc(S(=O)(=O)[O-])cc5F)c5ccc2[nH]5)C=C4)C=C3)cc1)CC(=O)N(C)C[C@H]1CCC[N@H+]1C
REMARK SMILES IDX 7 1 6 2 4 3 5 4 3 6 2 7 1 8 80 9 81 10 82 11 83 12 84 13
REMARK SMILES IDX 85 14 86 15 87 16 90 17 88 18 89 19 91 20 8 22 9 23 10 24
REMARK SMILES IDX 11 25 12 26 13 28 14 29 15 30 79 31 16 32 78 33 17 34 18 35
REMARK SMILES IDX 19 36 72 37 20 38 77 39 71 40 73 41 21 42 76 43 70 44 69 45
REMARK SMILES IDX 22 47 56 48 35 49 55 50 36 51 39 52 54 53 74 54 37 55 38 56
REMARK SMILES IDX 53 58 75 59 40 60 23 61 24 62 33 63 25 64 26 65 32 66 34 67
REMARK SMILES IDX 27 68 28 69 29 70 30 71 31 72 57 73 58 74 67 75 59 76 60 77
REMARK SMILES IDX 66 78 68 79 61 80 62 81 63 82 64 83 65 84 41 85 42 86 51 87
REMARK SMILES IDX 43 88 44 89 50 90 52 91 45 92 46 93 47 94 48 95 49 96
REMARK H PARENT 6 5 90 21 11 27 73 46 39 57
REMARK Flexibility Score: inf
ROOT
ATOM      1  C   UNL A   1      35.807  30.811  27.638  1.00  0.00     0.116 C 
ENDROOT
BRANCH   1   2
ATOM      2  N   UNL A   1      34.430  31.038  27.250  1.00  0.00    -0.356 N 
ATOM      3  C   UNL A   1      33.503  30.158  26.783  1.00  0.00     0.220 C 
ATOM      4  O   UNL A   1      32.423  30.601  26.390  1.00  0.00    -0.275 OA
ATOM      5  H   UNL A   1      34.117  31.968  27.336  1.00  0.00     0.163 HD
BRANCH   3   6
ATOM      6  C   UNL A   1      33.789  28.665  26.746  1.00  0.00     0.103 C 
BRANCH   6   7
ATOM      7  C   UNL A   1      32.666  27.729  26.240  1.00  0.00     0.004 C 
ATOM      8  C   UNL A   1      31.589  27.493  27.305  1.00  0.00     0.009 C 
BRANCH   7   9
ATOM      9  C   UNL A   1      33.191  26.433  25.590  1.00  0.00     0.104 C 
BRANCH   9  10
ATOM     10  C   UNL A   1      32.206  25.814  24.604  1.00  0.00     0.222 C 
ATOM     11  O   UNL A   1      31.498  24.879  24.984  1.00  0.00    -0.275 OA
BRANCH  10  12
ATOM     12  N   UNL A   1      32.178  26.266  23.289  1.00  0.00    -0.340 N 
ATOM     13  C   UNL A   1      33.311  26.289  22.374  1.00  0.00     0.147 C 
BRANCH  12  14
ATOM     14  C   UNL A   1      30.958  26.918  22.787  1.00  0.00     0.184 C 
BRANCH  14  15
ATOM     15  C   UNL A   1      30.258  27.887  23.788  1.00  0.00     0.203 C 
ATOM     16  C   UNL A   1      30.602  29.343  23.450  1.00  0.00     0.073 C 
ATOM     17  N   UNL A   1      28.785  27.983  23.713  1.00  0.00    -0.333 N 
ATOM     18  C   UNL A   1      29.562  29.763  22.411  1.00  0.00     0.068 C 
ATOM     19  C   UNL A   1      28.472  28.700  22.482  1.00  0.00     0.262 C 
ATOM     20  C   UNL A   1      28.054  26.742  23.878  1.00  0.00     0.333 C 
ATOM     21  H   UNL A   1      28.452  28.497  24.528  1.00  0.00     0.348 HD
ENDBRANCH  14  15
ENDBRANCH  12  14
ENDBRANCH  10  12
ENDBRANCH   9  10
ENDBRANCH   7   9
ENDBRANCH   6   7
ENDBRANCH   3   6
ENDBRANCH   1   2
BRANCH   1  22
ATOM     22  C   UNL A   1      35.933  30.733  29.156  1.00  0.00     0.023 C 
BRANCH  22  23
ATOM     23  C   UNL A   1      36.550  29.451  29.704  1.00  0.00     0.023 C 
BRANCH  23  24
ATOM     24  C   UNL A   1      36.702  29.418  31.216  1.00  0.00     0.116 C 
BRANCH  24  25
ATOM     25  N   UNL A   1      36.683  30.740  31.825  1.00  0.00    -0.352 N 
ATOM     26  C   UNL A   1      37.733  31.602  32.050  1.00  0.00     0.251 C 
ATOM     27  H   UNL A   1      35.799  31.061  32.117  1.00  0.00     0.163 HD
ATOM     28  O   UNL A   1      37.551  32.639  32.674  1.00  0.00    -0.269 OA
BRANCH  26  29
ATOM     29  C   UNL A   1      39.083  31.237  31.570  1.00  0.00     0.039 A 
ATOM     30  C   UNL A   1      39.937  30.534  32.422  1.00  0.00     0.014 A 
ATOM     31  C   UNL A   1      39.483  31.542  30.267  1.00  0.00     0.014 A 
ATOM     32  C   UNL A   1      41.161  30.065  31.939  1.00  0.00     0.010 A 
ATOM     33  C   UNL A   1      40.658  31.001  29.762  1.00  0.00     0.010 A 
ATOM     34  C   UNL A   1      41.511  30.258  30.592  1.00  0.00    -0.014 A 
BRANCH  34  35
ATOM     35  C   UNL A   1      42.764  29.700  30.024  1.00  0.00     0.031 A 
ATOM     36  C   UNL A   1      43.996  30.560  29.949  1.00  0.00     0.074 A 
ATOM     37  C   UNL A   1      42.767  28.461  29.496  1.00  0.00     0.049 A 
ATOM     38  N   UNL A   1      45.147  30.307  29.385  1.00  0.00    -0.248 NA
ATOM     39  C   UNL A   1      43.906  31.900  30.554  1.00  0.00     0.031 C 
ATOM     40  C   UNL A   1      41.616  27.554  29.448  1.00  0.00     0.029 A 
ATOM     41  N   UNL A   1      43.769  27.752  28.882  1.00  0.00    -0.354 N 
ATOM     42  C   UNL A   1      45.905  31.461  29.539  1.00  0.00     0.074 A 
ATOM     43  C   UNL A   1      45.067  32.434  30.204  1.00  0.00     0.031 C 
ATOM     44  C   UNL A   1      41.984  26.404  28.859  1.00  0.00     0.029 A 
ATOM     45  C   UNL A   1      43.384  26.502  28.456  1.00  0.00     0.049 A 
ATOM     46  H   UNL A   1      44.679  28.106  28.757  1.00  0.00     0.167 HD
ATOM     47  C   UNL A   1      47.193  31.684  29.182  1.00  0.00     0.037 A 
ATOM     48  C   UNL A   1      44.080  25.546  27.813  1.00  0.00     0.037 A 
ATOM     49  C   UNL A   1      48.038  30.693  28.571  1.00  0.00     0.049 A 
ATOM     50  C   UNL A   1      45.524  25.795  27.474  1.00  0.00     0.074 A 
ATOM     51  C   UNL A   1      49.378  30.791  28.239  1.00  0.00     0.029 A 
ATOM     52  N   UNL A   1      47.628  29.418  28.211  1.00  0.00    -0.354 N 
ATOM     53  N   UNL A   1      46.243  26.873  27.681  1.00  0.00    -0.248 NA
ATOM     54  C   UNL A   1      46.254  24.699  26.822  1.00  0.00     0.031 C 
ATOM     55  C   UNL A   1      49.771  29.582  27.656  1.00  0.00     0.029 A 
ATOM     56  C   UNL A   1      48.686  28.720  27.655  1.00  0.00     0.049 A 
ATOM     57  H   UNL A   1      46.718  29.062  28.333  1.00  0.00     0.167 HD
ATOM     58  C   UNL A   1      47.516  26.577  27.206  1.00  0.00     0.074 A 
ATOM     59  C   UNL A   1      47.471  25.216  26.713  1.00  0.00     0.031 C 
ATOM     60  C   UNL A   1      48.621  27.360  27.181  1.00  0.00     0.037 A 
BRANCH  47  61
ATOM     61  C   UNL A   1      47.766  33.045  29.460  1.00  0.00     0.058 A 
ATOM     62  C   UNL A   1      48.393  33.342  30.681  1.00  0.00     0.135 A 
ATOM     63  C   UNL A   1      47.702  34.060  28.493  1.00  0.00     0.135 A 
ATOM     64  F   UNL A   1      48.465  32.413  31.647  1.00  0.00    -0.206 F 
ATOM     65  C   UNL A   1      48.907  34.606  30.947  1.00  0.00     0.059 A 
ATOM     66  C   UNL A   1      48.233  35.325  28.726  1.00  0.00     0.059 A 
ATOM     67  F   UNL A   1      47.111  33.830  27.309  1.00  0.00    -0.206 F 
ATOM     68  C   UNL A   1      48.819  35.593  29.963  1.00  0.00     0.060 A 
BRANCH  68  69
ATOM     69  S   UNL A   1      49.485  37.232  30.323  1.00  0.00     0.124 S 
ATOM     70  O   UNL A   1      48.655  37.640  31.451  1.00  0.00    -0.237 OA
ATOM     71  O   UNL A   1      50.880  36.942  30.636  1.00  0.00    -0.237 OA
ATOM     72  O   UNL A   1      49.264  37.967  29.082  1.00  0.00    -0.744 OA
ENDBRANCH  68  69
ENDBRANCH  47  61
BRANCH  48  73
ATOM     73  C   UNL A   1      43.431  24.252  27.479  1.00  0.00     0.058 A 
ATOM     74  C   UNL A   1      43.258  23.262  28.458  1.00  0.00     0.135 A 
ATOM     75  C   UNL A   1      42.955  23.984  26.186  1.00  0.00     0.135 A 
ATOM     76  F   UNL A   1      43.699  23.472  29.708  1.00  0.00    -0.206 F 
ATOM     77  C   UNL A   1      42.651  22.045  28.166  1.00  0.00     0.059 A 
ATOM     78  C   UNL A   1      42.326  22.782  25.874  1.00  0.00     0.059 A 
ATOM     79  F   UNL A   1      43.080  24.905  25.218  1.00  0.00    -0.206 F 
ATOM     80  C   UNL A   1      42.187  21.815  26.869  1.00  0.00     0.060 A 
BRANCH  80  81
ATOM     81  S   UNL A   1      41.350  20.254  26.512  1.00  0.00     0.124 S 
ATOM     82  O   UNL A   1      41.524  19.534  27.768  1.00  0.00    -0.237 OA
ATOM     83  O   UNL A   1      39.993  20.693  26.209  1.00  0.00    -0.237 OA
ATOM     84  O   UNL A   1      42.099  19.729  25.372  1.00  0.00    -0.744 OA
ENDBRANCH  80  81
ENDBRANCH  48  73
BRANCH  60  85
ATOM     85  C   UNL A   1      49.882  26.757  26.632  1.00  0.00     0.058 A 
ATOM     86  C   UNL A   1      50.210  26.858  25.271  1.00  0.00     0.135 A 
ATOM     87  C   UNL A   1      50.796  26.124  27.486  1.00  0.00     0.135 A 
ATOM     88  F   UNL A   1      49.364  27.449  24.413  1.00  0.00    -0.206 F 
ATOM     89  C   UNL A   1      51.399  26.335  24.774  1.00  0.00     0.059 A 
ATOM     90  C   UNL A   1      52.001  25.613  27.014  1.00  0.00     0.059 A 
ATOM     91  F   UNL A   1      50.531  26.012  28.798  1.00  0.00    -0.206 F 
ATOM     92  C   UNL A   1      52.288  25.715  25.654  1.00  0.00     0.060 A 
BRANCH  92  93
ATOM     93  S   UNL A   1      53.847  25.075  25.005  1.00  0.00     0.124 S 
ATOM     94  O   UNL A   1      54.744  25.288  26.137  1.00  0.00    -0.237 OA
ATOM     95  O   UNL A   1      53.518  23.685  24.710  1.00  0.00    -0.237 OA
ATOM     96  O   UNL A   1      54.097  25.915  23.838  1.00  0.00    -0.744 OA
ENDBRANCH  92  93
ENDBRANCH  60  85
ENDBRANCH  34  35
ENDBRANCH  26  29
ENDBRANCH  24  25
ENDBRANCH  23  24
ENDBRANCH  22  23
ENDBRANCH   1  22
TORSDOF 20
ENDMDL
MODEL 3
REMARK VINA RESULT:      -7.7      4.578     12.030
REMARK SMILES C[C@@H](CC(=O)NCCCCNC(=O)c1ccc(-c2c3nc(c(-c4c(F)cc(S(=O)(=O)[O-])cc4F)c4ccc([nH]4)c(-c4c(F)cc(S(=O)(=O)[O-])cc4F)c4nc(c(-c5c(F)cc(S(=O)(=O)[O-])cc5F)c5ccc2[nH]5)C=C4)C=C3)cc1)CC(=O)N(C)C[C@H]1CCC[N@H+]1C
REMARK SMILES IDX 7 1 6 2 4 3 5 4 3 6 2 7 1 8 80 9 81 10 82 11 83 12 84 13
REMARK SMILES IDX 85 14 86 15 87 16 90 17 88 18 89 19 91 20 8 22 9 23 10 24
REMARK SMILES IDX 11 25 12 26 13 28 14 29 15 30 79 31 16 32 78 33 17 34 18 35
REMARK SMILES IDX 19 36 72 37 20 38 77 39 71 40 73 41 21 42 76 43 70 44 69 45
REMARK SMILES IDX 22 47 56 48 35 49 55 50 36 51 39 52 54 53 74 54 37 55 38 56
REMARK SMILES IDX 53 58 75 59 40 60 23 61 24 62 33 63 25 64 26 65 32 66 34 67
REMARK SMILES IDX 27 68 28 69 29 70 30 71 31 72 57 73 58 74 67 75 59 76 60 77
REMARK SMILES IDX 66 78 68 79 61 80 62 81 63 82 64 83 65 84 41 85 42 86 51 87
REMARK SMILES IDX 43 88 44 89 50 90 52 91 45 92 46 93 47 94 48 95 49 96
REMARK H PARENT 6 5 90 21 11 27 73 46 39 57
REMARK Flexibility Score: inf
ROOT
ATOM      1  C   UNL A   1      34.554  33.794  31.683  1.00  0.00     0.116 C 
ENDROOT
BRANCH   1   2
ATOM      2  N   UNL A   1      33.506  34.631  31.138  1.00  0.00    -0.356 N 
ATOM      3  C   UNL A   1      33.434  35.259  29.933  1.00  0.00     0.220 C 
ATOM      4  O   UNL A   1      32.496  36.031  29.732  1.00  0.00    -0.275 OA
ATOM      5  H   UNL A   1      32.729  34.768  31.727  1.00  0.00     0.163 HD
BRANCH   3   6
ATOM      6  C   UNL A   1      34.481  35.014  28.858  1.00  0.00     0.103 C 
BRANCH   6   7
ATOM      7  C   UNL A   1      35.287  33.694  28.924  1.00  0.00     0.004 C 
ATOM      8  C   UNL A   1      36.785  33.921  28.695  1.00  0.00     0.009 C 
BRANCH   7   9
ATOM      9  C   UNL A   1      34.689  32.566  28.060  1.00  0.00     0.104 C 
BRANCH   9  10
ATOM     10  C   UNL A   1      35.081  31.172  28.539  1.00  0.00     0.222 C 
ATOM     11  O   UNL A   1      35.204  30.976  29.751  1.00  0.00    -0.275 OA
BRANCH  10  12
ATOM     12  N   UNL A   1      35.360  30.179  27.606  1.00  0.00    -0.340 N 
ATOM     13  C   UNL A   1      36.628  29.475  27.468  1.00  0.00     0.147 C 
BRANCH  12  14
ATOM     14  C   UNL A   1      34.369  29.889  26.557  1.00  0.00     0.184 C 
BRANCH  14  15
ATOM     15  C   UNL A   1      32.980  29.398  27.069  1.00  0.00     0.203 C 
ATOM     16  C   UNL A   1      31.895  30.432  26.743  1.00  0.00     0.073 C 
ATOM     17  N   UNL A   1      32.387  28.231  26.384  1.00  0.00    -0.333 N 
ATOM     18  C   UNL A   1      31.430  30.085  25.330  1.00  0.00     0.068 C 
ATOM     19  C   UNL A   1      31.969  28.684  25.063  1.00  0.00     0.262 C 
ATOM     20  C   UNL A   1      33.187  27.022  26.370  1.00  0.00     0.333 C 
ATOM     21  H   UNL A   1      31.586  27.909  26.928  1.00  0.00     0.348 HD
ENDBRANCH  14  15
ENDBRANCH  12  14
ENDBRANCH  10  12
ENDBRANCH   9  10
ENDBRANCH   7   9
ENDBRANCH   6   7
ENDBRANCH   3   6
ENDBRANCH   1   2
BRANCH   1  22
ATOM     22  C   UNL A   1      35.515  34.619  32.534  1.00  0.00     0.023 C 
BRANCH  22  23
ATOM     23  C   UNL A   1      36.997  34.445  32.216  1.00  0.00     0.023 C 
BRANCH  23  24
ATOM     24  C   UNL A   1      37.673  33.304  32.956  1.00  0.00     0.116 C 
BRANCH  24  25
ATOM     25  N   UNL A   1      36.887  32.078  32.966  1.00  0.00    -0.352 N 
ATOM     26  C   UNL A   1      37.189  30.856  32.409  1.00  0.00     0.251 C 
ATOM     27  H   UNL A   1      36.021  32.131  33.432  1.00  0.00     0.163 HD
ATOM     28  O   UNL A   1      36.360  29.955  32.422  1.00  0.00    -0.269 OA
BRANCH  26  29
ATOM     29  C   UNL A   1      38.504  30.661  31.760  1.00  0.00     0.039 A 
ATOM     30  C   UNL A   1      39.576  30.200  32.528  1.00  0.00     0.014 A 
ATOM     31  C   UNL A   1      38.662  30.883  30.390  1.00  0.00     0.014 A 
ATOM     32  C   UNL A   1      40.784  29.882  31.903  1.00  0.00     0.010 A 
ATOM     33  C   UNL A   1      39.833  30.484  29.759  1.00  0.00     0.010 A 
ATOM     34  C   UNL A   1      40.907  29.981  30.507  1.00  0.00    -0.014 A 
BRANCH  34  35
ATOM     35  C   UNL A   1      42.148  29.572  29.803  1.00  0.00     0.031 A 
ATOM     36  C   UNL A   1      43.245  30.577  29.581  1.00  0.00     0.074 A 
ATOM     37  C   UNL A   1      42.248  28.331  29.287  1.00  0.00     0.049 A 
ATOM     38  N   UNL A   1      44.348  30.458  28.890  1.00  0.00    -0.248 NA
ATOM     39  C   UNL A   1      43.056  31.908  30.182  1.00  0.00     0.031 C 
ATOM     40  C   UNL A   1      41.223  27.288  29.379  1.00  0.00     0.029 A 
ATOM     41  N   UNL A   1      43.256  27.740  28.567  1.00  0.00    -0.354 N 
ATOM     42  C   UNL A   1      44.966  31.701  28.947  1.00  0.00     0.074 A 
ATOM     43  C   UNL A   1      44.092  32.575  29.697  1.00  0.00     0.031 C 
ATOM     44  C   UNL A   1      41.665  26.180  28.759  1.00  0.00     0.029 A 
ATOM     45  C   UNL A   1      42.986  26.443  28.198  1.00  0.00     0.049 A 
ATOM     46  H   UNL A   1      44.094  28.202  28.335  1.00  0.00     0.167 HD
ATOM     47  C   UNL A   1      46.167  32.074  28.442  1.00  0.00     0.037 A 
ATOM     48  C   UNL A   1      43.720  25.567  27.485  1.00  0.00     0.037 A 
ATOM     49  C   UNL A   1      47.055  31.184  27.745  1.00  0.00     0.049 A 
ATOM     50  C   UNL A   1      45.073  25.988  26.980  1.00  0.00     0.074 A 
ATOM     51  C   UNL A   1      48.326  31.441  27.261  1.00  0.00     0.029 A 
ATOM     52  N   UNL A   1      46.772  29.860  27.444  1.00  0.00    -0.354 N 
ATOM     53  N   UNL A   1      45.669  27.152  27.095  1.00  0.00    -0.248 NA
ATOM     54  C   UNL A   1      45.858  24.978  26.257  1.00  0.00     0.031 C 
ATOM     55  C   UNL A   1      48.800  30.278  26.644  1.00  0.00     0.029 A 
ATOM     56  C   UNL A   1      47.840  29.288  26.775  1.00  0.00     0.049 A 
ATOM     57  H   UNL A   1      45.934  29.396  27.673  1.00  0.00     0.167 HD
ATOM     58  C   UNL A   1      46.907  27.006  26.480  1.00  0.00     0.074 A 
ATOM     59  C   UNL A   1      46.979  25.640  26.004  1.00  0.00     0.031 C 
ATOM     60  C   UNL A   1      47.894  27.921  26.321  1.00  0.00     0.037 A 
BRANCH  47  61
ATOM     61  C   UNL A   1      46.590  33.502  28.643  1.00  0.00     0.058 A 
ATOM     62  C   UNL A   1      46.288  34.498  27.700  1.00  0.00     0.135 A 
ATOM     63  C   UNL A   1      47.292  33.884  29.797  1.00  0.00     0.135 A 
ATOM     64  F   UNL A   1      45.633  34.183  26.571  1.00  0.00    -0.206 F 
ATOM     65  C   UNL A   1      46.695  35.815  27.877  1.00  0.00     0.059 A 
ATOM     66  C   UNL A   1      47.688  35.202  30.008  1.00  0.00     0.059 A 
ATOM     67  F   UNL A   1      47.609  32.971  30.729  1.00  0.00    -0.206 F 
ATOM     68  C   UNL A   1      47.398  36.157  29.033  1.00  0.00     0.060 A 
BRANCH  68  69
ATOM     69  S   UNL A   1      47.926  37.870  29.247  1.00  0.00     0.124 S 
ATOM     70  O   UNL A   1      48.771  38.061  28.073  1.00  0.00    -0.237 OA
ATOM     71  O   UNL A   1      46.659  38.593  29.240  1.00  0.00    -0.237 OA
ATOM     72  O   UNL A   1      48.626  37.851  30.528  1.00  0.00    -0.744 OA
ENDBRANCH  68  69
ENDBRANCH  47  61
BRANCH  48  73
ATOM     73  C   UNL A   1      43.206  24.195  27.238  1.00  0.00     0.058 A 
ATOM     74  C   UNL A   1      42.623  23.858  26.007  1.00  0.00     0.135 A 
ATOM     75  C   UNL A   1      43.302  23.191  28.214  1.00  0.00     0.135 A 
ATOM     76  F   UNL A   1      42.508  24.786  25.045  1.00  0.00    -0.206 F 
ATOM     77  C   UNL A   1      42.138  22.580  25.755  1.00  0.00     0.059 A 
ATOM     78  C   UNL A   1      42.842  21.898  27.979  1.00  0.00     0.059 A 
ATOM     79  F   UNL A   1      43.868  23.458  29.401  1.00  0.00    -0.206 F 
ATOM     80  C   UNL A   1      42.253  21.605  26.749  1.00  0.00     0.060 A 
BRANCH  80  81
ATOM     81  S   UNL A   1      41.670  19.932  26.394  1.00  0.00     0.124 S 
ATOM     82  O   UNL A   1      42.439  19.602  25.200  1.00  0.00    -0.237 OA
ATOM     83  O   UNL A   1      42.037  19.213  27.610  1.00  0.00    -0.237 OA
ATOM     84  O   UNL A   1      40.235  20.116  26.193  1.00  0.00    -0.744 OA
ENDBRANCH  80  81
ENDBRANCH  48  73
BRANCH  60  85
ATOM     85  C   UNL A   1      49.151  27.468  25.635  1.00  0.00     0.058 A 
ATOM     86  C   UNL A   1      49.258  27.455  24.236  1.00  0.00     0.135 A 
ATOM     87  C   UNL A   1      50.276  27.099  26.386  1.00  0.00     0.135 A 
ATOM     88  F   UNL A   1      48.205  27.793  23.474  1.00  0.00    -0.206 F 
ATOM     89  C   UNL A   1      50.437  27.075  23.604  1.00  0.00     0.059 A 
ATOM     90  C   UNL A   1      51.473  26.737  25.776  1.00  0.00     0.059 A 
ATOM     91  F   UNL A   1      50.226  27.105  27.728  1.00  0.00    -0.206 F 
ATOM     92  C   UNL A   1      51.539  26.718  24.384  1.00  0.00     0.060 A 
BRANCH  92  93
ATOM     93  S   UNL A   1      53.079  26.266  23.554  1.00  0.00     0.124 S 
ATOM     94  O   UNL A   1      52.604  25.945  22.212  1.00  0.00    -0.237 OA
ATOM     95  O   UNL A   1      53.869  27.487  23.671  1.00  0.00    -0.237 OA
ATOM     96  O   UNL A   1      53.565  25.135  24.338  1.00  0.00    -0.744 OA
ENDBRANCH  92  93
ENDBRANCH  60  85
ENDBRANCH  34  35
ENDBRANCH  26  29
ENDBRANCH  24  25
ENDBRANCH  23  24
ENDBRANCH  22  23
ENDBRANCH   1  22
TORSDOF 20
ENDMDL
