MODEL 1
REMARK VINA RESULT:     -11.5      0.000      0.000
REMARK SMILES CC(C)Cc1s/c(=N/C(=O)CCC(=O)Nc2nccs2)[nH]c1C(=O)NCCCCNC(=O)c1ccc(-c2c3nc(c(-c4c(F)cc(S(=O)(=O)[O-])cc4F)c4ccc([nH]4)c(-c4c(F)cc(S(=O)(=O)[O-])cc4F)c4nc(c(-c5c(F)cc(S(=O)(=O)[O-])cc5F)c5ccc2[nH]5)C=C4)C=C3)cc1
REMARK SMILES IDX 26 1 25 2 23 3 24 4 22 6 5 7 6 8 7 9 21 10 8 11 4 13 2 14
REMARK SMILES IDX 1 15 3 16 9 17 10 18 11 19 12 20 13 21 14 22 15 23 16 25
REMARK SMILES IDX 17 26 20 27 18 28 19 29 27 30 28 31 29 32 30 33 31 34 32 36
REMARK SMILES IDX 33 37 34 38 98 39 35 40 97 41 36 42 37 43 38 44 91 45 39 46
REMARK SMILES IDX 96 47 90 48 92 49 40 50 95 51 89 52 88 53 41 55 75 56 54 57
REMARK SMILES IDX 74 58 55 59 58 60 73 61 93 62 56 63 57 64 72 66 94 67 59 68
REMARK SMILES IDX 42 69 43 70 52 71 44 72 45 73 51 74 53 75 46 76 47 77 48 78
REMARK SMILES IDX 49 79 50 80 76 81 77 82 86 83 78 84 79 85 85 86 87 87 80 88
REMARK SMILES IDX 81 89 82 90 83 91 84 92 60 93 61 94 70 95 62 96 63 97 69 98
REMARK SMILES IDX 71 99 64 100 65 101 66 102 67 103 68 104
REMARK H PARENT 25 5 21 12 15 24 30 35 92 54 58 65
REMARK Flexibility Score: inf
ROOT
ATOM      1  C   UNL A   1      36.870  22.749  24.061  1.00  0.00     0.116 C 
ENDROOT
BRANCH   1   2
ATOM      2  N   UNL A   1      35.792  23.313  23.282  1.00  0.00    -0.351 N 
ATOM      3  C   UNL A   1      34.472  23.485  23.511  1.00  0.00     0.268 C 
ATOM      4  O   UNL A   1      33.815  23.988  22.589  1.00  0.00    -0.268 OA
ATOM      5  H   UNL A   1      36.080  23.640  22.399  1.00  0.00     0.163 HD
BRANCH   3   6
ATOM      6  C   UNL A   1      33.748  23.242  24.811  1.00  0.00     0.119 A 
ATOM      7  C   UNL A   1      33.571  22.177  25.635  1.00  0.00     0.038 A 
ATOM      8  S   UNL A   1      32.449  22.601  26.969  1.00  0.00    -0.101 S 
ATOM      9  C   UNL A   1      32.148  24.202  26.275  1.00  0.00     0.190 A 
ATOM     10  N   UNL A   1      32.961  24.328  25.195  1.00  0.00    -0.326 N 
ATOM     11  N   UNL A   1      31.243  24.942  26.800  1.00  0.00    -0.185 NA
ATOM     12  H   UNL A   1      32.996  25.173  24.690  1.00  0.00     0.169 HD
BRANCH   7  13
ATOM     13  C   UNL A   1      34.109  20.779  25.673  1.00  0.00     0.052 C 
BRANCH  13  14
ATOM     14  C   UNL A   1      33.505  19.742  24.703  1.00  0.00    -0.012 C 
ATOM     15  C   UNL A   1      32.887  18.527  25.393  1.00  0.00     0.008 C 
ATOM     16  C   UNL A   1      32.431  20.420  23.841  1.00  0.00     0.008 C 
ENDBRANCH  13  14
ENDBRANCH   7  13
BRANCH  11  17
ATOM     17  C   UNL A   1      30.961  26.131  26.179  1.00  0.00     0.248 C 
ATOM     18  O   UNL A   1      30.310  26.254  25.144  1.00  0.00    -0.273 OA
BRANCH  17  19
ATOM     19  C   UNL A   1      31.591  27.326  26.866  1.00  0.00     0.112 C 
BRANCH  19  20
ATOM     20  C   UNL A   1      32.432  28.207  25.955  1.00  0.00     0.110 C 
BRANCH  20  21
ATOM     21  C   UNL A   1      32.072  29.679  26.029  1.00  0.00     0.226 C 
ATOM     22  O   UNL A   1      32.444  30.352  26.997  1.00  0.00    -0.275 OA
ATOM     23  N   UNL A   1      31.372  30.300  25.042  1.00  0.00    -0.302 N 
ATOM     24  H   UNL A   1      31.278  31.277  25.120  1.00  0.00     0.172 HD
BRANCH  23  25
ATOM     25  C   UNL A   1      30.787  29.716  23.960  1.00  0.00     0.189 A 
ATOM     26  N   UNL A   1      31.180  28.676  23.273  1.00  0.00    -0.229 NA
ATOM     27  S   UNL A   1      29.303  30.415  23.498  1.00  0.00    -0.105 S 
ATOM     28  C   UNL A   1      30.211  28.346  22.346  1.00  0.00     0.125 A 
ATOM     29  C   UNL A   1      29.109  29.175  22.326  1.00  0.00     0.088 A 
ENDBRANCH  23  25
ENDBRANCH  20  21
ENDBRANCH  19  20
ENDBRANCH  17  19
ENDBRANCH  11  17
ENDBRANCH   3   6
ENDBRANCH   1   2
BRANCH   1  30
ATOM     30  C   UNL A   1      37.271  23.739  25.159  1.00  0.00     0.023 C 
BRANCH  30  31
ATOM     31  C   UNL A   1      38.270  23.226  26.185  1.00  0.00     0.023 C 
BRANCH  31  32
ATOM     32  C   UNL A   1      39.228  24.298  26.676  1.00  0.00     0.116 C 
BRANCH  32  33
ATOM     33  N   UNL A   1      40.445  24.410  25.881  1.00  0.00    -0.352 N 
ATOM     34  C   UNL A   1      41.547  25.197  26.123  1.00  0.00     0.251 C 
ATOM     35  H   UNL A   1      40.484  23.854  25.069  1.00  0.00     0.163 HD
ATOM     36  O   UNL A   1      42.477  25.233  25.324  1.00  0.00    -0.269 OA
BRANCH  34  37
ATOM     37  C   UNL A   1      41.555  26.039  27.333  1.00  0.00     0.039 A 
ATOM     38  C   UNL A   1      42.262  27.242  27.312  1.00  0.00     0.014 A 
ATOM     39  C   UNL A   1      40.776  25.687  28.437  1.00  0.00     0.014 A 
ATOM     40  C   UNL A   1      42.124  28.133  28.377  1.00  0.00     0.010 A 
ATOM     41  C   UNL A   1      40.561  26.615  29.444  1.00  0.00     0.010 A 
ATOM     42  C   UNL A   1      41.239  27.842  29.428  1.00  0.00    -0.014 A 
BRANCH  42  43
ATOM     43  C   UNL A   1      41.026  28.790  30.549  1.00  0.00     0.031 A 
ATOM     44  C   UNL A   1      41.883  28.676  31.779  1.00  0.00     0.074 A 
ATOM     45  C   UNL A   1      40.019  29.683  30.493  1.00  0.00     0.049 A 
ATOM     46  N   UNL A   1      41.789  29.317  32.914  1.00  0.00    -0.248 NA
ATOM     47  C   UNL A   1      42.963  27.673  31.744  1.00  0.00     0.031 C 
ATOM     48  C   UNL A   1      39.080  29.840  29.379  1.00  0.00     0.029 A 
ATOM     49  N   UNL A   1      39.610  30.623  31.404  1.00  0.00    -0.354 N 
ATOM     50  C   UNL A   1      42.770  28.774  33.735  1.00  0.00     0.074 A 
ATOM     51  C   UNL A   1      43.408  27.711  32.990  1.00  0.00     0.031 C 
ATOM     52  C   UNL A   1      38.225  30.836  29.661  1.00  0.00     0.029 A 
ATOM     53  C   UNL A   1      38.532  31.366  30.985  1.00  0.00     0.049 A 
ATOM     54  H   UNL A   1      40.047  30.754  32.276  1.00  0.00     0.167 HD
ATOM     55  C   UNL A   1      43.128  29.148  34.985  1.00  0.00     0.037 A 
ATOM     56  C   UNL A   1      37.870  32.363  31.603  1.00  0.00     0.037 A 
ATOM     57  C   UNL A   1      42.530  30.246  35.692  1.00  0.00     0.049 A 
ATOM     58  C   UNL A   1      38.328  32.804  32.967  1.00  0.00     0.074 A 
ATOM     59  C   UNL A   1      42.862  30.755  36.934  1.00  0.00     0.029 A 
ATOM     60  N   UNL A   1      41.484  31.018  35.206  1.00  0.00    -0.354 N 
ATOM     61  N   UNL A   1      39.293  32.314  33.710  1.00  0.00    -0.248 NA
ATOM     62  C   UNL A   1      37.617  33.937  33.574  1.00  0.00     0.031 C 
ATOM     63  C   UNL A   1      42.002  31.825  37.208  1.00  0.00     0.029 A 
ATOM     64  C   UNL A   1      41.158  32.001  36.124  1.00  0.00     0.049 A 
ATOM     65  H   UNL A   1      41.041  30.886  34.337  1.00  0.00     0.167 HD
ATOM     66  C   UNL A   1      39.322  33.096  34.858  1.00  0.00     0.074 A 
ATOM     67  C   UNL A   1      38.284  34.096  34.708  1.00  0.00     0.031 C 
ATOM     68  C   UNL A   1      40.133  32.997  35.939  1.00  0.00     0.037 A 
BRANCH  55  69
ATOM     69  C   UNL A   1      44.232  28.373  35.648  1.00  0.00     0.058 A 
ATOM     70  C   UNL A   1      45.582  28.718  35.469  1.00  0.00     0.135 A 
ATOM     71  C   UNL A   1      43.941  27.277  36.474  1.00  0.00     0.135 A 
ATOM     72  F   UNL A   1      45.916  29.746  34.671  1.00  0.00    -0.206 F 
ATOM     73  C   UNL A   1      46.604  27.982  36.054  1.00  0.00     0.059 A 
ATOM     74  C   UNL A   1      44.948  26.542  37.093  1.00  0.00     0.059 A 
ATOM     75  F   UNL A   1      42.667  26.901  36.677  1.00  0.00    -0.206 F 
ATOM     76  C   UNL A   1      46.277  26.891  36.861  1.00  0.00     0.060 A 
BRANCH  76  77
ATOM     77  S   UNL A   1      47.616  25.940  37.610  1.00  0.00     0.124 S 
ATOM     78  O   UNL A   1      48.255  25.362  36.431  1.00  0.00    -0.237 OA
ATOM     79  O   UNL A   1      48.383  26.968  38.305  1.00  0.00    -0.237 OA
ATOM     80  O   UNL A   1      46.917  24.993  38.473  1.00  0.00    -0.744 OA
ENDBRANCH  76  77
ENDBRANCH  55  69
BRANCH  56  81
ATOM     81  C   UNL A   1      36.738  33.043  30.920  1.00  0.00     0.058 A 
ATOM     82  C   UNL A   1      36.968  33.918  29.849  1.00  0.00     0.135 A 
ATOM     83  C   UNL A   1      35.409  32.826  31.313  1.00  0.00     0.135 A 
ATOM     84  F   UNL A   1      38.223  34.160  29.440  1.00  0.00    -0.206 F 
ATOM     85  C   UNL A   1      35.925  34.571  29.202  1.00  0.00     0.059 A 
ATOM     86  C   UNL A   1      34.346  33.450  30.667  1.00  0.00     0.059 A 
ATOM     87  F   UNL A   1      35.135  31.981  32.319  1.00  0.00    -0.206 F 
ATOM     88  C   UNL A   1      34.614  34.330  29.619  1.00  0.00     0.060 A 
BRANCH  88  89
ATOM     89  S   UNL A   1      33.261  35.146  28.745  1.00  0.00     0.124 S 
ATOM     90  O   UNL A   1      32.459  35.652  29.853  1.00  0.00    -0.237 OA
ATOM     91  O   UNL A   1      33.966  36.151  27.955  1.00  0.00    -0.237 OA
ATOM     92  O   UNL A   1      32.662  34.062  27.972  1.00  0.00    -0.744 OA
ENDBRANCH  88  89
ENDBRANCH  56  81
BRANCH  68  93
ATOM     93  C   UNL A   1      39.959  34.017  37.027  1.00  0.00     0.058 A 
ATOM     94  C   UNL A   1      40.500  35.305  36.917  1.00  0.00     0.135 A 
ATOM     95  C   UNL A   1      39.190  33.717  38.162  1.00  0.00     0.135 A 
ATOM     96  F   UNL A   1      41.247  35.637  35.852  1.00  0.00    -0.206 F 
ATOM     97  C   UNL A   1      40.299  36.261  37.908  1.00  0.00     0.059 A 
ATOM     98  C   UNL A   1      38.957  34.663  39.154  1.00  0.00     0.059 A 
ATOM     99  F   UNL A   1      38.643  32.499  38.307  1.00  0.00    -0.206 F 
ATOM    100  C   UNL A   1      39.525  35.930  39.021  1.00  0.00     0.060 A 
BRANCH 100 101
ATOM    101  S   UNL A   1      39.234  37.190  40.281  1.00  0.00     0.124 S 
ATOM    102  O   UNL A   1      38.567  38.230  39.506  1.00  0.00    -0.237 OA
ATOM    103  O   UNL A   1      38.399  36.483  41.246  1.00  0.00    -0.237 OA
ATOM    104  O   UNL A   1      40.578  37.519  40.747  1.00  0.00    -0.744 OA
ENDBRANCH 100 101
ENDBRANCH  68  93
ENDBRANCH  42  43
ENDBRANCH  34  37
ENDBRANCH  32  33
ENDBRANCH  31  32
ENDBRANCH  30  31
ENDBRANCH   1  30
TORSDOF 21
ENDMDL
MODEL 2
REMARK VINA RESULT:     -11.2      1.007      2.000
REMARK SMILES CC(C)Cc1s/c(=N/C(=O)CCC(=O)Nc2nccs2)[nH]c1C(=O)NCCCCNC(=O)c1ccc(-c2c3nc(c(-c4c(F)cc(S(=O)(=O)[O-])cc4F)c4ccc([nH]4)c(-c4c(F)cc(S(=O)(=O)[O-])cc4F)c4nc(c(-c5c(F)cc(S(=O)(=O)[O-])cc5F)c5ccc2[nH]5)C=C4)C=C3)cc1
REMARK SMILES IDX 26 1 25 2 23 3 24 4 22 6 5 7 6 8 7 9 21 10 8 11 4 13 2 14
REMARK SMILES IDX 1 15 3 16 9 17 10 18 11 19 12 20 13 21 14 22 15 23 16 25
REMARK SMILES IDX 17 26 20 27 18 28 19 29 27 30 28 31 29 32 30 33 31 34 32 36
REMARK SMILES IDX 33 37 34 38 98 39 35 40 97 41 36 42 37 43 38 44 91 45 39 46
REMARK SMILES IDX 96 47 90 48 92 49 40 50 95 51 89 52 88 53 41 55 75 56 54 57
REMARK SMILES IDX 74 58 55 59 58 60 73 61 93 62 56 63 57 64 72 66 94 67 59 68
REMARK SMILES IDX 42 69 43 70 52 71 44 72 45 73 51 74 53 75 46 76 47 77 48 78
REMARK SMILES IDX 49 79 50 80 76 81 77 82 86 83 78 84 79 85 85 86 87 87 80 88
REMARK SMILES IDX 81 89 82 90 83 91 84 92 60 93 61 94 70 95 62 96 63 97 69 98
REMARK SMILES IDX 71 99 64 100 65 101 66 102 67 103 68 104
REMARK H PARENT 25 5 21 12 15 24 30 35 92 54 58 65
REMARK Flexibility Score: inf
ROOT
ATOM      1  C   UNL A   1      36.605  23.672  25.952  1.00  0.00     0.116 C 
ENDROOT
BRANCH   1   2
ATOM      2  N   UNL A   1      36.333  23.527  24.540  1.00  0.00    -0.351 N 
ATOM      3  C   UNL A   1      35.209  23.286  23.832  1.00  0.00     0.268 C 
ATOM      4  O   UNL A   1      35.344  23.190  22.604  1.00  0.00    -0.268 OA
ATOM      5  H   UNL A   1      37.135  23.625  23.977  1.00  0.00     0.163 HD
BRANCH   3   6
ATOM      6  C   UNL A   1      33.802  23.244  24.369  1.00  0.00     0.119 A 
ATOM      7  C   UNL A   1      32.732  22.421  24.218  1.00  0.00     0.038 A 
ATOM      8  S   UNL A   1      31.307  23.086  25.082  1.00  0.00    -0.101 S 
ATOM      9  C   UNL A   1      32.194  24.556  25.518  1.00  0.00     0.190 A 
ATOM     10  N   UNL A   1      33.471  24.393  25.088  1.00  0.00    -0.326 N 
ATOM     11  N   UNL A   1      31.557  25.516  26.080  1.00  0.00    -0.185 NA
ATOM     12  H   UNL A   1      34.155  25.076  25.281  1.00  0.00     0.169 HD
BRANCH   7  13
ATOM     13  C   UNL A   1      32.503  21.114  23.521  1.00  0.00     0.052 C 
BRANCH  13  14
ATOM     14  C   UNL A   1      33.101  19.840  24.154  1.00  0.00    -0.012 C 
ATOM     15  C   UNL A   1      33.248  19.908  25.673  1.00  0.00     0.008 C 
ATOM     16  C   UNL A   1      32.219  18.636  23.797  1.00  0.00     0.008 C 
ENDBRANCH  13  14
ENDBRANCH   7  13
BRANCH  11  17
ATOM     17  C   UNL A   1      32.246  26.678  26.311  1.00  0.00     0.248 C 
ATOM     18  O   UNL A   1      33.458  26.761  26.493  1.00  0.00    -0.273 OA
BRANCH  17  19
ATOM     19  C   UNL A   1      31.348  27.898  26.384  1.00  0.00     0.112 C 
BRANCH  19  20
ATOM     20  C   UNL A   1      32.042  29.212  26.062  1.00  0.00     0.110 C 
BRANCH  20  21
ATOM     21  C   UNL A   1      31.330  30.033  25.003  1.00  0.00     0.226 C 
ATOM     22  O   UNL A   1      30.709  31.049  25.330  1.00  0.00    -0.275 OA
ATOM     23  N   UNL A   1      31.378  29.703  23.683  1.00  0.00    -0.302 N 
ATOM     24  H   UNL A   1      30.982  30.349  23.055  1.00  0.00     0.172 HD
BRANCH  23  25
ATOM     25  C   UNL A   1      31.913  28.575  23.140  1.00  0.00     0.189 A 
ATOM     26  N   UNL A   1      33.169  28.271  22.945  1.00  0.00    -0.229 NA
ATOM     27  S   UNL A   1      30.770  27.381  22.725  1.00  0.00    -0.105 S 
ATOM     28  C   UNL A   1      33.261  26.968  22.497  1.00  0.00     0.125 A 
ATOM     29  C   UNL A   1      32.057  26.317  22.325  1.00  0.00     0.088 A 
ENDBRANCH  23  25
ENDBRANCH  20  21
ENDBRANCH  19  20
ENDBRANCH  17  19
ENDBRANCH  11  17
ENDBRANCH   3   6
ENDBRANCH   1   2
BRANCH   1  30
ATOM     30  C   UNL A   1      38.086  24.012  26.149  1.00  0.00     0.023 C 
BRANCH  30  31
ATOM     31  C   UNL A   1      39.025  22.825  26.310  1.00  0.00     0.023 C 
BRANCH  31  32
ATOM     32  C   UNL A   1      40.317  23.179  27.027  1.00  0.00     0.116 C 
BRANCH  32  33
ATOM     33  N   UNL A   1      41.379  23.636  26.138  1.00  0.00    -0.352 N 
ATOM     34  C   UNL A   1      42.005  24.860  26.123  1.00  0.00     0.251 C 
ATOM     35  H   UNL A   1      41.686  22.987  25.463  1.00  0.00     0.163 HD
ATOM     36  O   UNL A   1      42.843  25.123  25.268  1.00  0.00    -0.269 OA
BRANCH  34  37
ATOM     37  C   UNL A   1      41.599  25.867  27.121  1.00  0.00     0.039 A 
ATOM     38  C   UNL A   1      40.762  25.478  28.168  1.00  0.00     0.014 A 
ATOM     39  C   UNL A   1      42.134  27.155  27.076  1.00  0.00     0.014 A 
ATOM     40  C   UNL A   1      40.523  26.365  29.217  1.00  0.00     0.010 A 
ATOM     41  C   UNL A   1      41.979  27.997  28.166  1.00  0.00     0.010 A 
ATOM     42  C   UNL A   1      41.165  27.615  29.242  1.00  0.00    -0.014 A 
BRANCH  42  43
ATOM     43  C   UNL A   1      40.979  28.562  30.367  1.00  0.00     0.031 A 
ATOM     44  C   UNL A   1      41.841  28.426  31.593  1.00  0.00     0.074 A 
ATOM     45  C   UNL A   1      39.990  29.476  30.322  1.00  0.00     0.049 A 
ATOM     46  N   UNL A   1      41.766  29.064  32.731  1.00  0.00    -0.248 NA
ATOM     47  C   UNL A   1      42.899  27.401  31.547  1.00  0.00     0.031 C 
ATOM     48  C   UNL A   1      39.048  29.657  29.214  1.00  0.00     0.029 A 
ATOM     49  N   UNL A   1      39.606  30.420  31.238  1.00  0.00    -0.354 N 
ATOM     50  C   UNL A   1      42.741  28.497  33.543  1.00  0.00     0.074 A 
ATOM     51  C   UNL A   1      43.352  27.425  32.790  1.00  0.00     0.031 C 
ATOM     52  C   UNL A   1      38.215  30.669  29.505  1.00  0.00     0.029 A 
ATOM     53  C   UNL A   1      38.541  31.188  30.829  1.00  0.00     0.049 A 
ATOM     54  H   UNL A   1      40.051  30.539  32.109  1.00  0.00     0.167 HD
ATOM     55  C   UNL A   1      43.115  28.859  34.792  1.00  0.00     0.037 A 
ATOM     56  C   UNL A   1      37.904  32.196  31.455  1.00  0.00     0.037 A 
ATOM     57  C   UNL A   1      42.544  29.967  35.507  1.00  0.00     0.049 A 
ATOM     58  C   UNL A   1      38.379  32.621  32.818  1.00  0.00     0.074 A 
ATOM     59  C   UNL A   1      42.893  30.463  36.749  1.00  0.00     0.029 A 
ATOM     60  N   UNL A   1      41.511  30.762  35.031  1.00  0.00    -0.354 N 
ATOM     61  N   UNL A   1      39.338  32.108  33.553  1.00  0.00    -0.248 NA
ATOM     62  C   UNL A   1      37.695  33.766  33.433  1.00  0.00     0.031 C 
ATOM     63  C   UNL A   1      42.058  31.550  37.033  1.00  0.00     0.029 A 
ATOM     64  C   UNL A   1      41.211  31.748  35.955  1.00  0.00     0.049 A 
ATOM     65  H   UNL A   1      41.060  30.643  34.164  1.00  0.00     0.167 HD
ATOM     66  C   UNL A   1      39.391  32.885  34.704  1.00  0.00     0.074 A 
ATOM     67  C   UNL A   1      38.373  33.908  34.564  1.00  0.00     0.031 C 
ATOM     68  C   UNL A   1      40.205  32.765  35.780  1.00  0.00     0.037 A 
BRANCH  55  69
ATOM     69  C   UNL A   1      44.206  28.059  35.445  1.00  0.00     0.058 A 
ATOM     70  C   UNL A   1      43.919  26.928  36.228  1.00  0.00     0.135 A 
ATOM     71  C   UNL A   1      45.552  28.420  35.287  1.00  0.00     0.135 A 
ATOM     72  F   UNL A   1      42.645  26.551  36.430  1.00  0.00    -0.206 F 
ATOM     73  C   UNL A   1      44.924  26.207  36.861  1.00  0.00     0.059 A 
ATOM     74  C   UNL A   1      46.578  27.696  35.888  1.00  0.00     0.059 A 
ATOM     75  F   UNL A   1      45.883  29.494  34.551  1.00  0.00    -0.206 F 
ATOM     76  C   UNL A   1      46.252  26.602  36.689  1.00  0.00     0.060 A 
BRANCH  76  77
ATOM     77  S   UNL A   1      47.547  25.661  37.522  1.00  0.00     0.124 S 
ATOM     78  O   UNL A   1      46.871  24.391  37.766  1.00  0.00    -0.237 OA
ATOM     79  O   UNL A   1      48.608  25.631  36.520  1.00  0.00    -0.237 OA
ATOM     80  O   UNL A   1      47.834  26.458  38.710  1.00  0.00    -0.744 OA
ENDBRANCH  76  77
ENDBRANCH  55  69
BRANCH  56  81
ATOM     81  C   UNL A   1      36.782  32.901  30.782  1.00  0.00     0.058 A 
ATOM     82  C   UNL A   1      35.454  32.671  31.170  1.00  0.00     0.135 A 
ATOM     83  C   UNL A   1      37.010  33.824  29.750  1.00  0.00     0.135 A 
ATOM     84  F   UNL A   1      35.186  31.795  32.151  1.00  0.00    -0.206 F 
ATOM     85  C   UNL A   1      34.390  33.314  30.548  1.00  0.00     0.059 A 
ATOM     86  C   UNL A   1      35.963  34.496  29.126  1.00  0.00     0.059 A 
ATOM     87  F   UNL A   1      38.265  34.094  29.355  1.00  0.00    -0.206 F 
ATOM     88  C   UNL A   1      34.655  34.227  29.526  1.00  0.00     0.060 A 
BRANCH  88  89
ATOM     89  S   UNL A   1      33.270  35.092  28.754  1.00  0.00     0.124 S 
ATOM     90  O   UNL A   1      33.959  36.123  27.988  1.00  0.00    -0.237 OA
ATOM     91  O   UNL A   1      32.640  34.031  27.974  1.00  0.00    -0.237 OA
ATOM     92  O   UNL A   1      32.493  35.563  29.896  1.00  0.00    -0.744 OA
ENDBRANCH  88  89
ENDBRANCH  56  81
BRANCH  68  93
ATOM     93  C   UNL A   1      40.059  33.785  36.872  1.00  0.00     0.058 A 
ATOM     94  C   UNL A   1      39.253  33.548  37.994  1.00  0.00     0.135 A 
ATOM     95  C   UNL A   1      40.785  34.985  36.821  1.00  0.00     0.135 A 
ATOM     96  F   UNL A   1      38.536  32.417  38.085  1.00  0.00    -0.206 F 
ATOM     97  C   UNL A   1      39.156  34.478  39.023  1.00  0.00     0.059 A 
ATOM     98  C   UNL A   1      40.721  35.919  37.848  1.00  0.00     0.059 A 
ATOM     99  F   UNL A   1      41.579  35.252  35.770  1.00  0.00    -0.206 F 
ATOM    100  C   UNL A   1      39.895  35.659  38.942  1.00  0.00     0.060 A 
BRANCH 100 101
ATOM    101  S   UNL A   1      39.795  36.840  40.303  1.00  0.00     0.124 S 
ATOM    102  O   UNL A   1      41.003  37.631  40.094  1.00  0.00    -0.237 OA
ATOM    103  O   UNL A   1      38.534  37.525  40.035  1.00  0.00    -0.237 OA
ATOM    104  O   UNL A   1      39.798  35.991  41.490  1.00  0.00    -0.744 OA
ENDBRANCH 100 101
ENDBRANCH  68  93
ENDBRANCH  42  43
ENDBRANCH  34  37
ENDBRANCH  32  33
ENDBRANCH  31  32
ENDBRANCH  30  31
ENDBRANCH   1  30
TORSDOF 21
ENDMDL
MODEL 3
REMARK VINA RESULT:     -11.1      1.650      2.536
REMARK SMILES CC(C)Cc1s/c(=N/C(=O)CCC(=O)Nc2nccs2)[nH]c1C(=O)NCCCCNC(=O)c1ccc(-c2c3nc(c(-c4c(F)cc(S(=O)(=O)[O-])cc4F)c4ccc([nH]4)c(-c4c(F)cc(S(=O)(=O)[O-])cc4F)c4nc(c(-c5c(F)cc(S(=O)(=O)[O-])cc5F)c5ccc2[nH]5)C=C4)C=C3)cc1
REMARK SMILES IDX 26 1 25 2 23 3 24 4 22 6 5 7 6 8 7 9 21 10 8 11 4 13 2 14
REMARK SMILES IDX 1 15 3 16 9 17 10 18 11 19 12 20 13 21 14 22 15 23 16 25
REMARK SMILES IDX 17 26 20 27 18 28 19 29 27 30 28 31 29 32 30 33 31 34 32 36
REMARK SMILES IDX 33 37 34 38 98 39 35 40 97 41 36 42 37 43 38 44 91 45 39 46
REMARK SMILES IDX 96 47 90 48 92 49 40 50 95 51 89 52 88 53 41 55 75 56 54 57
REMARK SMILES IDX 74 58 55 59 58 60 73 61 93 62 56 63 57 64 72 66 94 67 59 68
REMARK SMILES IDX 42 69 43 70 52 71 44 72 45 73 51 74 53 75 46 76 47 77 48 78
REMARK SMILES IDX 49 79 50 80 76 81 77 82 86 83 78 84 79 85 85 86 87 87 80 88
REMARK SMILES IDX 81 89 82 90 83 91 84 92 60 93 61 94 70 95 62 96 63 97 69 98
REMARK SMILES IDX 71 99 64 100 65 101 66 102 67 103 68 104
REMARK H PARENT 25 5 21 12 15 24 30 35 92 54 58 65
REMARK Flexibility Score: inf
ROOT
ATOM      1  C   UNL A   1      37.120  23.796  25.839  1.00  0.00     0.116 C 
ENDROOT
BRANCH   1   2
ATOM      2  N   UNL A   1      37.197  23.410  24.448  1.00  0.00    -0.351 N 
ATOM      3  C   UNL A   1      36.282  22.980  23.552  1.00  0.00     0.268 C 
ATOM      4  O   UNL A   1      36.709  22.701  22.423  1.00  0.00    -0.268 OA
ATOM      5  H   UNL A   1      38.107  23.475  24.076  1.00  0.00     0.163 HD
BRANCH   3   6
ATOM      6  C   UNL A   1      34.790  22.924  23.751  1.00  0.00     0.119 A 
ATOM      7  C   UNL A   1      33.919  22.038  24.298  1.00  0.00     0.038 A 
ATOM      8  S   UNL A   1      32.230  22.590  24.054  1.00  0.00    -0.101 S 
ATOM      9  C   UNL A   1      32.768  23.969  23.081  1.00  0.00     0.190 A 
ATOM     10  N   UNL A   1      34.126  23.966  23.102  1.00  0.00    -0.326 N 
ATOM     11  N   UNL A   1      31.887  24.689  22.491  1.00  0.00    -0.185 NA
ATOM     12  H   UNL A   1      34.634  24.689  22.666  1.00  0.00     0.169 HD
BRANCH   7  13
ATOM     13  C   UNL A   1      34.067  20.749  25.050  1.00  0.00     0.052 C 
BRANCH  13  14
ATOM     14  C   UNL A   1      33.256  19.528  24.565  1.00  0.00    -0.012 C 
ATOM     15  C   UNL A   1      32.627  19.706  23.184  1.00  0.00     0.008 C 
ATOM     16  C   UNL A   1      34.168  18.294  24.538  1.00  0.00     0.008 C 
ENDBRANCH  13  14
ENDBRANCH   7  13
BRANCH  11  17
ATOM     17  C   UNL A   1      32.338  25.684  21.663  1.00  0.00     0.248 C 
ATOM     18  O   UNL A   1      33.281  25.585  20.882  1.00  0.00    -0.273 OA
BRANCH  17  19
ATOM     19  C   UNL A   1      31.586  26.989  21.837  1.00  0.00     0.112 C 
BRANCH  19  20
ATOM     20  C   UNL A   1      31.916  27.743  23.116  1.00  0.00     0.110 C 
BRANCH  20  21
ATOM     21  C   UNL A   1      33.192  28.559  23.028  1.00  0.00     0.226 C 
ATOM     22  O   UNL A   1      33.832  28.585  21.971  1.00  0.00    -0.275 OA
ATOM     23  N   UNL A   1      33.649  29.297  24.076  1.00  0.00    -0.302 N 
ATOM     24  H   UNL A   1      34.421  29.881  23.897  1.00  0.00     0.172 HD
BRANCH  23  25
ATOM     25  C   UNL A   1      33.153  29.315  25.344  1.00  0.00     0.189 A 
ATOM     26  N   UNL A   1      32.256  30.109  25.866  1.00  0.00    -0.229 NA
ATOM     27  S   UNL A   1      33.749  28.077  26.352  1.00  0.00    -0.105 S 
ATOM     28  C   UNL A   1      31.951  29.680  27.143  1.00  0.00     0.125 A 
ATOM     29  C   UNL A   1      32.658  28.579  27.579  1.00  0.00     0.088 A 
ENDBRANCH  23  25
ENDBRANCH  20  21
ENDBRANCH  19  20
ENDBRANCH  17  19
ENDBRANCH  11  17
ENDBRANCH   3   6
ENDBRANCH   1   2
BRANCH   1  30
ATOM     30  C   UNL A   1      38.510  23.682  26.472  1.00  0.00     0.023 C 
BRANCH  30  31
ATOM     31  C   UNL A   1      39.368  22.522  25.990  1.00  0.00     0.023 C 
BRANCH  31  32
ATOM     32  C   UNL A   1      40.764  22.521  26.589  1.00  0.00     0.116 C 
BRANCH  32  33
ATOM     33  N   UNL A   1      41.791  23.035  25.690  1.00  0.00    -0.352 N 
ATOM     34  C   UNL A   1      42.385  24.275  25.701  1.00  0.00     0.251 C 
ATOM     35  H   UNL A   1      42.099  22.417  24.987  1.00  0.00     0.163 HD
ATOM     36  O   UNL A   1      43.195  24.588  24.836  1.00  0.00    -0.269 OA
BRANCH  34  37
ATOM     37  C   UNL A   1      41.978  25.237  26.742  1.00  0.00     0.039 A 
ATOM     38  C   UNL A   1      41.559  24.752  27.981  1.00  0.00     0.014 A 
ATOM     39  C   UNL A   1      42.117  26.609  26.522  1.00  0.00     0.014 A 
ATOM     40  C   UNL A   1      41.353  25.647  29.031  1.00  0.00     0.010 A 
ATOM     41  C   UNL A   1      42.010  27.485  27.590  1.00  0.00     0.010 A 
ATOM     42  C   UNL A   1      41.618  27.015  28.852  1.00  0.00    -0.014 A 
BRANCH  42  43
ATOM     43  C   UNL A   1      41.463  27.988  29.960  1.00  0.00     0.031 A 
ATOM     44  C   UNL A   1      42.380  27.901  31.148  1.00  0.00     0.074 A 
ATOM     45  C   UNL A   1      40.455  28.882  29.934  1.00  0.00     0.049 A 
ATOM     46  N   UNL A   1      42.343  28.567  32.272  1.00  0.00    -0.248 NA
ATOM     47  C   UNL A   1      43.456  26.895  31.082  1.00  0.00     0.031 C 
ATOM     48  C   UNL A   1      39.462  29.016  28.865  1.00  0.00     0.029 A 
ATOM     49  N   UNL A   1      40.093  29.843  30.842  1.00  0.00    -0.354 N 
ATOM     50  C   UNL A   1      43.364  28.041  33.054  1.00  0.00     0.074 A 
ATOM     51  C   UNL A   1      43.963  26.961  32.303  1.00  0.00     0.031 C 
ATOM     52  C   UNL A   1      38.622  30.019  29.167  1.00  0.00     0.029 A 
ATOM     53  C   UNL A   1      38.996  30.579  30.462  1.00  0.00     0.049 A 
ATOM     54  H   UNL A   1      40.573  29.993  31.689  1.00  0.00     0.167 HD
ATOM     55  C   UNL A   1      43.785  28.443  34.275  1.00  0.00     0.037 A 
ATOM     56  C   UNL A   1      38.367  31.592  31.088  1.00  0.00     0.037 A 
ATOM     57  C   UNL A   1      43.224  29.558  34.986  1.00  0.00     0.049 A 
ATOM     58  C   UNL A   1      38.893  32.062  32.418  1.00  0.00     0.074 A 
ATOM     59  C   UNL A   1      43.618  30.094  36.199  1.00  0.00     0.029 A 
ATOM     60  N   UNL A   1      42.156  30.321  34.536  1.00  0.00    -0.354 N 
ATOM     61  N   UNL A   1      39.893  31.587  33.122  1.00  0.00    -0.248 NA
ATOM     62  C   UNL A   1      38.214  33.210  33.033  1.00  0.00     0.031 C 
ATOM     63  C   UNL A   1      42.774  31.172  36.491  1.00  0.00     0.029 A 
ATOM     64  C   UNL A   1      41.877  31.326  35.447  1.00  0.00     0.049 A 
ATOM     65  H   UNL A   1      41.669  30.170  33.694  1.00  0.00     0.167 HD
ATOM     66  C   UNL A   1      39.981  32.395  34.249  1.00  0.00     0.074 A 
ATOM     67  C   UNL A   1      38.938  33.394  34.129  1.00  0.00     0.031 C 
ATOM     68  C   UNL A   1      40.845  32.319  35.291  1.00  0.00     0.037 A 
BRANCH  55  69
ATOM     69  C   UNL A   1      44.919  27.681  34.900  1.00  0.00     0.058 A 
ATOM     70  C   UNL A   1      46.258  28.041  34.674  1.00  0.00     0.135 A 
ATOM     71  C   UNL A   1      44.670  26.582  35.736  1.00  0.00     0.135 A 
ATOM     72  F   UNL A   1      46.553  29.071  33.864  1.00  0.00    -0.206 F 
ATOM     73  C   UNL A   1      47.309  27.316  35.223  1.00  0.00     0.059 A 
ATOM     74  C   UNL A   1      45.706  25.859  36.320  1.00  0.00     0.059 A 
ATOM     75  F   UNL A   1      43.408  26.193  35.984  1.00  0.00    -0.206 F 
ATOM     76  C   UNL A   1      47.023  26.223  36.042  1.00  0.00     0.060 A 
BRANCH  76  77
ATOM     77  S   UNL A   1      48.397  25.287  36.744  1.00  0.00     0.124 S 
ATOM     78  O   UNL A   1      49.419  25.458  35.715  1.00  0.00    -0.237 OA
ATOM     79  O   UNL A   1      48.643  25.984  38.002  1.00  0.00    -0.237 OA
ATOM     80  O   UNL A   1      47.857  23.938  36.874  1.00  0.00    -0.744 OA
ENDBRANCH  76  77
ENDBRANCH  55  69
BRANCH  56  81
ATOM     81  C   UNL A   1      37.203  32.258  30.448  1.00  0.00     0.058 A 
ATOM     82  C   UNL A   1      35.896  31.822  30.707  1.00  0.00     0.135 A 
ATOM     83  C   UNL A   1      37.369  33.346  29.577  1.00  0.00     0.135 A 
ATOM     84  F   UNL A   1      35.687  30.783  31.531  1.00  0.00    -0.206 F 
ATOM     85  C   UNL A   1      34.793  32.425  30.112  1.00  0.00     0.059 A 
ATOM     86  C   UNL A   1      36.280  33.980  28.987  1.00  0.00     0.059 A 
ATOM     87  F   UNL A   1      38.599  33.813  29.313  1.00  0.00    -0.206 F 
ATOM     88  C   UNL A   1      34.996  33.506  29.252  1.00  0.00     0.060 A 
BRANCH  88  89
ATOM     89  S   UNL A   1      33.557  34.314  28.518  1.00  0.00     0.124 S 
ATOM     90  O   UNL A   1      32.817  34.727  29.705  1.00  0.00    -0.237 OA
ATOM     91  O   UNL A   1      34.169  35.387  27.741  1.00  0.00    -0.237 OA
ATOM     92  O   UNL A   1      32.944  33.250  27.728  1.00  0.00    -0.744 OA
ENDBRANCH  88  89
ENDBRANCH  56  81
BRANCH  68  93
ATOM     93  C   UNL A   1      40.727  33.364  36.362  1.00  0.00     0.058 A 
ATOM     94  C   UNL A   1      39.831  33.222  37.431  1.00  0.00     0.135 A 
ATOM     95  C   UNL A   1      41.565  34.490  36.347  1.00  0.00     0.135 A 
ATOM     96  F   UNL A   1      39.007  32.165  37.486  1.00  0.00    -0.206 F 
ATOM     97  C   UNL A   1      39.758  34.172  38.443  1.00  0.00     0.059 A 
ATOM     98  C   UNL A   1      41.524  35.441  37.359  1.00  0.00     0.059 A 
ATOM     99  F   UNL A   1      42.446  34.665  35.348  1.00  0.00    -0.206 F 
ATOM    100  C   UNL A   1      40.609  35.277  38.399  1.00  0.00     0.060 A 
BRANCH 100 101
ATOM    101  S   UNL A   1      40.535  36.483  39.740  1.00  0.00     0.124 S 
ATOM    102  O   UNL A   1      41.300  35.808  40.783  1.00  0.00    -0.237 OA
ATOM    103  O   UNL A   1      41.170  37.655  39.145  1.00  0.00    -0.237 OA
ATOM    104  O   UNL A   1      39.104  36.618  39.997  1.00  0.00    -0.744 OA
ENDBRANCH 100 101
ENDBRANCH  68  93
ENDBRANCH  42  43
ENDBRANCH  34  37
ENDBRANCH  32  33
ENDBRANCH  31  32
ENDBRANCH  30  31
ENDBRANCH   1  30
TORSDOF 21
ENDMDL
