MODEL 1
REMARK VINA RESULT:     -11.4      0.000      0.000
REMARK SMILES CCc1ccc(N(C)C(=O)N2CC[C@@H](C(=O)NCCCCNC(=O)c3ccc(-c4c5nc(c(-c6c(F)cc(S(=O)(=O)[O-])cc6F)c6ccc([nH]6)c(-c6c(F)cc(S(=O)(=O)[O-])cc6F)c6nc(c(-c7c(F)cc(S(=O)(=O)[O-])cc7F)c7ccc4[nH]7)C=C6)C=C5)cc3)[C@@H]2C)cc1
REMARK SMILES IDX 19 1 18 2 17 3 15 4 16 5 14 7 11 8 12 9 91 10 13 11 92 12
REMARK SMILES IDX 9 13 10 14 7 15 8 16 6 17 3 18 4 19 94 20 5 21 93 22 2 23
REMARK SMILES IDX 1 24 20 25 21 26 22 27 23 28 24 30 25 31 26 32 90 33 27 34
REMARK SMILES IDX 89 35 28 36 29 37 30 38 83 39 31 40 88 41 82 42 84 43 32 44
REMARK SMILES IDX 87 45 81 46 80 47 33 49 67 50 46 51 66 52 47 53 50 54 65 55
REMARK SMILES IDX 85 56 48 57 49 58 64 60 86 61 51 62 34 63 35 64 44 65 36 66
REMARK SMILES IDX 37 67 43 68 45 69 38 70 39 71 40 72 41 73 42 74 68 75 69 76
REMARK SMILES IDX 78 77 70 78 71 79 77 80 79 81 72 82 73 83 74 84 75 85 76 86
REMARK SMILES IDX 52 87 53 88 62 89 54 90 55 91 61 92 63 93 56 94 57 95 58 96
REMARK SMILES IDX 59 97 60 98
REMARK H PARENT 17 6 22 29 84 48 50 59
REMARK Flexibility Score: inf
ROOT
ATOM      1  C   UNL A   1      34.595  29.491  27.106  1.00  0.00     0.023 C 
ENDROOT
BRANCH   1   2
ATOM      2  C   UNL A   1      33.108  29.833  27.045  1.00  0.00     0.116 C 
BRANCH   2   3
ATOM      3  N   UNL A   1      32.282  28.665  27.289  1.00  0.00    -0.356 N 
ATOM      4  C   UNL A   1      31.655  27.806  26.439  1.00  0.00     0.225 C 
ATOM      5  O   UNL A   1      30.983  26.905  26.949  1.00  0.00    -0.275 OA
ATOM      6  H   UNL A   1      32.153  28.454  28.242  1.00  0.00     0.163 HD
BRANCH   4   7
ATOM      7  C   UNL A   1      31.746  27.906  24.919  1.00  0.00     0.102 C 
ATOM      8  N   UNL A   1      32.599  26.336  23.317  1.00  0.00    -0.321 N 
ATOM      9  C   UNL A   1      31.223  26.627  22.949  1.00  0.00     0.122 C 
ATOM     10  C   UNL A   1      33.045  27.317  24.329  1.00  0.00     0.096 C 
ATOM     11  C   UNL A   1      30.587  27.237  24.183  1.00  0.00     0.037 C 
ATOM     12  C   UNL A   1      33.901  28.408  23.683  1.00  0.00     0.032 C 
BRANCH   8  13
ATOM     13  C   UNL A   1      33.294  25.420  22.522  1.00  0.00     0.324 C 
ATOM     14  O   UNL A   1      33.600  25.783  21.382  1.00  0.00    -0.248 OA
BRANCH  13  15
ATOM     15  N   UNL A   1      33.553  24.128  23.012  1.00  0.00    -0.297 N 
ATOM     16  C   UNL A   1      32.820  22.992  22.496  1.00  0.00     0.155 C 
BRANCH  15  17
ATOM     17  C   UNL A   1      34.719  23.795  23.822  1.00  0.00     0.045 A 
ATOM     18  C   UNL A   1      37.118  23.267  25.289  1.00  0.00    -0.048 A 
ATOM     19  C   UNL A   1      36.979  22.825  23.978  1.00  0.00     0.006 A 
ATOM     20  C   UNL A   1      36.042  23.927  25.882  1.00  0.00     0.006 A 
ATOM     21  C   UNL A   1      35.796  23.067  23.272  1.00  0.00     0.027 A 
ATOM     22  C   UNL A   1      34.862  24.180  25.161  1.00  0.00     0.027 A 
BRANCH  18  23
ATOM     23  C   UNL A   1      38.386  22.991  26.050  1.00  0.00     0.032 C 
ATOM     24  C   UNL A   1      38.999  24.276  26.583  1.00  0.00     0.009 C 
ENDBRANCH  18  23
ENDBRANCH  15  17
ENDBRANCH  13  15
ENDBRANCH   8  13
ENDBRANCH   4   7
ENDBRANCH   2   3
ENDBRANCH   1   2
BRANCH   1  25
ATOM     25  C   UNL A   1      35.459  30.390  27.971  1.00  0.00     0.023 C 
BRANCH  25  26
ATOM     26  C   UNL A   1      35.994  29.737  29.234  1.00  0.00     0.116 C 
BRANCH  26  27
ATOM     27  N   UNL A   1      35.860  30.556  30.434  1.00  0.00    -0.352 N 
ATOM     28  C   UNL A   1      36.847  31.064  31.248  1.00  0.00     0.251 C 
ATOM     29  H   UNL A   1      34.937  30.776  30.697  1.00  0.00     0.163 HD
ATOM     30  O   UNL A   1      36.555  31.673  32.273  1.00  0.00    -0.269 OA
BRANCH  28  31
ATOM     31  C   UNL A   1      38.260  30.821  30.895  1.00  0.00     0.039 A 
ATOM     32  C   UNL A   1      39.074  30.118  31.786  1.00  0.00     0.014 A 
ATOM     33  C   UNL A   1      38.747  31.209  29.646  1.00  0.00     0.014 A 
ATOM     34  C   UNL A   1      40.347  29.717  31.380  1.00  0.00     0.010 A 
ATOM     35  C   UNL A   1      39.966  30.717  29.206  1.00  0.00     0.010 A 
ATOM     36  C   UNL A   1      40.782  29.967  30.067  1.00  0.00    -0.014 A 
BRANCH  36  37
ATOM     37  C   UNL A   1      42.087  29.470  29.567  1.00  0.00     0.031 A 
ATOM     38  C   UNL A   1      43.271  30.399  29.533  1.00  0.00     0.074 A 
ATOM     39  C   UNL A   1      42.185  28.224  29.065  1.00  0.00     0.049 A 
ATOM     40  N   UNL A   1      44.462  30.200  29.033  1.00  0.00    -0.248 NA
ATOM     41  C   UNL A   1      43.073  31.743  30.098  1.00  0.00     0.031 C 
ATOM     42  C   UNL A   1      41.093  27.250  28.986  1.00  0.00     0.029 A 
ATOM     43  N   UNL A   1      43.256  27.562  28.518  1.00  0.00    -0.354 N 
ATOM     44  C   UNL A   1      45.144  31.400  29.199  1.00  0.00     0.074 A 
ATOM     45  C   UNL A   1      44.211  32.340  29.784  1.00  0.00     0.031 C 
ATOM     46  C   UNL A   1      41.560  26.104  28.463  1.00  0.00     0.029 A 
ATOM     47  C   UNL A   1      42.972  26.273  28.134  1.00  0.00     0.049 A 
ATOM     48  H   UNL A   1      44.144  27.973  28.411  1.00  0.00     0.167 HD
ATOM     49  C   UNL A   1      46.437  31.688  28.920  1.00  0.00     0.037 A 
ATOM     50  C   UNL A   1      43.765  25.334  27.584  1.00  0.00     0.037 A 
ATOM     51  C   UNL A   1      47.370  30.737  28.382  1.00  0.00     0.049 A 
ATOM     52  C   UNL A   1      45.206  25.663  27.311  1.00  0.00     0.074 A 
ATOM     53  C   UNL A   1      48.716  30.905  28.113  1.00  0.00     0.029 A 
ATOM     54  N   UNL A   1      47.054  29.429  28.040  1.00  0.00    -0.354 N 
ATOM     55  N   UNL A   1      45.846  26.790  27.514  1.00  0.00    -0.248 NA
ATOM     56  C   UNL A   1      46.034  24.592  26.738  1.00  0.00     0.031 C 
ATOM     57  C   UNL A   1      49.210  29.705  27.587  1.00  0.00     0.029 A 
ATOM     58  C   UNL A   1      48.177  28.780  27.560  1.00  0.00     0.049 A 
ATOM     59  H   UNL A   1      46.161  29.024  28.128  1.00  0.00     0.167 HD
ATOM     60  C   UNL A   1      47.159  26.557  27.121  1.00  0.00     0.074 A 
ATOM     61  C   UNL A   1      47.222  25.180  26.673  1.00  0.00     0.031 C 
ATOM     62  C   UNL A   1      48.218  27.405  27.130  1.00  0.00     0.037 A 
BRANCH  49  63
ATOM     63  C   UNL A   1      46.904  33.087  29.212  1.00  0.00     0.058 A 
ATOM     64  C   UNL A   1      47.415  33.442  30.472  1.00  0.00     0.135 A 
ATOM     65  C   UNL A   1      46.816  34.091  28.235  1.00  0.00     0.135 A 
ATOM     66  F   UNL A   1      47.502  32.523  31.449  1.00  0.00    -0.206 F 
ATOM     67  C   UNL A   1      47.773  34.751  30.770  1.00  0.00     0.059 A 
ATOM     68  C   UNL A   1      47.197  35.403  28.503  1.00  0.00     0.059 A 
ATOM     69  F   UNL A   1      46.335  33.807  27.015  1.00  0.00    -0.206 F 
ATOM     70  C   UNL A   1      47.651  35.727  29.781  1.00  0.00     0.060 A 
BRANCH  70  71
ATOM     71  S   UNL A   1      48.083  37.431  30.190  1.00  0.00     0.124 S 
ATOM     72  O   UNL A   1      49.516  37.313  30.443  1.00  0.00    -0.237 OA
ATOM     73  O   UNL A   1      47.712  38.151  28.976  1.00  0.00    -0.237 OA
ATOM     74  O   UNL A   1      47.259  37.718  31.360  1.00  0.00    -0.744 OA
ENDBRANCH  70  71
ENDBRANCH  49  63
BRANCH  50  75
ATOM     75  C   UNL A   1      43.225  23.976  27.311  1.00  0.00     0.058 A 
ATOM     76  C   UNL A   1      42.783  23.631  26.025  1.00  0.00     0.135 A 
ATOM     77  C   UNL A   1      43.165  22.993  28.309  1.00  0.00     0.135 A 
ATOM     78  F   UNL A   1      42.816  24.541  25.040  1.00  0.00    -0.206 F 
ATOM     79  C   UNL A   1      42.293  22.362  25.738  1.00  0.00     0.059 A 
ATOM     80  C   UNL A   1      42.697  21.709  28.042  1.00  0.00     0.059 A 
ATOM     81  F   UNL A   1      43.593  23.268  29.551  1.00  0.00    -0.206 F 
ATOM     82  C   UNL A   1      42.258  21.406  26.753  1.00  0.00     0.060 A 
BRANCH  82  83
ATOM     83  S   UNL A   1      41.681  19.741  26.355  1.00  0.00     0.124 S 
ATOM     84  O   UNL A   1      42.019  19.014  27.573  1.00  0.00    -0.237 OA
ATOM     85  O   UNL A   1      40.258  19.957  26.114  1.00  0.00    -0.237 OA
ATOM     86  O   UNL A   1      42.462  19.391  25.171  1.00  0.00    -0.744 OA
ENDBRANCH  82  83
ENDBRANCH  50  75
BRANCH  62  87
ATOM     87  C   UNL A   1      49.540  26.856  26.677  1.00  0.00     0.058 A 
ATOM     88  C   UNL A   1      50.428  26.245  27.574  1.00  0.00     0.135 A 
ATOM     89  C   UNL A   1      49.898  26.898  25.320  1.00  0.00     0.135 A 
ATOM     90  F   UNL A   1      50.133  26.186  28.883  1.00  0.00    -0.206 F 
ATOM     91  C   UNL A   1      51.637  25.711  27.145  1.00  0.00     0.059 A 
ATOM     92  C   UNL A   1      51.092  26.351  24.866  1.00  0.00     0.059 A 
ATOM     93  F   UNL A   1      49.076  27.464  24.421  1.00  0.00    -0.206 F 
ATOM     94  C   UNL A   1      51.961  25.768  25.787  1.00  0.00     0.060 A 
BRANCH  94  95
ATOM     95  S   UNL A   1      53.518  25.042  25.234  1.00  0.00     0.124 S 
ATOM     96  O   UNL A   1      54.426  25.445  26.304  1.00  0.00    -0.237 OA
ATOM     97  O   UNL A   1      53.198  23.618  25.177  1.00  0.00    -0.237 OA
ATOM     98  O   UNL A   1      53.747  25.678  23.940  1.00  0.00    -0.744 OA
ENDBRANCH  94  95
ENDBRANCH  62  87
ENDBRANCH  36  37
ENDBRANCH  28  31
ENDBRANCH  26  27
ENDBRANCH  25  26
ENDBRANCH   1  25
TORSDOF 18
ENDMDL
MODEL 2
REMARK VINA RESULT:     -11.1      6.450     11.733
REMARK SMILES CCc1ccc(N(C)C(=O)N2CC[C@@H](C(=O)NCCCCNC(=O)c3ccc(-c4c5nc(c(-c6c(F)cc(S(=O)(=O)[O-])cc6F)c6ccc([nH]6)c(-c6c(F)cc(S(=O)(=O)[O-])cc6F)c6nc(c(-c7c(F)cc(S(=O)(=O)[O-])cc7F)c7ccc4[nH]7)C=C6)C=C5)cc3)[C@@H]2C)cc1
REMARK SMILES IDX 19 1 18 2 17 3 15 4 16 5 14 7 11 8 12 9 91 10 13 11 92 12
REMARK SMILES IDX 9 13 10 14 7 15 8 16 6 17 3 18 4 19 94 20 5 21 93 22 2 23
REMARK SMILES IDX 1 24 20 25 21 26 22 27 23 28 24 30 25 31 26 32 90 33 27 34
REMARK SMILES IDX 89 35 28 36 29 37 30 38 83 39 31 40 88 41 82 42 84 43 32 44
REMARK SMILES IDX 87 45 81 46 80 47 33 49 67 50 46 51 66 52 47 53 50 54 65 55
REMARK SMILES IDX 85 56 48 57 49 58 64 60 86 61 51 62 34 63 35 64 44 65 36 66
REMARK SMILES IDX 37 67 43 68 45 69 38 70 39 71 40 72 41 73 42 74 68 75 69 76
REMARK SMILES IDX 78 77 70 78 71 79 77 80 79 81 72 82 73 83 74 84 75 85 76 86
REMARK SMILES IDX 52 87 53 88 62 89 54 90 55 91 61 92 63 93 56 94 57 95 58 96
REMARK SMILES IDX 59 97 60 98
REMARK H PARENT 17 6 22 29 84 48 50 59
REMARK Flexibility Score: inf
ROOT
ATOM      1  C   UNL A   1      40.227  22.211  27.265  1.00  0.00     0.023 C 
ENDROOT
BRANCH   1   2
ATOM      2  C   UNL A   1      39.410  21.619  26.118  1.00  0.00     0.116 C 
BRANCH   2   3
ATOM      3  N   UNL A   1      38.574  22.623  25.486  1.00  0.00    -0.356 N 
ATOM      4  C   UNL A   1      37.229  22.687  25.291  1.00  0.00     0.225 C 
ATOM      5  O   UNL A   1      36.798  23.669  24.679  1.00  0.00    -0.275 OA
ATOM      6  H   UNL A   1      39.069  23.398  25.134  1.00  0.00     0.163 HD
BRANCH   4   7
ATOM      7  C   UNL A   1      36.251  21.624  25.785  1.00  0.00     0.102 C 
ATOM      8  N   UNL A   1      34.041  21.085  25.023  1.00  0.00    -0.321 N 
ATOM      9  C   UNL A   1      34.839  19.873  24.933  1.00  0.00     0.122 C 
ATOM     10  C   UNL A   1      34.781  22.091  25.814  1.00  0.00     0.096 C 
ATOM     11  C   UNL A   1      36.285  20.328  24.979  1.00  0.00     0.037 C 
ATOM     12  C   UNL A   1      34.249  22.148  27.248  1.00  0.00     0.032 C 
BRANCH   8  13
ATOM     13  C   UNL A   1      32.709  21.007  24.607  1.00  0.00     0.324 C 
ATOM     14  O   UNL A   1      31.992  20.174  25.171  1.00  0.00    -0.248 OA
BRANCH  13  15
ATOM     15  N   UNL A   1      32.261  21.810  23.545  1.00  0.00    -0.297 N 
ATOM     16  C   UNL A   1      31.956  21.217  22.260  1.00  0.00     0.155 C 
BRANCH  15  17
ATOM     17  C   UNL A   1      31.809  23.187  23.714  1.00  0.00     0.045 A 
ATOM     18  C   UNL A   1      30.803  25.859  23.876  1.00  0.00    -0.048 A 
ATOM     19  C   UNL A   1      31.618  25.474  22.818  1.00  0.00     0.006 A 
ATOM     20  C   UNL A   1      30.533  24.926  24.877  1.00  0.00     0.006 A 
ATOM     21  C   UNL A   1      32.125  24.173  22.753  1.00  0.00     0.027 A 
ATOM     22  C   UNL A   1      31.034  23.616  24.797  1.00  0.00     0.027 A 
BRANCH  18  23
ATOM     23  C   UNL A   1      30.272  27.266  23.950  1.00  0.00     0.032 C 
ATOM     24  C   UNL A   1      30.344  27.953  22.595  1.00  0.00     0.009 C 
ENDBRANCH  18  23
ENDBRANCH  15  17
ENDBRANCH  13  15
ENDBRANCH   8  13
ENDBRANCH   4   7
ENDBRANCH   2   3
ENDBRANCH   1   2
BRANCH   1  25
ATOM     25  C   UNL A   1      41.733  22.052  27.173  1.00  0.00     0.023 C 
BRANCH  25  26
ATOM     26  C   UNL A   1      42.507  23.356  27.084  1.00  0.00     0.116 C 
BRANCH  26  27
ATOM     27  N   UNL A   1      42.067  24.241  26.010  1.00  0.00    -0.352 N 
ATOM     28  C   UNL A   1      41.613  25.538  26.091  1.00  0.00     0.251 C 
ATOM     29  H   UNL A   1      42.100  23.858  25.103  1.00  0.00     0.163 HD
ATOM     30  O   UNL A   1      41.205  26.117  25.088  1.00  0.00    -0.269 OA
BRANCH  28  31
ATOM     31  C   UNL A   1      41.580  26.203  27.409  1.00  0.00     0.039 A 
ATOM     32  C   UNL A   1      42.556  27.153  27.718  1.00  0.00     0.014 A 
ATOM     33  C   UNL A   1      40.531  25.952  28.294  1.00  0.00     0.014 A 
ATOM     34  C   UNL A   1      42.421  27.923  28.874  1.00  0.00     0.010 A 
ATOM     35  C   UNL A   1      40.341  26.791  29.382  1.00  0.00     0.010 A 
ATOM     36  C   UNL A   1      41.284  27.784  29.686  1.00  0.00    -0.014 A 
BRANCH  36  37
ATOM     37  C   UNL A   1      41.055  28.652  30.868  1.00  0.00     0.031 A 
ATOM     38  C   UNL A   1      39.953  29.675  30.834  1.00  0.00     0.074 A 
ATOM     39  C   UNL A   1      41.887  28.581  31.925  1.00  0.00     0.049 A 
ATOM     40  N   UNL A   1      39.659  30.601  31.709  1.00  0.00    -0.248 NA
ATOM     41  C   UNL A   1      39.096  29.685  29.638  1.00  0.00     0.031 C 
ATOM     42  C   UNL A   1      43.029  27.672  32.051  1.00  0.00     0.029 A 
ATOM     43  N   UNL A   1      41.903  29.293  33.098  1.00  0.00    -0.354 N 
ATOM     44  C   UNL A   1      38.604  31.318  31.156  1.00  0.00     0.074 A 
ATOM     45  C   UNL A   1      38.355  30.762  29.844  1.00  0.00     0.031 C 
ATOM     46  C   UNL A   1      43.608  27.853  33.250  1.00  0.00     0.029 A 
ATOM     47  C   UNL A   1      42.904  28.915  33.961  1.00  0.00     0.049 A 
ATOM     48  H   UNL A   1      41.258  30.008  33.302  1.00  0.00     0.167 HD
ATOM     49  C   UNL A   1      37.885  32.327  31.702  1.00  0.00     0.037 A 
ATOM     50  C   UNL A   1      43.214  29.371  35.190  1.00  0.00     0.037 A 
ATOM     51  C   UNL A   1      38.107  32.844  33.025  1.00  0.00     0.049 A 
ATOM     52  C   UNL A   1      42.383  30.471  35.791  1.00  0.00     0.074 A 
ATOM     53  C   UNL A   1      37.403  33.826  33.698  1.00  0.00     0.029 A 
ATOM     54  N   UNL A   1      39.108  32.409  33.882  1.00  0.00    -0.354 N 
ATOM     55  N   UNL A   1      41.361  31.108  35.273  1.00  0.00    -0.248 NA
ATOM     56  C   UNL A   1      42.746  30.910  37.146  1.00  0.00     0.031 C 
ATOM     57  C   UNL A   1      37.992  34.001  34.956  1.00  0.00     0.029 A 
ATOM     58  C   UNL A   1      39.043  33.105  35.077  1.00  0.00     0.049 A 
ATOM     59  H   UNL A   1      39.767  31.709  33.672  1.00  0.00     0.167 HD
ATOM     60  C   UNL A   1      40.939  32.005  36.247  1.00  0.00     0.074 A 
ATOM     61  C   UNL A   1      41.814  31.823  37.388  1.00  0.00     0.031 C 
ATOM     62  C   UNL A   1      39.919  32.898  36.203  1.00  0.00     0.037 A 
BRANCH  49  63
ATOM     63  C   UNL A   1      36.785  32.915  30.862  1.00  0.00     0.058 A 
ATOM     64  C   UNL A   1      37.041  33.929  29.924  1.00  0.00     0.135 A 
ATOM     65  C   UNL A   1      35.458  32.482  31.013  1.00  0.00     0.135 A 
ATOM     66  F   UNL A   1      38.290  34.394  29.754  1.00  0.00    -0.206 F 
ATOM     67  C   UNL A   1      36.015  34.530  29.202  1.00  0.00     0.059 A 
ATOM     68  C   UNL A   1      34.420  33.049  30.280  1.00  0.00     0.059 A 
ATOM     69  F   UNL A   1      35.158  31.516  31.894  1.00  0.00    -0.206 F 
ATOM     70  C   UNL A   1      34.706  34.089  29.395  1.00  0.00     0.060 A 
BRANCH  70  71
ATOM     71  S   UNL A   1      33.377  34.900  28.482  1.00  0.00     0.124 S 
ATOM     72  O   UNL A   1      34.132  35.759  27.575  1.00  0.00    -0.237 OA
ATOM     73  O   UNL A   1      32.687  33.774  27.861  1.00  0.00    -0.237 OA
ATOM     74  O   UNL A   1      32.625  35.593  29.524  1.00  0.00    -0.744 OA
ENDBRANCH  70  71
ENDBRANCH  49  63
BRANCH  50  75
ATOM     75  C   UNL A   1      44.325  28.746  35.954  1.00  0.00     0.058 A 
ATOM     76  C   UNL A   1      45.638  29.223  35.818  1.00  0.00     0.135 A 
ATOM     77  C   UNL A   1      44.102  27.690  36.848  1.00  0.00     0.135 A 
ATOM     78  F   UNL A   1      45.901  30.228  34.970  1.00  0.00    -0.206 F 
ATOM     79  C   UNL A   1      46.693  28.671  36.536  1.00  0.00     0.059 A 
ATOM     80  C   UNL A   1      45.137  27.133  37.594  1.00  0.00     0.059 A 
ATOM     81  F   UNL A   1      42.861  27.211  37.027  1.00  0.00    -0.206 F 
ATOM     82  C   UNL A   1      46.431  27.627  37.425  1.00  0.00     0.060 A 
BRANCH  82  83
ATOM     83  S   UNL A   1      47.797  26.960  38.402  1.00  0.00     0.124 S 
ATOM     84  O   UNL A   1      48.161  28.110  39.221  1.00  0.00    -0.237 OA
ATOM     85  O   UNL A   1      47.160  25.851  39.104  1.00  0.00    -0.237 OA
ATOM     86  O   UNL A   1      48.773  26.570  37.389  1.00  0.00    -0.744 OA
ENDBRANCH  82  83
ENDBRANCH  50  75
BRANCH  62  87
ATOM     87  C   UNL A   1      39.672  33.719  37.436  1.00  0.00     0.058 A 
ATOM     88  C   UNL A   1      38.829  33.266  38.463  1.00  0.00     0.135 A 
ATOM     89  C   UNL A   1      40.327  34.947  37.613  1.00  0.00     0.135 A 
ATOM     90  F   UNL A   1      38.176  32.100  38.337  1.00  0.00    -0.206 F 
ATOM     91  C   UNL A   1      38.628  34.016  39.616  1.00  0.00     0.059 A 
ATOM     92  C   UNL A   1      40.157  35.702  38.768  1.00  0.00     0.059 A 
ATOM     93  F   UNL A   1      41.150  35.418  36.663  1.00  0.00    -0.206 F 
ATOM     94  C   UNL A   1      39.297  35.233  39.760  1.00  0.00     0.060 A 
BRANCH  94  95
ATOM     95  S   UNL A   1      39.056  36.182  41.276  1.00  0.00     0.124 S 
ATOM     96  O   UNL A   1      37.829  35.591  41.800  1.00  0.00    -0.237 OA
ATOM     97  O   UNL A   1      40.273  35.889  42.028  1.00  0.00    -0.237 OA
ATOM     98  O   UNL A   1      38.938  37.557  40.800  1.00  0.00    -0.744 OA
ENDBRANCH  94  95
ENDBRANCH  62  87
ENDBRANCH  36  37
ENDBRANCH  28  31
ENDBRANCH  26  27
ENDBRANCH  25  26
ENDBRANCH   1  25
TORSDOF 18
ENDMDL
MODEL 3
REMARK VINA RESULT:     -11.0      6.277     11.732
REMARK SMILES CCc1ccc(N(C)C(=O)N2CC[C@@H](C(=O)NCCCCNC(=O)c3ccc(-c4c5nc(c(-c6c(F)cc(S(=O)(=O)[O-])cc6F)c6ccc([nH]6)c(-c6c(F)cc(S(=O)(=O)[O-])cc6F)c6nc(c(-c7c(F)cc(S(=O)(=O)[O-])cc7F)c7ccc4[nH]7)C=C6)C=C5)cc3)[C@@H]2C)cc1
REMARK SMILES IDX 19 1 18 2 17 3 15 4 16 5 14 7 11 8 12 9 91 10 13 11 92 12
REMARK SMILES IDX 9 13 10 14 7 15 8 16 6 17 3 18 4 19 94 20 5 21 93 22 2 23
REMARK SMILES IDX 1 24 20 25 21 26 22 27 23 28 24 30 25 31 26 32 90 33 27 34
REMARK SMILES IDX 89 35 28 36 29 37 30 38 83 39 31 40 88 41 82 42 84 43 32 44
REMARK SMILES IDX 87 45 81 46 80 47 33 49 67 50 46 51 66 52 47 53 50 54 65 55
REMARK SMILES IDX 85 56 48 57 49 58 64 60 86 61 51 62 34 63 35 64 44 65 36 66
REMARK SMILES IDX 37 67 43 68 45 69 38 70 39 71 40 72 41 73 42 74 68 75 69 76
REMARK SMILES IDX 78 77 70 78 71 79 77 80 79 81 72 82 73 83 74 84 75 85 76 86
REMARK SMILES IDX 52 87 53 88 62 89 54 90 55 91 61 92 63 93 56 94 57 95 58 96
REMARK SMILES IDX 59 97 60 98
REMARK H PARENT 17 6 22 29 84 48 50 59
REMARK Flexibility Score: inf
ROOT
ATOM      1  C   UNL A   1      37.700  23.321  25.819  1.00  0.00     0.023 C 
ENDROOT
BRANCH   1   2
ATOM      2  C   UNL A   1      36.978  23.016  24.508  1.00  0.00     0.116 C 
BRANCH   2   3
ATOM      3  N   UNL A   1      36.150  21.829  24.620  1.00  0.00    -0.356 N 
ATOM      4  C   UNL A   1      35.040  21.567  25.362  1.00  0.00     0.225 C 
ATOM      5  O   UNL A   1      34.563  20.432  25.273  1.00  0.00    -0.275 OA
ATOM      6  H   UNL A   1      36.445  21.076  24.057  1.00  0.00     0.163 HD
BRANCH   4   7
ATOM      7  C   UNL A   1      34.374  22.591  26.277  1.00  0.00     0.102 C 
ATOM      8  N   UNL A   1      32.208  23.613  26.131  1.00  0.00    -0.321 N 
ATOM      9  C   UNL A   1      32.295  22.963  27.429  1.00  0.00     0.122 C 
ATOM     10  C   UNL A   1      33.555  23.662  25.526  1.00  0.00     0.096 C 
ATOM     11  C   UNL A   1      33.443  21.977  27.320  1.00  0.00     0.037 C 
ATOM     12  C   UNL A   1      34.175  25.050  25.699  1.00  0.00     0.032 C 
BRANCH   8  13
ATOM     13  C   UNL A   1      31.011  24.263  25.821  1.00  0.00     0.324 C 
ATOM     14  O   UNL A   1      30.177  24.370  26.726  1.00  0.00    -0.248 OA
BRANCH  13  15
ATOM     15  N   UNL A   1      30.776  24.704  24.507  1.00  0.00    -0.297 N 
ATOM     16  C   UNL A   1      30.673  23.747  23.425  1.00  0.00     0.155 C 
BRANCH  15  17
ATOM     17  C   UNL A   1      30.347  26.059  24.178  1.00  0.00     0.045 A 
ATOM     18  C   UNL A   1      29.633  28.707  23.367  1.00  0.00    -0.048 A 
ATOM     19  C   UNL A   1      30.920  28.427  23.813  1.00  0.00     0.006 A 
ATOM     20  C   UNL A   1      28.692  27.678  23.375  1.00  0.00     0.006 A 
ATOM     21  C   UNL A   1      31.259  27.136  24.229  1.00  0.00     0.027 A 
ATOM     22  C   UNL A   1      29.045  26.379  23.779  1.00  0.00     0.027 A 
BRANCH  18  23
ATOM     23  C   UNL A   1      29.268  30.102  22.937  1.00  0.00     0.032 C 
ATOM     24  C   UNL A   1      27.994  30.106  22.107  1.00  0.00     0.009 C 
ENDBRANCH  18  23
ENDBRANCH  15  17
ENDBRANCH  13  15
ENDBRANCH   8  13
ENDBRANCH   4   7
ENDBRANCH   2   3
ENDBRANCH   1   2
BRANCH   1  25
ATOM     25  C   UNL A   1      38.915  22.468  26.134  1.00  0.00     0.023 C 
BRANCH  25  26
ATOM     26  C   UNL A   1      40.001  23.174  26.927  1.00  0.00     0.116 C 
BRANCH  26  27
ATOM     27  N   UNL A   1      41.149  23.592  26.129  1.00  0.00    -0.352 N 
ATOM     28  C   UNL A   1      41.821  24.794  26.145  1.00  0.00     0.251 C 
ATOM     29  H   UNL A   1      41.490  22.923  25.491  1.00  0.00     0.163 HD
ATOM     30  O   UNL A   1      42.725  25.011  25.344  1.00  0.00    -0.269 OA
BRANCH  28  31
ATOM     31  C   UNL A   1      41.404  25.833  27.107  1.00  0.00     0.039 A 
ATOM     32  C   UNL A   1      40.484  25.508  28.106  1.00  0.00     0.014 A 
ATOM     33  C   UNL A   1      41.997  27.097  27.074  1.00  0.00     0.014 A 
ATOM     34  C   UNL A   1      40.234  26.421  29.131  1.00  0.00     0.010 A 
ATOM     35  C   UNL A   1      41.830  27.956  28.149  1.00  0.00     0.010 A 
ATOM     36  C   UNL A   1      40.946  27.631  29.189  1.00  0.00    -0.014 A 
BRANCH  36  37
ATOM     37  C   UNL A   1      40.782  28.583  30.315  1.00  0.00     0.031 A 
ATOM     38  C   UNL A   1      41.663  28.457  31.528  1.00  0.00     0.074 A 
ATOM     39  C   UNL A   1      39.790  29.495  30.285  1.00  0.00     0.049 A 
ATOM     40  N   UNL A   1      41.610  29.110  32.659  1.00  0.00    -0.248 NA
ATOM     41  C   UNL A   1      42.717  27.431  31.475  1.00  0.00     0.031 C 
ATOM     42  C   UNL A   1      38.832  29.675  29.192  1.00  0.00     0.029 A 
ATOM     43  N   UNL A   1      39.420  30.442  31.206  1.00  0.00    -0.354 N 
ATOM     44  C   UNL A   1      42.601  28.555  33.460  1.00  0.00     0.074 A 
ATOM     45  C   UNL A   1      43.194  27.470  32.709  1.00  0.00     0.031 C 
ATOM     46  C   UNL A   1      38.011  30.697  29.487  1.00  0.00     0.029 A 
ATOM     47  C   UNL A   1      38.359  31.219  30.805  1.00  0.00     0.049 A 
ATOM     48  H   UNL A   1      39.872  30.554  32.073  1.00  0.00     0.167 HD
ATOM     49  C   UNL A   1      43.005  28.934  34.695  1.00  0.00     0.037 A 
ATOM     50  C   UNL A   1      37.742  32.240  31.429  1.00  0.00     0.037 A 
ATOM     51  C   UNL A   1      42.443  30.043  35.417  1.00  0.00     0.049 A 
ATOM     52  C   UNL A   1      38.226  32.665  32.788  1.00  0.00     0.074 A 
ATOM     53  C   UNL A   1      42.814  30.547  36.649  1.00  0.00     0.029 A 
ATOM     54  N   UNL A   1      41.394  30.828  34.960  1.00  0.00    -0.354 N 
ATOM     55  N   UNL A   1      39.194  32.158  33.513  1.00  0.00    -0.248 NA
ATOM     56  C   UNL A   1      37.537  33.804  33.411  1.00  0.00     0.031 C 
ATOM     57  C   UNL A   1      41.973  31.626  36.950  1.00  0.00     0.029 A 
ATOM     58  C   UNL A   1      41.101  31.812  35.888  1.00  0.00     0.049 A 
ATOM     59  H   UNL A   1      40.927  30.704  34.102  1.00  0.00     0.167 HD
ATOM     60  C   UNL A   1      39.251  32.932  34.666  1.00  0.00     0.074 A 
ATOM     61  C   UNL A   1      38.222  33.945  34.538  1.00  0.00     0.031 C 
ATOM     62  C   UNL A   1      40.079  32.817  35.734  1.00  0.00     0.037 A 
BRANCH  49  63
ATOM     63  C   UNL A   1      44.118  28.141  35.323  1.00  0.00     0.058 A 
ATOM     64  C   UNL A   1      43.857  27.036  36.150  1.00  0.00     0.135 A 
ATOM     65  C   UNL A   1      45.459  28.504  35.118  1.00  0.00     0.135 A 
ATOM     66  F   UNL A   1      42.590  26.659  36.393  1.00  0.00    -0.206 F 
ATOM     67  C   UNL A   1      44.880  26.350  36.794  1.00  0.00     0.059 A 
ATOM     68  C   UNL A   1      46.501  27.813  35.731  1.00  0.00     0.059 A 
ATOM     69  F   UNL A   1      45.766  29.551  34.338  1.00  0.00    -0.206 F 
ATOM     70  C   UNL A   1      46.199  26.753  36.586  1.00  0.00     0.060 A 
BRANCH  70  71
ATOM     71  S   UNL A   1      47.517  25.880  37.457  1.00  0.00     0.124 S 
ATOM     72  O   UNL A   1      48.649  26.097  36.561  1.00  0.00    -0.237 OA
ATOM     73  O   UNL A   1      47.574  26.587  38.733  1.00  0.00    -0.237 OA
ATOM     74  O   UNL A   1      47.025  24.508  37.528  1.00  0.00    -0.744 OA
ENDBRANCH  70  71
ENDBRANCH  49  63
BRANCH  50  75
ATOM     75  C   UNL A   1      36.639  32.967  30.748  1.00  0.00     0.058 A 
ATOM     76  C   UNL A   1      35.311  32.800  31.168  1.00  0.00     0.135 A 
ATOM     77  C   UNL A   1      36.884  33.857  29.693  1.00  0.00     0.135 A 
ATOM     78  F   UNL A   1      35.027  31.955  32.171  1.00  0.00    -0.206 F 
ATOM     79  C   UNL A   1      34.262  33.483  30.562  1.00  0.00     0.059 A 
ATOM     80  C   UNL A   1      35.854  34.567  29.082  1.00  0.00     0.059 A 
ATOM     81  F   UNL A   1      38.139  34.064  29.266  1.00  0.00    -0.206 F 
ATOM     82  C   UNL A   1      34.545  34.368  29.521  1.00  0.00     0.060 A 
BRANCH  82  83
ATOM     83  S   UNL A   1      33.184  35.300  28.784  1.00  0.00     0.124 S 
ATOM     84  O   UNL A   1      32.503  34.266  28.014  1.00  0.00    -0.237 OA
ATOM     85  O   UNL A   1      32.475  35.792  29.961  1.00  0.00    -0.237 OA
ATOM     86  O   UNL A   1      33.867  36.326  28.001  1.00  0.00    -0.744 OA
ENDBRANCH  82  83
ENDBRANCH  50  75
BRANCH  62  87
ATOM     87  C   UNL A   1      39.931  33.833  36.830  1.00  0.00     0.058 A 
ATOM     88  C   UNL A   1      40.659  35.032  36.823  1.00  0.00     0.135 A 
ATOM     89  C   UNL A   1      39.012  33.625  37.870  1.00  0.00     0.135 A 
ATOM     90  F   UNL A   1      41.555  35.273  35.853  1.00  0.00    -0.206 F 
ATOM     91  C   UNL A   1      40.496  35.983  37.824  1.00  0.00     0.059 A 
ATOM     92  C   UNL A   1      38.817  34.572  38.868  1.00  0.00     0.059 A 
ATOM     93  F   UNL A   1      38.284  32.497  37.914  1.00  0.00    -0.206 F 
ATOM     94  C   UNL A   1      39.571  35.744  38.843  1.00  0.00     0.060 A 
BRANCH  94  95
ATOM     95  S   UNL A   1      39.341  37.000  40.118  1.00  0.00     0.124 S 
ATOM     96  O   UNL A   1      40.722  37.356  40.431  1.00  0.00    -0.237 OA
ATOM     97  O   UNL A   1      38.567  38.021  39.419  1.00  0.00    -0.237 OA
ATOM     98  O   UNL A   1      38.622  36.287  41.170  1.00  0.00    -0.744 OA
ENDBRANCH  94  95
ENDBRANCH  62  87
ENDBRANCH  36  37
ENDBRANCH  28  31
ENDBRANCH  26  27
ENDBRANCH  25  26
ENDBRANCH   1  25
TORSDOF 18
ENDMDL
