MODEL 1
REMARK VINA RESULT:     -11.8      0.000      0.000
REMARK SMILES O=C1NC[C@@H](CSc2ccnc(C(=O)NCCCCNC(=O)c3ccc(-c4c5nc(c(-c6c(F)cc(S(=O)(=O)[O-])cc6F)c6ccc([nH]6)c(-c6c(F)cc(S(=O)(=O)[O-])cc6F)c6nc(c(-c7c(F)cc(S(=O)(=O)[O-])cc7F)c7ccc4[nH]7)C=C6)C=C5)cc3)c2)O1
REMARK SMILES IDX 17 1 16 2 15 3 13 4 14 5 12 7 8 8 9 9 89 10 10 11 11 12 7 13
REMARK SMILES IDX 6 14 5 15 1 16 2 17 3 18 90 19 4 20 18 22 19 23 20 24 21 25
REMARK SMILES IDX 22 27 23 28 24 29 88 30 25 31 87 32 26 33 27 34 28 35 81 36
REMARK SMILES IDX 29 37 86 38 80 39 82 40 30 41 85 42 79 43 78 44 31 46 65 47
REMARK SMILES IDX 44 48 64 49 45 50 48 51 63 52 83 53 46 54 47 55 62 57 84 58
REMARK SMILES IDX 49 59 32 60 33 61 42 62 34 63 35 64 41 65 43 66 36 67 37 68
REMARK SMILES IDX 38 69 39 70 40 71 66 72 67 73 76 74 68 75 69 76 75 77 77 78
REMARK SMILES IDX 70 79 71 80 72 81 73 82 74 83 50 84 51 85 60 86 52 87 53 88
REMARK SMILES IDX 59 89 61 90 54 91 55 92 56 93 57 94 58 95
REMARK H PARENT 15 6 3 21 20 26 82 45 48 56
REMARK Flexibility Score: inf
ROOT
ATOM      1  C   UNL A   1      40.923  21.244  26.257  1.00  0.00     0.023 C 
ENDROOT
BRANCH   1   2
ATOM      2  C   UNL A   1      41.755  20.453  27.267  1.00  0.00     0.116 C 
BRANCH   2   3
ATOM      3  N   UNL A   1      41.814  19.065  26.856  1.00  0.00    -0.351 N 
ATOM      4  C   UNL A   1      42.659  18.384  26.009  1.00  0.00     0.269 C 
ATOM      5  O   UNL A   1      42.375  17.209  25.766  1.00  0.00    -0.268 OA
ATOM      6  H   UNL A   1      41.116  18.501  27.260  1.00  0.00     0.163 HD
BRANCH   4   7
ATOM      7  C   UNL A   1      43.926  18.978  25.460  1.00  0.00     0.129 A 
ATOM      8  C   UNL A   1      45.282  20.792  24.707  1.00  0.00     0.011 A 
ATOM      9  C   UNL A   1      46.408  20.031  25.001  1.00  0.00     0.035 A 
ATOM     10  C   UNL A   1      44.016  20.243  24.898  1.00  0.00     0.049 A 
ATOM     11  C   UNL A   1      46.229  18.726  25.405  1.00  0.00     0.113 A 
ATOM     12  N   UNL A   1      45.020  18.192  25.646  1.00  0.00    -0.251 NA
BRANCH   8  13
ATOM     13  S   UNL A   1      45.467  22.513  24.292  1.00  0.00    -0.122 SA
BRANCH  13  14
ATOM     14  C   UNL A   1      44.104  23.293  25.236  1.00  0.00     0.122 C 
BRANCH  14  15
ATOM     15  C   UNL A   1      44.480  24.025  26.534  1.00  0.00     0.208 C 
ATOM     16  O   UNL A   1      42.926  23.004  29.444  1.00  0.00    -0.225 OA
ATOM     17  C   UNL A   1      43.693  23.296  28.540  1.00  0.00     0.407 C 
ATOM     18  N   UNL A   1      44.996  22.905  28.470  1.00  0.00    -0.318 N 
ATOM     19  O   UNL A   1      43.379  24.066  27.461  1.00  0.00    -0.443 OA
ATOM     20  C   UNL A   1      45.634  23.429  27.315  1.00  0.00     0.165 C 
ATOM     21  H   UNL A   1      45.439  22.331  29.135  1.00  0.00     0.167 HD
ENDBRANCH  14  15
ENDBRANCH  13  14
ENDBRANCH   8  13
ENDBRANCH   4   7
ENDBRANCH   2   3
ENDBRANCH   1   2
BRANCH   1  22
ATOM     22  C   UNL A   1      39.730  21.968  26.889  1.00  0.00     0.023 C 
BRANCH  22  23
ATOM     23  C   UNL A   1      39.990  23.431  27.231  1.00  0.00     0.116 C 
BRANCH  23  24
ATOM     24  N   UNL A   1      40.545  24.184  26.116  1.00  0.00    -0.352 N 
ATOM     25  C   UNL A   1      40.902  25.509  26.080  1.00  0.00     0.251 C 
ATOM     26  H   UNL A   1      40.683  23.678  25.282  1.00  0.00     0.163 HD
ATOM     27  O   UNL A   1      41.226  26.035  25.021  1.00  0.00    -0.269 OA
BRANCH  25  28
ATOM     28  C   UNL A   1      40.852  26.292  27.330  1.00  0.00     0.039 A 
ATOM     29  C   UNL A   1      41.841  27.246  27.566  1.00  0.00     0.014 A 
ATOM     30  C   UNL A   1      39.798  26.116  28.231  1.00  0.00     0.014 A 
ATOM     31  C   UNL A   1      41.737  28.071  28.686  1.00  0.00     0.010 A 
ATOM     32  C   UNL A   1      39.651  26.996  29.296  1.00  0.00     0.010 A 
ATOM     33  C   UNL A   1      40.623  27.977  29.540  1.00  0.00    -0.014 A 
BRANCH  33  34
ATOM     34  C   UNL A   1      40.467  28.905  30.689  1.00  0.00     0.031 A 
ATOM     35  C   UNL A   1      41.337  28.754  31.906  1.00  0.00     0.074 A 
ATOM     36  C   UNL A   1      39.515  29.857  30.645  1.00  0.00     0.049 A 
ATOM     37  N   UNL A   1      41.348  29.465  33.003  1.00  0.00    -0.248 NA
ATOM     38  C   UNL A   1      42.302  27.642  31.904  1.00  0.00     0.031 C 
ATOM     39  C   UNL A   1      38.570  30.060  29.542  1.00  0.00     0.029 A 
ATOM     40  N   UNL A   1      39.183  30.836  31.546  1.00  0.00    -0.354 N 
ATOM     41  C   UNL A   1      42.313  28.887  33.819  1.00  0.00     0.074 A 
ATOM     42  C   UNL A   1      42.818  27.726  33.122  1.00  0.00     0.031 C 
ATOM     43  C   UNL A   1      37.794  31.120  29.816  1.00  0.00     0.029 A 
ATOM     44  C   UNL A   1      38.154  31.649  31.127  1.00  0.00     0.049 A 
ATOM     45  H   UNL A   1      39.639  30.948  32.412  1.00  0.00     0.167 HD
ATOM     46  C   UNL A   1      42.759  29.304  35.029  1.00  0.00     0.037 A 
ATOM     47  C   UNL A   1      37.569  32.700  31.733  1.00  0.00     0.037 A 
ATOM     48  C   UNL A   1      42.259  30.471  35.709  1.00  0.00     0.049 A 
ATOM     49  C   UNL A   1      38.080  33.141  33.078  1.00  0.00     0.074 A 
ATOM     50  C   UNL A   1      42.680  31.012  36.909  1.00  0.00     0.029 A 
ATOM     51  N   UNL A   1      41.222  31.273  35.250  1.00  0.00    -0.354 N 
ATOM     52  N   UNL A   1      39.049  32.630  33.801  1.00  0.00    -0.248 NA
ATOM     53  C   UNL A   1      37.426  34.308  33.686  1.00  0.00     0.031 C 
ATOM     54  C   UNL A   1      41.861  32.106  37.206  1.00  0.00     0.029 A 
ATOM     55  C   UNL A   1      40.973  32.289  36.158  1.00  0.00     0.049 A 
ATOM     56  H   UNL A   1      40.738  31.139  34.404  1.00  0.00     0.167 HD
ATOM     57  C   UNL A   1      39.138  33.430  34.935  1.00  0.00     0.074 A 
ATOM     58  C   UNL A   1      38.140  34.469  34.791  1.00  0.00     0.031 C 
ATOM     59  C   UNL A   1      39.972  33.316  35.999  1.00  0.00     0.037 A 
BRANCH  46  60
ATOM     60  C   UNL A   1      43.842  28.495  35.692  1.00  0.00     0.058 A 
ATOM     61  C   UNL A   1      43.545  27.457  36.590  1.00  0.00     0.135 A 
ATOM     62  C   UNL A   1      45.194  28.735  35.397  1.00  0.00     0.135 A 
ATOM     63  F   UNL A   1      42.272  27.194  36.924  1.00  0.00    -0.206 F 
ATOM     64  C   UNL A   1      44.549  26.706  37.194  1.00  0.00     0.059 A 
ATOM     65  C   UNL A   1      46.213  27.974  35.964  1.00  0.00     0.059 A 
ATOM     66  F   UNL A   1      45.537  29.716  34.548  1.00  0.00    -0.206 F 
ATOM     67  C   UNL A   1      45.881  26.970  36.872  1.00  0.00     0.060 A 
BRANCH  67  68
ATOM     68  S   UNL A   1      47.168  25.976  37.655  1.00  0.00     0.124 S 
ATOM     69  O   UNL A   1      46.536  24.661  37.695  1.00  0.00    -0.237 OA
ATOM     70  O   UNL A   1      48.279  26.116  36.721  1.00  0.00    -0.237 OA
ATOM     71  O   UNL A   1      47.355  26.621  38.950  1.00  0.00    -0.744 OA
ENDBRANCH  67  68
ENDBRANCH  46  60
BRANCH  47  72
ATOM     72  C   UNL A   1      36.453  33.421  31.062  1.00  0.00     0.058 A 
ATOM     73  C   UNL A   1      36.684  34.230  29.939  1.00  0.00     0.135 A 
ATOM     74  C   UNL A   1      35.131  33.307  31.523  1.00  0.00     0.135 A 
ATOM     75  F   UNL A   1      37.929  34.376  29.462  1.00  0.00    -0.206 F 
ATOM     76  C   UNL A   1      35.650  34.919  29.311  1.00  0.00     0.059 A 
ATOM     77  C   UNL A   1      34.077  33.961  30.893  1.00  0.00     0.059 A 
ATOM     78  F   UNL A   1      34.853  32.530  32.581  1.00  0.00    -0.206 F 
ATOM     79  C   UNL A   1      34.348  34.775  29.794  1.00  0.00     0.060 A 
BRANCH  79  80
ATOM     80  S   UNL A   1      33.009  35.637  28.944  1.00  0.00     0.124 S 
ATOM     81  O   UNL A   1      33.741  36.658  28.204  1.00  0.00    -0.237 OA
ATOM     82  O   UNL A   1      32.417  34.569  28.146  1.00  0.00    -0.237 OA
ATOM     83  O   UNL A   1      32.177  36.126  30.039  1.00  0.00    -0.744 OA
ENDBRANCH  79  80
ENDBRANCH  47  72
BRANCH  59  84
ATOM     84  C   UNL A   1      39.865  34.362  37.077  1.00  0.00     0.058 A 
ATOM     85  C   UNL A   1      40.524  35.598  36.978  1.00  0.00     0.135 A 
ATOM     86  C   UNL A   1      39.063  34.136  38.207  1.00  0.00     0.135 A 
ATOM     87  F   UNL A   1      41.307  35.865  35.921  1.00  0.00    -0.206 F 
ATOM     88  C   UNL A   1      40.420  36.558  37.979  1.00  0.00     0.059 A 
ATOM     89  C   UNL A   1      38.915  35.097  39.203  1.00  0.00     0.059 A 
ATOM     90  F   UNL A   1      38.399  32.978  38.347  1.00  0.00    -0.206 F 
ATOM     91  C   UNL A   1      39.612  36.298  39.088  1.00  0.00     0.060 A 
BRANCH  91  92
ATOM     92  S   UNL A   1      39.474  37.559  40.371  1.00  0.00     0.124 S 
ATOM     93  O   UNL A   1      38.843  36.811  41.452  1.00  0.00    -0.237 OA
ATOM     94  O   UNL A   1      40.867  37.935  40.590  1.00  0.00    -0.237 OA
ATOM     95  O   UNL A   1      38.643  38.588  39.751  1.00  0.00    -0.744 OA
ENDBRANCH  91  92
ENDBRANCH  59  84
ENDBRANCH  33  34
ENDBRANCH  25  28
ENDBRANCH  23  24
ENDBRANCH  22  23
ENDBRANCH   1  22
TORSDOF 17
ENDMDL
MODEL 2
REMARK VINA RESULT:     -11.3      6.581     10.117
REMARK SMILES O=C1NC[C@@H](CSc2ccnc(C(=O)NCCCCNC(=O)c3ccc(-c4c5nc(c(-c6c(F)cc(S(=O)(=O)[O-])cc6F)c6ccc([nH]6)c(-c6c(F)cc(S(=O)(=O)[O-])cc6F)c6nc(c(-c7c(F)cc(S(=O)(=O)[O-])cc7F)c7ccc4[nH]7)C=C6)C=C5)cc3)c2)O1
REMARK SMILES IDX 17 1 16 2 15 3 13 4 14 5 12 7 8 8 9 9 89 10 10 11 11 12 7 13
REMARK SMILES IDX 6 14 5 15 1 16 2 17 3 18 90 19 4 20 18 22 19 23 20 24 21 25
REMARK SMILES IDX 22 27 23 28 24 29 88 30 25 31 87 32 26 33 27 34 28 35 81 36
REMARK SMILES IDX 29 37 86 38 80 39 82 40 30 41 85 42 79 43 78 44 31 46 65 47
REMARK SMILES IDX 44 48 64 49 45 50 48 51 63 52 83 53 46 54 47 55 62 57 84 58
REMARK SMILES IDX 49 59 32 60 33 61 42 62 34 63 35 64 41 65 43 66 36 67 37 68
REMARK SMILES IDX 38 69 39 70 40 71 66 72 67 73 76 74 68 75 69 76 75 77 77 78
REMARK SMILES IDX 70 79 71 80 72 81 73 82 74 83 50 84 51 85 60 86 52 87 53 88
REMARK SMILES IDX 59 89 61 90 54 91 55 92 56 93 57 94 58 95
REMARK H PARENT 15 6 3 21 20 26 82 45 48 56
REMARK Flexibility Score: inf
ROOT
ATOM      1  C   UNL A   1      37.369  21.776  24.464  1.00  0.00     0.023 C 
ENDROOT
BRANCH   1   2
ATOM      2  C   UNL A   1      36.998  22.819  25.520  1.00  0.00     0.116 C 
BRANCH   2   3
ATOM      3  N   UNL A   1      36.151  22.205  26.521  1.00  0.00    -0.351 N 
ATOM      4  C   UNL A   1      34.800  21.939  26.557  1.00  0.00     0.269 C 
ATOM      5  O   UNL A   1      34.346  21.506  27.618  1.00  0.00    -0.268 OA
ATOM      6  H   UNL A   1      36.633  21.924  27.332  1.00  0.00     0.163 HD
BRANCH   4   7
ATOM      7  C   UNL A   1      33.905  22.068  25.356  1.00  0.00     0.129 A 
ATOM      8  C   UNL A   1      32.640  21.191  23.533  1.00  0.00     0.011 A 
ATOM      9  C   UNL A   1      31.863  22.345  23.558  1.00  0.00     0.035 A 
ATOM     10  C   UNL A   1      33.708  21.066  24.417  1.00  0.00     0.049 A 
ATOM     11  C   UNL A   1      32.227  23.360  24.416  1.00  0.00     0.113 A 
ATOM     12  N   UNL A   1      33.219  23.242  25.313  1.00  0.00    -0.251 NA
BRANCH   8  13
ATOM     13  S   UNL A   1      32.138  19.814  22.522  1.00  0.00    -0.122 SA
BRANCH  13  14
ATOM     14  C   UNL A   1      33.166  18.449  23.181  1.00  0.00     0.122 C 
BRANCH  14  15
ATOM     15  C   UNL A   1      32.497  17.479  24.166  1.00  0.00     0.208 C 
ATOM     16  O   UNL A   1      34.399  14.855  25.358  1.00  0.00    -0.225 OA
ATOM     17  C   UNL A   1      33.711  15.849  25.187  1.00  0.00     0.407 C 
ATOM     18  N   UNL A   1      33.507  16.822  26.119  1.00  0.00    -0.318 N 
ATOM     19  O   UNL A   1      33.028  16.146  24.047  1.00  0.00    -0.443 OA
ATOM     20  C   UNL A   1      32.636  17.831  25.633  1.00  0.00     0.165 C 
ATOM     21  H   UNL A   1      33.912  16.824  27.016  1.00  0.00     0.167 HD
ENDBRANCH  14  15
ENDBRANCH  13  14
ENDBRANCH   8  13
ENDBRANCH   4   7
ENDBRANCH   2   3
ENDBRANCH   1   2
BRANCH   1  22
ATOM     22  C   UNL A   1      38.027  20.524  25.054  1.00  0.00     0.023 C 
BRANCH  22  23
ATOM     23  C   UNL A   1      39.286  20.798  25.868  1.00  0.00     0.116 C 
BRANCH  23  24
ATOM     24  N   UNL A   1      40.172  19.647  25.947  1.00  0.00    -0.352 N 
ATOM     25  C   UNL A   1      41.532  19.633  26.131  1.00  0.00     0.251 C 
ATOM     26  H   UNL A   1      39.741  18.765  25.858  1.00  0.00     0.163 HD
ATOM     27  O   UNL A   1      42.160  18.585  26.034  1.00  0.00    -0.269 OA
BRANCH  25  28
ATOM     28  C   UNL A   1      42.224  20.907  26.410  1.00  0.00     0.039 A 
ATOM     29  C   UNL A   1      42.581  21.726  25.339  1.00  0.00     0.014 A 
ATOM     30  C   UNL A   1      42.461  21.308  27.727  1.00  0.00     0.014 A 
ATOM     31  C   UNL A   1      43.128  22.982  25.597  1.00  0.00     0.010 A 
ATOM     32  C   UNL A   1      42.924  22.593  27.981  1.00  0.00     0.010 A 
ATOM     33  C   UNL A   1      43.269  23.441  26.919  1.00  0.00    -0.014 A 
BRANCH  33  34
ATOM     34  C   UNL A   1      43.777  24.808  27.198  1.00  0.00     0.031 A 
ATOM     35  C   UNL A   1      45.232  25.130  26.996  1.00  0.00     0.074 A 
ATOM     36  C   UNL A   1      42.930  25.745  27.668  1.00  0.00     0.049 A 
ATOM     37  N   UNL A   1      45.858  26.263  27.186  1.00  0.00    -0.248 NA
ATOM     38  C   UNL A   1      46.105  24.032  26.550  1.00  0.00     0.031 C 
ATOM     39  C   UNL A   1      41.510  25.531  27.962  1.00  0.00     0.029 A 
ATOM     40  N   UNL A   1      43.135  27.064  27.980  1.00  0.00    -0.354 N 
ATOM     41  C   UNL A   1      47.192  26.012  26.886  1.00  0.00     0.074 A 
ATOM     42  C   UNL A   1      47.299  24.606  26.570  1.00  0.00     0.031 C 
ATOM     43  C   UNL A   1      40.966  26.686  28.374  1.00  0.00     0.029 A 
ATOM     44  C   UNL A   1      42.002  27.713  28.413  1.00  0.00     0.049 A 
ATOM     45  H   UNL A   1      44.012  27.506  27.902  1.00  0.00     0.167 HD
ATOM     46  C   UNL A   1      48.230  26.882  26.850  1.00  0.00     0.037 A 
ATOM     47  C   UNL A   1      41.819  28.992  28.798  1.00  0.00     0.037 A 
ATOM     48  C   UNL A   1      48.110  28.285  27.153  1.00  0.00     0.049 A 
ATOM     49  C   UNL A   1      42.989  29.938  28.753  1.00  0.00     0.074 A 
ATOM     50  C   UNL A   1      49.085  29.264  27.093  1.00  0.00     0.029 A 
ATOM     51  N   UNL A   1      46.944  28.908  27.580  1.00  0.00    -0.354 N 
ATOM     52  N   UNL A   1      44.227  29.702  28.391  1.00  0.00    -0.248 NA
ATOM     53  C   UNL A   1      42.733  31.326  29.158  1.00  0.00     0.031 C 
ATOM     54  C   UNL A   1      48.526  30.466  27.538  1.00  0.00     0.029 A 
ATOM     55  C   UNL A   1      47.184  30.252  27.812  1.00  0.00     0.049 A 
ATOM     56  H   UNL A   1      46.077  28.460  27.699  1.00  0.00     0.167 HD
ATOM     57  C   UNL A   1      44.893  30.919  28.498  1.00  0.00     0.074 A 
ATOM     58  C   UNL A   1      43.913  31.890  28.939  1.00  0.00     0.031 C 
ATOM     59  C   UNL A   1      46.196  31.207  28.253  1.00  0.00     0.037 A 
BRANCH  46  60
ATOM     60  C   UNL A   1      49.582  26.344  26.467  1.00  0.00     0.058 A 
ATOM     61  C   UNL A   1      50.053  26.399  25.144  1.00  0.00     0.135 A 
ATOM     62  C   UNL A   1      50.436  25.799  27.440  1.00  0.00     0.135 A 
ATOM     63  F   UNL A   1      49.274  26.893  24.169  1.00  0.00    -0.206 F 
ATOM     64  C   UNL A   1      51.308  25.909  24.796  1.00  0.00     0.059 A 
ATOM     65  C   UNL A   1      51.709  25.334  27.120  1.00  0.00     0.059 A 
ATOM     66  F   UNL A   1      50.039  25.718  28.719  1.00  0.00    -0.206 F 
ATOM     67  C   UNL A   1      52.130  25.381  25.792  1.00  0.00     0.060 A 
BRANCH  67  68
ATOM     68  S   UNL A   1      53.759  24.763  25.322  1.00  0.00     0.124 S 
ATOM     69  O   UNL A   1      54.053  25.577  24.147  1.00  0.00    -0.237 OA
ATOM     70  O   UNL A   1      54.555  25.054  26.510  1.00  0.00    -0.237 OA
ATOM     71  O   UNL A   1      53.524  23.346  25.061  1.00  0.00    -0.744 OA
ENDBRANCH  67  68
ENDBRANCH  46  60
BRANCH  47  72
ATOM     72  C   UNL A   1      40.474  29.454  29.235  1.00  0.00     0.058 A 
ATOM     73  C   UNL A   1      40.190  29.682  30.590  1.00  0.00     0.135 A 
ATOM     74  C   UNL A   1      39.447  29.686  28.306  1.00  0.00     0.135 A 
ATOM     75  F   UNL A   1      41.135  29.471  31.519  1.00  0.00    -0.206 F 
ATOM     76  C   UNL A   1      38.931  30.102  31.011  1.00  0.00     0.059 A 
ATOM     77  C   UNL A   1      38.191  30.136  28.700  1.00  0.00     0.059 A 
ATOM     78  F   UNL A   1      39.672  29.501  26.996  1.00  0.00    -0.206 F 
ATOM     79  C   UNL A   1      37.938  30.329  30.057  1.00  0.00     0.060 A 
BRANCH  79  80
ATOM     80  S   UNL A   1      36.324  30.917  30.611  1.00  0.00     0.124 S 
ATOM     81  O   UNL A   1      35.972  29.913  31.608  1.00  0.00    -0.237 OA
ATOM     82  O   UNL A   1      36.642  32.245  31.125  1.00  0.00    -0.237 OA
ATOM     83  O   UNL A   1      35.524  30.901  29.390  1.00  0.00    -0.744 OA
ENDBRANCH  79  80
ENDBRANCH  47  72
BRANCH  59  84
ATOM     84  C   UNL A   1      46.631  32.638  28.421  1.00  0.00     0.058 A 
ATOM     85  C   UNL A   1      47.156  33.115  29.633  1.00  0.00     0.135 A 
ATOM     86  C   UNL A   1      46.554  33.535  27.343  1.00  0.00     0.135 A 
ATOM     87  F   UNL A   1      47.249  32.302  30.697  1.00  0.00    -0.206 F 
ATOM     88  C   UNL A   1      47.555  34.440  29.780  1.00  0.00     0.059 A 
ATOM     89  C   UNL A   1      46.981  34.854  27.457  1.00  0.00     0.059 A 
ATOM     90  F   UNL A   1      46.073  33.129  26.157  1.00  0.00    -0.206 F 
ATOM     91  C   UNL A   1      47.464  35.302  28.685  1.00  0.00     0.060 A 
BRANCH  91  92
ATOM     92  S   UNL A   1      47.999  37.013  28.886  1.00  0.00     0.124 S 
ATOM     93  O   UNL A   1      48.871  37.186  27.729  1.00  0.00    -0.237 OA
ATOM     94  O   UNL A   1      46.736  37.742  28.842  1.00  0.00    -0.237 OA
ATOM     95  O   UNL A   1      48.670  37.011  30.183  1.00  0.00    -0.744 OA
ENDBRANCH  91  92
ENDBRANCH  59  84
ENDBRANCH  33  34
ENDBRANCH  25  28
ENDBRANCH  23  24
ENDBRANCH  22  23
ENDBRANCH   1  22
TORSDOF 17
ENDMDL
MODEL 3
REMARK VINA RESULT:     -11.3      5.912     11.835
REMARK SMILES O=C1NC[C@@H](CSc2ccnc(C(=O)NCCCCNC(=O)c3ccc(-c4c5nc(c(-c6c(F)cc(S(=O)(=O)[O-])cc6F)c6ccc([nH]6)c(-c6c(F)cc(S(=O)(=O)[O-])cc6F)c6nc(c(-c7c(F)cc(S(=O)(=O)[O-])cc7F)c7ccc4[nH]7)C=C6)C=C5)cc3)c2)O1
REMARK SMILES IDX 17 1 16 2 15 3 13 4 14 5 12 7 8 8 9 9 89 10 10 11 11 12 7 13
REMARK SMILES IDX 6 14 5 15 1 16 2 17 3 18 90 19 4 20 18 22 19 23 20 24 21 25
REMARK SMILES IDX 22 27 23 28 24 29 88 30 25 31 87 32 26 33 27 34 28 35 81 36
REMARK SMILES IDX 29 37 86 38 80 39 82 40 30 41 85 42 79 43 78 44 31 46 65 47
REMARK SMILES IDX 44 48 64 49 45 50 48 51 63 52 83 53 46 54 47 55 62 57 84 58
REMARK SMILES IDX 49 59 32 60 33 61 42 62 34 63 35 64 41 65 43 66 36 67 37 68
REMARK SMILES IDX 38 69 39 70 40 71 66 72 67 73 76 74 68 75 69 76 75 77 77 78
REMARK SMILES IDX 70 79 71 80 72 81 73 82 74 83 50 84 51 85 60 86 52 87 53 88
REMARK SMILES IDX 59 89 61 90 54 91 55 92 56 93 57 94 58 95
REMARK H PARENT 15 6 3 21 20 26 82 45 48 56
REMARK Flexibility Score: inf
ROOT
ATOM      1  C   UNL A   1      31.415  27.971  25.974  1.00  0.00     0.023 C 
ENDROOT
BRANCH   1   2
ATOM      2  C   UNL A   1      30.837  26.746  25.263  1.00  0.00     0.116 C 
BRANCH   2   3
ATOM      3  N   UNL A   1      30.324  25.819  26.250  1.00  0.00    -0.351 N 
ATOM      4  C   UNL A   1      30.377  24.447  26.349  1.00  0.00     0.269 C 
ATOM      5  O   UNL A   1      29.732  23.929  27.263  1.00  0.00    -0.268 OA
ATOM      6  H   UNL A   1      29.844  26.253  26.992  1.00  0.00     0.163 HD
BRANCH   4   7
ATOM      7  C   UNL A   1      31.242  23.592  25.465  1.00  0.00     0.129 A 
ATOM      8  C   UNL A   1      32.656  21.720  25.028  1.00  0.00     0.011 A 
ATOM      9  C   UNL A   1      32.320  21.821  23.682  1.00  0.00     0.035 A 
ATOM     10  C   UNL A   1      32.145  22.648  25.932  1.00  0.00     0.049 A 
ATOM     11  C   UNL A   1      31.544  22.885  23.279  1.00  0.00     0.113 A 
ATOM     12  N   UNL A   1      30.996  23.761  24.138  1.00  0.00    -0.251 NA
BRANCH   8  13
ATOM     13  S   UNL A   1      33.561  20.300  25.605  1.00  0.00    -0.122 SA
BRANCH  13  14
ATOM     14  C   UNL A   1      33.590  19.224  24.122  1.00  0.00     0.122 C 
BRANCH  14  15
ATOM     15  C   UNL A   1      33.015  17.808  24.272  1.00  0.00     0.208 C 
ATOM     16  O   UNL A   1      35.194  15.294  25.198  1.00  0.00    -0.225 OA
ATOM     17  C   UNL A   1      34.301  16.119  25.091  1.00  0.00     0.407 C 
ATOM     18  N   UNL A   1      33.460  16.489  26.097  1.00  0.00    -0.318 N 
ATOM     19  O   UNL A   1      33.991  16.799  23.951  1.00  0.00    -0.443 OA
ATOM     20  C   UNL A   1      32.510  17.445  25.654  1.00  0.00     0.165 C 
ATOM     21  H   UNL A   1      33.505  16.136  27.015  1.00  0.00     0.167 HD
ENDBRANCH  14  15
ENDBRANCH  13  14
ENDBRANCH   8  13
ENDBRANCH   4   7
ENDBRANCH   2   3
ENDBRANCH   1   2
BRANCH   1  22
ATOM     22  C   UNL A   1      32.438  27.616  27.058  1.00  0.00     0.023 C 
BRANCH  22  23
ATOM     23  C   UNL A   1      33.726  28.427  26.999  1.00  0.00     0.116 C 
BRANCH  23  24
ATOM     24  N   UNL A   1      33.558  29.795  27.468  1.00  0.00    -0.352 N 
ATOM     25  C   UNL A   1      34.459  30.577  28.148  1.00  0.00     0.251 C 
ATOM     26  H   UNL A   1      32.688  30.212  27.273  1.00  0.00     0.163 HD
ATOM     27  O   UNL A   1      34.118  31.663  28.600  1.00  0.00    -0.269 OA
BRANCH  25  28
ATOM     28  C   UNL A   1      35.828  30.066  28.353  1.00  0.00     0.039 A 
ATOM     29  C   UNL A   1      36.741  30.144  27.301  1.00  0.00     0.014 A 
ATOM     30  C   UNL A   1      36.217  29.568  29.600  1.00  0.00     0.014 A 
ATOM     31  C   UNL A   1      38.066  29.774  27.521  1.00  0.00     0.010 A 
ATOM     32  C   UNL A   1      37.555  29.283  29.840  1.00  0.00     0.010 A 
ATOM     33  C   UNL A   1      38.493  29.375  28.801  1.00  0.00    -0.014 A 
BRANCH  33  34
ATOM     34  C   UNL A   1      39.919  29.055  29.061  1.00  0.00     0.031 A 
ATOM     35  C   UNL A   1      40.827  30.087  29.670  1.00  0.00     0.074 A 
ATOM     36  C   UNL A   1      40.399  27.846  28.711  1.00  0.00     0.049 A 
ATOM     37  N   UNL A   1      42.096  29.993  29.970  1.00  0.00    -0.248 NA
ATOM     38  C   UNL A   1      40.241  31.408  29.956  1.00  0.00     0.031 C 
ATOM     39  C   UNL A   1      39.628  26.785  28.056  1.00  0.00     0.029 A 
ATOM     40  N   UNL A   1      41.649  27.300  28.858  1.00  0.00    -0.354 N 
ATOM     41  C   UNL A   1      42.459  31.236  30.474  1.00  0.00     0.074 A 
ATOM     42  C   UNL A   1      41.297  32.090  30.376  1.00  0.00     0.031 C 
ATOM     43  C   UNL A   1      40.410  25.707  27.892  1.00  0.00     0.029 A 
ATOM     44  C   UNL A   1      41.747  26.009  28.393  1.00  0.00     0.049 A 
ATOM     45  H   UNL A   1      42.405  27.787  29.259  1.00  0.00     0.167 HD
ATOM     46  C   UNL A   1      43.647  31.623  30.998  1.00  0.00     0.037 A 
ATOM     47  C   UNL A   1      42.797  25.164  28.373  1.00  0.00     0.037 A 
ATOM     48  C   UNL A   1      44.795  30.760  31.105  1.00  0.00     0.049 A 
ATOM     49  C   UNL A   1      44.107  25.619  28.958  1.00  0.00     0.074 A 
ATOM     50  C   UNL A   1      46.027  31.034  31.670  1.00  0.00     0.029 A 
ATOM     51  N   UNL A   1      44.854  29.456  30.631  1.00  0.00    -0.354 N 
ATOM     52  N   UNL A   1      44.410  26.773  29.503  1.00  0.00    -0.248 NA
ATOM     53  C   UNL A   1      45.213  24.654  28.935  1.00  0.00     0.031 C 
ATOM     54  C   UNL A   1      46.850  29.919  31.486  1.00  0.00     0.029 A 
ATOM     55  C   UNL A   1      46.111  28.923  30.867  1.00  0.00     0.049 A 
ATOM     56  H   UNL A   1      44.112  28.981  30.193  1.00  0.00     0.167 HD
ATOM     57  C   UNL A   1      45.735  26.663  29.913  1.00  0.00     0.074 A 
ATOM     58  C   UNL A   1      46.165  25.323  29.571  1.00  0.00     0.031 C 
ATOM     59  C   UNL A   1      46.524  27.586  30.518  1.00  0.00     0.037 A 
BRANCH  46  60
ATOM     60  C   UNL A   1      43.764  33.038  31.499  1.00  0.00     0.058 A 
ATOM     61  C   UNL A   1      44.240  34.075  30.679  1.00  0.00     0.135 A 
ATOM     62  C   UNL A   1      43.359  33.371  32.802  1.00  0.00     0.135 A 
ATOM     63  F   UNL A   1      44.658  33.814  29.430  1.00  0.00    -0.206 F 
ATOM     64  C   UNL A   1      44.337  35.384  31.142  1.00  0.00     0.059 A 
ATOM     65  C   UNL A   1      43.416  34.679  33.275  1.00  0.00     0.059 A 
ATOM     66  F   UNL A   1      42.898  32.421  33.630  1.00  0.00    -0.206 F 
ATOM     67  C   UNL A   1      43.920  35.677  32.441  1.00  0.00     0.060 A 
BRANCH  67  68
ATOM     68  S   UNL A   1      44.041  37.382  33.018  1.00  0.00     0.124 S 
ATOM     69  O   UNL A   1      43.823  38.125  31.781  1.00  0.00    -0.237 OA
ATOM     70  O   UNL A   1      42.964  37.455  33.999  1.00  0.00    -0.237 OA
ATOM     71  O   UNL A   1      45.391  37.461  33.567  1.00  0.00    -0.744 OA
ENDBRANCH  67  68
ENDBRANCH  46  60
BRANCH  47  72
ATOM     72  C   UNL A   1      42.644  23.798  27.801  1.00  0.00     0.058 A 
ATOM     73  C   UNL A   1      42.645  23.588  26.414  1.00  0.00     0.135 A 
ATOM     74  C   UNL A   1      42.504  22.674  28.631  1.00  0.00     0.135 A 
ATOM     75  F   UNL A   1      42.772  24.629  25.577  1.00  0.00    -0.206 F 
ATOM     76  C   UNL A   1      42.490  22.317  25.868  1.00  0.00     0.059 A 
ATOM     77  C   UNL A   1      42.378  21.390  28.109  1.00  0.00     0.059 A 
ATOM     78  F   UNL A   1      42.515  22.818  29.965  1.00  0.00    -0.206 F 
ATOM     79  C   UNL A   1      42.360  21.223  26.726  1.00  0.00     0.060 A 
BRANCH  79  80
ATOM     80  S   UNL A   1      42.205  19.574  26.007  1.00  0.00     0.124 S 
ATOM     81  O   UNL A   1      42.588  18.727  27.130  1.00  0.00    -0.237 OA
ATOM     82  O   UNL A   1      40.796  19.537  25.628  1.00  0.00    -0.237 OA
ATOM     83  O   UNL A   1      43.145  19.606  24.891  1.00  0.00    -0.744 OA
ENDBRANCH  79  80
ENDBRANCH  47  72
BRANCH  59  84
ATOM     84  C   UNL A   1      47.923  27.167  30.883  1.00  0.00     0.058 A 
ATOM     85  C   UNL A   1      48.203  26.473  32.071  1.00  0.00     0.135 A 
ATOM     86  C   UNL A   1      48.993  27.433  30.013  1.00  0.00     0.135 A 
ATOM     87  F   UNL A   1      47.219  26.196  32.941  1.00  0.00    -0.206 F 
ATOM     88  C   UNL A   1      49.500  26.091  32.400  1.00  0.00     0.059 A 
ATOM     89  C   UNL A   1      50.292  27.028  30.305  1.00  0.00     0.059 A 
ATOM     90  F   UNL A   1      48.780  28.081  28.856  1.00  0.00    -0.206 F 
ATOM     91  C   UNL A   1      50.538  26.373  31.510  1.00  0.00     0.060 A 
BRANCH  91  92
ATOM     92  S   UNL A   1      52.211  25.857  31.943  1.00  0.00     0.124 S 
ATOM     93  O   UNL A   1      52.909  26.029  30.674  1.00  0.00    -0.237 OA
ATOM     94  O   UNL A   1      52.567  26.804  32.995  1.00  0.00    -0.237 OA
ATOM     95  O   UNL A   1      52.039  24.475  32.383  1.00  0.00    -0.744 OA
ENDBRANCH  91  92
ENDBRANCH  59  84
ENDBRANCH  33  34
ENDBRANCH  25  28
ENDBRANCH  23  24
ENDBRANCH  22  23
ENDBRANCH   1  22
TORSDOF 17
ENDMDL
