MODEL 1
REMARK VINA RESULT:     -11.5      0.000      0.000
REMARK SMILES CCCc1cc(OC(F)(F)F)cc2c1O[C@H](C(F)(F)F)C(C(=O)NCCCCNC(=O)c1ccc(-c3c4nc(c(-c5c(F)cc(S(=O)(=O)[O-])cc5F)c5ccc([nH]5)c(-c5c(F)cc(S(=O)(=O)[O-])cc5F)c5nc(c(-c6c(F)cc(S(=O)(=O)[O-])cc6F)c6ccc3[nH]6)C=C5)C=C4)cc1)=C2
REMARK SMILES IDX 27 1 26 2 25 3 24 4 22 5 23 6 21 8 4 9 5 10 14 11 6 12 13 13
REMARK SMILES IDX 15 14 12 15 98 16 16 17 3 18 2 19 1 20 7 21 8 22 9 23 10 24
REMARK SMILES IDX 11 25 17 26 18 27 19 28 20 29 28 30 29 31 30 32 31 34 32 35
REMARK SMILES IDX 33 36 97 37 34 38 96 39 35 40 36 41 37 42 90 43 38 44 95 45
REMARK SMILES IDX 89 46 91 47 39 48 94 49 88 50 87 51 40 53 74 54 53 55 73 56
REMARK SMILES IDX 54 57 57 58 72 59 92 60 55 61 56 62 71 64 93 65 58 66 41 67
REMARK SMILES IDX 42 68 51 69 43 70 44 71 50 72 52 73 45 74 46 75 47 76 48 77
REMARK SMILES IDX 49 78 75 79 76 80 85 81 77 82 78 83 84 84 86 85 79 86 80 87
REMARK SMILES IDX 81 88 82 89 83 90 59 91 60 92 69 93 61 94 62 95 68 96 70 97
REMARK SMILES IDX 63 98 64 99 65 100 66 101 67 102
REMARK H PARENT 24 7 29 33 91 52 57 63
REMARK Flexibility Score: inf
ROOT
ATOM      1  C   UNL A   1      35.671  23.601  26.054  1.00  0.00     0.023 C 
ENDROOT
BRANCH   1   2
ATOM      2  C   UNL A   1      34.956  22.255  25.905  1.00  0.00     0.023 C 
BRANCH   2   3
ATOM      3  C   UNL A   1      33.637  22.326  25.133  1.00  0.00     0.116 C 
BRANCH   3   4
ATOM      4  N   UNL A   1      33.875  22.474  23.712  1.00  0.00    -0.352 N 
ATOM      5  C   UNL A   1      33.652  23.490  22.844  1.00  0.00     0.251 C 
ATOM      6  O   UNL A   1      34.028  23.330  21.682  1.00  0.00    -0.270 OA
ATOM      7  H   UNL A   1      34.278  21.678  23.294  1.00  0.00     0.163 HD
BRANCH   5   8
ATOM      8  C   UNL A   1      33.066  24.808  23.235  1.00  0.00     0.067 C 
ATOM      9  C   UNL A   1      31.204  28.579  23.514  1.00  0.00    -0.002 A 
ATOM     10  C   UNL A   1      31.761  29.535  24.393  1.00  0.00     0.054 A 
ATOM     11  C   UNL A   1      31.829  27.327  23.407  1.00  0.00     0.131 A 
ATOM     12  C   UNL A   1      32.889  29.244  25.163  1.00  0.00     0.130 A 
ATOM     13  C   UNL A   1      32.940  27.017  24.197  1.00  0.00     0.021 A 
ATOM     14  O   UNL A   1      31.377  26.454  22.453  1.00  0.00    -0.475 OA
ATOM     15  C   UNL A   1      33.460  27.974  25.073  1.00  0.00     0.058 A 
ATOM     16  C   UNL A   1      33.615  25.735  24.033  1.00  0.00     0.025 C 
ATOM     17  C   UNL A   1      31.680  25.045  22.659  1.00  0.00     0.314 C 
BRANCH   9  18
ATOM     18  C   UNL A   1      30.001  28.984  22.685  1.00  0.00     0.039 C 
BRANCH  18  19
ATOM     19  C   UNL A   1      29.280  30.288  23.053  1.00  0.00     0.001 C 
ATOM     20  C   UNL A   1      27.767  30.150  23.155  1.00  0.00     0.004 C 
ENDBRANCH  18  19
ENDBRANCH   9  18
BRANCH  12  21
ATOM     21  O   UNL A   1      33.535  30.089  26.018  1.00  0.00    -0.406 OA
BRANCH  21  22
ATOM     22  C   UNL A   1      33.407  29.857  27.409  1.00  0.00     0.573 C 
ATOM     23  F   UNL A   1      32.191  29.356  27.715  1.00  0.00    -0.132 F 
ATOM     24  F   UNL A   1      34.366  29.014  27.851  1.00  0.00    -0.132 F 
ATOM     25  F   UNL A   1      33.550  31.033  28.061  1.00  0.00    -0.132 F 
ENDBRANCH  21  22
ENDBRANCH  12  21
BRANCH  17  26
ATOM     26  C   UNL A   1      30.566  24.380  23.496  1.00  0.00     0.429 C 
ATOM     27  F   UNL A   1      29.403  25.064  23.489  1.00  0.00    -0.167 F 
ATOM     28  F   UNL A   1      30.286  23.127  23.061  1.00  0.00    -0.167 F 
ATOM     29  F   UNL A   1      30.941  24.271  24.797  1.00  0.00    -0.167 F 
ENDBRANCH  17  26
ENDBRANCH   5   8
ENDBRANCH   3   4
ENDBRANCH   2   3
ENDBRANCH   1   2
BRANCH   1  30
ATOM     30  C   UNL A   1      36.857  23.804  25.117  1.00  0.00     0.116 C 
BRANCH  30  31
ATOM     31  N   UNL A   1      37.913  22.821  25.303  1.00  0.00    -0.352 N 
ATOM     32  C   UNL A   1      39.089  22.963  26.001  1.00  0.00     0.251 C 
ATOM     33  H   UNL A   1      37.768  21.946  24.875  1.00  0.00     0.163 HD
ATOM     34  O   UNL A   1      39.931  22.075  25.985  1.00  0.00    -0.269 OA
BRANCH  32  35
ATOM     35  C   UNL A   1      39.338  24.226  26.724  1.00  0.00     0.039 A 
ATOM     36  C   UNL A   1      38.830  24.370  28.017  1.00  0.00     0.014 A 
ATOM     37  C   UNL A   1      40.114  25.235  26.148  1.00  0.00     0.014 A 
ATOM     38  C   UNL A   1      39.159  25.503  28.761  1.00  0.00     0.010 A 
ATOM     39  C   UNL A   1      40.490  26.334  26.911  1.00  0.00     0.010 A 
ATOM     40  C   UNL A   1      40.020  26.476  28.226  1.00  0.00    -0.014 A 
BRANCH  40  41
ATOM     41  C   UNL A   1      40.448  27.646  29.029  1.00  0.00     0.031 A 
ATOM     42  C   UNL A   1      41.761  27.617  29.759  1.00  0.00     0.074 A 
ATOM     43  C   UNL A   1      39.620  28.701  29.158  1.00  0.00     0.049 A 
ATOM     44  N   UNL A   1      42.275  28.504  30.570  1.00  0.00    -0.248 NA
ATOM     45  C   UNL A   1      42.594  26.417  29.576  1.00  0.00     0.031 C 
ATOM     46  C   UNL A   1      38.296  28.818  28.542  1.00  0.00     0.029 A 
ATOM     47  N   UNL A   1      39.763  29.870  29.861  1.00  0.00    -0.354 N 
ATOM     48  C   UNL A   1      43.479  27.966  31.006  1.00  0.00     0.074 A 
ATOM     49  C   UNL A   1      43.597  26.654  30.407  1.00  0.00     0.031 C 
ATOM     50  C   UNL A   1      37.757  30.002  28.881  1.00  0.00     0.029 A 
ATOM     51  C   UNL A   1      38.681  30.711  29.759  1.00  0.00     0.049 A 
ATOM     52  H   UNL A   1      40.565  30.086  30.390  1.00  0.00     0.167 HD
ATOM     53  C   UNL A   1      44.410  28.524  31.815  1.00  0.00     0.037 A 
ATOM     54  C   UNL A   1      38.459  31.919  30.314  1.00  0.00     0.037 A 
ATOM     55  C   UNL A   1      44.300  29.843  32.380  1.00  0.00     0.049 A 
ATOM     56  C   UNL A   1      39.520  32.529  31.188  1.00  0.00     0.074 A 
ATOM     57  C   UNL A   1      45.216  30.525  33.161  1.00  0.00     0.029 A 
ATOM     58  N   UNL A   1      43.206  30.682  32.223  1.00  0.00    -0.354 N 
ATOM     59  N   UNL A   1      40.681  32.032  31.541  1.00  0.00    -0.248 NA
ATOM     60  C   UNL A   1      39.245  33.866  31.733  1.00  0.00     0.031 C 
ATOM     61  C   UNL A   1      44.664  31.765  33.500  1.00  0.00     0.029 A 
ATOM     62  C   UNL A   1      43.419  31.870  32.900  1.00  0.00     0.049 A 
ATOM     63  H   UNL A   1      42.398  30.464  31.705  1.00  0.00     0.167 HD
ATOM     64  C   UNL A   1      41.285  33.003  32.330  1.00  0.00     0.074 A 
ATOM     65  C   UNL A   1      40.366  34.121  32.395  1.00  0.00     0.031 C 
ATOM     66  C   UNL A   1      42.494  32.974  32.945  1.00  0.00     0.037 A 
BRANCH  53  67
ATOM     67  C   UNL A   1      45.634  27.709  32.126  1.00  0.00     0.058 A 
ATOM     68  C   UNL A   1      45.697  26.885  33.260  1.00  0.00     0.135 A 
ATOM     69  C   UNL A   1      46.749  27.737  31.272  1.00  0.00     0.135 A 
ATOM     70  F   UNL A   1      44.665  26.835  34.118  1.00  0.00    -0.206 F 
ATOM     71  C   UNL A   1      46.836  26.143  33.558  1.00  0.00     0.059 A 
ATOM     72  C   UNL A   1      47.889  26.983  31.537  1.00  0.00     0.059 A 
ATOM     73  F   UNL A   1      46.741  28.509  30.175  1.00  0.00    -0.206 F 
ATOM     74  C   UNL A   1      47.929  26.203  32.692  1.00  0.00     0.060 A 
BRANCH  74  75
ATOM     75  S   UNL A   1      49.402  25.240  33.093  1.00  0.00     0.124 S 
ATOM     76  O   UNL A   1      49.925  24.944  31.763  1.00  0.00    -0.237 OA
ATOM     77  O   UNL A   1      50.186  26.180  33.887  1.00  0.00    -0.237 OA
ATOM     78  O   UNL A   1      48.870  24.096  33.827  1.00  0.00    -0.744 OA
ENDBRANCH  74  75
ENDBRANCH  53  67
BRANCH  54  79
ATOM     79  C   UNL A   1      37.192  32.642  30.031  1.00  0.00     0.058 A 
ATOM     80  C   UNL A   1      37.138  33.636  29.042  1.00  0.00     0.135 A 
ATOM     81  C   UNL A   1      36.010  32.344  30.726  1.00  0.00     0.135 A 
ATOM     82  F   UNL A   1      38.245  33.958  28.356  1.00  0.00    -0.206 F 
ATOM     83  C   UNL A   1      35.960  34.318  28.758  1.00  0.00     0.059 A 
ATOM     84  C   UNL A   1      34.814  32.998  30.446  1.00  0.00     0.059 A 
ATOM     85  F   UNL A   1      36.007  31.388  31.668  1.00  0.00    -0.206 F 
ATOM     86  C   UNL A   1      34.802  33.990  29.466  1.00  0.00     0.060 A 
BRANCH  86  87
ATOM     87  S   UNL A   1      33.264  34.843  29.053  1.00  0.00     0.124 S 
ATOM     88  O   UNL A   1      32.585  34.866  30.343  1.00  0.00    -0.237 OA
ATOM     89  O   UNL A   1      33.746  36.130  28.562  1.00  0.00    -0.237 OA
ATOM     90  O   UNL A   1      32.667  33.979  28.038  1.00  0.00    -0.744 OA
ENDBRANCH  86  87
ENDBRANCH  54  79
BRANCH  66  91
ATOM     91  C   UNL A   1      42.903  34.195  33.718  1.00  0.00     0.058 A 
ATOM     92  C   UNL A   1      42.697  34.293  35.101  1.00  0.00     0.135 A 
ATOM     93  C   UNL A   1      43.558  35.255  33.072  1.00  0.00     0.135 A 
ATOM     94  F   UNL A   1      42.068  33.308  35.762  1.00  0.00    -0.206 F 
ATOM     95  C   UNL A   1      43.110  35.410  35.819  1.00  0.00     0.059 A 
ATOM     96  C   UNL A   1      44.001  36.373  33.773  1.00  0.00     0.059 A 
ATOM     97  F   UNL A   1      43.788  35.206  31.751  1.00  0.00    -0.206 F 
ATOM     98  C   UNL A   1      43.763  36.445  35.145  1.00  0.00     0.060 A 
BRANCH  98  99
ATOM     99  S   UNL A   1      44.331  37.873  36.092  1.00  0.00     0.124 S 
ATOM    100  O   UNL A   1      45.751  37.576  36.247  1.00  0.00    -0.237 OA
ATOM    101  O   UNL A   1      44.009  38.987  35.207  1.00  0.00    -0.237 OA
ATOM    102  O   UNL A   1      43.537  37.805  37.316  1.00  0.00    -0.744 OA
ENDBRANCH  98  99
ENDBRANCH  66  91
ENDBRANCH  40  41
ENDBRANCH  32  35
ENDBRANCH  30  31
ENDBRANCH   1  30
TORSDOF 19
ENDMDL
MODEL 2
REMARK VINA RESULT:     -11.3      2.613      3.324
REMARK SMILES CCCc1cc(OC(F)(F)F)cc2c1O[C@H](C(F)(F)F)C(C(=O)NCCCCNC(=O)c1ccc(-c3c4nc(c(-c5c(F)cc(S(=O)(=O)[O-])cc5F)c5ccc([nH]5)c(-c5c(F)cc(S(=O)(=O)[O-])cc5F)c5nc(c(-c6c(F)cc(S(=O)(=O)[O-])cc6F)c6ccc3[nH]6)C=C5)C=C4)cc1)=C2
REMARK SMILES IDX 27 1 26 2 25 3 24 4 22 5 23 6 21 8 4 9 5 10 14 11 6 12 13 13
REMARK SMILES IDX 15 14 12 15 98 16 16 17 3 18 2 19 1 20 7 21 8 22 9 23 10 24
REMARK SMILES IDX 11 25 17 26 18 27 19 28 20 29 28 30 29 31 30 32 31 34 32 35
REMARK SMILES IDX 33 36 97 37 34 38 96 39 35 40 36 41 37 42 90 43 38 44 95 45
REMARK SMILES IDX 89 46 91 47 39 48 94 49 88 50 87 51 40 53 74 54 53 55 73 56
REMARK SMILES IDX 54 57 57 58 72 59 92 60 55 61 56 62 71 64 93 65 58 66 41 67
REMARK SMILES IDX 42 68 51 69 43 70 44 71 50 72 52 73 45 74 46 75 47 76 48 77
REMARK SMILES IDX 49 78 75 79 76 80 85 81 77 82 78 83 84 84 86 85 79 86 80 87
REMARK SMILES IDX 81 88 82 89 83 90 59 91 60 92 69 93 61 94 62 95 68 96 70 97
REMARK SMILES IDX 63 98 64 99 65 100 66 101 67 102
REMARK H PARENT 24 7 29 33 91 52 57 63
REMARK Flexibility Score: inf
ROOT
ATOM      1  C   UNL A   1      37.396  23.291  25.809  1.00  0.00     0.023 C 
ENDROOT
BRANCH   1   2
ATOM      2  C   UNL A   1      36.025  23.319  26.488  1.00  0.00     0.023 C 
BRANCH   2   3
ATOM      3  C   UNL A   1      34.956  22.482  25.782  1.00  0.00     0.116 C 
BRANCH   3   4
ATOM      4  N   UNL A   1      35.153  22.491  24.348  1.00  0.00    -0.352 N 
ATOM      5  C   UNL A   1      34.728  23.325  23.367  1.00  0.00     0.251 C 
ATOM      6  O   UNL A   1      35.124  23.094  22.223  1.00  0.00    -0.270 OA
ATOM      7  H   UNL A   1      35.702  21.743  24.020  1.00  0.00     0.163 HD
BRANCH   5   8
ATOM      8  C   UNL A   1      33.896  24.542  23.608  1.00  0.00     0.067 C 
ATOM      9  C   UNL A   1      31.375  27.916  23.456  1.00  0.00    -0.002 A 
ATOM     10  C   UNL A   1      31.702  29.031  24.259  1.00  0.00     0.054 A 
ATOM     11  C   UNL A   1      32.218  26.795  23.492  1.00  0.00     0.131 A 
ATOM     12  C   UNL A   1      32.821  29.020  25.095  1.00  0.00     0.130 A 
ATOM     13  C   UNL A   1      33.323  26.765  24.349  1.00  0.00     0.021 A 
ATOM     14  O   UNL A   1      31.983  25.775  22.610  1.00  0.00    -0.475 OA
ATOM     15  C   UNL A   1      33.615  27.874  25.148  1.00  0.00     0.058 A 
ATOM     16  C   UNL A   1      34.225  25.619  24.333  1.00  0.00     0.025 C 
ATOM     17  C   UNL A   1      32.522  24.469  22.961  1.00  0.00     0.314 C 
BRANCH   9  18
ATOM     18  C   UNL A   1      30.165  28.019  22.548  1.00  0.00     0.039 C 
BRANCH  18  19
ATOM     19  C   UNL A   1      28.774  27.983  23.196  1.00  0.00     0.001 C 
ATOM     20  C   UNL A   1      28.454  26.673  23.902  1.00  0.00     0.004 C 
ENDBRANCH  18  19
ENDBRANCH   9  18
BRANCH  12  21
ATOM     21  O   UNL A   1      33.258  30.041  25.889  1.00  0.00    -0.406 OA
BRANCH  21  22
ATOM     22  C   UNL A   1      32.495  30.368  27.036  1.00  0.00     0.573 C 
ATOM     23  F   UNL A   1      31.983  29.261  27.618  1.00  0.00    -0.132 F 
ATOM     24  F   UNL A   1      33.239  31.047  27.936  1.00  0.00    -0.132 F 
ATOM     25  F   UNL A   1      31.464  31.158  26.662  1.00  0.00    -0.132 F 
ENDBRANCH  21  22
ENDBRANCH  12  21
BRANCH  17  26
ATOM     26  C   UNL A   1      31.503  23.686  23.816  1.00  0.00     0.429 C 
ATOM     27  F   UNL A   1      31.660  22.347  23.756  1.00  0.00    -0.167 F 
ATOM     28  F   UNL A   1      31.571  24.030  25.126  1.00  0.00    -0.167 F 
ATOM     29  F   UNL A   1      30.233  23.944  23.407  1.00  0.00    -0.167 F 
ENDBRANCH  17  26
ENDBRANCH   5   8
ENDBRANCH   3   4
ENDBRANCH   2   3
ENDBRANCH   1   2
BRANCH   1  30
ATOM     30  C   UNL A   1      38.365  24.372  26.276  1.00  0.00     0.116 C 
BRANCH  30  31
ATOM     31  N   UNL A   1      39.762  23.998  26.125  1.00  0.00    -0.352 N 
ATOM     32  C   UNL A   1      40.864  24.588  26.698  1.00  0.00     0.251 C 
ATOM     33  H   UNL A   1      39.942  23.226  25.539  1.00  0.00     0.163 HD
ATOM     34  O   UNL A   1      41.992  24.221  26.396  1.00  0.00    -0.269 OA
BRANCH  32  35
ATOM     35  C   UNL A   1      40.661  25.705  27.643  1.00  0.00     0.039 A 
ATOM     36  C   UNL A   1      39.625  25.616  28.573  1.00  0.00     0.014 A 
ATOM     37  C   UNL A   1      41.525  26.803  27.641  1.00  0.00     0.014 A 
ATOM     38  C   UNL A   1      39.495  26.602  29.552  1.00  0.00     0.010 A 
ATOM     39  C   UNL A   1      41.433  27.752  28.652  1.00  0.00     0.010 A 
ATOM     40  C   UNL A   1      40.420  27.658  29.619  1.00  0.00    -0.014 A 
BRANCH  40  41
ATOM     41  C   UNL A   1      40.349  28.671  30.700  1.00  0.00     0.031 A 
ATOM     42  C   UNL A   1      41.236  28.545  31.907  1.00  0.00     0.074 A 
ATOM     43  C   UNL A   1      39.436  29.658  30.625  1.00  0.00     0.049 A 
ATOM     44  N   UNL A   1      41.270  29.280  32.986  1.00  0.00    -0.248 NA
ATOM     45  C   UNL A   1      42.191  27.424  31.912  1.00  0.00     0.031 C 
ATOM     46  C   UNL A   1      38.483  29.849  29.529  1.00  0.00     0.029 A 
ATOM     47  N   UNL A   1      39.151  30.680  31.495  1.00  0.00    -0.354 N 
ATOM     48  C   UNL A   1      42.234  28.705  33.806  1.00  0.00     0.074 A 
ATOM     49  C   UNL A   1      42.728  27.532  33.119  1.00  0.00     0.031 C 
ATOM     50  C   UNL A   1      37.731  30.933  29.785  1.00  0.00     0.029 A 
ATOM     51  C   UNL A   1      38.126  31.494  31.073  1.00  0.00     0.049 A 
ATOM     52  H   UNL A   1      39.633  30.817  32.342  1.00  0.00     0.167 HD
ATOM     53  C   UNL A   1      42.681  29.131  35.011  1.00  0.00     0.037 A 
ATOM     54  C   UNL A   1      37.568  32.570  31.660  1.00  0.00     0.037 A 
ATOM     55  C   UNL A   1      42.207  30.317  35.673  1.00  0.00     0.049 A 
ATOM     56  C   UNL A   1      38.099  33.038  32.987  1.00  0.00     0.074 A 
ATOM     57  C   UNL A   1      42.639  30.869  36.866  1.00  0.00     0.029 A 
ATOM     58  N   UNL A   1      41.196  31.139  35.196  1.00  0.00    -0.354 N 
ATOM     59  N   UNL A   1      39.055  32.518  33.720  1.00  0.00    -0.248 NA
ATOM     60  C   UNL A   1      37.484  34.241  33.563  1.00  0.00     0.031 C 
ATOM     61  C   UNL A   1      41.868  32.007  37.125  1.00  0.00     0.029 A 
ATOM     62  C   UNL A   1      40.981  32.186  36.075  1.00  0.00     0.049 A 
ATOM     63  H   UNL A   1      40.704  30.997  34.355  1.00  0.00     0.167 HD
ATOM     64  C   UNL A   1      39.171  33.343  34.832  1.00  0.00     0.074 A 
ATOM     65  C   UNL A   1      38.195  34.402  34.672  1.00  0.00     0.031 C 
ATOM     66  C   UNL A   1      40.010  33.235  35.892  1.00  0.00     0.037 A 
BRANCH  53  67
ATOM     67  C   UNL A   1      43.744  28.308  35.684  1.00  0.00     0.058 A 
ATOM     68  C   UNL A   1      43.416  27.286  36.588  1.00  0.00     0.135 A 
ATOM     69  C   UNL A   1      45.102  28.531  35.409  1.00  0.00     0.135 A 
ATOM     70  F   UNL A   1      42.133  27.043  36.898  1.00  0.00    -0.206 F 
ATOM     71  C   UNL A   1      44.400  26.535  37.224  1.00  0.00     0.059 A 
ATOM     72  C   UNL A   1      46.102  27.775  36.015  1.00  0.00     0.059 A 
ATOM     73  F   UNL A   1      45.470  29.497  34.553  1.00  0.00    -0.206 F 
ATOM     74  C   UNL A   1      45.741  26.791  36.934  1.00  0.00     0.060 A 
BRANCH  74  75
ATOM     75  S   UNL A   1      47.007  25.813  37.771  1.00  0.00     0.124 S 
ATOM     76  O   UNL A   1      47.532  26.781  38.729  1.00  0.00    -0.237 OA
ATOM     77  O   UNL A   1      46.233  24.716  38.341  1.00  0.00    -0.237 OA
ATOM     78  O   UNL A   1      47.916  25.441  36.692  1.00  0.00    -0.744 OA
ENDBRANCH  74  75
ENDBRANCH  53  67
BRANCH  54  79
ATOM     79  C   UNL A   1      36.465  33.296  30.980  1.00  0.00     0.058 A 
ATOM     80  C   UNL A   1      36.724  34.135  29.885  1.00  0.00     0.135 A 
ATOM     81  C   UNL A   1      35.132  33.152  31.394  1.00  0.00     0.135 A 
ATOM     82  F   UNL A   1      37.984  34.306  29.458  1.00  0.00    -0.206 F 
ATOM     83  C   UNL A   1      35.704  34.815  29.231  1.00  0.00     0.059 A 
ATOM     84  C   UNL A   1      34.090  33.807  30.742  1.00  0.00     0.059 A 
ATOM     85  F   UNL A   1      34.831  32.346  32.424  1.00  0.00    -0.206 F 
ATOM     86  C   UNL A   1      34.388  34.644  29.668  1.00  0.00     0.060 A 
BRANCH  86  87
ATOM     87  S   UNL A   1      33.063  35.490  28.778  1.00  0.00     0.124 S 
ATOM     88  O   UNL A   1      32.483  34.398  28.006  1.00  0.00    -0.237 OA
ATOM     89  O   UNL A   1      32.242  36.010  29.867  1.00  0.00    -0.237 OA
ATOM     90  O   UNL A   1      33.776  36.504  28.005  1.00  0.00    -0.744 OA
ENDBRANCH  86  87
ENDBRANCH  54  79
BRANCH  66  91
ATOM     91  C   UNL A   1      39.930  34.303  36.945  1.00  0.00     0.058 A 
ATOM     92  C   UNL A   1      40.657  35.497  36.837  1.00  0.00     0.135 A 
ATOM     93  C   UNL A   1      39.074  34.150  38.046  1.00  0.00     0.135 A 
ATOM     94  F   UNL A   1      41.494  35.687  35.805  1.00  0.00    -0.206 F 
ATOM     95  C   UNL A   1      40.552  36.500  37.795  1.00  0.00     0.059 A 
ATOM     96  C   UNL A   1      38.935  35.148  39.006  1.00  0.00     0.059 A 
ATOM     97  F   UNL A   1      38.350  33.028  38.191  1.00  0.00    -0.206 F 
ATOM     98  C   UNL A   1      39.687  36.315  38.876  1.00  0.00     0.060 A 
BRANCH  98  99
ATOM     99  S   UNL A   1      39.527  37.638  40.094  1.00  0.00     0.124 S 
ATOM    100  O   UNL A   1      39.273  36.882  41.316  1.00  0.00    -0.237 OA
ATOM    101  O   UNL A   1      40.826  38.298  40.015  1.00  0.00    -0.237 OA
ATOM    102  O   UNL A   1      38.402  38.424  39.594  1.00  0.00    -0.744 OA
ENDBRANCH  98  99
ENDBRANCH  66  91
ENDBRANCH  40  41
ENDBRANCH  32  35
ENDBRANCH  30  31
ENDBRANCH   1  30
TORSDOF 19
ENDMDL
MODEL 3
REMARK VINA RESULT:     -11.0      2.925      3.980
REMARK SMILES CCCc1cc(OC(F)(F)F)cc2c1O[C@H](C(F)(F)F)C(C(=O)NCCCCNC(=O)c1ccc(-c3c4nc(c(-c5c(F)cc(S(=O)(=O)[O-])cc5F)c5ccc([nH]5)c(-c5c(F)cc(S(=O)(=O)[O-])cc5F)c5nc(c(-c6c(F)cc(S(=O)(=O)[O-])cc6F)c6ccc3[nH]6)C=C5)C=C4)cc1)=C2
REMARK SMILES IDX 27 1 26 2 25 3 24 4 22 5 23 6 21 8 4 9 5 10 14 11 6 12 13 13
REMARK SMILES IDX 15 14 12 15 98 16 16 17 3 18 2 19 1 20 7 21 8 22 9 23 10 24
REMARK SMILES IDX 11 25 17 26 18 27 19 28 20 29 28 30 29 31 30 32 31 34 32 35
REMARK SMILES IDX 33 36 97 37 34 38 96 39 35 40 36 41 37 42 90 43 38 44 95 45
REMARK SMILES IDX 89 46 91 47 39 48 94 49 88 50 87 51 40 53 74 54 53 55 73 56
REMARK SMILES IDX 54 57 57 58 72 59 92 60 55 61 56 62 71 64 93 65 58 66 41 67
REMARK SMILES IDX 42 68 51 69 43 70 44 71 50 72 52 73 45 74 46 75 47 76 48 77
REMARK SMILES IDX 49 78 75 79 76 80 85 81 77 82 78 83 84 84 86 85 79 86 80 87
REMARK SMILES IDX 81 88 82 89 83 90 59 91 60 92 69 93 61 94 62 95 68 96 70 97
REMARK SMILES IDX 63 98 64 99 65 100 66 101 67 102
REMARK H PARENT 24 7 29 33 91 52 57 63
REMARK Flexibility Score: inf
ROOT
ATOM      1  C   UNL A   1      40.148  22.563  27.493  1.00  0.00     0.023 C 
ENDROOT
BRANCH   1   2
ATOM      2  C   UNL A   1      39.481  22.133  26.184  1.00  0.00     0.023 C 
BRANCH   2   3
ATOM      3  C   UNL A   1      38.133  22.804  25.914  1.00  0.00     0.116 C 
BRANCH   3   4
ATOM      4  N   UNL A   1      37.045  21.857  26.048  1.00  0.00    -0.352 N 
ATOM      5  C   UNL A   1      35.711  21.952  25.828  1.00  0.00     0.251 C 
ATOM      6  O   UNL A   1      35.043  20.929  25.978  1.00  0.00    -0.270 OA
ATOM      7  H   UNL A   1      37.332  20.969  26.363  1.00  0.00     0.163 HD
BRANCH   5   8
ATOM      8  C   UNL A   1      35.033  23.188  25.333  1.00  0.00     0.067 C 
ATOM      9  C   UNL A   1      33.610  26.563  23.248  1.00  0.00    -0.002 A 
ATOM     10  C   UNL A   1      33.299  27.724  23.990  1.00  0.00     0.054 A 
ATOM     11  C   UNL A   1      34.098  25.441  23.935  1.00  0.00     0.131 A 
ATOM     12  C   UNL A   1      33.443  27.759  25.379  1.00  0.00     0.130 A 
ATOM     13  C   UNL A   1      34.214  25.457  25.329  1.00  0.00     0.021 A 
ATOM     14  O   UNL A   1      34.533  24.369  23.204  1.00  0.00    -0.475 OA
ATOM     15  C   UNL A   1      33.883  26.613  26.042  1.00  0.00     0.058 A 
ATOM     16  C   UNL A   1      34.778  24.307  26.025  1.00  0.00     0.025 C 
ATOM     17  C   UNL A   1      34.574  23.083  23.888  1.00  0.00     0.314 C 
BRANCH   9  18
ATOM     18  C   UNL A   1      33.463  26.617  21.740  1.00  0.00     0.039 C 
BRANCH  18  19
ATOM     19  C   UNL A   1      32.249  25.920  21.110  1.00  0.00     0.001 C 
ATOM     20  C   UNL A   1      31.071  25.752  22.058  1.00  0.00     0.004 C 
ENDBRANCH  18  19
ENDBRANCH   9  18
BRANCH  12  21
ATOM     21  O   UNL A   1      33.209  28.825  26.198  1.00  0.00    -0.406 OA
BRANCH  21  22
ATOM     22  C   UNL A   1      31.869  29.103  26.564  1.00  0.00     0.573 C 
ATOM     23  F   UNL A   1      31.251  28.001  27.043  1.00  0.00    -0.132 F 
ATOM     24  F   UNL A   1      31.813  30.088  27.487  1.00  0.00    -0.132 F 
ATOM     25  F   UNL A   1      31.195  29.517  25.467  1.00  0.00    -0.132 F 
ENDBRANCH  21  22
ENDBRANCH  12  21
BRANCH  17  26
ATOM     26  C   UNL A   1      33.216  22.364  23.745  1.00  0.00     0.429 C 
ATOM     27  F   UNL A   1      33.325  21.028  23.588  1.00  0.00    -0.167 F 
ATOM     28  F   UNL A   1      32.419  22.567  24.824  1.00  0.00    -0.167 F 
ATOM     29  F   UNL A   1      32.538  22.825  22.662  1.00  0.00    -0.167 F 
ENDBRANCH  17  26
ENDBRANCH   5   8
ENDBRANCH   3   4
ENDBRANCH   2   3
ENDBRANCH   1   2
BRANCH   1  30
ATOM     30  C   UNL A   1      41.474  23.298  27.325  1.00  0.00     0.116 C 
BRANCH  30  31
ATOM     31  N   UNL A   1      41.524  24.132  26.135  1.00  0.00    -0.352 N 
ATOM     32  C   UNL A   1      41.435  25.502  26.056  1.00  0.00     0.251 C 
ATOM     33  H   UNL A   1      41.636  23.657  25.279  1.00  0.00     0.163 HD
ATOM     34  O   UNL A   1      41.394  26.060  24.968  1.00  0.00    -0.269 OA
BRANCH  32  35
ATOM     35  C   UNL A   1      41.336  26.280  27.307  1.00  0.00     0.039 A 
ATOM     36  C   UNL A   1      42.376  27.151  27.639  1.00  0.00     0.014 A 
ATOM     37  C   UNL A   1      40.199  26.189  28.115  1.00  0.00     0.014 A 
ATOM     38  C   UNL A   1      42.245  27.985  28.750  1.00  0.00     0.010 A 
ATOM     39  C   UNL A   1      40.044  27.062  29.184  1.00  0.00     0.010 A 
ATOM     40  C   UNL A   1      41.063  27.971  29.510  1.00  0.00    -0.014 A 
BRANCH  40  41
ATOM     41  C   UNL A   1      40.870  28.906  30.644  1.00  0.00     0.031 A 
ATOM     42  C   UNL A   1      41.705  28.763  31.885  1.00  0.00     0.074 A 
ATOM     43  C   UNL A   1      39.895  29.833  30.581  1.00  0.00     0.049 A 
ATOM     44  N   UNL A   1      41.636  29.429  33.008  1.00  0.00    -0.248 NA
ATOM     45  C   UNL A   1      42.735  27.711  31.873  1.00  0.00     0.031 C 
ATOM     46  C   UNL A   1      38.984  30.029  29.450  1.00  0.00     0.029 A 
ATOM     47  N   UNL A   1      39.497  30.775  31.494  1.00  0.00    -0.354 N 
ATOM     48  C   UNL A   1      42.596  28.869  33.840  1.00  0.00     0.074 A 
ATOM     49  C   UNL A   1      43.204  27.777  33.111  1.00  0.00     0.031 C 
ATOM     50  C   UNL A   1      38.147  31.041  29.732  1.00  0.00     0.029 A 
ATOM     51  C   UNL A   1      38.440  31.544  31.069  1.00  0.00     0.049 A 
ATOM     52  H   UNL A   1      39.927  30.890  32.373  1.00  0.00     0.167 HD
ATOM     53  C   UNL A   1      42.954  29.246  35.090  1.00  0.00     0.037 A 
ATOM     54  C   UNL A   1      37.780  32.541  31.690  1.00  0.00     0.037 A 
ATOM     55  C   UNL A   1      42.368  30.353  35.797  1.00  0.00     0.049 A 
ATOM     56  C   UNL A   1      38.213  32.958  33.069  1.00  0.00     0.074 A 
ATOM     57  C   UNL A   1      42.702  30.855  37.043  1.00  0.00     0.029 A 
ATOM     58  N   UNL A   1      41.325  31.134  35.318  1.00  0.00    -0.354 N 
ATOM     59  N   UNL A   1      39.166  32.458  33.818  1.00  0.00    -0.248 NA
ATOM     60  C   UNL A   1      37.487  34.078  33.683  1.00  0.00     0.031 C 
ATOM     61  C   UNL A   1      41.842  31.921  37.329  1.00  0.00     0.029 A 
ATOM     62  C   UNL A   1      40.996  32.106  36.247  1.00  0.00     0.049 A 
ATOM     63  H   UNL A   1      40.885  31.013  34.446  1.00  0.00     0.167 HD
ATOM     64  C   UNL A   1      39.170  33.216  34.983  1.00  0.00     0.074 A 
ATOM     65  C   UNL A   1      38.131  34.215  34.835  1.00  0.00     0.031 C 
ATOM     66  C   UNL A   1      39.964  33.097  36.077  1.00  0.00     0.037 A 
BRANCH  53  67
ATOM     67  C   UNL A   1      44.039  28.455  35.767  1.00  0.00     0.058 A 
ATOM     68  C   UNL A   1      45.395  28.775  35.597  1.00  0.00     0.135 A 
ATOM     69  C   UNL A   1      43.719  27.376  36.608  1.00  0.00     0.135 A 
ATOM     70  F   UNL A   1      45.755  29.786  34.791  1.00  0.00    -0.206 F 
ATOM     71  C   UNL A   1      46.399  28.033  36.210  1.00  0.00     0.059 A 
ATOM     72  C   UNL A   1      44.707  26.636  37.251  1.00  0.00     0.059 A 
ATOM     73  F   UNL A   1      42.438  27.027  36.804  1.00  0.00    -0.206 F 
ATOM     74  C   UNL A   1      46.045  26.962  37.032  1.00  0.00     0.060 A 
BRANCH  74  75
ATOM     75  S   UNL A   1      47.359  26.004  37.815  1.00  0.00     0.124 S 
ATOM     76  O   UNL A   1      47.072  26.223  39.229  1.00  0.00    -0.237 OA
ATOM     77  O   UNL A   1      47.104  24.655  37.320  1.00  0.00    -0.237 OA
ATOM     78  O   UNL A   1      48.579  26.631  37.317  1.00  0.00    -0.744 OA
ENDBRANCH  74  75
ENDBRANCH  53  67
BRANCH  54  79
ATOM     79  C   UNL A   1      36.662  33.233  30.998  1.00  0.00     0.058 A 
ATOM     80  C   UNL A   1      36.911  34.105  29.927  1.00  0.00     0.135 A 
ATOM     81  C   UNL A   1      35.327  33.024  31.377  1.00  0.00     0.135 A 
ATOM     82  F   UNL A   1      38.172  34.339  29.534  1.00  0.00    -0.206 F 
ATOM     83  C   UNL A   1      35.877  34.755  29.263  1.00  0.00     0.059 A 
ATOM     84  C   UNL A   1      34.274  33.647  30.714  1.00  0.00     0.059 A 
ATOM     85  F   UNL A   1      35.038  32.184  32.383  1.00  0.00    -0.206 F 
ATOM     86  C   UNL A   1      34.560  34.518  29.663  1.00  0.00     0.060 A 
BRANCH  86  87
ATOM     87  S   UNL A   1      33.221  35.326  28.759  1.00  0.00     0.124 S 
ATOM     88  O   UNL A   1      33.957  36.261  27.917  1.00  0.00    -0.237 OA
ATOM     89  O   UNL A   1      32.593  34.203  28.070  1.00  0.00    -0.237 OA
ATOM     90  O   UNL A   1      32.417  35.926  29.821  1.00  0.00    -0.744 OA
ENDBRANCH  86  87
ENDBRANCH  54  79
BRANCH  66  91
ATOM     91  C   UNL A   1      39.759  34.088  37.186  1.00  0.00     0.058 A 
ATOM     92  C   UNL A   1      38.863  33.841  38.236  1.00  0.00     0.135 A 
ATOM     93  C   UNL A   1      40.509  35.273  37.226  1.00  0.00     0.135 A 
ATOM     94  F   UNL A   1      38.117  32.725  38.239  1.00  0.00    -0.206 F 
ATOM     95  C   UNL A   1      38.703  34.744  39.282  1.00  0.00     0.059 A 
ATOM     96  C   UNL A   1      40.383  36.182  38.272  1.00  0.00     0.059 A 
ATOM     97  F   UNL A   1      41.387  35.552  36.249  1.00  0.00    -0.206 F 
ATOM     98  C   UNL A   1      39.469  35.912  39.291  1.00  0.00     0.060 A 
BRANCH  98  99
ATOM     99  S   UNL A   1      39.283  37.060  40.672  1.00  0.00     0.124 S 
ATOM    100  O   UNL A   1      38.310  38.007  40.137  1.00  0.00    -0.237 OA
ATOM    101  O   UNL A   1      38.801  36.192  41.741  1.00  0.00    -0.237 OA
ATOM    102  O   UNL A   1      40.633  37.584  40.860  1.00  0.00    -0.744 OA
ENDBRANCH  98  99
ENDBRANCH  66  91
ENDBRANCH  40  41
ENDBRANCH  32  35
ENDBRANCH  30  31
ENDBRANCH   1  30
TORSDOF 19
ENDMDL
