MODEL 1
REMARK VINA RESULT:     -12.2      0.000      0.000
REMARK SMILES Cc1ccc(NC(=O)N[C@@H]2C=C[C@@H](C(=O)NCCCCNC(=O)c3ccc(-c4c5nc(c(-c6c(F)cc(S(=O)(=O)[O-])cc6F)c6ccc([nH]6)c(-c6c(F)cc(S(=O)(=O)[O-])cc6F)c6nc(c(-c7c(F)cc(S(=O)(=O)[O-])cc7F)c7ccc4[nH]7)C=C6)C=C5)cc3)C2)c(F)c1
REMARK SMILES IDX 19 1 18 2 17 3 16 4 14 5 15 6 13 8 10 9 11 10 90 11 12 12
REMARK SMILES IDX 9 13 6 14 7 15 8 17 5 19 1 20 2 21 3 22 93 23 4 24 91 25
REMARK SMILES IDX 92 26 20 27 21 28 22 29 23 31 24 32 25 33 89 34 26 35 88 36
REMARK SMILES IDX 27 37 28 38 29 39 82 40 30 41 87 42 81 43 83 44 31 45 86 46
REMARK SMILES IDX 80 47 79 48 32 50 66 51 45 52 65 53 46 54 49 55 64 56 84 57
REMARK SMILES IDX 47 58 48 59 63 61 85 62 50 63 33 64 34 65 43 66 35 67 36 68
REMARK SMILES IDX 42 69 44 70 37 71 38 72 39 73 40 74 41 75 67 76 68 77 77 78
REMARK SMILES IDX 69 79 70 80 76 81 78 82 71 83 72 84 73 85 74 86 75 87 51 88
REMARK SMILES IDX 52 89 61 90 53 91 54 92 60 93 62 94 55 95 56 96 57 97 58 98
REMARK SMILES IDX 59 99
REMARK H PARENT 16 7 6 16 9 18 21 30 83 49 49 60
REMARK Flexibility Score: inf
ROOT
ATOM      1  C   UNL A   1      33.555  27.922  26.095  1.00  0.00     0.023 C 
ENDROOT
BRANCH   1   2
ATOM      2  C   UNL A   1      32.963  26.558  25.729  1.00  0.00     0.023 C 
BRANCH   2   3
ATOM      3  C   UNL A   1      33.890  25.629  24.945  1.00  0.00     0.116 C 
BRANCH   3   4
ATOM      4  N   UNL A   1      33.928  25.945  23.534  1.00  0.00    -0.356 N 
ATOM      5  C   UNL A   1      33.397  25.390  22.421  1.00  0.00     0.227 C 
ATOM      6  O   UNL A   1      33.576  26.040  21.379  1.00  0.00    -0.274 OA
ATOM      7  H   UNL A   1      34.462  26.749  23.339  1.00  0.00     0.163 HD
BRANCH   5   8
ATOM      8  C   UNL A   1      32.556  24.108  22.340  1.00  0.00     0.103 C 
ATOM      9  C   UNL A   1      32.496  22.464  24.147  1.00  0.00     0.107 C 
ATOM     10  C   UNL A   1      31.271  23.316  24.143  1.00  0.00    -0.006 C 
ATOM     11  C   UNL A   1      33.068  22.724  22.740  1.00  0.00     0.047 C 
ATOM     12  C   UNL A   1      31.324  24.249  23.187  1.00  0.00    -0.016 C 
BRANCH   9  13
ATOM     13  N   UNL A   1      32.191  21.078  24.428  1.00  0.00    -0.332 N 
ATOM     14  N   UNL A   1      33.918  20.363  25.908  1.00  0.00    -0.305 N 
ATOM     15  C   UNL A   1      32.791  20.134  25.189  1.00  0.00     0.319 C 
ATOM     16  H   UNL A   1      34.034  19.773  26.687  1.00  0.00     0.171 HD
ATOM     17  O   UNL A   1      32.192  19.067  25.354  1.00  0.00    -0.248 OA
ATOM     18  H   UNL A   1      31.382  20.755  23.971  1.00  0.00     0.165 HD
BRANCH  14  19
ATOM     19  C   UNL A   1      34.944  21.299  25.725  1.00  0.00     0.078 A 
ATOM     20  C   UNL A   1      38.632  23.440  26.022  1.00  0.00     0.044 C 
ATOM     21  C   UNL A   1      37.293  22.817  25.753  1.00  0.00    -0.048 A 
ATOM     22  C   UNL A   1      37.191  21.683  24.938  1.00  0.00     0.006 A 
ATOM     23  C   UNL A   1      36.156  23.275  26.427  1.00  0.00     0.045 A 
ATOM     24  C   UNL A   1      36.002  20.948  24.886  1.00  0.00     0.029 A 
ATOM     25  C   UNL A   1      34.990  22.516  26.406  1.00  0.00     0.147 A 
ATOM     26  F   UNL A   1      33.945  22.926  27.142  1.00  0.00    -0.205 F 
ENDBRANCH  14  19
ENDBRANCH   9  13
ENDBRANCH   5   8
ENDBRANCH   3   4
ENDBRANCH   2   3
ENDBRANCH   1   2
BRANCH   1  27
ATOM     27  C   UNL A   1      33.285  28.394  27.522  1.00  0.00     0.116 C 
BRANCH  27  28
ATOM     28  N   UNL A   1      33.302  29.843  27.651  1.00  0.00    -0.352 N 
ATOM     29  C   UNL A   1      34.315  30.678  28.063  1.00  0.00     0.251 C 
ATOM     30  H   UNL A   1      32.462  30.294  27.407  1.00  0.00     0.163 HD
ATOM     31  O   UNL A   1      34.081  31.870  28.247  1.00  0.00    -0.269 OA
BRANCH  29  32
ATOM     32  C   UNL A   1      35.671  30.142  28.314  1.00  0.00     0.039 A 
ATOM     33  C   UNL A   1      36.590  30.106  27.260  1.00  0.00     0.014 A 
ATOM     34  C   UNL A   1      36.043  29.684  29.580  1.00  0.00     0.014 A 
ATOM     35  C   UNL A   1      37.904  29.693  27.499  1.00  0.00     0.010 A 
ATOM     36  C   UNL A   1      37.371  29.342  29.831  1.00  0.00     0.010 A 
ATOM     37  C   UNL A   1      38.318  29.352  28.796  1.00  0.00    -0.014 A 
BRANCH  37  38
ATOM     38  C   UNL A   1      39.739  29.030  29.095  1.00  0.00     0.031 A 
ATOM     39  C   UNL A   1      40.653  30.076  29.670  1.00  0.00     0.074 A 
ATOM     40  C   UNL A   1      40.228  27.815  28.771  1.00  0.00     0.049 A 
ATOM     41  N   UNL A   1      41.938  30.008  29.912  1.00  0.00    -0.248 NA
ATOM     42  C   UNL A   1      40.051  31.380  29.992  1.00  0.00     0.031 C 
ATOM     43  C   UNL A   1      39.459  26.729  28.155  1.00  0.00     0.029 A 
ATOM     44  N   UNL A   1      41.492  27.293  28.898  1.00  0.00    -0.354 N 
ATOM     45  C   UNL A   1      42.302  31.260  30.392  1.00  0.00     0.074 A 
ATOM     46  C   UNL A   1      41.110  32.083  30.368  1.00  0.00     0.031 C 
ATOM     47  C   UNL A   1      40.263  25.669  27.974  1.00  0.00     0.029 A 
ATOM     48  C   UNL A   1      41.609  26.006  28.424  1.00  0.00     0.049 A 
ATOM     49  H   UNL A   1      42.243  27.792  29.292  1.00  0.00     0.167 HD
ATOM     50  C   UNL A   1      43.511  31.681  30.833  1.00  0.00     0.037 A 
ATOM     51  C   UNL A   1      42.680  25.192  28.352  1.00  0.00     0.037 A 
ATOM     52  C   UNL A   1      44.687  30.851  30.888  1.00  0.00     0.049 A 
ATOM     53  C   UNL A   1      44.008  25.675  28.867  1.00  0.00     0.074 A 
ATOM     54  C   UNL A   1      45.941  31.167  31.383  1.00  0.00     0.029 A 
ATOM     55  N   UNL A   1      44.755  29.541  30.435  1.00  0.00    -0.354 N 
ATOM     56  N   UNL A   1      44.318  26.842  29.378  1.00  0.00    -0.248 NA
ATOM     57  C   UNL A   1      45.131  24.729  28.804  1.00  0.00     0.031 C 
ATOM     58  C   UNL A   1      46.777  30.062  31.195  1.00  0.00     0.029 A 
ATOM     59  C   UNL A   1      46.034  29.042  30.624  1.00  0.00     0.049 A 
ATOM     60  H   UNL A   1      44.006  29.042  30.038  1.00  0.00     0.167 HD
ATOM     61  C   UNL A   1      45.663  26.763  29.719  1.00  0.00     0.074 A 
ATOM     62  C   UNL A   1      46.106  25.430  29.366  1.00  0.00     0.031 C 
ATOM     63  C   UNL A   1      46.460  27.709  30.274  1.00  0.00     0.037 A 
BRANCH  50  64
ATOM     64  C   UNL A   1      43.626  33.106  31.300  1.00  0.00     0.058 A 
ATOM     65  C   UNL A   1      43.412  33.460  32.642  1.00  0.00     0.135 A 
ATOM     66  C   UNL A   1      43.991  34.124  30.405  1.00  0.00     0.135 A 
ATOM     67  F   UNL A   1      43.047  32.529  33.536  1.00  0.00    -0.206 F 
ATOM     68  C   UNL A   1      43.526  34.777  33.074  1.00  0.00     0.059 A 
ATOM     69  C   UNL A   1      44.137  35.445  30.820  1.00  0.00     0.059 A 
ATOM     70  F   UNL A   1      44.208  33.841  29.110  1.00  0.00    -0.206 F 
ATOM     71  C   UNL A   1      43.888  35.764  32.154  1.00  0.00     0.060 A 
BRANCH  71  72
ATOM     72  S   UNL A   1      44.033  37.468  32.730  1.00  0.00     0.124 S 
ATOM     73  O   UNL A   1      43.819  38.212  31.492  1.00  0.00    -0.237 OA
ATOM     74  O   UNL A   1      42.961  37.558  33.716  1.00  0.00    -0.237 OA
ATOM     75  O   UNL A   1      45.386  37.530  33.274  1.00  0.00    -0.744 OA
ENDBRANCH  71  72
ENDBRANCH  50  64
BRANCH  51  76
ATOM     76  C   UNL A   1      42.534  23.825  27.786  1.00  0.00     0.058 A 
ATOM     77  C   UNL A   1      42.467  22.702  28.624  1.00  0.00     0.135 A 
ATOM     78  C   UNL A   1      42.439  23.616  26.402  1.00  0.00     0.135 A 
ATOM     79  F   UNL A   1      42.561  22.853  29.954  1.00  0.00    -0.206 F 
ATOM     80  C   UNL A   1      42.324  21.417  28.111  1.00  0.00     0.059 A 
ATOM     81  C   UNL A   1      42.272  22.343  25.866  1.00  0.00     0.059 A 
ATOM     82  F   UNL A   1      42.480  24.659  25.559  1.00  0.00    -0.206 F 
ATOM     83  C   UNL A   1      42.225  21.248  26.730  1.00  0.00     0.060 A 
BRANCH  83  84
ATOM     84  S   UNL A   1      41.982  19.581  26.075  1.00  0.00     0.124 S 
ATOM     85  O   UNL A   1      42.857  19.594  24.909  1.00  0.00    -0.237 OA
ATOM     86  O   UNL A   1      42.417  18.747  27.191  1.00  0.00    -0.237 OA
ATOM     87  O   UNL A   1      40.551  19.539  25.792  1.00  0.00    -0.744 OA
ENDBRANCH  83  84
ENDBRANCH  51  76
BRANCH  63  88
ATOM     88  C   UNL A   1      47.885  27.331  30.566  1.00  0.00     0.058 A 
ATOM     89  C   UNL A   1      48.233  26.604  31.714  1.00  0.00     0.135 A 
ATOM     90  C   UNL A   1      48.907  27.656  29.659  1.00  0.00     0.135 A 
ATOM     91  F   UNL A   1      47.295  26.274  32.616  1.00  0.00    -0.206 F 
ATOM     92  C   UNL A   1      49.549  26.228  31.964  1.00  0.00     0.059 A 
ATOM     93  C   UNL A   1      50.226  27.270  29.877  1.00  0.00     0.059 A 
ATOM     94  F   UNL A   1      48.625  28.343  28.541  1.00  0.00    -0.206 F 
ATOM     95  C   UNL A   1      50.539  26.566  31.039  1.00  0.00     0.060 A 
BRANCH  95  96
ATOM     96  S   UNL A   1      52.238  26.042  31.354  1.00  0.00     0.124 S 
ATOM     97  O   UNL A   1      52.712  27.103  32.235  1.00  0.00    -0.237 OA
ATOM     98  O   UNL A   1      52.053  24.734  31.978  1.00  0.00    -0.237 OA
ATOM     99  O   UNL A   1      52.838  26.014  30.024  1.00  0.00    -0.744 OA
ENDBRANCH  95  96
ENDBRANCH  63  88
ENDBRANCH  37  38
ENDBRANCH  29  32
ENDBRANCH  27  28
ENDBRANCH   1  27
TORSDOF 16
ENDMDL
MODEL 2
REMARK VINA RESULT:     -12.1      1.693      3.416
REMARK SMILES Cc1ccc(NC(=O)N[C@@H]2C=C[C@@H](C(=O)NCCCCNC(=O)c3ccc(-c4c5nc(c(-c6c(F)cc(S(=O)(=O)[O-])cc6F)c6ccc([nH]6)c(-c6c(F)cc(S(=O)(=O)[O-])cc6F)c6nc(c(-c7c(F)cc(S(=O)(=O)[O-])cc7F)c7ccc4[nH]7)C=C6)C=C5)cc3)C2)c(F)c1
REMARK SMILES IDX 19 1 18 2 17 3 16 4 14 5 15 6 13 8 10 9 11 10 90 11 12 12
REMARK SMILES IDX 9 13 6 14 7 15 8 17 5 19 1 20 2 21 3 22 93 23 4 24 91 25
REMARK SMILES IDX 92 26 20 27 21 28 22 29 23 31 24 32 25 33 89 34 26 35 88 36
REMARK SMILES IDX 27 37 28 38 29 39 82 40 30 41 87 42 81 43 83 44 31 45 86 46
REMARK SMILES IDX 80 47 79 48 32 50 66 51 45 52 65 53 46 54 49 55 64 56 84 57
REMARK SMILES IDX 47 58 48 59 63 61 85 62 50 63 33 64 34 65 43 66 35 67 36 68
REMARK SMILES IDX 42 69 44 70 37 71 38 72 39 73 40 74 41 75 67 76 68 77 77 78
REMARK SMILES IDX 69 79 70 80 76 81 78 82 71 83 72 84 73 85 74 86 75 87 51 88
REMARK SMILES IDX 52 89 61 90 53 91 54 92 60 93 62 94 55 95 56 96 57 97 58 98
REMARK SMILES IDX 59 99
REMARK H PARENT 16 7 6 16 9 18 21 30 83 49 49 60
REMARK Flexibility Score: inf
ROOT
ATOM      1  C   UNL A   1      32.196  27.925  27.283  1.00  0.00     0.023 C 
ENDROOT
BRANCH   1   2
ATOM      2  C   UNL A   1      32.054  26.642  26.460  1.00  0.00     0.023 C 
BRANCH   2   3
ATOM      3  C   UNL A   1      30.627  26.280  26.051  1.00  0.00     0.116 C 
BRANCH   3   4
ATOM      4  N   UNL A   1      30.158  25.068  26.690  1.00  0.00    -0.356 N 
ATOM      5  C   UNL A   1      30.288  23.747  26.432  1.00  0.00     0.227 C 
ATOM      6  O   UNL A   1      29.816  22.999  27.302  1.00  0.00    -0.274 OA
ATOM      7  H   UNL A   1      29.622  25.247  27.495  1.00  0.00     0.163 HD
BRANCH   5   8
ATOM      8  C   UNL A   1      31.011  23.106  25.239  1.00  0.00     0.103 C 
ATOM      9  C   UNL A   1      31.958  24.428  23.416  1.00  0.00     0.107 C 
ATOM     10  C   UNL A   1      33.016  23.960  24.359  1.00  0.00    -0.006 C 
ATOM     11  C   UNL A   1      30.777  23.509  23.783  1.00  0.00     0.047 C 
ATOM     12  C   UNL A   1      32.495  23.279  25.384  1.00  0.00    -0.016 C 
BRANCH   9  13
ATOM     13  N   UNL A   1      32.384  24.341  22.036  1.00  0.00    -0.332 N 
ATOM     14  N   UNL A   1      32.814  26.595  21.388  1.00  0.00    -0.305 N 
ATOM     15  C   UNL A   1      32.763  25.265  21.124  1.00  0.00     0.319 C 
ATOM     16  H   UNL A   1      33.443  27.100  20.825  1.00  0.00     0.171 HD
ATOM     17  O   UNL A   1      33.229  24.858  20.056  1.00  0.00    -0.248 OA
ATOM     18  H   UNL A   1      32.402  23.421  21.689  1.00  0.00     0.165 HD
BRANCH  14  19
ATOM     19  C   UNL A   1      32.121  27.366  22.330  1.00  0.00     0.078 A 
ATOM     20  C   UNL A   1      29.928  30.502  24.234  1.00  0.00     0.044 C 
ATOM     21  C   UNL A   1      30.662  29.289  23.744  1.00  0.00    -0.048 A 
ATOM     22  C   UNL A   1      30.003  28.330  22.964  1.00  0.00     0.006 A 
ATOM     23  C   UNL A   1      32.043  29.175  23.938  1.00  0.00     0.045 A 
ATOM     24  C   UNL A   1      30.726  27.339  22.293  1.00  0.00     0.029 A 
ATOM     25  C   UNL A   1      32.761  28.215  23.234  1.00  0.00     0.147 A 
ATOM     26  F   UNL A   1      34.097  28.193  23.362  1.00  0.00    -0.205 F 
ENDBRANCH  14  19
ENDBRANCH   9  13
ENDBRANCH   5   8
ENDBRANCH   3   4
ENDBRANCH   2   3
ENDBRANCH   1   2
BRANCH   1  27
ATOM     27  C   UNL A   1      33.567  28.595  27.227  1.00  0.00     0.116 C 
BRANCH  27  28
ATOM     28  N   UNL A   1      33.536  29.987  27.649  1.00  0.00    -0.352 N 
ATOM     29  C   UNL A   1      34.504  30.739  28.273  1.00  0.00     0.251 C 
ATOM     30  H   UNL A   1      32.695  30.463  27.459  1.00  0.00     0.163 HD
ATOM     31  O   UNL A   1      34.227  31.864  28.683  1.00  0.00    -0.269 OA
BRANCH  29  32
ATOM     32  C   UNL A   1      35.862  30.190  28.479  1.00  0.00     0.039 A 
ATOM     33  C   UNL A   1      36.759  30.182  27.405  1.00  0.00     0.014 A 
ATOM     34  C   UNL A   1      36.257  29.690  29.722  1.00  0.00     0.014 A 
ATOM     35  C   UNL A   1      38.075  29.756  27.604  1.00  0.00     0.010 A 
ATOM     36  C   UNL A   1      37.588  29.334  29.935  1.00  0.00     0.010 A 
ATOM     37  C   UNL A   1      38.514  29.371  28.881  1.00  0.00    -0.014 A 
BRANCH  37  38
ATOM     38  C   UNL A   1      39.939  29.033  29.141  1.00  0.00     0.031 A 
ATOM     39  C   UNL A   1      40.881  30.070  29.688  1.00  0.00     0.074 A 
ATOM     40  C   UNL A   1      40.404  27.813  28.805  1.00  0.00     0.049 A 
ATOM     41  N   UNL A   1      42.171  29.988  29.893  1.00  0.00    -0.248 NA
ATOM     42  C   UNL A   1      40.303  31.381  30.024  1.00  0.00     0.031 C 
ATOM     43  C   UNL A   1      39.606  26.736  28.212  1.00  0.00     0.029 A 
ATOM     44  N   UNL A   1      41.665  27.276  28.897  1.00  0.00    -0.354 N 
ATOM     45  C   UNL A   1      42.563  31.236  30.362  1.00  0.00     0.074 A 
ATOM     46  C   UNL A   1      41.381  32.072  30.369  1.00  0.00     0.031 C 
ATOM     47  C   UNL A   1      40.392  25.665  28.010  1.00  0.00     0.029 A 
ATOM     48  C   UNL A   1      41.754  25.988  28.422  1.00  0.00     0.049 A 
ATOM     49  H   UNL A   1      42.433  27.767  29.269  1.00  0.00     0.167 HD
ATOM     50  C   UNL A   1      43.789  31.643  30.768  1.00  0.00     0.037 A 
ATOM     51  C   UNL A   1      42.814  25.161  28.321  1.00  0.00     0.037 A 
ATOM     52  C   UNL A   1      44.956  30.799  30.790  1.00  0.00     0.049 A 
ATOM     53  C   UNL A   1      44.161  25.629  28.797  1.00  0.00     0.074 A 
ATOM     54  C   UNL A   1      46.227  31.102  31.250  1.00  0.00     0.029 A 
ATOM     55  N   UNL A   1      44.996  29.489  30.338  1.00  0.00    -0.354 N 
ATOM     56  N   UNL A   1      44.499  26.794  29.298  1.00  0.00    -0.248 NA
ATOM     57  C   UNL A   1      45.271  24.670  28.704  1.00  0.00     0.031 C 
ATOM     58  C   UNL A   1      47.045  29.986  31.040  1.00  0.00     0.029 A 
ATOM     59  C   UNL A   1      46.274  28.974  30.491  1.00  0.00     0.049 A 
ATOM     60  H   UNL A   1      44.231  28.997  29.963  1.00  0.00     0.167 HD
ATOM     61  C   UNL A   1      45.852  26.699  29.601  1.00  0.00     0.074 A 
ATOM     62  C   UNL A   1      46.269  25.360  29.238  1.00  0.00     0.031 C 
ATOM     63  C   UNL A   1      46.675  27.636  30.132  1.00  0.00     0.037 A 
BRANCH  50  64
ATOM     64  C   UNL A   1      43.933  33.067  31.229  1.00  0.00     0.058 A 
ATOM     65  C   UNL A   1      43.834  33.415  32.586  1.00  0.00     0.135 A 
ATOM     66  C   UNL A   1      44.212  34.091  30.310  1.00  0.00     0.135 A 
ATOM     67  F   UNL A   1      43.554  32.478  33.505  1.00  0.00    -0.206 F 
ATOM     68  C   UNL A   1      43.975  34.731  33.012  1.00  0.00     0.059 A 
ATOM     69  C   UNL A   1      44.384  35.412  30.717  1.00  0.00     0.059 A 
ATOM     70  F   UNL A   1      44.318  33.815  29.001  1.00  0.00    -0.206 F 
ATOM     71  C   UNL A   1      44.248  35.723  32.069  1.00  0.00     0.060 A 
BRANCH  71  72
ATOM     72  S   UNL A   1      44.430  37.427  32.637  1.00  0.00     0.124 S 
ATOM     73  O   UNL A   1      44.269  38.168  31.390  1.00  0.00    -0.237 OA
ATOM     74  O   UNL A   1      43.338  37.555  33.597  1.00  0.00    -0.237 OA
ATOM     75  O   UNL A   1      45.771  37.452  33.213  1.00  0.00    -0.744 OA
ENDBRANCH  71  72
ENDBRANCH  50  64
BRANCH  51  76
ATOM     76  C   UNL A   1      42.636  23.795  27.761  1.00  0.00     0.058 A 
ATOM     77  C   UNL A   1      42.680  23.572  26.378  1.00  0.00     0.135 A 
ATOM     78  C   UNL A   1      42.436  22.686  28.598  1.00  0.00     0.135 A 
ATOM     79  F   UNL A   1      42.861  24.603  25.538  1.00  0.00    -0.206 F 
ATOM     80  C   UNL A   1      42.522  22.299  25.839  1.00  0.00     0.059 A 
ATOM     81  C   UNL A   1      42.299  21.400  28.085  1.00  0.00     0.059 A 
ATOM     82  F   UNL A   1      42.403  22.844  29.930  1.00  0.00    -0.206 F 
ATOM     83  C   UNL A   1      42.334  21.219  26.702  1.00  0.00     0.060 A 
BRANCH  83  84
ATOM     84  S   UNL A   1      42.186  19.561  25.997  1.00  0.00     0.124 S 
ATOM     85  O   UNL A   1      43.081  19.651  24.849  1.00  0.00    -0.237 OA
ATOM     86  O   UNL A   1      42.642  18.718  27.099  1.00  0.00    -0.237 OA
ATOM     87  O   UNL A   1      40.764  19.456  25.685  1.00  0.00    -0.744 OA
ENDBRANCH  83  84
ENDBRANCH  51  76
BRANCH  63  88
ATOM     88  C   UNL A   1      48.103  27.243  30.385  1.00  0.00     0.058 A 
ATOM     89  C   UNL A   1      49.118  27.518  29.456  1.00  0.00     0.135 A 
ATOM     90  C   UNL A   1      48.467  26.629  31.594  1.00  0.00     0.135 A 
ATOM     91  F   UNL A   1      48.821  28.098  28.282  1.00  0.00    -0.206 F 
ATOM     92  C   UNL A   1      50.444  27.181  29.709  1.00  0.00     0.059 A 
ATOM     93  C   UNL A   1      49.791  26.305  31.878  1.00  0.00     0.059 A 
ATOM     94  F   UNL A   1      47.535  26.352  32.520  1.00  0.00    -0.206 F 
ATOM     95  C   UNL A   1      50.770  26.575  30.923  1.00  0.00     0.060 A 
BRANCH  95  96
ATOM     96  S   UNL A   1      52.499  26.174  31.257  1.00  0.00     0.124 S 
ATOM     97  O   UNL A   1      52.907  27.304  32.086  1.00  0.00    -0.237 OA
ATOM     98  O   UNL A   1      52.397  24.889  31.943  1.00  0.00    -0.237 OA
ATOM     99  O   UNL A   1      53.099  26.122  29.928  1.00  0.00    -0.744 OA
ENDBRANCH  95  96
ENDBRANCH  63  88
ENDBRANCH  37  38
ENDBRANCH  29  32
ENDBRANCH  27  28
ENDBRANCH   1  27
TORSDOF 16
ENDMDL
MODEL 3
REMARK VINA RESULT:     -12.1      1.189      2.097
REMARK SMILES Cc1ccc(NC(=O)N[C@@H]2C=C[C@@H](C(=O)NCCCCNC(=O)c3ccc(-c4c5nc(c(-c6c(F)cc(S(=O)(=O)[O-])cc6F)c6ccc([nH]6)c(-c6c(F)cc(S(=O)(=O)[O-])cc6F)c6nc(c(-c7c(F)cc(S(=O)(=O)[O-])cc7F)c7ccc4[nH]7)C=C6)C=C5)cc3)C2)c(F)c1
REMARK SMILES IDX 19 1 18 2 17 3 16 4 14 5 15 6 13 8 10 9 11 10 90 11 12 12
REMARK SMILES IDX 9 13 6 14 7 15 8 17 5 19 1 20 2 21 3 22 93 23 4 24 91 25
REMARK SMILES IDX 92 26 20 27 21 28 22 29 23 31 24 32 25 33 89 34 26 35 88 36
REMARK SMILES IDX 27 37 28 38 29 39 82 40 30 41 87 42 81 43 83 44 31 45 86 46
REMARK SMILES IDX 80 47 79 48 32 50 66 51 45 52 65 53 46 54 49 55 64 56 84 57
REMARK SMILES IDX 47 58 48 59 63 61 85 62 50 63 33 64 34 65 43 66 35 67 36 68
REMARK SMILES IDX 42 69 44 70 37 71 38 72 39 73 40 74 41 75 67 76 68 77 77 78
REMARK SMILES IDX 69 79 70 80 76 81 78 82 71 83 72 84 73 85 74 86 75 87 51 88
REMARK SMILES IDX 52 89 61 90 53 91 54 92 60 93 62 94 55 95 56 96 57 97 58 98
REMARK SMILES IDX 59 99
REMARK H PARENT 16 7 6 16 9 18 21 30 83 49 49 60
REMARK Flexibility Score: inf
ROOT
ATOM      1  C   UNL A   1      32.837  28.364  25.783  1.00  0.00     0.023 C 
ENDROOT
BRANCH   1   2
ATOM      2  C   UNL A   1      33.684  28.013  24.557  1.00  0.00     0.023 C 
BRANCH   2   3
ATOM      3  C   UNL A   1      33.820  26.521  24.258  1.00  0.00     0.116 C 
BRANCH   3   4
ATOM      4  N   UNL A   1      33.551  26.206  22.871  1.00  0.00    -0.356 N 
ATOM      5  C   UNL A   1      32.485  25.719  22.196  1.00  0.00     0.227 C 
ATOM      6  O   UNL A   1      32.617  25.694  20.963  1.00  0.00    -0.274 OA
ATOM      7  H   UNL A   1      34.320  26.390  22.284  1.00  0.00     0.163 HD
BRANCH   5   8
ATOM      8  C   UNL A   1      31.140  25.278  22.790  1.00  0.00     0.103 C 
ATOM      9  C   UNL A   1      30.866  24.739  25.158  1.00  0.00     0.107 C 
ATOM     10  C   UNL A   1      30.328  26.093  24.840  1.00  0.00    -0.006 C 
ATOM     11  C   UNL A   1      30.978  24.105  23.758  1.00  0.00     0.047 C 
ATOM     12  C   UNL A   1      30.521  26.411  23.557  1.00  0.00    -0.016 C 
BRANCH   9  13
ATOM     13  N   UNL A   1      30.016  24.019  26.081  1.00  0.00    -0.332 N 
ATOM     14  N   UNL A   1      31.469  22.475  27.171  1.00  0.00    -0.305 N 
ATOM     15  C   UNL A   1      30.246  23.027  26.971  1.00  0.00     0.319 C 
ATOM     16  H   UNL A   1      31.597  22.074  28.060  1.00  0.00     0.171 HD
ATOM     17  O   UNL A   1      29.329  22.723  27.740  1.00  0.00    -0.248 OA
ATOM     18  H   UNL A   1      29.076  24.310  26.056  1.00  0.00     0.165 HD
BRANCH  14  19
ATOM     19  C   UNL A   1      32.580  22.384  26.323  1.00  0.00     0.078 A 
ATOM     20  C   UNL A   1      35.395  23.059  23.178  1.00  0.00     0.044 C 
ATOM     21  C   UNL A   1      34.550  22.684  24.360  1.00  0.00    -0.048 A 
ATOM     22  C   UNL A   1      34.591  23.453  25.531  1.00  0.00     0.006 A 
ATOM     23  C   UNL A   1      33.611  21.654  24.257  1.00  0.00     0.045 A 
ATOM     24  C   UNL A   1      33.634  23.273  26.534  1.00  0.00     0.029 A 
ATOM     25  C   UNL A   1      32.636  21.508  25.238  1.00  0.00     0.147 A 
ATOM     26  F   UNL A   1      31.686  20.576  25.064  1.00  0.00    -0.205 F 
ENDBRANCH  14  19
ENDBRANCH   9  13
ENDBRANCH   5   8
ENDBRANCH   3   4
ENDBRANCH   2   3
ENDBRANCH   1   2
BRANCH   1  27
ATOM     27  C   UNL A   1      33.610  28.535  27.089  1.00  0.00     0.116 C 
BRANCH  27  28
ATOM     28  N   UNL A   1      33.546  29.891  27.612  1.00  0.00    -0.352 N 
ATOM     29  C   UNL A   1      34.487  30.610  28.312  1.00  0.00     0.251 C 
ATOM     30  H   UNL A   1      32.701  30.366  27.438  1.00  0.00     0.163 HD
ATOM     31  O   UNL A   1      34.182  31.697  28.797  1.00  0.00    -0.269 OA
BRANCH  29  32
ATOM     32  C   UNL A   1      35.850  30.068  28.508  1.00  0.00     0.039 A 
ATOM     33  C   UNL A   1      36.751  30.102  27.438  1.00  0.00     0.014 A 
ATOM     34  C   UNL A   1      36.244  29.536  29.737  1.00  0.00     0.014 A 
ATOM     35  C   UNL A   1      38.071  29.684  27.630  1.00  0.00     0.010 A 
ATOM     36  C   UNL A   1      37.578  29.187  29.945  1.00  0.00     0.010 A 
ATOM     37  C   UNL A   1      38.508  29.265  28.897  1.00  0.00    -0.014 A 
BRANCH  37  38
ATOM     38  C   UNL A   1      39.935  28.934  29.153  1.00  0.00     0.031 A 
ATOM     39  C   UNL A   1      40.872  29.972  29.706  1.00  0.00     0.074 A 
ATOM     40  C   UNL A   1      40.407  27.719  28.809  1.00  0.00     0.049 A 
ATOM     41  N   UNL A   1      42.163  29.897  29.910  1.00  0.00    -0.248 NA
ATOM     42  C   UNL A   1      40.286  31.278  30.052  1.00  0.00     0.031 C 
ATOM     43  C   UNL A   1      39.615  26.641  28.210  1.00  0.00     0.029 A 
ATOM     44  N   UNL A   1      41.672  27.189  28.896  1.00  0.00    -0.354 N 
ATOM     45  C   UNL A   1      42.547  31.144  30.386  1.00  0.00     0.074 A 
ATOM     46  C   UNL A   1      41.360  31.973  30.400  1.00  0.00     0.031 C 
ATOM     47  C   UNL A   1      40.407  25.576  27.999  1.00  0.00     0.029 A 
ATOM     48  C   UNL A   1      41.768  25.904  28.412  1.00  0.00     0.049 A 
ATOM     49  H   UNL A   1      42.437  27.682  29.270  1.00  0.00     0.167 HD
ATOM     50  C   UNL A   1      43.771  31.556  30.794  1.00  0.00     0.037 A 
ATOM     51  C   UNL A   1      42.832  25.085  28.304  1.00  0.00     0.037 A 
ATOM     52  C   UNL A   1      44.943  30.719  30.809  1.00  0.00     0.049 A 
ATOM     53  C   UNL A   1      44.177  25.557  28.783  1.00  0.00     0.074 A 
ATOM     54  C   UNL A   1      46.213  31.026  31.269  1.00  0.00     0.029 A 
ATOM     55  N   UNL A   1      44.991  29.412  30.348  1.00  0.00    -0.354 N 
ATOM     56  N   UNL A   1      44.508  26.721  29.291  1.00  0.00    -0.248 NA
ATOM     57  C   UNL A   1      45.292  24.606  28.682  1.00  0.00     0.031 C 
ATOM     58  C   UNL A   1      47.037  29.917  31.052  1.00  0.00     0.029 A 
ATOM     59  C   UNL A   1      46.272  28.904  30.497  1.00  0.00     0.049 A 
ATOM     60  H   UNL A   1      44.228  28.918  29.971  1.00  0.00     0.167 HD
ATOM     61  C   UNL A   1      45.863  26.632  29.592  1.00  0.00     0.074 A 
ATOM     62  C   UNL A   1      46.287  25.298  29.220  1.00  0.00     0.031 C 
ATOM     63  C   UNL A   1      46.680  27.571  30.128  1.00  0.00     0.037 A 
BRANCH  50  64
ATOM     64  C   UNL A   1      43.908  32.978  31.264  1.00  0.00     0.058 A 
ATOM     65  C   UNL A   1      44.247  34.016  30.381  1.00  0.00     0.135 A 
ATOM     66  C   UNL A   1      43.659  33.314  32.604  1.00  0.00     0.135 A 
ATOM     67  F   UNL A   1      44.510  33.747  29.092  1.00  0.00    -0.206 F 
ATOM     68  C   UNL A   1      44.365  35.331  30.815  1.00  0.00     0.059 A 
ATOM     69  C   UNL A   1      43.745  34.629  33.056  1.00  0.00     0.059 A 
ATOM     70  F   UNL A   1      43.330  32.362  33.491  1.00  0.00    -0.206 F 
ATOM     71  C   UNL A   1      44.113  35.628  32.156  1.00  0.00     0.060 A 
BRANCH  71  72
ATOM     72  S   UNL A   1      44.269  37.340  32.705  1.00  0.00     0.124 S 
ATOM     73  O   UNL A   1      45.669  37.388  33.113  1.00  0.00    -0.237 OA
ATOM     74  O   UNL A   1      43.936  38.088  31.497  1.00  0.00    -0.237 OA
ATOM     75  O   UNL A   1      43.296  37.441  33.788  1.00  0.00    -0.744 OA
ENDBRANCH  71  72
ENDBRANCH  50  64
BRANCH  51  76
ATOM     76  C   UNL A   1      42.662  23.721  27.737  1.00  0.00     0.058 A 
ATOM     77  C   UNL A   1      42.521  22.605  28.573  1.00  0.00     0.135 A 
ATOM     78  C   UNL A   1      42.617  23.510  26.350  1.00  0.00     0.135 A 
ATOM     79  F   UNL A   1      42.565  22.757  29.906  1.00  0.00    -0.206 F 
ATOM     80  C   UNL A   1      42.355  21.324  28.058  1.00  0.00     0.059 A 
ATOM     81  C   UNL A   1      42.428  22.242  25.810  1.00  0.00     0.059 A 
ATOM     82  F   UNL A   1      42.729  24.548  25.506  1.00  0.00    -0.206 F 
ATOM     83  C   UNL A   1      42.307  21.153  26.674  1.00  0.00     0.060 A 
BRANCH  83  84
ATOM     84  S   UNL A   1      42.033  19.493  26.013  1.00  0.00     0.124 S 
ATOM     85  O   UNL A   1      42.466  18.659  27.129  1.00  0.00    -0.237 OA
ATOM     86  O   UNL A   1      40.599  19.504  25.742  1.00  0.00    -0.237 OA
ATOM     87  O   UNL A   1      42.886  19.460  24.830  1.00  0.00    -0.744 OA
ENDBRANCH  83  84
ENDBRANCH  51  76
BRANCH  63  88
ATOM     88  C   UNL A   1      48.112  27.184  30.377  1.00  0.00     0.058 A 
ATOM     89  C   UNL A   1      49.105  27.377  29.406  1.00  0.00     0.135 A 
ATOM     90  C   UNL A   1      48.500  26.663  31.621  1.00  0.00     0.135 A 
ATOM     91  F   UNL A   1      48.785  27.867  28.198  1.00  0.00    -0.206 F 
ATOM     92  C   UNL A   1      50.434  27.048  29.653  1.00  0.00     0.059 A 
ATOM     93  C   UNL A   1      49.827  26.348  31.898  1.00  0.00     0.059 A 
ATOM     94  F   UNL A   1      47.589  26.468  32.588  1.00  0.00    -0.206 F 
ATOM     95  C   UNL A   1      50.786  26.534  30.903  1.00  0.00     0.060 A 
BRANCH  95  96
ATOM     96  S   UNL A   1      52.519  26.144  31.225  1.00  0.00     0.124 S 
ATOM     97  O   UNL A   1      53.075  26.142  29.877  1.00  0.00    -0.237 OA
ATOM     98  O   UNL A   1      52.936  27.251  32.082  1.00  0.00    -0.237 OA
ATOM     99  O   UNL A   1      52.458  24.842  31.882  1.00  0.00    -0.744 OA
ENDBRANCH  95  96
ENDBRANCH  63  88
ENDBRANCH  37  38
ENDBRANCH  29  32
ENDBRANCH  27  28
ENDBRANCH   1  27
TORSDOF 16
ENDMDL
