MODEL 1
REMARK VINA RESULT:     -13.1      0.000      0.000
REMARK SMILES Cc1cc(C)c2c(CCCC(=O)NCCCCNC(=O)c3ccc(-c4c5nc(c(-c6c(F)cc(S(=O)(=O)[O-])cc6F)c6ccc([nH]6)c(-c6c(F)cc(S(=O)(=O)[O-])cc6F)c6nc(c(-c7c(F)cc(S(=O)(=O)[O-])cc7F)c7ccc4[nH]7)C=C6)C=C5)cc3)c(-c3ccccn3)[nH]c2c1
REMARK SMILES IDX 15 1 14 2 13 3 11 4 12 5 10 7 9 8 8 9 7 10 1 11 2 12 3 13
REMARK SMILES IDX 96 14 4 15 95 16 5 17 6 18 94 19 87 20 88 22 89 23 93 24
REMARK SMILES IDX 90 25 92 26 91 27 16 28 17 29 18 30 19 31 20 33 21 34 22 35
REMARK SMILES IDX 86 36 23 37 85 38 24 39 25 40 26 41 79 42 27 43 84 44 78 45
REMARK SMILES IDX 80 46 28 47 83 48 77 49 76 50 29 52 63 53 42 54 62 55 43 56
REMARK SMILES IDX 46 57 61 58 81 59 44 60 45 61 60 63 82 64 47 65 30 66 31 67
REMARK SMILES IDX 40 68 32 69 33 70 39 71 41 72 34 73 35 74 36 75 37 76 38 77
REMARK SMILES IDX 64 78 65 79 74 80 66 81 67 82 73 83 75 84 68 85 69 86 70 87
REMARK SMILES IDX 71 88 72 89 48 90 49 91 58 92 50 93 51 94 57 95 59 96 52 97
REMARK SMILES IDX 53 98 54 99 55 100 56 101
REMARK H PARENT 13 6 94 21 18 32 80 51 46 62
REMARK Flexibility Score: inf
ROOT
ATOM      1  C   UNL A   1      37.971  23.144  25.824  1.00  0.00     0.023 C 
ENDROOT
BRANCH   1   2
ATOM      2  C   UNL A   1      36.452  23.016  25.662  1.00  0.00     0.116 C 
BRANCH   2   3
ATOM      3  N   UNL A   1      36.066  23.094  24.269  1.00  0.00    -0.356 N 
ATOM      4  C   UNL A   1      34.911  23.514  23.687  1.00  0.00     0.220 C 
ATOM      5  O   UNL A   1      34.809  23.370  22.465  1.00  0.00    -0.275 OA
ATOM      6  H   UNL A   1      36.757  22.792  23.636  1.00  0.00     0.163 HD
BRANCH   4   7
ATOM      7  C   UNL A   1      33.833  24.245  24.464  1.00  0.00     0.100 C 
BRANCH   7   8
ATOM      8  C   UNL A   1      33.820  25.761  24.572  1.00  0.00     0.015 C 
BRANCH   8   9
ATOM      9  C   UNL A   1      32.773  26.487  25.406  1.00  0.00     0.039 C 
BRANCH   9  10
ATOM     10  C   UNL A   1      32.259  27.888  25.130  1.00  0.00    -0.013 A 
ATOM     11  C   UNL A   1      27.657  29.811  22.233  1.00  0.00     0.044 C 
ATOM     12  C   UNL A   1      28.814  29.219  22.983  1.00  0.00    -0.049 A 
ATOM     13  C   UNL A   1      28.939  27.836  23.125  1.00  0.00     0.007 A 
ATOM     14  C   UNL A   1      29.758  30.060  23.577  1.00  0.00     0.030 A 
ATOM     15  C   UNL A   1      30.010  27.243  23.835  1.00  0.00    -0.041 A 
ATOM     16  C   UNL A   1      30.829  29.473  24.260  1.00  0.00     0.047 A 
ATOM     17  C   UNL A   1      29.993  25.743  23.974  1.00  0.00     0.045 C 
ATOM     18  C   UNL A   1      31.012  28.098  24.384  1.00  0.00     0.006 A 
ATOM     19  N   UNL A   1      31.852  30.078  24.935  1.00  0.00    -0.353 N 
ATOM     20  C   UNL A   1      32.656  29.159  25.568  1.00  0.00     0.068 A 
ATOM     21  H   UNL A   1      31.996  31.052  24.964  1.00  0.00     0.167 HD
BRANCH  20  22
ATOM     22  C   UNL A   1      33.593  29.673  26.560  1.00  0.00     0.087 A 
ATOM     23  C   UNL A   1      34.754  28.959  26.868  1.00  0.00     0.030 A 
ATOM     24  N   UNL A   1      33.265  30.843  27.147  1.00  0.00    -0.255 NA
ATOM     25  C   UNL A   1      35.674  29.520  27.746  1.00  0.00     0.004 A 
ATOM     26  C   UNL A   1      34.184  31.361  28.002  1.00  0.00     0.112 A 
ATOM     27  C   UNL A   1      35.395  30.757  28.311  1.00  0.00     0.020 A 
ENDBRANCH  20  22
ENDBRANCH   9  10
ENDBRANCH   8   9
ENDBRANCH   7   8
ENDBRANCH   4   7
ENDBRANCH   2   3
ENDBRANCH   1   2
BRANCH   1  28
ATOM     28  C   UNL A   1      38.726  21.815  25.758  1.00  0.00     0.023 C 
BRANCH  28  29
ATOM     29  C   UNL A   1      39.843  21.698  26.790  1.00  0.00     0.116 C 
BRANCH  29  30
ATOM     30  N   UNL A   1      41.176  21.814  26.203  1.00  0.00    -0.352 N 
ATOM     31  C   UNL A   1      41.912  22.974  26.027  1.00  0.00     0.251 C 
ATOM     32  H   UNL A   1      41.597  20.978  25.901  1.00  0.00     0.163 HD
ATOM     33  O   UNL A   1      42.830  23.032  25.231  1.00  0.00    -0.269 OA
BRANCH  31  34
ATOM     34  C   UNL A   1      41.523  24.146  26.834  1.00  0.00     0.039 A 
ATOM     35  C   UNL A   1      42.030  24.321  28.120  1.00  0.00     0.014 A 
ATOM     36  C   UNL A   1      40.760  25.136  26.217  1.00  0.00     0.014 A 
ATOM     37  C   UNL A   1      41.854  25.554  28.747  1.00  0.00     0.010 A 
ATOM     38  C   UNL A   1      40.680  26.387  26.802  1.00  0.00     0.010 A 
ATOM     39  C   UNL A   1      41.214  26.611  28.075  1.00  0.00    -0.014 A 
BRANCH  39  40
ATOM     40  C   UNL A   1      41.205  27.955  28.676  1.00  0.00     0.031 A 
ATOM     41  C   UNL A   1      42.267  28.909  28.220  1.00  0.00     0.074 A 
ATOM     42  C   UNL A   1      40.231  28.443  29.476  1.00  0.00     0.049 A 
ATOM     43  N   UNL A   1      43.252  29.392  28.908  1.00  0.00    -0.248 NA
ATOM     44  C   UNL A   1      42.264  29.338  26.813  1.00  0.00     0.031 C 
ATOM     45  C   UNL A   1      38.948  27.835  29.846  1.00  0.00     0.029 A 
ATOM     46  N   UNL A   1      40.169  29.668  30.077  1.00  0.00    -0.354 N 
ATOM     47  C   UNL A   1      43.894  30.320  28.087  1.00  0.00     0.074 A 
ATOM     48  C   UNL A   1      43.314  30.163  26.776  1.00  0.00     0.031 C 
ATOM     49  C   UNL A   1      38.150  28.766  30.414  1.00  0.00     0.029 A 
ATOM     50  C   UNL A   1      38.935  29.965  30.634  1.00  0.00     0.049 A 
ATOM     51  H   UNL A   1      40.934  30.286  30.113  1.00  0.00     0.167 HD
ATOM     52  C   UNL A   1      44.736  31.273  28.582  1.00  0.00     0.037 A 
ATOM     53  C   UNL A   1      38.576  31.101  31.270  1.00  0.00     0.037 A 
ATOM     54  C   UNL A   1      45.084  31.015  29.953  1.00  0.00     0.049 A 
ATOM     55  C   UNL A   1      39.809  31.732  31.789  1.00  0.00     0.074 A 
ATOM     56  C   UNL A   1      45.816  30.067  30.634  1.00  0.00     0.029 A 
ATOM     57  N   UNL A   1      44.354  31.693  30.895  1.00  0.00    -0.354 N 
ATOM     58  N   UNL A   1      40.552  31.212  32.726  1.00  0.00    -0.248 NA
ATOM     59  C   UNL A   1      40.406  32.847  31.068  1.00  0.00     0.031 C 
ATOM     60  C   UNL A   1      45.203  29.960  31.919  1.00  0.00     0.029 A 
ATOM     61  C   UNL A   1      44.138  30.860  31.963  1.00  0.00     0.049 A 
ATOM     62  H   UNL A   1      44.039  32.623  30.818  1.00  0.00     0.167 HD
ATOM     63  C   UNL A   1      41.832  31.646  32.440  1.00  0.00     0.074 A 
ATOM     64  C   UNL A   1      41.654  32.771  31.534  1.00  0.00     0.031 C 
ATOM     65  C   UNL A   1      42.916  30.874  32.739  1.00  0.00     0.037 A 
BRANCH  52  66
ATOM     66  C   UNL A   1      44.991  32.630  27.962  1.00  0.00     0.058 A 
ATOM     67  C   UNL A   1      46.271  32.941  27.451  1.00  0.00     0.135 A 
ATOM     68  C   UNL A   1      44.117  33.726  28.120  1.00  0.00     0.135 A 
ATOM     69  F   UNL A   1      47.189  31.976  27.273  1.00  0.00    -0.206 F 
ATOM     70  C   UNL A   1      46.672  34.250  27.175  1.00  0.00     0.059 A 
ATOM     71  C   UNL A   1      44.480  35.034  27.805  1.00  0.00     0.059 A 
ATOM     72  F   UNL A   1      42.909  33.586  28.680  1.00  0.00    -0.206 F 
ATOM     73  C   UNL A   1      45.773  35.293  27.374  1.00  0.00     0.060 A 
BRANCH  73  74
ATOM     74  S   UNL A   1      46.325  36.995  27.136  1.00  0.00     0.124 S 
ATOM     75  O   UNL A   1      45.069  37.727  27.258  1.00  0.00    -0.237 OA
ATOM     76  O   UNL A   1      47.274  37.165  28.232  1.00  0.00    -0.237 OA
ATOM     77  O   UNL A   1      46.916  36.970  25.802  1.00  0.00    -0.744 OA
ENDBRANCH  73  74
ENDBRANCH  52  66
BRANCH  53  78
ATOM     78  C   UNL A   1      37.269  31.793  31.277  1.00  0.00     0.058 A 
ATOM     79  C   UNL A   1      36.443  31.744  32.411  1.00  0.00     0.135 A 
ATOM     80  C   UNL A   1      36.969  32.777  30.316  1.00  0.00     0.135 A 
ATOM     81  F   UNL A   1      36.661  30.827  33.367  1.00  0.00    -0.206 F 
ATOM     82  C   UNL A   1      35.439  32.685  32.635  1.00  0.00     0.059 A 
ATOM     83  C   UNL A   1      35.967  33.723  30.513  1.00  0.00     0.059 A 
ATOM     84  F   UNL A   1      37.716  32.913  29.208  1.00  0.00    -0.206 F 
ATOM     85  C   UNL A   1      35.237  33.696  31.698  1.00  0.00     0.060 A 
BRANCH  85  86
ATOM     86  S   UNL A   1      34.128  35.061  32.114  1.00  0.00     0.124 S 
ATOM     87  O   UNL A   1      33.088  34.382  32.877  1.00  0.00    -0.237 OA
ATOM     88  O   UNL A   1      35.008  35.943  32.875  1.00  0.00    -0.237 OA
ATOM     89  O   UNL A   1      33.717  35.571  30.809  1.00  0.00    -0.744 OA
ENDBRANCH  85  86
ENDBRANCH  53  78
BRANCH  65  90
ATOM     90  C   UNL A   1      42.740  29.821  33.798  1.00  0.00     0.058 A 
ATOM     91  C   UNL A   1      42.940  30.027  35.174  1.00  0.00     0.135 A 
ATOM     92  C   UNL A   1      42.281  28.558  33.398  1.00  0.00     0.135 A 
ATOM     93  F   UNL A   1      43.286  31.232  35.648  1.00  0.00    -0.206 F 
ATOM     94  C   UNL A   1      42.748  29.002  36.103  1.00  0.00     0.059 A 
ATOM     95  C   UNL A   1      42.052  27.532  34.309  1.00  0.00     0.059 A 
ATOM     96  F   UNL A   1      42.016  28.317  32.103  1.00  0.00    -0.206 F 
ATOM     97  C   UNL A   1      42.308  27.755  35.660  1.00  0.00     0.060 A 
BRANCH  97  98
ATOM     98  S   UNL A   1      42.018  26.445  36.869  1.00  0.00     0.124 S 
ATOM     99  O   UNL A   1      40.675  26.759  37.347  1.00  0.00    -0.237 OA
ATOM    100  O   UNL A   1      42.136  25.235  36.060  1.00  0.00    -0.237 OA
ATOM    101  O   UNL A   1      43.088  26.637  37.844  1.00  0.00    -0.744 OA
ENDBRANCH  97  98
ENDBRANCH  65  90
ENDBRANCH  39  40
ENDBRANCH  31  34
ENDBRANCH  29  30
ENDBRANCH  28  29
ENDBRANCH   1  28
TORSDOF 18
ENDMDL
MODEL 2
REMARK VINA RESULT:     -12.7      2.891      4.757
REMARK SMILES Cc1cc(C)c2c(CCCC(=O)NCCCCNC(=O)c3ccc(-c4c5nc(c(-c6c(F)cc(S(=O)(=O)[O-])cc6F)c6ccc([nH]6)c(-c6c(F)cc(S(=O)(=O)[O-])cc6F)c6nc(c(-c7c(F)cc(S(=O)(=O)[O-])cc7F)c7ccc4[nH]7)C=C6)C=C5)cc3)c(-c3ccccn3)[nH]c2c1
REMARK SMILES IDX 15 1 14 2 13 3 11 4 12 5 10 7 9 8 8 9 7 10 1 11 2 12 3 13
REMARK SMILES IDX 96 14 4 15 95 16 5 17 6 18 94 19 87 20 88 22 89 23 93 24
REMARK SMILES IDX 90 25 92 26 91 27 16 28 17 29 18 30 19 31 20 33 21 34 22 35
REMARK SMILES IDX 86 36 23 37 85 38 24 39 25 40 26 41 79 42 27 43 84 44 78 45
REMARK SMILES IDX 80 46 28 47 83 48 77 49 76 50 29 52 63 53 42 54 62 55 43 56
REMARK SMILES IDX 46 57 61 58 81 59 44 60 45 61 60 63 82 64 47 65 30 66 31 67
REMARK SMILES IDX 40 68 32 69 33 70 39 71 41 72 34 73 35 74 36 75 37 76 38 77
REMARK SMILES IDX 64 78 65 79 74 80 66 81 67 82 73 83 75 84 68 85 69 86 70 87
REMARK SMILES IDX 71 88 72 89 48 90 49 91 58 92 50 93 51 94 57 95 59 96 52 97
REMARK SMILES IDX 53 98 54 99 55 100 56 101
REMARK H PARENT 13 6 94 21 18 32 80 51 46 62
REMARK Flexibility Score: inf
ROOT
ATOM      1  C   UNL A   1      40.363  21.617  27.220  1.00  0.00     0.023 C 
ENDROOT
BRANCH   1   2
ATOM      2  C   UNL A   1      39.338  22.338  26.336  1.00  0.00     0.116 C 
BRANCH   2   3
ATOM      3  N   UNL A   1      38.270  21.446  25.938  1.00  0.00    -0.356 N 
ATOM      4  C   UNL A   1      37.142  21.674  25.215  1.00  0.00     0.220 C 
ATOM      5  O   UNL A   1      36.336  20.744  25.115  1.00  0.00    -0.275 OA
ATOM      6  H   UNL A   1      38.380  20.516  26.243  1.00  0.00     0.163 HD
BRANCH   4   7
ATOM      7  C   UNL A   1      36.919  22.965  24.451  1.00  0.00     0.100 C 
BRANCH   7   8
ATOM      8  C   UNL A   1      36.223  22.980  23.099  1.00  0.00     0.015 C 
BRANCH   8   9
ATOM      9  C   UNL A   1      34.705  23.016  22.991  1.00  0.00     0.039 C 
BRANCH   9  10
ATOM     10  C   UNL A   1      33.749  23.055  24.169  1.00  0.00    -0.013 A 
ATOM     11  C   UNL A   1      31.376  27.441  27.068  1.00  0.00     0.044 C 
ATOM     12  C   UNL A   1      32.021  26.366  26.244  1.00  0.00    -0.049 A 
ATOM     13  C   UNL A   1      32.797  26.691  25.130  1.00  0.00     0.007 A 
ATOM     14  C   UNL A   1      31.816  25.024  26.572  1.00  0.00     0.030 A 
ATOM     15  C   UNL A   1      33.411  25.704  24.323  1.00  0.00    -0.041 A 
ATOM     16  C   UNL A   1      32.442  24.049  25.788  1.00  0.00     0.047 A 
ATOM     17  C   UNL A   1      34.166  26.183  23.110  1.00  0.00     0.045 C 
ATOM     18  C   UNL A   1      33.259  24.335  24.697  1.00  0.00     0.006 A 
ATOM     19  N   UNL A   1      32.374  22.688  25.894  1.00  0.00    -0.353 N 
ATOM     20  C   UNL A   1      33.046  22.065  24.868  1.00  0.00     0.068 A 
ATOM     21  H   UNL A   1      31.903  22.212  26.616  1.00  0.00     0.167 HD
BRANCH  20  22
ATOM     22  C   UNL A   1      32.804  20.638  24.690  1.00  0.00     0.087 A 
ATOM     23  C   UNL A   1      32.439  20.137  23.438  1.00  0.00     0.030 A 
ATOM     24  N   UNL A   1      32.941  19.863  25.787  1.00  0.00    -0.255 NA
ATOM     25  C   UNL A   1      32.306  18.762  23.277  1.00  0.00     0.004 A 
ATOM     26  C   UNL A   1      32.802  18.526  25.596  1.00  0.00     0.112 A 
ATOM     27  C   UNL A   1      32.512  17.935  24.373  1.00  0.00     0.020 A 
ENDBRANCH  20  22
ENDBRANCH   9  10
ENDBRANCH   8   9
ENDBRANCH   7   8
ENDBRANCH   4   7
ENDBRANCH   2   3
ENDBRANCH   1   2
BRANCH   1  28
ATOM     28  C   UNL A   1      40.895  20.310  26.630  1.00  0.00     0.023 C 
BRANCH  28  29
ATOM     29  C   UNL A   1      42.238  19.881  27.212  1.00  0.00     0.116 C 
BRANCH  29  30
ATOM     30  N   UNL A   1      43.191  19.452  26.190  1.00  0.00    -0.352 N 
ATOM     31  C   UNL A   1      43.847  20.254  25.271  1.00  0.00     0.251 C 
ATOM     32  H   UNL A   1      43.389  18.489  26.152  1.00  0.00     0.163 HD
ATOM     33  O   UNL A   1      44.333  19.794  24.255  1.00  0.00    -0.269 OA
BRANCH  31  34
ATOM     34  C   UNL A   1      43.916  21.697  25.567  1.00  0.00     0.039 A 
ATOM     35  C   UNL A   1      43.088  22.599  24.900  1.00  0.00     0.014 A 
ATOM     36  C   UNL A   1      44.721  22.106  26.630  1.00  0.00     0.014 A 
ATOM     37  C   UNL A   1      42.993  23.903  25.382  1.00  0.00     0.010 A 
ATOM     38  C   UNL A   1      44.542  23.369  27.163  1.00  0.00     0.010 A 
ATOM     39  C   UNL A   1      43.687  24.286  26.544  1.00  0.00    -0.014 A 
BRANCH  39  40
ATOM     40  C   UNL A   1      43.428  25.606  27.143  1.00  0.00     0.031 A 
ATOM     41  C   UNL A   1      44.417  26.693  26.845  1.00  0.00     0.074 A 
ATOM     42  C   UNL A   1      42.299  25.954  27.800  1.00  0.00     0.049 A 
ATOM     43  N   UNL A   1      45.228  27.278  27.667  1.00  0.00    -0.248 NA
ATOM     44  C   UNL A   1      44.556  27.148  25.453  1.00  0.00     0.031 C 
ATOM     45  C   UNL A   1      41.062  25.186  27.984  1.00  0.00     0.029 A 
ATOM     46  N   UNL A   1      42.002  27.149  28.391  1.00  0.00    -0.354 N 
ATOM     47  C   UNL A   1      45.858  28.295  26.948  1.00  0.00     0.074 A 
ATOM     48  C   UNL A   1      45.490  28.096  25.568  1.00  0.00     0.031 C 
ATOM     49  C   UNL A   1      40.084  26.000  28.437  1.00  0.00     0.029 A 
ATOM     50  C   UNL A   1      40.676  27.281  28.770  1.00  0.00     0.049 A 
ATOM     51  H   UNL A   1      42.672  27.856  28.537  1.00  0.00     0.167 HD
ATOM     52  C   UNL A   1      46.498  29.333  27.560  1.00  0.00     0.037 A 
ATOM     53  C   UNL A   1      40.093  28.351  29.353  1.00  0.00     0.037 A 
ATOM     54  C   UNL A   1      46.681  29.091  28.966  1.00  0.00     0.049 A 
ATOM     55  C   UNL A   1      41.154  29.117  30.043  1.00  0.00     0.074 A 
ATOM     56  C   UNL A   1      47.423  28.225  29.739  1.00  0.00     0.029 A 
ATOM     57  N   UNL A   1      45.748  29.654  29.797  1.00  0.00    -0.354 N 
ATOM     58  N   UNL A   1      41.818  28.672  31.073  1.00  0.00    -0.248 NA
ATOM     59  C   UNL A   1      41.702  30.311  29.417  1.00  0.00     0.031 C 
ATOM     60  C   UNL A   1      46.655  28.017  30.924  1.00  0.00     0.029 A 
ATOM     61  C   UNL A   1      45.491  28.779  30.821  1.00  0.00     0.049 A 
ATOM     62  H   UNL A   1      45.333  30.540  29.681  1.00  0.00     0.167 HD
ATOM     63  C   UNL A   1      43.061  29.266  30.972  1.00  0.00     0.074 A 
ATOM     64  C   UNL A   1      42.873  30.379  30.054  1.00  0.00     0.031 C 
ATOM     65  C   UNL A   1      44.180  28.627  31.417  1.00  0.00     0.037 A 
BRANCH  52  66
ATOM     66  C   UNL A   1      46.666  30.724  26.987  1.00  0.00     0.058 A 
ATOM     67  C   UNL A   1      47.940  31.336  26.988  1.00  0.00     0.135 A 
ATOM     68  C   UNL A   1      45.580  31.581  26.713  1.00  0.00     0.135 A 
ATOM     69  F   UNL A   1      49.044  30.617  27.251  1.00  0.00    -0.206 F 
ATOM     70  C   UNL A   1      48.113  32.709  26.792  1.00  0.00     0.059 A 
ATOM     71  C   UNL A   1      45.735  32.944  26.465  1.00  0.00     0.059 A 
ATOM     72  F   UNL A   1      44.313  31.151  26.772  1.00  0.00    -0.206 F 
ATOM     73  C   UNL A   1      47.000  33.508  26.549  1.00  0.00     0.060 A 
BRANCH  73  74
ATOM     74  S   UNL A   1      47.206  35.296  26.416  1.00  0.00     0.124 S 
ATOM     75  O   UNL A   1      48.179  35.396  25.334  1.00  0.00    -0.237 OA
ATOM     76  O   UNL A   1      45.850  35.737  26.101  1.00  0.00    -0.237 OA
ATOM     77  O   UNL A   1      47.689  35.675  27.740  1.00  0.00    -0.744 OA
ENDBRANCH  73  74
ENDBRANCH  52  66
BRANCH  53  78
ATOM     78  C   UNL A   1      38.722  28.877  29.179  1.00  0.00     0.058 A 
ATOM     79  C   UNL A   1      37.879  29.050  30.288  1.00  0.00     0.135 A 
ATOM     80  C   UNL A   1      38.345  29.528  27.988  1.00  0.00     0.135 A 
ATOM     81  F   UNL A   1      38.167  28.454  31.456  1.00  0.00    -0.206 F 
ATOM     82  C   UNL A   1      36.778  29.905  30.253  1.00  0.00     0.059 A 
ATOM     83  C   UNL A   1      37.247  30.380  27.927  1.00  0.00     0.059 A 
ATOM     84  F   UNL A   1      39.100  29.436  26.881  1.00  0.00    -0.206 F 
ATOM     85  C   UNL A   1      36.496  30.598  29.078  1.00  0.00     0.060 A 
BRANCH  85  86
ATOM     86  S   UNL A   1      35.243  31.900  29.113  1.00  0.00     0.124 S 
ATOM     87  O   UNL A   1      34.196  31.333  28.272  1.00  0.00    -0.237 OA
ATOM     88  O   UNL A   1      34.941  31.989  30.538  1.00  0.00    -0.237 OA
ATOM     89  O   UNL A   1      35.941  33.055  28.554  1.00  0.00    -0.744 OA
ENDBRANCH  85  86
ENDBRANCH  53  78
BRANCH  65  90
ATOM     90  C   UNL A   1      43.991  27.538  32.437  1.00  0.00     0.058 A 
ATOM     91  C   UNL A   1      44.003  26.162  32.152  1.00  0.00     0.135 A 
ATOM     92  C   UNL A   1      43.859  27.913  33.782  1.00  0.00     0.135 A 
ATOM     93  F   UNL A   1      44.220  25.717  30.906  1.00  0.00    -0.206 F 
ATOM     94  C   UNL A   1      43.831  25.204  33.154  1.00  0.00     0.059 A 
ATOM     95  C   UNL A   1      43.718  26.977  34.801  1.00  0.00     0.059 A 
ATOM     96  F   UNL A   1      43.898  29.212  34.125  1.00  0.00    -0.206 F 
ATOM     97  C   UNL A   1      43.685  25.622  34.477  1.00  0.00     0.060 A 
BRANCH  97  98
ATOM     98  S   UNL A   1      43.506  24.381  35.777  1.00  0.00     0.124 S 
ATOM     99  O   UNL A   1      44.449  24.855  36.785  1.00  0.00    -0.237 OA
ATOM    100  O   UNL A   1      42.094  24.490  36.129  1.00  0.00    -0.237 OA
ATOM    101  O   UNL A   1      43.878  23.134  35.112  1.00  0.00    -0.744 OA
ENDBRANCH  97  98
ENDBRANCH  65  90
ENDBRANCH  39  40
ENDBRANCH  31  34
ENDBRANCH  29  30
ENDBRANCH  28  29
ENDBRANCH   1  28
TORSDOF 18
ENDMDL
MODEL 3
REMARK VINA RESULT:     -12.7      1.412      2.730
REMARK SMILES Cc1cc(C)c2c(CCCC(=O)NCCCCNC(=O)c3ccc(-c4c5nc(c(-c6c(F)cc(S(=O)(=O)[O-])cc6F)c6ccc([nH]6)c(-c6c(F)cc(S(=O)(=O)[O-])cc6F)c6nc(c(-c7c(F)cc(S(=O)(=O)[O-])cc7F)c7ccc4[nH]7)C=C6)C=C5)cc3)c(-c3ccccn3)[nH]c2c1
REMARK SMILES IDX 15 1 14 2 13 3 11 4 12 5 10 7 9 8 8 9 7 10 1 11 2 12 3 13
REMARK SMILES IDX 96 14 4 15 95 16 5 17 6 18 94 19 87 20 88 22 89 23 93 24
REMARK SMILES IDX 90 25 92 26 91 27 16 28 17 29 18 30 19 31 20 33 21 34 22 35
REMARK SMILES IDX 86 36 23 37 85 38 24 39 25 40 26 41 79 42 27 43 84 44 78 45
REMARK SMILES IDX 80 46 28 47 83 48 77 49 76 50 29 52 63 53 42 54 62 55 43 56
REMARK SMILES IDX 46 57 61 58 81 59 44 60 45 61 60 63 82 64 47 65 30 66 31 67
REMARK SMILES IDX 40 68 32 69 33 70 39 71 41 72 34 73 35 74 36 75 37 76 38 77
REMARK SMILES IDX 64 78 65 79 74 80 66 81 67 82 73 83 75 84 68 85 69 86 70 87
REMARK SMILES IDX 71 88 72 89 48 90 49 91 58 92 50 93 51 94 57 95 59 96 52 97
REMARK SMILES IDX 53 98 54 99 55 100 56 101
REMARK H PARENT 13 6 94 21 18 32 80 51 46 62
REMARK Flexibility Score: inf
ROOT
ATOM      1  C   UNL A   1      37.666  21.004  25.142  1.00  0.00     0.023 C 
ENDROOT
BRANCH   1   2
ATOM      2  C   UNL A   1      36.166  21.318  25.077  1.00  0.00     0.116 C 
BRANCH   2   3
ATOM      3  N   UNL A   1      35.864  22.201  23.971  1.00  0.00    -0.356 N 
ATOM      4  C   UNL A   1      35.241  23.409  23.940  1.00  0.00     0.220 C 
ATOM      5  O   UNL A   1      35.015  23.901  22.830  1.00  0.00    -0.275 OA
ATOM      6  H   UNL A   1      36.160  21.870  23.091  1.00  0.00     0.163 HD
BRANCH   4   7
ATOM      7  C   UNL A   1      34.940  24.195  25.202  1.00  0.00     0.100 C 
BRANCH   7   8
ATOM      8  C   UNL A   1      34.448  25.632  25.145  1.00  0.00     0.015 C 
BRANCH   8   9
ATOM      9  C   UNL A   1      33.455  26.088  24.084  1.00  0.00     0.039 C 
BRANCH   9  10
ATOM     10  C   UNL A   1      31.978  25.740  24.069  1.00  0.00    -0.013 A 
ATOM     11  C   UNL A   1      27.269  28.935  23.127  1.00  0.00     0.044 C 
ATOM     12  C   UNL A   1      28.548  28.180  23.338  1.00  0.00    -0.049 A 
ATOM     13  C   UNL A   1      29.783  28.812  23.180  1.00  0.00     0.007 A 
ATOM     14  C   UNL A   1      28.506  26.822  23.659  1.00  0.00     0.030 A 
ATOM     15  C   UNL A   1      31.009  28.130  23.358  1.00  0.00    -0.041 A 
ATOM     16  C   UNL A   1      29.719  26.152  23.858  1.00  0.00     0.047 A 
ATOM     17  C   UNL A   1      32.272  28.908  23.092  1.00  0.00     0.045 C 
ATOM     18  C   UNL A   1      30.968  26.758  23.754  1.00  0.00     0.006 A 
ATOM     19  N   UNL A   1      29.935  24.835  24.151  1.00  0.00    -0.353 N 
ATOM     20  C   UNL A   1      31.276  24.531  24.165  1.00  0.00     0.068 A 
ATOM     21  H   UNL A   1      29.218  24.184  24.332  1.00  0.00     0.167 HD
BRANCH  20  22
ATOM     22  C   UNL A   1      31.633  23.117  24.165  1.00  0.00     0.087 A 
ATOM     23  C   UNL A   1      31.774  22.426  22.959  1.00  0.00     0.030 A 
ATOM     24  N   UNL A   1      31.799  22.539  25.373  1.00  0.00    -0.255 NA
ATOM     25  C   UNL A   1      32.207  21.105  22.988  1.00  0.00     0.004 A 
ATOM     26  C   UNL A   1      32.219  21.247  25.366  1.00  0.00     0.112 A 
ATOM     27  C   UNL A   1      32.455  20.507  24.216  1.00  0.00     0.020 A 
ENDBRANCH  20  22
ENDBRANCH   9  10
ENDBRANCH   8   9
ENDBRANCH   7   8
ENDBRANCH   4   7
ENDBRANCH   2   3
ENDBRANCH   1   2
BRANCH   1  28
ATOM     28  C   UNL A   1      38.537  22.181  25.585  1.00  0.00     0.023 C 
BRANCH  28  29
ATOM     29  C   UNL A   1      39.611  21.798  26.597  1.00  0.00     0.116 C 
BRANCH  29  30
ATOM     30  N   UNL A   1      40.965  21.898  26.058  1.00  0.00    -0.352 N 
ATOM     31  C   UNL A   1      41.742  23.041  25.961  1.00  0.00     0.251 C 
ATOM     32  H   UNL A   1      41.370  21.064  25.729  1.00  0.00     0.163 HD
ATOM     33  O   UNL A   1      42.687  23.107  25.198  1.00  0.00    -0.269 OA
BRANCH  31  34
ATOM     34  C   UNL A   1      41.363  24.185  26.811  1.00  0.00     0.039 A 
ATOM     35  C   UNL A   1      41.913  24.337  28.083  1.00  0.00     0.014 A 
ATOM     36  C   UNL A   1      40.563  25.178  26.248  1.00  0.00     0.014 A 
ATOM     37  C   UNL A   1      41.741  25.550  28.747  1.00  0.00     0.010 A 
ATOM     38  C   UNL A   1      40.484  26.411  26.867  1.00  0.00     0.010 A 
ATOM     39  C   UNL A   1      41.059  26.613  28.125  1.00  0.00    -0.014 A 
BRANCH  39  40
ATOM     40  C   UNL A   1      41.050  27.941  28.761  1.00  0.00     0.031 A 
ATOM     41  C   UNL A   1      42.129  28.897  28.350  1.00  0.00     0.074 A 
ATOM     42  C   UNL A   1      40.066  28.417  29.554  1.00  0.00     0.049 A 
ATOM     43  N   UNL A   1      43.105  29.353  29.069  1.00  0.00    -0.248 NA
ATOM     44  C   UNL A   1      42.156  29.361  26.955  1.00  0.00     0.031 C 
ATOM     45  C   UNL A   1      38.770  27.811  29.885  1.00  0.00     0.029 A 
ATOM     46  N   UNL A   1      40.002  29.627  30.186  1.00  0.00    -0.354 N 
ATOM     47  C   UNL A   1      43.770  30.296  28.284  1.00  0.00     0.074 A 
ATOM     48  C   UNL A   1      43.215  30.178  26.959  1.00  0.00     0.031 C 
ATOM     49  C   UNL A   1      37.970  28.734  30.461  1.00  0.00     0.029 A 
ATOM     50  C   UNL A   1      38.761  29.920  30.727  1.00  0.00     0.049 A 
ATOM     51  H   UNL A   1      40.773  30.237  30.252  1.00  0.00     0.167 HD
ATOM     52  C   UNL A   1      44.611  31.228  28.819  1.00  0.00     0.037 A 
ATOM     53  C   UNL A   1      38.399  31.043  31.385  1.00  0.00     0.037 A 
ATOM     54  C   UNL A   1      44.930  30.932  30.190  1.00  0.00     0.049 A 
ATOM     55  C   UNL A   1      39.628  31.649  31.943  1.00  0.00     0.074 A 
ATOM     56  C   UNL A   1      45.642  29.960  30.860  1.00  0.00     0.029 A 
ATOM     57  N   UNL A   1      44.189  31.592  31.135  1.00  0.00    -0.354 N 
ATOM     58  N   UNL A   1      40.349  31.099  32.880  1.00  0.00    -0.248 NA
ATOM     59  C   UNL A   1      40.248  32.776  31.263  1.00  0.00     0.031 C 
ATOM     60  C   UNL A   1      45.003  29.826  32.129  1.00  0.00     0.029 A 
ATOM     61  C   UNL A   1      43.945  30.734  32.176  1.00  0.00     0.049 A 
ATOM     62  H   UNL A   1      43.882  32.527  31.076  1.00  0.00     0.167 HD
ATOM     63  C   UNL A   1      41.637  31.529  32.630  1.00  0.00     0.074 A 
ATOM     64  C   UNL A   1      41.486  32.678  31.750  1.00  0.00     0.031 C 
ATOM     65  C   UNL A   1      42.708  30.740  32.929  1.00  0.00     0.037 A 
BRANCH  52  66
ATOM     66  C   UNL A   1      44.890  32.598  28.240  1.00  0.00     0.058 A 
ATOM     67  C   UNL A   1      46.201  32.940  27.838  1.00  0.00     0.135 A 
ATOM     68  C   UNL A   1      43.985  33.676  28.340  1.00  0.00     0.135 A 
ATOM     69  F   UNL A   1      47.148  31.994  27.723  1.00  0.00    -0.206 F 
ATOM     70  C   UNL A   1      46.597  34.260  27.612  1.00  0.00     0.059 A 
ATOM     71  C   UNL A   1      44.347  34.995  28.072  1.00  0.00     0.059 A 
ATOM     72  F   UNL A   1      42.738  33.507  28.798  1.00  0.00    -0.206 F 
ATOM     73  C   UNL A   1      45.665  35.284  27.751  1.00  0.00     0.060 A 
BRANCH  73  74
ATOM     74  S   UNL A   1      46.201  36.998  27.580  1.00  0.00     0.124 S 
ATOM     75  O   UNL A   1      47.456  36.985  28.323  1.00  0.00    -0.237 OA
ATOM     76  O   UNL A   1      46.317  37.140  26.131  1.00  0.00    -0.237 OA
ATOM     77  O   UNL A   1      45.111  37.751  28.191  1.00  0.00    -0.744 OA
ENDBRANCH  73  74
ENDBRANCH  52  66
BRANCH  53  78
ATOM     78  C   UNL A   1      37.099  31.746  31.385  1.00  0.00     0.058 A 
ATOM     79  C   UNL A   1      36.358  31.874  32.572  1.00  0.00     0.135 A 
ATOM     80  C   UNL A   1      36.732  32.584  30.315  1.00  0.00     0.135 A 
ATOM     81  F   UNL A   1      36.643  31.104  33.633  1.00  0.00    -0.206 F 
ATOM     82  C   UNL A   1      35.376  32.851  32.728  1.00  0.00     0.059 A 
ATOM     83  C   UNL A   1      35.749  33.562  30.444  1.00  0.00     0.059 A 
ATOM     84  F   UNL A   1      37.395  32.546  29.148  1.00  0.00    -0.206 F 
ATOM     85  C   UNL A   1      35.109  33.718  31.669  1.00  0.00     0.060 A 
BRANCH  85  86
ATOM     86  S   UNL A   1      34.038  35.144  31.960  1.00  0.00     0.124 S 
ATOM     87  O   UNL A   1      32.923  34.542  32.683  1.00  0.00    -0.237 OA
ATOM     88  O   UNL A   1      34.906  36.019  32.740  1.00  0.00    -0.237 OA
ATOM     89  O   UNL A   1      33.730  35.615  30.613  1.00  0.00    -0.744 OA
ENDBRANCH  85  86
ENDBRANCH  53  78
BRANCH  65  90
ATOM     90  C   UNL A   1      42.504  29.661  33.957  1.00  0.00     0.058 A 
ATOM     91  C   UNL A   1      42.623  29.844  35.345  1.00  0.00     0.135 A 
ATOM     92  C   UNL A   1      42.101  28.395  33.509  1.00  0.00     0.135 A 
ATOM     93  F   UNL A   1      42.910  31.048  35.860  1.00  0.00    -0.206 F 
ATOM     94  C   UNL A   1      42.408  28.796  36.244  1.00  0.00     0.059 A 
ATOM     95  C   UNL A   1      41.850  27.345  34.387  1.00  0.00     0.059 A 
ATOM     96  F   UNL A   1      41.914  28.173  32.197  1.00  0.00    -0.206 F 
ATOM     97  C   UNL A   1      42.026  27.548  35.754  1.00  0.00     0.060 A 
BRANCH  97  98
ATOM     98  S   UNL A   1      41.706  26.206  36.920  1.00  0.00     0.124 S 
ATOM     99  O   UNL A   1      41.749  25.031  36.056  1.00  0.00    -0.237 OA
ATOM    100  O   UNL A   1      42.810  26.337  37.867  1.00  0.00    -0.237 OA
ATOM    101  O   UNL A   1      40.390  26.533  37.464  1.00  0.00    -0.744 OA
ENDBRANCH  97  98
ENDBRANCH  65  90
ENDBRANCH  39  40
ENDBRANCH  31  34
ENDBRANCH  29  30
ENDBRANCH  28  29
ENDBRANCH   1  28
TORSDOF 18
ENDMDL
