MODEL 1
REMARK VINA RESULT:     -10.4      0.000      0.000
REMARK SMILES O=C(NCCCCNC(=O)c1cnc(Nc2ccccc2)nc1)c1ccc(-c2c3nc(c(-c4c(F)cc(S(=O)(=O)[O-])cc4F)c4ccc([nH]4)c(-c4c(F)cc(S(=O)(=O)[O-])cc4F)c4nc(c(-c5c(F)cc(S(=O)(=O)[O-])cc5F)c5ccc2[nH]5)C=C4)C=C3)cc1
REMARK SMILES IDX 5 1 4 2 3 3 1 4 2 5 24 7 25 8 89 9 26 10 88 11 27 12 28 13
REMARK SMILES IDX 29 14 82 15 30 16 87 17 81 18 83 19 31 20 86 21 80 22 79 23
REMARK SMILES IDX 32 25 66 26 45 27 65 28 46 29 49 30 64 31 84 32 47 33 48 34
REMARK SMILES IDX 63 36 85 37 50 38 33 39 34 40 43 41 35 42 36 43 42 44 44 45
REMARK SMILES IDX 37 46 38 47 39 48 40 49 41 50 67 51 68 52 77 53 69 54 70 55
REMARK SMILES IDX 76 56 78 57 71 58 72 59 73 60 74 61 75 62 51 63 52 64 61 65
REMARK SMILES IDX 53 66 54 67 60 68 62 69 55 70 56 71 57 72 58 73 59 74 6 75
REMARK SMILES IDX 7 76 8 77 9 78 10 80 11 81 12 82 23 83 13 84 22 85 14 86
REMARK SMILES IDX 15 87 16 89 17 90 21 91 18 92 20 93 19 94
REMARK H PARENT 3 6 83 24 49 35 8 79 15 88
REMARK Flexibility Score: inf
ROOT
ATOM      1  C   UNL A   1      34.178  33.741  28.118  1.00  0.00     0.023 C 
ENDROOT
BRANCH   1   2
ATOM      2  C   UNL A   1      34.288  32.375  28.787  1.00  0.00     0.116 C 
BRANCH   2   3
ATOM      3  N   UNL A   1      33.867  31.289  27.918  1.00  0.00    -0.352 N 
ATOM      4  O   UNL A   1      34.112  29.436  26.664  1.00  0.00    -0.269 OA
ATOM      5  C   UNL A   1      34.573  30.179  27.524  1.00  0.00     0.251 C 
ATOM      6  H   UNL A   1      32.950  31.358  27.566  1.00  0.00     0.163 HD
BRANCH   5   7
ATOM      7  C   UNL A   1      35.897  29.898  28.122  1.00  0.00     0.039 A 
ATOM      8  C   UNL A   1      37.074  30.185  27.424  1.00  0.00     0.014 A 
ATOM      9  C   UNL A   1      35.958  29.362  29.411  1.00  0.00     0.014 A 
ATOM     10  C   UNL A   1      38.307  29.845  27.973  1.00  0.00     0.010 A 
ATOM     11  C   UNL A   1      37.198  29.077  29.987  1.00  0.00     0.010 A 
ATOM     12  C   UNL A   1      38.381  29.302  29.266  1.00  0.00    -0.014 A 
BRANCH  12  13
ATOM     13  C   UNL A   1      39.706  29.074  29.891  1.00  0.00     0.031 A 
ATOM     14  C   UNL A   1      40.206  29.953  31.002  1.00  0.00     0.074 A 
ATOM     15  C   UNL A   1      40.469  28.065  29.425  1.00  0.00     0.049 A 
ATOM     16  N   UNL A   1      41.352  29.906  31.631  1.00  0.00    -0.248 NA
ATOM     17  C   UNL A   1      39.313  31.029  31.462  1.00  0.00     0.031 C 
ATOM     18  C   UNL A   1      40.094  27.167  28.328  1.00  0.00     0.029 A 
ATOM     19  N   UNL A   1      41.712  27.628  29.800  1.00  0.00    -0.354 N 
ATOM     20  C   UNL A   1      41.330  30.954  32.544  1.00  0.00     0.074 A 
ATOM     21  C   UNL A   1      40.059  31.627  32.383  1.00  0.00     0.031 C 
ATOM     22  C   UNL A   1      41.082  26.283  28.126  1.00  0.00     0.029 A 
ATOM     23  C   UNL A   1      42.176  26.580  29.043  1.00  0.00     0.049 A 
ATOM     24  H   UNL A   1      42.223  28.027  30.541  1.00  0.00     0.167 HD
ATOM     25  C   UNL A   1      42.286  31.312  33.434  1.00  0.00     0.037 A 
ATOM     26  C   UNL A   1      43.363  25.945  29.060  1.00  0.00     0.037 A 
ATOM     27  C   UNL A   1      43.532  30.612  33.610  1.00  0.00     0.049 A 
ATOM     28  C   UNL A   1      44.408  26.376  30.048  1.00  0.00     0.074 A 
ATOM     29  C   UNL A   1      44.515  30.833  34.560  1.00  0.00     0.029 A 
ATOM     30  N   UNL A   1      43.976  29.569  32.812  1.00  0.00    -0.354 N 
ATOM     31  N   UNL A   1      44.337  27.319  30.957  1.00  0.00    -0.248 NA
ATOM     32  C   UNL A   1      45.694  25.671  30.005  1.00  0.00     0.031 C 
ATOM     33  C   UNL A   1      45.572  29.951  34.308  1.00  0.00     0.029 A 
ATOM     34  C   UNL A   1      45.234  29.162  33.221  1.00  0.00     0.049 A 
ATOM     35  H   UNL A   1      43.470  29.176  32.064  1.00  0.00     0.167 HD
ATOM     36  C   UNL A   1      45.572  27.322  31.593  1.00  0.00     0.074 A 
ATOM     37  C   UNL A   1      46.362  26.272  30.981  1.00  0.00     0.031 C 
ATOM     38  C   UNL A   1      46.012  28.127  32.590  1.00  0.00     0.037 A 
BRANCH  25  39
ATOM     39  C   UNL A   1      42.039  32.519  34.294  1.00  0.00     0.058 A 
ATOM     40  C   UNL A   1      42.166  33.821  33.789  1.00  0.00     0.135 A 
ATOM     41  C   UNL A   1      41.579  32.366  35.612  1.00  0.00     0.135 A 
ATOM     42  F   UNL A   1      42.612  34.022  32.540  1.00  0.00    -0.206 F 
ATOM     43  C   UNL A   1      41.848  34.934  34.564  1.00  0.00     0.059 A 
ATOM     44  C   UNL A   1      41.241  33.463  36.399  1.00  0.00     0.059 A 
ATOM     45  F   UNL A   1      41.442  31.140  36.141  1.00  0.00    -0.206 F 
ATOM     46  C   UNL A   1      41.384  34.744  35.868  1.00  0.00     0.060 A 
BRANCH  46  47
ATOM     47  S   UNL A   1      40.941  36.195  36.848  1.00  0.00     0.124 S 
ATOM     48  O   UNL A   1      42.235  36.855  36.989  1.00  0.00    -0.237 OA
ATOM     49  O   UNL A   1      39.975  36.872  35.989  1.00  0.00    -0.237 OA
ATOM     50  O   UNL A   1      40.391  35.622  38.073  1.00  0.00    -0.744 OA
ENDBRANCH  46  47
ENDBRANCH  25  39
BRANCH  26  51
ATOM     51  C   UNL A   1      43.634  24.865  28.080  1.00  0.00     0.058 A 
ATOM     52  C   UNL A   1      43.223  23.548  28.320  1.00  0.00     0.135 A 
ATOM     53  C   UNL A   1      44.288  25.141  26.869  1.00  0.00     0.135 A 
ATOM     54  F   UNL A   1      42.597  23.238  29.465  1.00  0.00    -0.206 F 
ATOM     55  C   UNL A   1      43.460  22.535  27.397  1.00  0.00     0.059 A 
ATOM     56  C   UNL A   1      44.517  24.150  25.921  1.00  0.00     0.059 A 
ATOM     57  F   UNL A   1      44.683  26.393  26.588  1.00  0.00    -0.206 F 
ATOM     58  C   UNL A   1      44.108  22.847  26.199  1.00  0.00     0.060 A 
BRANCH  58  59
ATOM     59  S   UNL A   1      44.368  21.542  24.978  1.00  0.00     0.124 S 
ATOM     60  O   UNL A   1      43.271  20.633  25.286  1.00  0.00    -0.237 OA
ATOM     61  O   UNL A   1      44.261  22.268  23.716  1.00  0.00    -0.237 OA
ATOM     62  O   UNL A   1      45.706  21.053  25.297  1.00  0.00    -0.744 OA
ENDBRANCH  58  59
ENDBRANCH  26  51
BRANCH  38  63
ATOM     63  C   UNL A   1      47.417  27.913  33.069  1.00  0.00     0.058 A 
ATOM     64  C   UNL A   1      47.703  26.980  34.077  1.00  0.00     0.135 A 
ATOM     65  C   UNL A   1      48.488  28.606  32.486  1.00  0.00     0.135 A 
ATOM     66  F   UNL A   1      46.709  26.302  34.672  1.00  0.00    -0.206 F 
ATOM     67  C   UNL A   1      49.007  26.747  34.498  1.00  0.00     0.059 A 
ATOM     68  C   UNL A   1      49.802  28.375  32.879  1.00  0.00     0.059 A 
ATOM     69  F   UNL A   1      48.263  29.506  31.515  1.00  0.00    -0.206 F 
ATOM     70  C   UNL A   1      50.050  27.450  33.892  1.00  0.00     0.060 A 
BRANCH  70  71
ATOM     71  S   UNL A   1      51.745  27.108  34.414  1.00  0.00     0.124 S 
ATOM     72  O   UNL A   1      51.531  26.150  35.494  1.00  0.00    -0.237 OA
ATOM     73  O   UNL A   1      52.347  26.570  33.199  1.00  0.00    -0.237 OA
ATOM     74  O   UNL A   1      52.242  28.418  34.825  1.00  0.00    -0.744 OA
ENDBRANCH  70  71
ENDBRANCH  38  63
ENDBRANCH  12  13
ENDBRANCH   5   7
ENDBRANCH   2   3
ENDBRANCH   1   2
BRANCH   1  75
ATOM     75  C   UNL A   1      33.055  34.637  28.643  1.00  0.00     0.023 C 
BRANCH  75  76
ATOM     76  C   UNL A   1      33.514  35.790  29.534  1.00  0.00     0.116 C 
BRANCH  76  77
ATOM     77  N   UNL A   1      32.457  36.253  30.425  1.00  0.00    -0.352 N 
ATOM     78  C   UNL A   1      32.345  36.079  31.782  1.00  0.00     0.254 C 
ATOM     79  H   UNL A   1      31.729  36.758  29.997  1.00  0.00     0.163 HD
ATOM     80  O   UNL A   1      31.332  36.395  32.393  1.00  0.00    -0.269 OA
BRANCH  78  81
ATOM     81  C   UNL A   1      33.460  35.482  32.504  1.00  0.00     0.076 A 
ATOM     82  C   UNL A   1      34.580  36.200  32.830  1.00  0.00     0.130 A 
ATOM     83  C   UNL A   1      33.483  34.148  32.817  1.00  0.00     0.130 A 
ATOM     84  N   UNL A   1      35.689  35.629  33.337  1.00  0.00    -0.221 NA
ATOM     85  N   UNL A   1      34.578  33.533  33.320  1.00  0.00    -0.221 NA
ATOM     86  C   UNL A   1      35.669  34.297  33.529  1.00  0.00     0.227 A 
BRANCH  86  87
ATOM     87  N   UNL A   1      36.840  33.603  33.817  1.00  0.00    -0.324 N 
ATOM     88  H   UNL A   1      37.506  33.599  33.092  1.00  0.00     0.170 HD
BRANCH  87  89
ATOM     89  C   UNL A   1      37.225  32.912  34.970  1.00  0.00     0.041 A 
ATOM     90  C   UNL A   1      37.713  31.604  34.850  1.00  0.00     0.026 A 
ATOM     91  C   UNL A   1      37.249  33.509  36.236  1.00  0.00     0.026 A 
ATOM     92  C   UNL A   1      38.211  30.915  35.960  1.00  0.00     0.002 A 
ATOM     93  C   UNL A   1      37.731  32.820  37.352  1.00  0.00     0.002 A 
ATOM     94  C   UNL A   1      38.217  31.523  37.213  1.00  0.00     0.000 A 
ENDBRANCH  87  89
ENDBRANCH  86  87
ENDBRANCH  78  81
ENDBRANCH  76  77
ENDBRANCH  75  76
ENDBRANCH   1  75
TORSDOF 16
ENDMDL
MODEL 2
REMARK VINA RESULT:     -10.4      4.670     11.101
REMARK SMILES O=C(NCCCCNC(=O)c1cnc(Nc2ccccc2)nc1)c1ccc(-c2c3nc(c(-c4c(F)cc(S(=O)(=O)[O-])cc4F)c4ccc([nH]4)c(-c4c(F)cc(S(=O)(=O)[O-])cc4F)c4nc(c(-c5c(F)cc(S(=O)(=O)[O-])cc5F)c5ccc2[nH]5)C=C4)C=C3)cc1
REMARK SMILES IDX 5 1 4 2 3 3 1 4 2 5 24 7 25 8 89 9 26 10 88 11 27 12 28 13
REMARK SMILES IDX 29 14 82 15 30 16 87 17 81 18 83 19 31 20 86 21 80 22 79 23
REMARK SMILES IDX 32 25 66 26 45 27 65 28 46 29 49 30 64 31 84 32 47 33 48 34
REMARK SMILES IDX 63 36 85 37 50 38 33 39 34 40 43 41 35 42 36 43 42 44 44 45
REMARK SMILES IDX 37 46 38 47 39 48 40 49 41 50 67 51 68 52 77 53 69 54 70 55
REMARK SMILES IDX 76 56 78 57 71 58 72 59 73 60 74 61 75 62 51 63 52 64 61 65
REMARK SMILES IDX 53 66 54 67 60 68 62 69 55 70 56 71 57 72 58 73 59 74 6 75
REMARK SMILES IDX 7 76 8 77 9 78 10 80 11 81 12 82 23 83 13 84 22 85 14 86
REMARK SMILES IDX 15 87 16 89 17 90 21 91 18 92 20 93 19 94
REMARK H PARENT 3 6 83 24 49 35 8 79 15 88
REMARK Flexibility Score: inf
ROOT
ATOM      1  C   UNL A   1      32.868  27.620  25.944  1.00  0.00     0.023 C 
ENDROOT
BRANCH   1   2
ATOM      2  C   UNL A   1      34.057  28.198  26.704  1.00  0.00     0.116 C 
BRANCH   2   3
ATOM      3  N   UNL A   1      33.772  29.498  27.288  1.00  0.00    -0.352 N 
ATOM      4  O   UNL A   1      34.128  31.297  28.594  1.00  0.00    -0.269 OA
ATOM      5  C   UNL A   1      34.586  30.293  28.058  1.00  0.00     0.251 C 
ATOM      6  H   UNL A   1      32.874  29.857  27.107  1.00  0.00     0.163 HD
BRANCH   5   7
ATOM      7  C   UNL A   1      36.005  29.922  28.255  1.00  0.00     0.039 A 
ATOM      8  C   UNL A   1      36.947  30.126  27.243  1.00  0.00     0.014 A 
ATOM      9  C   UNL A   1      36.399  29.384  29.484  1.00  0.00     0.014 A 
ATOM     10  C   UNL A   1      38.260  29.703  27.421  1.00  0.00     0.010 A 
ATOM     11  C   UNL A   1      37.731  29.016  29.685  1.00  0.00     0.010 A 
ATOM     12  C   UNL A   1      38.669  29.158  28.650  1.00  0.00    -0.014 A 
BRANCH  12  13
ATOM     13  C   UNL A   1      40.100  28.839  28.872  1.00  0.00     0.031 A 
ATOM     14  C   UNL A   1      40.669  27.503  28.489  1.00  0.00     0.074 A 
ATOM     15  C   UNL A   1      40.881  29.774  29.449  1.00  0.00     0.049 A 
ATOM     16  N   UNL A   1      41.888  27.057  28.646  1.00  0.00    -0.248 NA
ATOM     17  C   UNL A   1      39.754  26.538  27.858  1.00  0.00     0.031 C 
ATOM     18  C   UNL A   1      40.425  31.095  29.889  1.00  0.00     0.029 A 
ATOM     19  N   UNL A   1      42.213  29.758  29.773  1.00  0.00    -0.354 N 
ATOM     20  C   UNL A   1      41.886  25.756  28.156  1.00  0.00     0.074 A 
ATOM     21  C   UNL A   1      40.541  25.480  27.702  1.00  0.00     0.031 C 
ATOM     22  C   UNL A   1      41.460  31.765  30.417  1.00  0.00     0.029 A 
ATOM     23  C   UNL A   1      42.638  30.907  30.396  1.00  0.00     0.049 A 
ATOM     24  H   UNL A   1      42.807  28.998  29.578  1.00  0.00     0.167 HD
ATOM     25  C   UNL A   1      42.919  24.882  28.091  1.00  0.00     0.037 A 
ATOM     26  C   UNL A   1      43.835  31.225  30.924  1.00  0.00     0.037 A 
ATOM     27  C   UNL A   1      44.262  25.182  28.513  1.00  0.00     0.049 A 
ATOM     28  C   UNL A   1      44.955  30.228  30.850  1.00  0.00     0.074 A 
ATOM     29  C   UNL A   1      45.398  24.400  28.386  1.00  0.00     0.029 A 
ATOM     30  N   UNL A   1      44.650  26.346  29.158  1.00  0.00    -0.354 N 
ATOM     31  N   UNL A   1      44.953  29.033  30.310  1.00  0.00    -0.248 NA
ATOM     32  C   UNL A   1      46.230  30.613  31.465  1.00  0.00     0.031 C 
ATOM     33  C   UNL A   1      46.464  25.074  28.992  1.00  0.00     0.029 A 
ATOM     34  C   UNL A   1      45.998  26.288  29.470  1.00  0.00     0.049 A 
ATOM     35  H   UNL A   1      44.054  27.103  29.363  1.00  0.00     0.167 HD
ATOM     36  C   UNL A   1      46.226  28.521  30.525  1.00  0.00     0.074 A 
ATOM     37  C   UNL A   1      46.978  29.545  31.221  1.00  0.00     0.031 C 
ATOM     38  C   UNL A   1      46.724  27.309  30.179  1.00  0.00     0.037 A 
BRANCH  25  39
ATOM     39  C   UNL A   1      42.651  23.507  27.548  1.00  0.00     0.058 A 
ATOM     40  C   UNL A   1      42.783  23.215  26.183  1.00  0.00     0.135 A 
ATOM     41  C   UNL A   1      42.348  22.449  28.421  1.00  0.00     0.135 A 
ATOM     42  F   UNL A   1      43.060  24.193  25.306  1.00  0.00    -0.206 F 
ATOM     43  C   UNL A   1      42.622  21.920  25.699  1.00  0.00     0.059 A 
ATOM     44  C   UNL A   1      42.197  21.144  27.961  1.00  0.00     0.059 A 
ATOM     45  F   UNL A   1      42.209  22.678  29.736  1.00  0.00    -0.206 F 
ATOM     46  C   UNL A   1      42.331  20.890  26.597  1.00  0.00     0.060 A 
BRANCH  46  47
ATOM     47  S   UNL A   1      42.160  19.209  25.959  1.00  0.00     0.124 S 
ATOM     48  O   UNL A   1      40.718  19.123  25.751  1.00  0.00    -0.237 OA
ATOM     49  O   UNL A   1      42.973  19.249  24.748  1.00  0.00    -0.237 OA
ATOM     50  O   UNL A   1      42.690  18.381  27.038  1.00  0.00    -0.744 OA
ENDBRANCH  46  47
ENDBRANCH  25  39
BRANCH  26  51
ATOM     51  C   UNL A   1      44.015  32.531  31.603  1.00  0.00     0.058 A 
ATOM     52  C   UNL A   1      44.407  33.672  30.892  1.00  0.00     0.135 A 
ATOM     53  C   UNL A   1      43.771  32.665  32.979  1.00  0.00     0.135 A 
ATOM     54  F   UNL A   1      44.654  33.589  29.575  1.00  0.00    -0.206 F 
ATOM     55  C   UNL A   1      44.562  34.902  31.521  1.00  0.00     0.059 A 
ATOM     56  C   UNL A   1      43.897  33.889  33.627  1.00  0.00     0.059 A 
ATOM     57  F   UNL A   1      43.376  31.603  33.699  1.00  0.00    -0.206 F 
ATOM     58  C   UNL A   1      44.304  35.000  32.890  1.00  0.00     0.060 A 
BRANCH  58  59
ATOM     59  S   UNL A   1      44.453  36.609  33.696  1.00  0.00     0.124 S 
ATOM     60  O   UNL A   1      43.074  37.078  33.668  1.00  0.00    -0.237 OA
ATOM     61  O   UNL A   1      44.981  36.253  35.010  1.00  0.00    -0.237 OA
ATOM     62  O   UNL A   1      45.386  37.326  32.832  1.00  0.00    -0.744 OA
ENDBRANCH  58  59
ENDBRANCH  26  51
BRANCH  38  63
ATOM     63  C   UNL A   1      48.145  27.021  30.565  1.00  0.00     0.058 A 
ATOM     64  C   UNL A   1      48.447  26.323  31.744  1.00  0.00     0.135 A 
ATOM     65  C   UNL A   1      49.207  27.398  29.729  1.00  0.00     0.135 A 
ATOM     66  F   UNL A   1      47.464  25.952  32.580  1.00  0.00    -0.206 F 
ATOM     67  C   UNL A   1      49.758  26.016  32.088  1.00  0.00     0.059 A 
ATOM     68  C   UNL A   1      50.525  27.085  30.044  1.00  0.00     0.059 A 
ATOM     69  F   UNL A   1      48.966  28.063  28.589  1.00  0.00    -0.206 F 
ATOM     70  C   UNL A   1      50.791  26.401  31.230  1.00  0.00     0.060 A 
BRANCH  70  71
ATOM     71  S   UNL A   1      52.488  25.960  31.662  1.00  0.00     0.124 S 
ATOM     72  O   UNL A   1      53.173  26.153  30.388  1.00  0.00    -0.237 OA
ATOM     73  O   UNL A   1      52.809  26.926  32.707  1.00  0.00    -0.237 OA
ATOM     74  O   UNL A   1      52.373  24.576  32.112  1.00  0.00    -0.744 OA
ENDBRANCH  70  71
ENDBRANCH  38  63
ENDBRANCH  12  13
ENDBRANCH   5   7
ENDBRANCH   2   3
ENDBRANCH   1   2
BRANCH   1  75
ATOM     75  C   UNL A   1      32.896  27.831  24.430  1.00  0.00     0.023 C 
BRANCH  75  76
ATOM     76  C   UNL A   1      31.824  27.069  23.654  1.00  0.00     0.116 C 
BRANCH  76  77
ATOM     77  N   UNL A   1      32.270  26.699  22.316  1.00  0.00    -0.352 N 
ATOM     78  C   UNL A   1      32.811  25.510  21.893  1.00  0.00     0.254 C 
ATOM     79  H   UNL A   1      32.170  27.392  21.625  1.00  0.00     0.163 HD
ATOM     80  O   UNL A   1      33.278  25.375  20.769  1.00  0.00    -0.269 OA
BRANCH  78  81
ATOM     81  C   UNL A   1      32.841  24.388  22.821  1.00  0.00     0.076 A 
ATOM     82  C   UNL A   1      34.018  23.852  23.274  1.00  0.00     0.130 A 
ATOM     83  C   UNL A   1      31.693  23.755  23.222  1.00  0.00     0.130 A 
ATOM     84  N   UNL A   1      34.071  22.712  23.987  1.00  0.00    -0.221 NA
ATOM     85  N   UNL A   1      31.702  22.604  23.933  1.00  0.00    -0.221 NA
ATOM     86  C   UNL A   1      32.906  22.095  24.262  1.00  0.00     0.227 A 
BRANCH  86  87
ATOM     87  N   UNL A   1      32.891  20.804  24.779  1.00  0.00    -0.324 N 
ATOM     88  H   UNL A   1      32.550  20.732  25.700  1.00  0.00     0.170 HD
BRANCH  87  89
ATOM     89  C   UNL A   1      33.279  19.591  24.201  1.00  0.00     0.041 A 
ATOM     90  C   UNL A   1      34.403  18.923  24.708  1.00  0.00     0.026 A 
ATOM     91  C   UNL A   1      32.529  18.954  23.206  1.00  0.00     0.026 A 
ATOM     92  C   UNL A   1      34.764  17.659  24.235  1.00  0.00     0.002 A 
ATOM     93  C   UNL A   1      32.895  17.696  22.719  1.00  0.00     0.002 A 
ATOM     94  C   UNL A   1      34.010  17.046  23.238  1.00  0.00     0.000 A 
ENDBRANCH  87  89
ENDBRANCH  86  87
ENDBRANCH  78  81
ENDBRANCH  76  77
ENDBRANCH  75  76
ENDBRANCH   1  75
TORSDOF 16
ENDMDL
MODEL 3
REMARK VINA RESULT:     -10.4      4.079     10.963
REMARK SMILES O=C(NCCCCNC(=O)c1cnc(Nc2ccccc2)nc1)c1ccc(-c2c3nc(c(-c4c(F)cc(S(=O)(=O)[O-])cc4F)c4ccc([nH]4)c(-c4c(F)cc(S(=O)(=O)[O-])cc4F)c4nc(c(-c5c(F)cc(S(=O)(=O)[O-])cc5F)c5ccc2[nH]5)C=C4)C=C3)cc1
REMARK SMILES IDX 5 1 4 2 3 3 1 4 2 5 24 7 25 8 89 9 26 10 88 11 27 12 28 13
REMARK SMILES IDX 29 14 82 15 30 16 87 17 81 18 83 19 31 20 86 21 80 22 79 23
REMARK SMILES IDX 32 25 66 26 45 27 65 28 46 29 49 30 64 31 84 32 47 33 48 34
REMARK SMILES IDX 63 36 85 37 50 38 33 39 34 40 43 41 35 42 36 43 42 44 44 45
REMARK SMILES IDX 37 46 38 47 39 48 40 49 41 50 67 51 68 52 77 53 69 54 70 55
REMARK SMILES IDX 76 56 78 57 71 58 72 59 73 60 74 61 75 62 51 63 52 64 61 65
REMARK SMILES IDX 53 66 54 67 60 68 62 69 55 70 56 71 57 72 58 73 59 74 6 75
REMARK SMILES IDX 7 76 8 77 9 78 10 80 11 81 12 82 23 83 13 84 22 85 14 86
REMARK SMILES IDX 15 87 16 89 17 90 21 91 18 92 20 93 19 94
REMARK H PARENT 3 6 83 24 49 35 8 79 15 88
REMARK Flexibility Score: inf
ROOT
ATOM      1  C   UNL A   1      37.686  23.163  25.806  1.00  0.00     0.023 C 
ENDROOT
BRANCH   1   2
ATOM      2  C   UNL A   1      38.618  24.187  26.446  1.00  0.00     0.116 C 
BRANCH   2   3
ATOM      3  N   UNL A   1      40.013  23.968  26.104  1.00  0.00    -0.352 N 
ATOM      4  O   UNL A   1      42.216  24.423  26.035  1.00  0.00    -0.269 OA
ATOM      5  C   UNL A   1      41.123  24.646  26.544  1.00  0.00     0.251 C 
ATOM      6  H   UNL A   1      40.185  23.234  25.471  1.00  0.00     0.163 HD
BRANCH   5   7
ATOM      7  C   UNL A   1      40.992  25.658  27.616  1.00  0.00     0.039 A 
ATOM      8  C   UNL A   1      39.923  25.614  28.516  1.00  0.00     0.014 A 
ATOM      9  C   UNL A   1      41.969  26.651  27.732  1.00  0.00     0.014 A 
ATOM     10  C   UNL A   1      39.778  26.617  29.470  1.00  0.00     0.010 A 
ATOM     11  C   UNL A   1      41.855  27.624  28.728  1.00  0.00     0.010 A 
ATOM     12  C   UNL A   1      40.751  27.623  29.595  1.00  0.00    -0.014 A 
BRANCH  12  13
ATOM     13  C   UNL A   1      40.654  28.604  30.702  1.00  0.00     0.031 A 
ATOM     14  C   UNL A   1      41.518  28.486  31.926  1.00  0.00     0.074 A 
ATOM     15  C   UNL A   1      39.753  29.601  30.598  1.00  0.00     0.049 A 
ATOM     16  N   UNL A   1      41.533  29.241  32.993  1.00  0.00    -0.248 NA
ATOM     17  C   UNL A   1      42.483  27.375  31.963  1.00  0.00     0.031 C 
ATOM     18  C   UNL A   1      38.840  29.792  29.466  1.00  0.00     0.029 A 
ATOM     19  N   UNL A   1      39.446  30.630  31.448  1.00  0.00    -0.354 N 
ATOM     20  C   UNL A   1      42.488  28.689  33.839  1.00  0.00     0.074 A 
ATOM     21  C   UNL A   1      43.028  27.529  33.164  1.00  0.00     0.031 C 
ATOM     22  C   UNL A   1      38.084  30.877  29.690  1.00  0.00     0.029 A 
ATOM     23  C   UNL A   1      38.423  31.428  30.996  1.00  0.00     0.049 A 
ATOM     24  H   UNL A   1      39.914  30.783  32.301  1.00  0.00     0.167 HD
ATOM     25  C   UNL A   1      42.875  29.120  35.063  1.00  0.00     0.037 A 
ATOM     26  C   UNL A   1      37.801  32.469  31.581  1.00  0.00     0.037 A 
ATOM     27  C   UNL A   1      42.356  30.298  35.709  1.00  0.00     0.049 A 
ATOM     28  C   UNL A   1      38.243  32.913  32.945  1.00  0.00     0.074 A 
ATOM     29  C   UNL A   1      42.764  30.876  36.899  1.00  0.00     0.029 A 
ATOM     30  N   UNL A   1      41.307  31.067  35.231  1.00  0.00    -0.354 N 
ATOM     31  N   UNL A   1      39.203  32.426  33.693  1.00  0.00    -0.248 NA
ATOM     32  C   UNL A   1      37.513  34.034  33.548  1.00  0.00     0.031 C 
ATOM     33  C   UNL A   1      41.933  31.970  37.161  1.00  0.00     0.029 A 
ATOM     34  C   UNL A   1      41.028  32.091  36.120  1.00  0.00     0.049 A 
ATOM     35  H   UNL A   1      40.832  30.910  34.383  1.00  0.00     0.167 HD
ATOM     36  C   UNL A   1      39.189  33.180  34.860  1.00  0.00     0.074 A 
ATOM     37  C   UNL A   1      38.143  34.170  34.708  1.00  0.00     0.031 C 
ATOM     38  C   UNL A   1      39.971  33.057  35.960  1.00  0.00     0.037 A 
BRANCH  25  39
ATOM     39  C   UNL A   1      43.911  28.321  35.802  1.00  0.00     0.058 A 
ATOM     40  C   UNL A   1      43.554  27.288  36.681  1.00  0.00     0.135 A 
ATOM     41  C   UNL A   1      45.277  28.532  35.554  1.00  0.00     0.135 A 
ATOM     42  F   UNL A   1      42.263  27.053  36.960  1.00  0.00    -0.206 F 
ATOM     43  C   UNL A   1      44.518  26.491  37.293  1.00  0.00     0.059 A 
ATOM     44  C   UNL A   1      46.257  27.738  36.143  1.00  0.00     0.059 A 
ATOM     45  F   UNL A   1      45.668  29.509  34.721  1.00  0.00    -0.206 F 
ATOM     46  C   UNL A   1      45.867  26.723  37.015  1.00  0.00     0.060 A 
BRANCH  46  47
ATOM     47  S   UNL A   1      47.105  25.658  37.789  1.00  0.00     0.124 S 
ATOM     48  O   UNL A   1      47.630  24.938  36.633  1.00  0.00    -0.237 OA
ATOM     49  O   UNL A   1      48.013  26.624  38.399  1.00  0.00    -0.237 OA
ATOM     50  O   UNL A   1      46.324  24.857  38.727  1.00  0.00    -0.744 OA
ENDBRANCH  46  47
ENDBRANCH  25  39
BRANCH  26  51
ATOM     51  C   UNL A   1      36.667  33.130  30.889  1.00  0.00     0.058 A 
ATOM     52  C   UNL A   1      35.342  32.885  31.271  1.00  0.00     0.135 A 
ATOM     53  C   UNL A   1      36.894  34.043  29.847  1.00  0.00     0.135 A 
ATOM     54  F   UNL A   1      35.078  32.018  32.260  1.00  0.00    -0.206 F 
ATOM     55  C   UNL A   1      34.276  33.514  30.637  1.00  0.00     0.059 A 
ATOM     56  C   UNL A   1      35.847  34.701  29.212  1.00  0.00     0.059 A 
ATOM     57  F   UNL A   1      38.148  34.322  29.459  1.00  0.00    -0.206 F 
ATOM     58  C   UNL A   1      34.540  34.421  29.608  1.00  0.00     0.060 A 
BRANCH  58  59
ATOM     59  S   UNL A   1      33.158  35.278  28.821  1.00  0.00     0.124 S 
ATOM     60  O   UNL A   1      32.392  35.720  29.978  1.00  0.00    -0.237 OA
ATOM     61  O   UNL A   1      33.832  36.327  28.062  1.00  0.00    -0.237 OA
ATOM     62  O   UNL A   1      32.539  34.232  28.011  1.00  0.00    -0.744 OA
ENDBRANCH  58  59
ENDBRANCH  26  51
BRANCH  38  63
ATOM     63  C   UNL A   1      39.712  34.008  37.090  1.00  0.00     0.058 A 
ATOM     64  C   UNL A   1      38.959  33.617  38.207  1.00  0.00     0.135 A 
ATOM     65  C   UNL A   1      40.261  35.300  37.082  1.00  0.00     0.135 A 
ATOM     66  F   UNL A   1      38.406  32.395  38.254  1.00  0.00    -0.206 F 
ATOM     67  C   UNL A   1      38.749  34.479  39.277  1.00  0.00     0.059 A 
ATOM     68  C   UNL A   1      40.079  36.172  38.149  1.00  0.00     0.059 A 
ATOM     69  F   UNL A   1      40.992  35.717  36.036  1.00  0.00    -0.206 F 
ATOM     70  C   UNL A   1      39.314  35.756  39.239  1.00  0.00     0.060 A 
BRANCH  70  71
ATOM     71  S   UNL A   1      39.074  36.854  40.652  1.00  0.00     0.124 S 
ATOM     72  O   UNL A   1      40.452  37.158  41.023  1.00  0.00    -0.237 OA
ATOM     73  O   UNL A   1      38.316  37.957  40.069  1.00  0.00    -0.237 OA
ATOM     74  O   UNL A   1      38.334  36.027  41.601  1.00  0.00    -0.744 OA
ENDBRANCH  70  71
ENDBRANCH  38  63
ENDBRANCH  12  13
ENDBRANCH   5   7
ENDBRANCH   2   3
ENDBRANCH   1   2
BRANCH   1  75
ATOM     75  C   UNL A   1      36.218  23.581  25.717  1.00  0.00     0.023 C 
BRANCH  75  76
ATOM     76  C   UNL A   1      35.236  22.635  26.405  1.00  0.00     0.116 C 
BRANCH  76  77
ATOM     77  N   UNL A   1      34.400  21.918  25.450  1.00  0.00    -0.352 N 
ATOM     78  C   UNL A   1      33.134  22.228  25.019  1.00  0.00     0.254 C 
ATOM     79  H   UNL A   1      34.796  21.105  25.061  1.00  0.00     0.163 HD
ATOM     80  O   UNL A   1      32.483  21.462  24.319  1.00  0.00    -0.269 OA
BRANCH  78  81
ATOM     81  C   UNL A   1      32.549  23.497  25.429  1.00  0.00     0.076 A 
ATOM     82  C   UNL A   1      32.697  24.638  24.685  1.00  0.00     0.130 A 
ATOM     83  C   UNL A   1      31.893  23.634  26.625  1.00  0.00     0.130 A 
ATOM     84  N   UNL A   1      32.319  25.851  25.129  1.00  0.00    -0.221 NA
ATOM     85  N   UNL A   1      31.503  24.835  27.111  1.00  0.00    -0.221 NA
ATOM     86  C   UNL A   1      31.767  25.919  26.355  1.00  0.00     0.227 A 
BRANCH  86  87
ATOM     87  N   UNL A   1      31.573  27.147  26.979  1.00  0.00    -0.324 N 
ATOM     88  H   UNL A   1      30.740  27.218  27.501  1.00  0.00     0.170 HD
BRANCH  87  89
ATOM     89  C   UNL A   1      32.369  28.296  26.987  1.00  0.00     0.041 A 
ATOM     90  C   UNL A   1      31.751  29.554  27.004  1.00  0.00     0.026 A 
ATOM     91  C   UNL A   1      33.764  28.248  27.091  1.00  0.00     0.026 A 
ATOM     92  C   UNL A   1      32.504  30.726  27.122  1.00  0.00     0.002 A 
ATOM     93  C   UNL A   1      34.523  29.417  27.193  1.00  0.00     0.002 A 
ATOM     94  C   UNL A   1      33.891  30.657  27.214  1.00  0.00     0.000 A 
ENDBRANCH  87  89
ENDBRANCH  86  87
ENDBRANCH  78  81
ENDBRANCH  76  77
ENDBRANCH  75  76
ENDBRANCH   1  75
TORSDOF 16
ENDMDL
