MODEL 1
REMARK VINA RESULT:      -9.7      0.000      0.000
REMARK SMILES COc1ccc(NCc2ccc(C(=O)NCCCCNC(=O)c3ccc(-c4c5nc(c(-c6c(F)cc(S(=O)(=O)[O-])cc6F)c6ccc([nH]6)c(-c6c(F)cc(S(=O)(=O)[O-])cc6F)c6nc(c(-c7c(F)cc(S(=O)(=O)[O-])cc7F)c7ccc4[nH]7)C=C6)C=C5)cc3)o2)cc1
REMARK SMILES IDX 17 1 16 2 15 3 13 4 14 5 12 7 9 8 10 9 89 10 11 11 8 12 7 13
REMARK SMILES IDX 6 15 3 16 4 17 91 18 5 19 90 20 2 21 1 22 18 23 19 24 20 25
REMARK SMILES IDX 21 26 22 28 23 29 24 30 88 31 25 32 87 33 26 34 27 35 28 36
REMARK SMILES IDX 81 37 29 38 86 39 80 40 82 41 30 42 85 43 79 44 78 45 31 47
REMARK SMILES IDX 65 48 44 49 64 50 45 51 48 52 63 53 83 54 46 55 47 56 62 58
REMARK SMILES IDX 84 59 49 60 32 61 33 62 42 63 34 64 35 65 41 66 43 67 36 68
REMARK SMILES IDX 37 69 38 70 39 71 40 72 66 73 67 74 76 75 68 76 69 77 75 78
REMARK SMILES IDX 77 79 70 80 71 81 72 82 73 83 74 84 50 85 51 86 60 87 52 88
REMARK SMILES IDX 53 89 59 90 61 91 54 92 55 93 56 94 57 95 58 96
REMARK H PARENT 15 6 7 14 20 27 82 46 48 57
REMARK Flexibility Score: inf
ROOT
ATOM      1  C   UNL A   1      34.741  35.065  28.781  1.00  0.00     0.023 C 
ENDROOT
BRANCH   1   2
ATOM      2  C   UNL A   1      33.293  34.932  29.249  1.00  0.00     0.116 C 
BRANCH   2   3
ATOM      3  N   UNL A   1      32.925  36.015  30.132  1.00  0.00    -0.349 N 
ATOM      4  C   UNL A   1      33.201  36.231  31.464  1.00  0.00     0.286 C 
ATOM      5  O   UNL A   1      32.830  37.316  31.916  1.00  0.00    -0.266 OA
ATOM      6  H   UNL A   1      32.383  36.720  29.710  1.00  0.00     0.163 HD
BRANCH   4   7
ATOM      7  C   UNL A   1      33.901  35.240  32.266  1.00  0.00     0.191 A 
ATOM      8  C   UNL A   1      35.712  34.467  33.294  1.00  0.00     0.124 A 
ATOM      9  C   UNL A   1      34.715  33.546  33.522  1.00  0.00     0.048 A 
ATOM     10  O   UNL A   1      35.230  35.484  32.526  1.00  0.00    -0.454 OA
ATOM     11  C   UNL A   1      33.550  34.060  32.903  1.00  0.00     0.056 A 
BRANCH   8  12
ATOM     12  C   UNL A   1      37.129  34.547  33.756  1.00  0.00     0.188 C 
BRANCH  12  13
ATOM     13  N   UNL A   1      38.107  33.847  32.943  1.00  0.00    -0.378 N 
ATOM     14  H   UNL A   1      38.394  34.294  32.113  1.00  0.00     0.161 HD
BRANCH  13  15
ATOM     15  C   UNL A   1      38.674  32.619  33.213  1.00  0.00     0.035 A 
ATOM     16  C   UNL A   1      39.667  30.030  33.803  1.00  0.00     0.119 A 
ATOM     17  C   UNL A   1      40.417  31.161  34.103  1.00  0.00     0.048 A 
ATOM     18  C   UNL A   1      38.402  30.182  33.246  1.00  0.00     0.048 A 
ATOM     19  C   UNL A   1      39.925  32.440  33.810  1.00  0.00     0.029 A 
ATOM     20  C   UNL A   1      37.917  31.465  32.959  1.00  0.00     0.029 A 
BRANCH  16  21
ATOM     21  O   UNL A   1      40.226  28.829  34.143  1.00  0.00    -0.497 OA
ATOM     22  C   UNL A   1      41.469  28.939  34.828  1.00  0.00     0.278 C 
ENDBRANCH  16  21
ENDBRANCH  13  15
ENDBRANCH  12  13
ENDBRANCH   8  12
ENDBRANCH   4   7
ENDBRANCH   2   3
ENDBRANCH   1   2
BRANCH   1  23
ATOM     23  C   UNL A   1      35.441  33.722  28.542  1.00  0.00     0.023 C 
BRANCH  23  24
ATOM     24  C   UNL A   1      34.926  32.565  29.394  1.00  0.00     0.116 C 
BRANCH  24  25
ATOM     25  N   UNL A   1      34.088  31.633  28.654  1.00  0.00    -0.352 N 
ATOM     26  C   UNL A   1      34.441  30.428  28.095  1.00  0.00     0.251 C 
ATOM     27  H   UNL A   1      33.147  31.900  28.540  1.00  0.00     0.163 HD
ATOM     28  O   UNL A   1      33.645  29.811  27.397  1.00  0.00    -0.269 OA
BRANCH  26  29
ATOM     29  C   UNL A   1      35.807  29.909  28.318  1.00  0.00     0.039 A 
ATOM     30  C   UNL A   1      36.749  30.019  27.295  1.00  0.00     0.014 A 
ATOM     31  C   UNL A   1      36.161  29.367  29.556  1.00  0.00     0.014 A 
ATOM     32  C   UNL A   1      38.072  29.646  27.539  1.00  0.00     0.010 A 
ATOM     33  C   UNL A   1      37.494  29.071  29.819  1.00  0.00     0.010 A 
ATOM     34  C   UNL A   1      38.464  29.207  28.815  1.00  0.00    -0.014 A 
BRANCH  34  35
ATOM     35  C   UNL A   1      39.879  28.880  29.121  1.00  0.00     0.031 A 
ATOM     36  C   UNL A   1      40.774  29.924  29.731  1.00  0.00     0.074 A 
ATOM     37  C   UNL A   1      40.377  27.673  28.784  1.00  0.00     0.049 A 
ATOM     38  N   UNL A   1      42.055  29.867  29.989  1.00  0.00    -0.248 NA
ATOM     39  C   UNL A   1      40.153  31.216  30.069  1.00  0.00     0.031 C 
ATOM     40  C   UNL A   1      39.620  26.593  28.145  1.00  0.00     0.029 A 
ATOM     41  N   UNL A   1      41.641  27.154  28.917  1.00  0.00    -0.354 N 
ATOM     42  C   UNL A   1      42.395  31.111  30.504  1.00  0.00     0.074 A 
ATOM     43  C   UNL A   1      41.198  31.924  30.467  1.00  0.00     0.031 C 
ATOM     44  C   UNL A   1      40.428  25.536  27.963  1.00  0.00     0.029 A 
ATOM     45  C   UNL A   1      41.769  25.875  28.428  1.00  0.00     0.049 A 
ATOM     46  H   UNL A   1      42.386  27.652  29.325  1.00  0.00     0.167 HD
ATOM     47  C   UNL A   1      43.588  31.532  30.986  1.00  0.00     0.037 A 
ATOM     48  C   UNL A   1      42.848  25.071  28.351  1.00  0.00     0.037 A 
ATOM     49  C   UNL A   1      44.769  30.709  31.038  1.00  0.00     0.049 A 
ATOM     50  C   UNL A   1      44.168  25.566  28.881  1.00  0.00     0.074 A 
ATOM     51  C   UNL A   1      46.012  31.021  31.558  1.00  0.00     0.029 A 
ATOM     52  N   UNL A   1      44.854  29.413  30.549  1.00  0.00    -0.354 N 
ATOM     53  N   UNL A   1      44.456  26.726  29.423  1.00  0.00    -0.248 NA
ATOM     54  C   UNL A   1      45.307  24.644  28.793  1.00  0.00     0.031 C 
ATOM     55  C   UNL A   1      46.864  29.935  31.337  1.00  0.00     0.029 A 
ATOM     56  C   UNL A   1      46.136  28.922  30.733  1.00  0.00     0.049 A 
ATOM     57  H   UNL A   1      44.114  28.916  30.134  1.00  0.00     0.167 HD
ATOM     58  C   UNL A   1      45.802  26.659  29.770  1.00  0.00     0.074 A 
ATOM     59  C   UNL A   1      46.266  25.342  29.387  1.00  0.00     0.031 C 
ATOM     60  C   UNL A   1      46.581  27.603  30.354  1.00  0.00     0.037 A 
BRANCH  47  61
ATOM     61  C   UNL A   1      43.677  32.945  31.498  1.00  0.00     0.058 A 
ATOM     62  C   UNL A   1      43.660  33.236  32.872  1.00  0.00     0.135 A 
ATOM     63  C   UNL A   1      43.816  34.020  30.605  1.00  0.00     0.135 A 
ATOM     64  F   UNL A   1      43.513  32.249  33.771  1.00  0.00    -0.206 F 
ATOM     65  C   UNL A   1      43.746  34.543  33.341  1.00  0.00     0.059 A 
ATOM     66  C   UNL A   1      43.937  35.333  31.053  1.00  0.00     0.059 A 
ATOM     67  F   UNL A   1      43.837  33.802  29.280  1.00  0.00    -0.206 F 
ATOM     68  C   UNL A   1      43.885  35.585  32.423  1.00  0.00     0.060 A 
BRANCH  68  69
ATOM     69  S   UNL A   1      44.002  37.272  33.051  1.00  0.00     0.124 S 
ATOM     70  O   UNL A   1      42.801  37.360  33.876  1.00  0.00    -0.237 OA
ATOM     71  O   UNL A   1      45.268  37.248  33.775  1.00  0.00    -0.237 OA
ATOM     72  O   UNL A   1      43.990  38.089  31.840  1.00  0.00    -0.744 OA
ENDBRANCH  68  69
ENDBRANCH  47  61
BRANCH  48  73
ATOM     73  C   UNL A   1      42.723  23.709  27.764  1.00  0.00     0.058 A 
ATOM     74  C   UNL A   1      42.846  23.504  26.381  1.00  0.00     0.135 A 
ATOM     75  C   UNL A   1      42.484  22.585  28.570  1.00  0.00     0.135 A 
ATOM     76  F   UNL A   1      43.068  24.546  25.566  1.00  0.00    -0.206 F 
ATOM     77  C   UNL A   1      42.719  22.239  25.817  1.00  0.00     0.059 A 
ATOM     78  C   UNL A   1      42.382  21.306  28.034  1.00  0.00     0.059 A 
ATOM     79  F   UNL A   1      42.375  22.723  29.901  1.00  0.00    -0.206 F 
ATOM     80  C   UNL A   1      42.490  21.144  26.653  1.00  0.00     0.060 A 
BRANCH  80  81
ATOM     81  S   UNL A   1      42.371  19.501  25.913  1.00  0.00     0.124 S 
ATOM     82  O   UNL A   1      40.938  19.392  25.667  1.00  0.00    -0.237 OA
ATOM     83  O   UNL A   1      43.215  19.639  24.730  1.00  0.00    -0.237 OA
ATOM     84  O   UNL A   1      42.903  18.626  26.954  1.00  0.00    -0.744 OA
ENDBRANCH  80  81
ENDBRANCH  48  73
BRANCH  60  85
ATOM     85  C   UNL A   1      48.009  27.236  30.655  1.00  0.00     0.058 A 
ATOM     86  C   UNL A   1      49.043  27.460  29.734  1.00  0.00     0.135 A 
ATOM     87  C   UNL A   1      48.354  26.704  31.909  1.00  0.00     0.135 A 
ATOM     88  F   UNL A   1      48.769  27.960  28.518  1.00  0.00    -0.206 F 
ATOM     89  C   UNL A   1      50.365  27.147  30.034  1.00  0.00     0.059 A 
ATOM     90  C   UNL A   1      49.673  26.413  32.243  1.00  0.00     0.059 A 
ATOM     91  F   UNL A   1      47.406  26.480  32.833  1.00  0.00    -0.206 F 
ATOM     92  C   UNL A   1      50.670  26.627  31.294  1.00  0.00     0.060 A 
BRANCH  92  93
ATOM     93  S   UNL A   1      52.395  26.260  31.683  1.00  0.00     0.124 S 
ATOM     94  O   UNL A   1      52.556  26.935  32.966  1.00  0.00    -0.237 OA
ATOM     95  O   UNL A   1      52.400  24.801  31.727  1.00  0.00    -0.237 OA
ATOM     96  O   UNL A   1      53.129  26.851  30.567  1.00  0.00    -0.744 OA
ENDBRANCH  92  93
ENDBRANCH  60  85
ENDBRANCH  34  35
ENDBRANCH  26  29
ENDBRANCH  24  25
ENDBRANCH  23  24
ENDBRANCH   1  23
TORSDOF 18
ENDMDL
MODEL 2
REMARK VINA RESULT:      -9.6      1.520      8.488
REMARK SMILES COc1ccc(NCc2ccc(C(=O)NCCCCNC(=O)c3ccc(-c4c5nc(c(-c6c(F)cc(S(=O)(=O)[O-])cc6F)c6ccc([nH]6)c(-c6c(F)cc(S(=O)(=O)[O-])cc6F)c6nc(c(-c7c(F)cc(S(=O)(=O)[O-])cc7F)c7ccc4[nH]7)C=C6)C=C5)cc3)o2)cc1
REMARK SMILES IDX 17 1 16 2 15 3 13 4 14 5 12 7 9 8 10 9 89 10 11 11 8 12 7 13
REMARK SMILES IDX 6 15 3 16 4 17 91 18 5 19 90 20 2 21 1 22 18 23 19 24 20 25
REMARK SMILES IDX 21 26 22 28 23 29 24 30 88 31 25 32 87 33 26 34 27 35 28 36
REMARK SMILES IDX 81 37 29 38 86 39 80 40 82 41 30 42 85 43 79 44 78 45 31 47
REMARK SMILES IDX 65 48 44 49 64 50 45 51 48 52 63 53 83 54 46 55 47 56 62 58
REMARK SMILES IDX 84 59 49 60 32 61 33 62 42 63 34 64 35 65 41 66 43 67 36 68
REMARK SMILES IDX 37 69 38 70 39 71 40 72 66 73 67 74 76 75 68 76 69 77 75 78
REMARK SMILES IDX 77 79 70 80 71 81 72 82 73 83 74 84 50 85 51 86 60 87 52 88
REMARK SMILES IDX 53 89 59 90 61 91 54 92 55 93 56 94 57 95 58 96
REMARK H PARENT 15 6 7 14 20 27 82 46 48 57
REMARK Flexibility Score: inf
ROOT
ATOM      1  C   UNL A   1      34.246  34.587  28.121  1.00  0.00     0.023 C 
ENDROOT
BRANCH   1   2
ATOM      2  C   UNL A   1      33.084  34.555  29.112  1.00  0.00     0.116 C 
BRANCH   2   3
ATOM      3  N   UNL A   1      32.827  35.868  29.662  1.00  0.00    -0.349 N 
ATOM      4  C   UNL A   1      33.190  36.433  30.865  1.00  0.00     0.286 C 
ATOM      5  O   UNL A   1      32.906  37.624  31.001  1.00  0.00    -0.266 OA
ATOM      6  H   UNL A   1      32.302  36.460  29.077  1.00  0.00     0.163 HD
BRANCH   4   7
ATOM      7  C   UNL A   1      33.878  35.662  31.890  1.00  0.00     0.191 A 
ATOM      8  C   UNL A   1      34.808  33.794  32.650  1.00  0.00     0.124 A 
ATOM      9  C   UNL A   1      34.942  34.729  33.651  1.00  0.00     0.048 A 
ATOM     10  O   UNL A   1      34.156  34.348  31.590  1.00  0.00    -0.454 OA
ATOM     11  C   UNL A   1      34.387  35.931  33.150  1.00  0.00     0.056 A 
BRANCH   8  12
ATOM     12  C   UNL A   1      35.269  32.379  32.529  1.00  0.00     0.188 C 
BRANCH  12  13
ATOM     13  N   UNL A   1      36.694  32.186  32.331  1.00  0.00    -0.378 N 
ATOM     14  H   UNL A   1      37.115  31.453  32.836  1.00  0.00     0.161 HD
BRANCH  13  15
ATOM     15  C   UNL A   1      37.517  32.924  31.506  1.00  0.00     0.035 A 
ATOM     16  C   UNL A   1      39.219  34.571  29.949  1.00  0.00     0.119 A 
ATOM     17  C   UNL A   1      38.250  33.781  29.342  1.00  0.00     0.048 A 
ATOM     18  C   UNL A   1      39.320  34.578  31.336  1.00  0.00     0.048 A 
ATOM     19  C   UNL A   1      37.410  32.967  30.114  1.00  0.00     0.029 A 
ATOM     20  C   UNL A   1      38.474  33.763  32.100  1.00  0.00     0.029 A 
BRANCH  16  21
ATOM     21  O   UNL A   1      39.977  35.343  29.113  1.00  0.00    -0.497 OA
ATOM     22  C   UNL A   1      41.381  35.198  29.298  1.00  0.00     0.278 C 
ENDBRANCH  16  21
ENDBRANCH  13  15
ENDBRANCH  12  13
ENDBRANCH   8  12
ENDBRANCH   4   7
ENDBRANCH   2   3
ENDBRANCH   1   2
BRANCH   1  23
ATOM     23  C   UNL A   1      34.867  33.212  27.850  1.00  0.00     0.023 C 
BRANCH  23  24
ATOM     24  C   UNL A   1      34.587  32.156  28.915  1.00  0.00     0.116 C 
BRANCH  24  25
ATOM     25  N   UNL A   1      34.058  30.913  28.370  1.00  0.00    -0.352 N 
ATOM     26  C   UNL A   1      34.747  29.779  28.013  1.00  0.00     0.251 C 
ATOM     27  H   UNL A   1      33.082  30.882  28.243  1.00  0.00     0.163 HD
ATOM     28  O   UNL A   1      34.169  28.853  27.454  1.00  0.00    -0.269 OA
BRANCH  26  29
ATOM     29  C   UNL A   1      36.199  29.710  28.276  1.00  0.00     0.039 A 
ATOM     30  C   UNL A   1      36.640  29.328  29.544  1.00  0.00     0.014 A 
ATOM     31  C   UNL A   1      37.114  29.969  27.253  1.00  0.00     0.014 A 
ATOM     32  C   UNL A   1      38.005  29.139  29.767  1.00  0.00     0.010 A 
ATOM     33  C   UNL A   1      38.464  29.703  27.456  1.00  0.00     0.010 A 
ATOM     34  C   UNL A   1      38.925  29.286  28.714  1.00  0.00    -0.014 A 
BRANCH  34  35
ATOM     35  C   UNL A   1      40.372  29.014  28.905  1.00  0.00     0.031 A 
ATOM     36  C   UNL A   1      40.932  27.661  28.560  1.00  0.00     0.074 A 
ATOM     37  C   UNL A   1      41.164  29.956  29.456  1.00  0.00     0.049 A 
ATOM     38  N   UNL A   1      42.142  27.197  28.737  1.00  0.00    -0.248 NA
ATOM     39  C   UNL A   1      40.000  26.690  27.963  1.00  0.00     0.031 C 
ATOM     40  C   UNL A   1      40.728  31.291  29.875  1.00  0.00     0.029 A 
ATOM     41  N   UNL A   1      42.499  29.932  29.772  1.00  0.00    -0.354 N 
ATOM     42  C   UNL A   1      42.114  25.883  28.289  1.00  0.00     0.074 A 
ATOM     43  C   UNL A   1      40.752  25.603  27.886  1.00  0.00     0.031 C 
ATOM     44  C   UNL A   1      41.779  31.962  30.372  1.00  0.00     0.029 A 
ATOM     45  C   UNL A   1      42.953  31.095  30.350  1.00  0.00     0.049 A 
ATOM     46  H   UNL A   1      43.079  29.155  29.601  1.00  0.00     0.167 HD
ATOM     47  C   UNL A   1      43.133  24.997  28.198  1.00  0.00     0.037 A 
ATOM     48  C   UNL A   1      44.173  31.421  30.821  1.00  0.00     0.037 A 
ATOM     49  C   UNL A   1      44.490  25.291  28.582  1.00  0.00     0.049 A 
ATOM     50  C   UNL A   1      45.288  30.413  30.723  1.00  0.00     0.074 A 
ATOM     51  C   UNL A   1      45.607  24.482  28.478  1.00  0.00     0.029 A 
ATOM     52  N   UNL A   1      44.913  26.485  29.147  1.00  0.00    -0.354 N 
ATOM     53  N   UNL A   1      45.257  29.195  30.236  1.00  0.00    -0.248 NA
ATOM     54  C   UNL A   1      46.603  30.826  31.230  1.00  0.00     0.031 C 
ATOM     55  C   UNL A   1      46.695  25.166  29.028  1.00  0.00     0.029 A 
ATOM     56  C   UNL A   1      46.269  26.426  29.419  1.00  0.00     0.049 A 
ATOM     57  H   UNL A   1      44.335  27.261  29.326  1.00  0.00     0.167 HD
ATOM     58  C   UNL A   1      46.555  28.708  30.352  1.00  0.00     0.074 A 
ATOM     59  C   UNL A   1      47.348  29.767  30.942  1.00  0.00     0.031 C 
ATOM     60  C   UNL A   1      47.047  27.494  29.999  1.00  0.00     0.037 A 
BRANCH  47  61
ATOM     61  C   UNL A   1      42.822  23.625  27.662  1.00  0.00     0.058 A 
ATOM     62  C   UNL A   1      42.863  23.343  26.286  1.00  0.00     0.135 A 
ATOM     63  C   UNL A   1      42.513  22.570  28.536  1.00  0.00     0.135 A 
ATOM     64  F   UNL A   1      43.137  24.316  25.403  1.00  0.00    -0.206 F 
ATOM     65  C   UNL A   1      42.578  22.072  25.795  1.00  0.00     0.059 A 
ATOM     66  C   UNL A   1      42.257  21.283  28.068  1.00  0.00     0.059 A 
ATOM     67  F   UNL A   1      42.459  22.782  29.860  1.00  0.00    -0.206 F 
ATOM     68  C   UNL A   1      42.277  21.049  26.694  1.00  0.00     0.060 A 
BRANCH  68  69
ATOM     69  S   UNL A   1      41.918  19.407  26.038  1.00  0.00     0.124 S 
ATOM     70  O   UNL A   1      42.286  18.556  27.166  1.00  0.00    -0.237 OA
ATOM     71  O   UNL A   1      40.490  19.493  25.748  1.00  0.00    -0.237 OA
ATOM     72  O   UNL A   1      42.787  19.309  24.869  1.00  0.00    -0.744 OA
ENDBRANCH  68  69
ENDBRANCH  47  61
BRANCH  48  73
ATOM     73  C   UNL A   1      44.408  32.766  31.414  1.00  0.00     0.058 A 
ATOM     74  C   UNL A   1      44.805  33.849  30.615  1.00  0.00     0.135 A 
ATOM     75  C   UNL A   1      44.237  32.998  32.788  1.00  0.00     0.135 A 
ATOM     76  F   UNL A   1      44.989  33.677  29.297  1.00  0.00    -0.206 F 
ATOM     77  C   UNL A   1      45.041  35.108  31.157  1.00  0.00     0.059 A 
ATOM     78  C   UNL A   1      44.439  34.255  33.349  1.00  0.00     0.059 A 
ATOM     79  F   UNL A   1      43.843  32.001  33.595  1.00  0.00    -0.206 F 
ATOM     80  C   UNL A   1      44.853  35.302  32.526  1.00  0.00     0.060 A 
BRANCH  80  81
ATOM     81  S   UNL A   1      45.120  36.952  33.211  1.00  0.00     0.124 S 
ATOM     82  O   UNL A   1      45.906  37.584  32.157  1.00  0.00    -0.237 OA
ATOM     83  O   UNL A   1      43.753  37.440  33.368  1.00  0.00    -0.237 OA
ATOM     84  O   UNL A   1      45.830  36.687  34.458  1.00  0.00    -0.744 OA
ENDBRANCH  80  81
ENDBRANCH  48  73
BRANCH  60  85
ATOM     85  C   UNL A   1      48.519  27.254  30.202  1.00  0.00     0.058 A 
ATOM     86  C   UNL A   1      49.468  27.596  29.226  1.00  0.00     0.135 A 
ATOM     87  C   UNL A   1      48.989  26.725  31.415  1.00  0.00     0.135 A 
ATOM     88  F   UNL A   1      49.073  28.099  28.046  1.00  0.00    -0.206 F 
ATOM     89  C   UNL A   1      50.829  27.400  29.437  1.00  0.00     0.059 A 
ATOM     90  C   UNL A   1      50.348  26.550  31.660  1.00  0.00     0.059 A 
ATOM     91  F   UNL A   1      48.125  26.391  32.388  1.00  0.00    -0.206 F 
ATOM     92  C   UNL A   1      51.259  26.879  30.659  1.00  0.00     0.060 A 
BRANCH  92  93
ATOM     93  S   UNL A   1      53.031  26.664  30.931  1.00  0.00     0.124 S 
ATOM     94  O   UNL A   1      53.057  25.465  31.761  1.00  0.00    -0.237 OA
ATOM     95  O   UNL A   1      53.538  26.507  29.572  1.00  0.00    -0.237 OA
ATOM     96  O   UNL A   1      53.425  27.900  31.602  1.00  0.00    -0.744 OA
ENDBRANCH  92  93
ENDBRANCH  60  85
ENDBRANCH  34  35
ENDBRANCH  26  29
ENDBRANCH  24  25
ENDBRANCH  23  24
ENDBRANCH   1  23
TORSDOF 18
ENDMDL
MODEL 3
REMARK VINA RESULT:      -9.5      0.585      1.869
REMARK SMILES COc1ccc(NCc2ccc(C(=O)NCCCCNC(=O)c3ccc(-c4c5nc(c(-c6c(F)cc(S(=O)(=O)[O-])cc6F)c6ccc([nH]6)c(-c6c(F)cc(S(=O)(=O)[O-])cc6F)c6nc(c(-c7c(F)cc(S(=O)(=O)[O-])cc7F)c7ccc4[nH]7)C=C6)C=C5)cc3)o2)cc1
REMARK SMILES IDX 17 1 16 2 15 3 13 4 14 5 12 7 9 8 10 9 89 10 11 11 8 12 7 13
REMARK SMILES IDX 6 15 3 16 4 17 91 18 5 19 90 20 2 21 1 22 18 23 19 24 20 25
REMARK SMILES IDX 21 26 22 28 23 29 24 30 88 31 25 32 87 33 26 34 27 35 28 36
REMARK SMILES IDX 81 37 29 38 86 39 80 40 82 41 30 42 85 43 79 44 78 45 31 47
REMARK SMILES IDX 65 48 44 49 64 50 45 51 48 52 63 53 83 54 46 55 47 56 62 58
REMARK SMILES IDX 84 59 49 60 32 61 33 62 42 63 34 64 35 65 41 66 43 67 36 68
REMARK SMILES IDX 37 69 38 70 39 71 40 72 66 73 67 74 76 75 68 76 69 77 75 78
REMARK SMILES IDX 77 79 70 80 71 81 72 82 73 83 74 84 50 85 51 86 60 87 52 88
REMARK SMILES IDX 53 89 59 90 61 91 54 92 55 93 56 94 57 95 58 96
REMARK H PARENT 15 6 7 14 20 27 82 46 48 57
REMARK Flexibility Score: inf
ROOT
ATOM      1  C   UNL A   1      33.756  35.024  28.659  1.00  0.00     0.023 C 
ENDROOT
BRANCH   1   2
ATOM      2  C   UNL A   1      32.948  34.971  29.955  1.00  0.00     0.116 C 
BRANCH   2   3
ATOM      3  N   UNL A   1      32.790  36.288  30.530  1.00  0.00    -0.349 N 
ATOM      4  C   UNL A   1      33.318  36.847  31.672  1.00  0.00     0.286 C 
ATOM      5  O   UNL A   1      33.077  38.043  31.841  1.00  0.00    -0.266 OA
ATOM      6  H   UNL A   1      32.203  36.889  30.017  1.00  0.00     0.163 HD
BRANCH   4   7
ATOM      7  C   UNL A   1      34.121  36.064  32.600  1.00  0.00     0.191 A 
ATOM      8  C   UNL A   1      35.806  34.695  33.068  1.00  0.00     0.124 A 
ATOM      9  C   UNL A   1      35.179  34.961  34.264  1.00  0.00     0.048 A 
ATOM     10  O   UNL A   1      35.164  35.348  32.059  1.00  0.00    -0.454 OA
ATOM     11  C   UNL A   1      34.132  35.867  33.971  1.00  0.00     0.056 A 
BRANCH   8  12
ATOM     12  C   UNL A   1      37.019  33.895  32.726  1.00  0.00     0.188 C 
BRANCH  12  13
ATOM     13  N   UNL A   1      37.634  33.168  33.822  1.00  0.00    -0.378 N 
ATOM     14  H   UNL A   1      37.614  33.601  34.707  1.00  0.00     0.161 HD
BRANCH  13  15
ATOM     15  C   UNL A   1      38.243  31.932  33.751  1.00  0.00     0.035 A 
ATOM     16  C   UNL A   1      39.658  29.483  33.566  1.00  0.00     0.119 A 
ATOM     17  C   UNL A   1      38.324  29.560  33.184  1.00  0.00     0.048 A 
ATOM     18  C   UNL A   1      40.307  30.632  34.004  1.00  0.00     0.048 A 
ATOM     19  C   UNL A   1      37.627  30.772  33.276  1.00  0.00     0.029 A 
ATOM     20  C   UNL A   1      39.602  31.840  34.092  1.00  0.00     0.029 A 
BRANCH  16  21
ATOM     21  O   UNL A   1      40.256  28.261  33.422  1.00  0.00    -0.497 OA
ATOM     22  C   UNL A   1      41.602  28.323  32.961  1.00  0.00     0.278 C 
ENDBRANCH  16  21
ENDBRANCH  13  15
ENDBRANCH  12  13
ENDBRANCH   8  12
ENDBRANCH   4   7
ENDBRANCH   2   3
ENDBRANCH   1   2
BRANCH   1  23
ATOM     23  C   UNL A   1      33.692  33.733  27.836  1.00  0.00     0.023 C 
BRANCH  23  24
ATOM     24  C   UNL A   1      34.337  32.515  28.493  1.00  0.00     0.116 C 
BRANCH  24  25
ATOM     25  N   UNL A   1      33.750  31.252  28.068  1.00  0.00    -0.352 N 
ATOM     26  C   UNL A   1      34.371  30.038  27.901  1.00  0.00     0.251 C 
ATOM     27  H   UNL A   1      32.784  31.271  27.876  1.00  0.00     0.163 HD
ATOM     28  O   UNL A   1      33.761  29.089  27.420  1.00  0.00    -0.269 OA
BRANCH  26  29
ATOM     29  C   UNL A   1      35.795  29.905  28.273  1.00  0.00     0.039 A 
ATOM     30  C   UNL A   1      36.122  29.491  29.566  1.00  0.00     0.014 A 
ATOM     31  C   UNL A   1      36.796  30.136  27.327  1.00  0.00     0.014 A 
ATOM     32  C   UNL A   1      37.457  29.242  29.889  1.00  0.00     0.010 A 
ATOM     33  C   UNL A   1      38.114  29.812  27.628  1.00  0.00     0.010 A 
ATOM     34  C   UNL A   1      38.460  29.362  28.911  1.00  0.00    -0.014 A 
BRANCH  34  35
ATOM     35  C   UNL A   1      39.875  29.027  29.208  1.00  0.00     0.031 A 
ATOM     36  C   UNL A   1      40.776  30.059  29.829  1.00  0.00     0.074 A 
ATOM     37  C   UNL A   1      40.368  27.823  28.852  1.00  0.00     0.049 A 
ATOM     38  N   UNL A   1      42.057  29.994  30.082  1.00  0.00    -0.248 NA
ATOM     39  C   UNL A   1      40.160  31.348  30.188  1.00  0.00     0.031 C 
ATOM     40  C   UNL A   1      39.605  26.755  28.201  1.00  0.00     0.029 A 
ATOM     41  N   UNL A   1      41.630  27.299  28.974  1.00  0.00    -0.354 N 
ATOM     42  C   UNL A   1      42.402  31.231  30.614  1.00  0.00     0.074 A 
ATOM     43  C   UNL A   1      41.208  32.047  30.593  1.00  0.00     0.031 C 
ATOM     44  C   UNL A   1      40.409  25.698  28.001  1.00  0.00     0.029 A 
ATOM     45  C   UNL A   1      41.753  26.026  28.466  1.00  0.00     0.049 A 
ATOM     46  H   UNL A   1      42.379  27.788  29.386  1.00  0.00     0.167 HD
ATOM     47  C   UNL A   1      43.599  31.641  31.097  1.00  0.00     0.037 A 
ATOM     48  C   UNL A   1      42.829  25.220  28.374  1.00  0.00     0.037 A 
ATOM     49  C   UNL A   1      44.777  30.814  31.133  1.00  0.00     0.049 A 
ATOM     50  C   UNL A   1      44.153  25.704  28.906  1.00  0.00     0.074 A 
ATOM     51  C   UNL A   1      46.023  31.115  31.654  1.00  0.00     0.029 A 
ATOM     52  N   UNL A   1      44.857  29.525  30.626  1.00  0.00    -0.354 N 
ATOM     53  N   UNL A   1      44.446  26.855  29.464  1.00  0.00    -0.248 NA
ATOM     54  C   UNL A   1      45.289  24.779  28.801  1.00  0.00     0.031 C 
ATOM     55  C   UNL A   1      46.871  30.029  31.414  1.00  0.00     0.029 A 
ATOM     56  C   UNL A   1      46.138  29.027  30.799  1.00  0.00     0.049 A 
ATOM     57  H   UNL A   1      44.113  29.036  30.207  1.00  0.00     0.167 HD
ATOM     58  C   UNL A   1      45.793  26.779  29.804  1.00  0.00     0.074 A 
ATOM     59  C   UNL A   1      46.252  25.466  29.402  1.00  0.00     0.031 C 
ATOM     60  C   UNL A   1      46.577  27.712  30.400  1.00  0.00     0.037 A 
BRANCH  47  61
ATOM     61  C   UNL A   1      43.694  33.046  31.628  1.00  0.00     0.058 A 
ATOM     62  C   UNL A   1      44.004  34.132  30.793  1.00  0.00     0.135 A 
ATOM     63  C   UNL A   1      43.437  33.316  32.982  1.00  0.00     0.135 A 
ATOM     64  F   UNL A   1      44.276  33.932  29.494  1.00  0.00    -0.206 F 
ATOM     65  C   UNL A   1      44.088  35.431  31.288  1.00  0.00     0.059 A 
ATOM     66  C   UNL A   1      43.482  34.612  33.492  1.00  0.00     0.059 A 
ATOM     67  F   UNL A   1      43.135  32.317  33.827  1.00  0.00    -0.206 F 
ATOM     68  C   UNL A   1      43.824  35.660  32.639  1.00  0.00     0.060 A 
BRANCH  68  69
ATOM     69  S   UNL A   1      43.930  37.351  33.259  1.00  0.00     0.124 S 
ATOM     70  O   UNL A   1      43.793  38.122  32.027  1.00  0.00    -0.237 OA
ATOM     71  O   UNL A   1      42.798  37.418  34.178  1.00  0.00    -0.237 OA
ATOM     72  O   UNL A   1      45.247  37.402  33.887  1.00  0.00    -0.744 OA
ENDBRANCH  68  69
ENDBRANCH  47  61
BRANCH  48  73
ATOM     73  C   UNL A   1      42.698  23.867  27.768  1.00  0.00     0.058 A 
ATOM     74  C   UNL A   1      42.501  22.732  28.570  1.00  0.00     0.135 A 
ATOM     75  C   UNL A   1      42.761  23.680  26.379  1.00  0.00     0.135 A 
ATOM     76  F   UNL A   1      42.441  22.857  29.904  1.00  0.00    -0.206 F 
ATOM     77  C   UNL A   1      42.389  21.460  28.019  1.00  0.00     0.059 A 
ATOM     78  C   UNL A   1      42.623  22.422  25.802  1.00  0.00     0.059 A 
ATOM     79  F   UNL A   1      42.932  24.734  25.565  1.00  0.00    -0.206 F 
ATOM     80  C   UNL A   1      42.449  21.315  26.632  1.00  0.00     0.060 A 
BRANCH  80  81
ATOM     81  S   UNL A   1      42.258  19.663  25.926  1.00  0.00     0.124 S 
ATOM     82  O   UNL A   1      42.627  18.817  27.055  1.00  0.00    -0.237 OA
ATOM     83  O   UNL A   1      40.847  19.653  25.554  1.00  0.00    -0.237 OA
ATOM     84  O   UNL A   1      43.194  19.667  24.806  1.00  0.00    -0.744 OA
ENDBRANCH  80  81
ENDBRANCH  48  73
BRANCH  60  85
ATOM     85  C   UNL A   1      48.005  27.336  30.691  1.00  0.00     0.058 A 
ATOM     86  C   UNL A   1      48.379  26.715  31.892  1.00  0.00     0.135 A 
ATOM     87  C   UNL A   1      49.004  27.552  29.727  1.00  0.00     0.135 A 
ATOM     88  F   UNL A   1      47.467  26.491  32.850  1.00  0.00    -0.206 F 
ATOM     89  C   UNL A   1      49.698  26.343  32.137  1.00  0.00     0.059 A 
ATOM     90  C   UNL A   1      50.322  27.159  29.937  1.00  0.00     0.059 A 
ATOM     91  F   UNL A   1      48.700  28.133  28.554  1.00  0.00    -0.206 F 
ATOM     92  C   UNL A   1      50.661  26.566  31.152  1.00  0.00     0.060 A 
BRANCH  92  93
ATOM     93  S   UNL A   1      52.360  26.044  31.470  1.00  0.00     0.124 S 
ATOM     94  O   UNL A   1      52.817  27.078  32.394  1.00  0.00    -0.237 OA
ATOM     95  O   UNL A   1      52.175  24.716  32.045  1.00  0.00    -0.237 OA
ATOM     96  O   UNL A   1      52.977  26.069  30.147  1.00  0.00    -0.744 OA
ENDBRANCH  92  93
ENDBRANCH  60  85
ENDBRANCH  34  35
ENDBRANCH  26  29
ENDBRANCH  24  25
ENDBRANCH  23  24
ENDBRANCH   1  23
TORSDOF 18
ENDMDL
