MODEL 1
REMARK VINA RESULT:     -11.5      0.000      0.000
REMARK SMILES COc1ccc(CCC(=O)Nc2ccc(N3CCCC3)cc2C(=O)NCCCCNC(=O)c2ccc(-c3c4nc(c(-c5c(F)cc(S(=O)(=O)[O-])cc5F)c5ccc([nH]5)c(-c5c(F)cc(S(=O)(=O)[O-])cc5F)c5nc(c(-c6c(F)cc(S(=O)(=O)[O-])cc6F)c6ccc3[nH]6)C=C5)C=C4)cc2)cc1
REMARK SMILES IDX 26 1 25 2 23 3 24 4 22 6 12 7 13 8 14 9 21 10 15 11 11 12
REMARK SMILES IDX 9 13 10 14 8 16 7 17 6 18 3 19 4 20 100 21 5 22 99 23 2 24
REMARK SMILES IDX 1 25 16 26 17 27 20 28 18 29 19 30 27 31 28 32 29 33 30 34
REMARK SMILES IDX 31 35 32 37 33 38 34 39 98 40 35 41 97 42 36 43 37 44 38 45
REMARK SMILES IDX 91 46 39 47 96 48 90 49 92 50 40 51 95 52 89 53 88 54 41 56
REMARK SMILES IDX 75 57 54 58 74 59 55 60 58 61 73 62 93 63 56 64 57 65 72 67
REMARK SMILES IDX 94 68 59 69 42 70 43 71 52 72 44 73 45 74 51 75 53 76 46 77
REMARK SMILES IDX 47 78 48 79 49 80 50 81 76 82 77 83 86 84 78 85 79 86 85 87
REMARK SMILES IDX 87 88 80 89 81 90 82 91 83 92 84 93 60 94 61 95 70 96 62 97
REMARK SMILES IDX 63 98 69 99 71 100 64 101 65 102 66 103 67 104 68 105
REMARK H PARENT 25 5 11 15 30 36 92 55 58 66
REMARK Flexibility Score: inf
ROOT
ATOM      1  C   UNL A   1      36.872  23.911  26.232  1.00  0.00     0.116 C 
ENDROOT
BRANCH   1   2
ATOM      2  N   UNL A   1      36.848  22.603  25.653  1.00  0.00    -0.352 N 
ATOM      3  C   UNL A   1      35.926  21.735  25.156  1.00  0.00     0.253 C 
ATOM      4  O   UNL A   1      36.374  20.627  25.230  1.00  0.00    -0.269 OA
ATOM      5  H   UNL A   1      37.755  22.225  25.599  1.00  0.00     0.163 HD
BRANCH   3   6
ATOM      6  C   UNL A   1      34.722  22.072  24.326  1.00  0.00     0.065 A 
ATOM      7  C   UNL A   1      33.568  21.491  24.772  1.00  0.00     0.054 A 
ATOM      8  C   UNL A   1      32.495  21.378  23.904  1.00  0.00     0.029 A 
ATOM      9  C   UNL A   1      32.344  22.392  22.963  1.00  0.00     0.028 A 
ATOM     10  C   UNL A   1      34.498  23.210  23.519  1.00  0.00     0.042 A 
ATOM     11  C   UNL A   1      33.234  23.468  22.934  1.00  0.00     0.038 A 
BRANCH   7  12
ATOM     12  N   UNL A   1      33.354  21.421  26.166  1.00  0.00    -0.325 N 
ATOM     13  C   UNL A   1      32.618  22.336  26.943  1.00  0.00     0.224 C 
ATOM     14  O   UNL A   1      32.929  22.414  28.137  1.00  0.00    -0.275 OA
ATOM     15  H   UNL A   1      33.758  20.659  26.640  1.00  0.00     0.169 HD
BRANCH  13  16
ATOM     16  C   UNL A   1      31.262  23.013  26.400  1.00  0.00     0.105 C 
BRANCH  16  17
ATOM     17  C   UNL A   1      30.984  24.547  25.995  1.00  0.00     0.045 C 
BRANCH  17  18
ATOM     18  C   UNL A   1      31.929  25.724  26.408  1.00  0.00    -0.047 A 
ATOM     19  C   UNL A   1      33.292  28.187  26.266  1.00  0.00     0.118 A 
ATOM     20  C   UNL A   1      33.876  27.046  25.750  1.00  0.00     0.046 A 
ATOM     21  C   UNL A   1      32.231  28.029  27.161  1.00  0.00     0.046 A 
ATOM     22  C   UNL A   1      33.261  25.801  25.950  1.00  0.00     0.007 A 
ATOM     23  C   UNL A   1      31.507  26.810  27.178  1.00  0.00     0.007 A 
BRANCH  19  24
ATOM     24  O   UNL A   1      33.400  29.284  25.440  1.00  0.00    -0.497 OA
ATOM     25  C   UNL A   1      32.292  29.680  24.659  1.00  0.00     0.278 C 
ENDBRANCH  19  24
ENDBRANCH  17  18
ENDBRANCH  16  17
ENDBRANCH  13  16
ENDBRANCH   7  12
BRANCH  11  26
ATOM     26  N   UNL A   1      32.779  24.686  22.471  1.00  0.00    -0.372 N 
ATOM     27  C   UNL A   1      33.548  25.837  22.037  1.00  0.00     0.116 C 
ATOM     28  C   UNL A   1      31.351  25.043  22.577  1.00  0.00     0.116 C 
ATOM     29  C   UNL A   1      32.661  27.040  22.380  1.00  0.00     0.023 C 
ATOM     30  C   UNL A   1      31.264  26.506  22.131  1.00  0.00     0.023 C 
ENDBRANCH  11  26
ENDBRANCH   3   6
ENDBRANCH   1   2
BRANCH   1  31
ATOM     31  C   UNL A   1      38.305  24.201  26.721  1.00  0.00     0.023 C 
BRANCH  31  32
ATOM     32  C   UNL A   1      39.366  23.089  26.541  1.00  0.00     0.023 C 
BRANCH  32  33
ATOM     33  C   UNL A   1      40.808  23.420  26.924  1.00  0.00     0.116 C 
BRANCH  33  34
ATOM     34  N   UNL A   1      41.467  24.269  25.947  1.00  0.00    -0.352 N 
ATOM     35  C   UNL A   1      41.832  25.589  26.016  1.00  0.00     0.251 C 
ATOM     36  H   UNL A   1      41.689  23.824  25.097  1.00  0.00     0.163 HD
ATOM     37  O   UNL A   1      42.242  26.160  25.010  1.00  0.00    -0.269 OA
BRANCH  35  38
ATOM     38  C   UNL A   1      41.705  26.327  27.288  1.00  0.00     0.039 A 
ATOM     39  C   UNL A   1      42.548  27.418  27.516  1.00  0.00     0.014 A 
ATOM     40  C   UNL A   1      40.766  25.945  28.250  1.00  0.00     0.014 A 
ATOM     41  C   UNL A   1      42.402  28.170  28.683  1.00  0.00     0.010 A 
ATOM     42  C   UNL A   1      40.577  26.736  29.380  1.00  0.00     0.010 A 
ATOM     43  C   UNL A   1      41.389  27.858  29.606  1.00  0.00    -0.014 A 
BRANCH  43  44
ATOM     44  C   UNL A   1      41.165  28.706  30.805  1.00  0.00     0.031 A 
ATOM     45  C   UNL A   1      40.060  29.726  30.814  1.00  0.00     0.074 A 
ATOM     46  C   UNL A   1      41.992  28.589  31.863  1.00  0.00     0.049 A 
ATOM     47  N   UNL A   1      39.734  30.583  31.747  1.00  0.00    -0.248 NA
ATOM     48  C   UNL A   1      39.226  29.811  29.604  1.00  0.00     0.031 C 
ATOM     49  C   UNL A   1      43.129  27.669  31.947  1.00  0.00     0.029 A 
ATOM     50  N   UNL A   1      42.011  29.250  33.065  1.00  0.00    -0.354 N 
ATOM     51  C   UNL A   1      38.670  31.316  31.234  1.00  0.00     0.074 A 
ATOM     52  C   UNL A   1      38.443  30.841  29.886  1.00  0.00     0.031 C 
ATOM     53  C   UNL A   1      43.715  27.803  33.147  1.00  0.00     0.029 A 
ATOM     54  C   UNL A   1      43.025  28.844  33.902  1.00  0.00     0.049 A 
ATOM     55  H   UNL A   1      41.362  29.948  33.306  1.00  0.00     0.167 HD
ATOM     56  C   UNL A   1      37.934  32.277  31.841  1.00  0.00     0.037 A 
ATOM     57  C   UNL A   1      43.364  29.268  35.135  1.00  0.00     0.037 A 
ATOM     58  C   UNL A   1      38.162  32.730  33.189  1.00  0.00     0.049 A 
ATOM     59  C   UNL A   1      42.539  30.345  35.785  1.00  0.00     0.074 A 
ATOM     60  C   UNL A   1      37.443  33.658  33.919  1.00  0.00     0.029 A 
ATOM     61  N   UNL A   1      39.194  32.291  34.007  1.00  0.00    -0.354 N 
ATOM     62  N   UNL A   1      41.490  30.978  35.313  1.00  0.00    -0.248 NA
ATOM     63  C   UNL A   1      42.938  30.764  37.136  1.00  0.00     0.031 C 
ATOM     64  C   UNL A   1      38.069  33.819  35.160  1.00  0.00     0.029 A 
ATOM     65  C   UNL A   1      39.146  32.949  35.226  1.00  0.00     0.049 A 
ATOM     66  H   UNL A   1      39.863  31.612  33.759  1.00  0.00     0.167 HD
ATOM     67  C   UNL A   1      41.090  31.853  36.317  1.00  0.00     0.074 A 
ATOM     68  C   UNL A   1      42.000  31.654  37.428  1.00  0.00     0.031 C 
ATOM     69  C   UNL A   1      40.063  32.739  36.320  1.00  0.00     0.037 A 
BRANCH  56  70
ATOM     70  C   UNL A   1      36.816  32.900  31.048  1.00  0.00     0.058 A 
ATOM     71  C   UNL A   1      35.474  32.532  31.246  1.00  0.00     0.135 A 
ATOM     72  C   UNL A   1      37.084  33.888  30.086  1.00  0.00     0.135 A 
ATOM     73  F   UNL A   1      35.159  31.584  32.143  1.00  0.00    -0.206 F 
ATOM     74  C   UNL A   1      34.446  33.091  30.494  1.00  0.00     0.059 A 
ATOM     75  C   UNL A   1      36.068  34.483  29.344  1.00  0.00     0.059 A 
ATOM     76  F   UNL A   1      38.346  34.281  29.854  1.00  0.00    -0.206 F 
ATOM     77  C   UNL A   1      34.753  34.064  29.543  1.00  0.00     0.060 A 
BRANCH  77  78
ATOM     78  S   UNL A   1      33.407  34.773  28.571  1.00  0.00     0.124 S 
ATOM     79  O   UNL A   1      33.099  33.677  27.657  1.00  0.00    -0.237 OA
ATOM     80  O   UNL A   1      32.399  35.050  29.590  1.00  0.00    -0.237 OA
ATOM     81  O   UNL A   1      34.012  35.950  27.956  1.00  0.00    -0.744 OA
ENDBRANCH  77  78
ENDBRANCH  56  70
BRANCH  57  82
ATOM     82  C   UNL A   1      44.520  28.651  35.842  1.00  0.00     0.058 A 
ATOM     83  C   UNL A   1      45.819  29.150  35.672  1.00  0.00     0.135 A 
ATOM     84  C   UNL A   1      44.347  27.567  36.717  1.00  0.00     0.135 A 
ATOM     85  F   UNL A   1      46.038  30.180  34.840  1.00  0.00    -0.206 F 
ATOM     86  C   UNL A   1      46.908  28.592  36.333  1.00  0.00     0.059 A 
ATOM     87  C   UNL A   1      45.416  27.008  37.411  1.00  0.00     0.059 A 
ATOM     88  F   UNL A   1      43.122  27.061  36.928  1.00  0.00    -0.206 F 
ATOM     89  C   UNL A   1      46.696  27.523  37.205  1.00  0.00     0.060 A 
BRANCH  89  90
ATOM     90  S   UNL A   1      48.109  26.845  38.102  1.00  0.00     0.124 S 
ATOM     91  O   UNL A   1      49.083  27.923  37.976  1.00  0.00    -0.237 OA
ATOM     92  O   UNL A   1      47.554  26.638  39.436  1.00  0.00    -0.237 OA
ATOM     93  O   UNL A   1      48.421  25.624  37.365  1.00  0.00    -0.744 OA
ENDBRANCH  89  90
ENDBRANCH  57  82
BRANCH  69  94
ATOM     94  C   UNL A   1      39.849  33.544  37.573  1.00  0.00     0.058 A 
ATOM     95  C   UNL A   1      40.545  34.741  37.808  1.00  0.00     0.135 A 
ATOM     96  C   UNL A   1      38.898  33.141  38.525  1.00  0.00     0.135 A 
ATOM     97  F   UNL A   1      41.471  35.169  36.935  1.00  0.00    -0.206 F 
ATOM     98  C   UNL A   1      40.322  35.497  38.954  1.00  0.00     0.059 A 
ATOM     99  C   UNL A   1      38.637  33.897  39.662  1.00  0.00     0.059 A 
ATOM    100  F   UNL A   1      38.198  32.011  38.343  1.00  0.00    -0.206 F 
ATOM    101  C   UNL A   1      39.363  35.068  39.874  1.00  0.00     0.060 A 
BRANCH 101 102
ATOM    102  S   UNL A   1      39.060  36.078  41.340  1.00  0.00     0.124 S 
ATOM    103  O   UNL A   1      38.929  37.410  40.758  1.00  0.00    -0.237 OA
ATOM    104  O   UNL A   1      37.833  35.494  41.872  1.00  0.00    -0.237 OA
ATOM    105  O   UNL A   1      40.253  35.863  42.153  1.00  0.00    -0.744 OA
ENDBRANCH 101 102
ENDBRANCH  69  94
ENDBRANCH  43  44
ENDBRANCH  35  38
ENDBRANCH  33  34
ENDBRANCH  32  33
ENDBRANCH  31  32
ENDBRANCH   1  31
TORSDOF 20
ENDMDL
MODEL 2
REMARK VINA RESULT:     -10.8      0.779      7.953
REMARK SMILES COc1ccc(CCC(=O)Nc2ccc(N3CCCC3)cc2C(=O)NCCCCNC(=O)c2ccc(-c3c4nc(c(-c5c(F)cc(S(=O)(=O)[O-])cc5F)c5ccc([nH]5)c(-c5c(F)cc(S(=O)(=O)[O-])cc5F)c5nc(c(-c6c(F)cc(S(=O)(=O)[O-])cc6F)c6ccc3[nH]6)C=C5)C=C4)cc2)cc1
REMARK SMILES IDX 26 1 25 2 23 3 24 4 22 6 12 7 13 8 14 9 21 10 15 11 11 12
REMARK SMILES IDX 9 13 10 14 8 16 7 17 6 18 3 19 4 20 100 21 5 22 99 23 2 24
REMARK SMILES IDX 1 25 16 26 17 27 20 28 18 29 19 30 27 31 28 32 29 33 30 34
REMARK SMILES IDX 31 35 32 37 33 38 34 39 98 40 35 41 97 42 36 43 37 44 38 45
REMARK SMILES IDX 91 46 39 47 96 48 90 49 92 50 40 51 95 52 89 53 88 54 41 56
REMARK SMILES IDX 75 57 54 58 74 59 55 60 58 61 73 62 93 63 56 64 57 65 72 67
REMARK SMILES IDX 94 68 59 69 42 70 43 71 52 72 44 73 45 74 51 75 53 76 46 77
REMARK SMILES IDX 47 78 48 79 49 80 50 81 76 82 77 83 86 84 78 85 79 86 85 87
REMARK SMILES IDX 87 88 80 89 81 90 82 91 83 92 84 93 60 94 61 95 70 96 62 97
REMARK SMILES IDX 63 98 69 99 71 100 64 101 65 102 66 103 67 104 68 105
REMARK H PARENT 25 5 11 15 30 36 92 55 58 66
REMARK Flexibility Score: inf
ROOT
ATOM      1  C   UNL A   1      36.430  23.725  26.117  1.00  0.00     0.116 C 
ENDROOT
BRANCH   1   2
ATOM      2  N   UNL A   1      36.537  22.408  25.568  1.00  0.00    -0.352 N 
ATOM      3  C   UNL A   1      35.710  21.462  25.045  1.00  0.00     0.253 C 
ATOM      4  O   UNL A   1      36.237  20.394  25.167  1.00  0.00    -0.269 OA
ATOM      5  H   UNL A   1      37.471  22.101  25.570  1.00  0.00     0.163 HD
BRANCH   3   6
ATOM      6  C   UNL A   1      34.530  21.689  24.147  1.00  0.00     0.065 A 
ATOM      7  C   UNL A   1      33.412  21.001  24.527  1.00  0.00     0.054 A 
ATOM      8  C   UNL A   1      32.405  20.792  23.600  1.00  0.00     0.029 A 
ATOM      9  C   UNL A   1      32.214  21.791  22.650  1.00  0.00     0.028 A 
ATOM     10  C   UNL A   1      34.247  22.804  23.327  1.00  0.00     0.042 A 
ATOM     11  C   UNL A   1      33.000  22.946  22.671  1.00  0.00     0.038 A 
BRANCH   7  12
ATOM     12  N   UNL A   1      33.126  20.906  25.907  1.00  0.00    -0.325 N 
ATOM     13  C   UNL A   1      33.028  21.979  26.814  1.00  0.00     0.224 C 
ATOM     14  O   UNL A   1      33.264  21.717  27.999  1.00  0.00    -0.275 OA
ATOM     15  H   UNL A   1      32.981  20.003  26.270  1.00  0.00     0.169 HD
BRANCH  13  16
ATOM     16  C   UNL A   1      32.358  23.383  26.400  1.00  0.00     0.105 C 
BRANCH  16  17
ATOM     17  C   UNL A   1      32.803  24.878  26.800  1.00  0.00     0.045 C 
BRANCH  17  18
ATOM     18  C   UNL A   1      32.657  26.100  25.834  1.00  0.00    -0.047 A 
ATOM     19  C   UNL A   1      32.630  28.776  24.952  1.00  0.00     0.118 A 
ATOM     20  C   UNL A   1      31.471  28.200  25.437  1.00  0.00     0.046 A 
ATOM     21  C   UNL A   1      33.670  27.928  24.567  1.00  0.00     0.046 A 
ATOM     22  C   UNL A   1      31.453  26.830  25.739  1.00  0.00     0.007 A 
ATOM     23  C   UNL A   1      33.713  26.603  25.071  1.00  0.00     0.007 A 
BRANCH  19  24
ATOM     24  O   UNL A   1      32.857  30.047  25.435  1.00  0.00    -0.497 OA
ATOM     25  C   UNL A   1      32.077  30.534  26.507  1.00  0.00     0.278 C 
ENDBRANCH  19  24
ENDBRANCH  17  18
ENDBRANCH  16  17
ENDBRANCH  13  16
ENDBRANCH   7  12
BRANCH  11  26
ATOM     26  N   UNL A   1      32.460  24.118  22.180  1.00  0.00    -0.372 N 
ATOM     27  C   UNL A   1      32.983  24.997  21.151  1.00  0.00     0.116 C 
ATOM     28  C   UNL A   1      31.314  24.756  22.855  1.00  0.00     0.116 C 
ATOM     29  C   UNL A   1      32.481  26.390  21.547  1.00  0.00     0.023 C 
ATOM     30  C   UNL A   1      31.116  26.097  22.140  1.00  0.00     0.023 C 
ENDBRANCH  11  26
ENDBRANCH   3   6
ENDBRANCH   1   2
BRANCH   1  31
ATOM     31  C   UNL A   1      37.785  24.100  26.749  1.00  0.00     0.023 C 
BRANCH  31  32
ATOM     32  C   UNL A   1      39.052  23.963  25.870  1.00  0.00     0.023 C 
BRANCH  32  33
ATOM     33  C   UNL A   1      40.376  23.680  26.580  1.00  0.00     0.116 C 
BRANCH  33  34
ATOM     34  N   UNL A   1      41.527  24.141  25.825  1.00  0.00    -0.352 N 
ATOM     35  C   UNL A   1      42.332  25.236  26.010  1.00  0.00     0.251 C 
ATOM     36  H   UNL A   1      41.770  23.576  25.056  1.00  0.00     0.163 HD
ATOM     37  O   UNL A   1      43.164  25.529  25.156  1.00  0.00    -0.269 OA
BRANCH  35  38
ATOM     38  C   UNL A   1      42.179  26.074  27.214  1.00  0.00     0.039 A 
ATOM     39  C   UNL A   1      42.941  27.240  27.321  1.00  0.00     0.014 A 
ATOM     40  C   UNL A   1      41.296  25.711  28.235  1.00  0.00     0.014 A 
ATOM     41  C   UNL A   1      42.765  28.081  28.420  1.00  0.00     0.010 A 
ATOM     42  C   UNL A   1      41.074  26.583  29.297  1.00  0.00     0.010 A 
ATOM     43  C   UNL A   1      41.802  27.779  29.399  1.00  0.00    -0.014 A 
BRANCH  43  44
ATOM     44  C   UNL A   1      41.542  28.712  30.524  1.00  0.00     0.031 A 
ATOM     45  C   UNL A   1      42.390  28.657  31.764  1.00  0.00     0.074 A 
ATOM     46  C   UNL A   1      40.507  29.572  30.444  1.00  0.00     0.049 A 
ATOM     47  N   UNL A   1      42.292  29.359  32.864  1.00  0.00    -0.248 NA
ATOM     48  C   UNL A   1      43.477  27.665  31.782  1.00  0.00     0.031 C 
ATOM     49  C   UNL A   1      39.585  29.680  29.311  1.00  0.00     0.029 A 
ATOM     50  N   UNL A   1      40.050  30.512  31.333  1.00  0.00    -0.354 N 
ATOM     51  C   UNL A   1      43.292  28.887  33.706  1.00  0.00     0.074 A 
ATOM     52  C   UNL A   1      43.947  27.799  33.012  1.00  0.00     0.031 C 
ATOM     53  C   UNL A   1      38.693  30.652  29.560  1.00  0.00     0.029 A 
ATOM     54  C   UNL A   1      38.951  31.208  30.885  1.00  0.00     0.049 A 
ATOM     55  H   UNL A   1      40.468  30.674  32.208  1.00  0.00     0.167 HD
ATOM     56  C   UNL A   1      43.647  29.335  34.933  1.00  0.00     0.037 A 
ATOM     57  C   UNL A   1      38.229  32.179  31.477  1.00  0.00     0.037 A 
ATOM     58  C   UNL A   1      42.994  30.429  35.607  1.00  0.00     0.049 A 
ATOM     59  C   UNL A   1      38.635  32.654  32.845  1.00  0.00     0.074 A 
ATOM     60  C   UNL A   1      43.308  30.999  36.827  1.00  0.00     0.029 A 
ATOM     61  N   UNL A   1      41.889  31.113  35.119  1.00  0.00    -0.354 N 
ATOM     62  N   UNL A   1      39.629  32.244  33.599  1.00  0.00    -0.248 NA
ATOM     63  C   UNL A   1      37.827  33.725  33.444  1.00  0.00     0.031 C 
ATOM     64  C   UNL A   1      42.362  31.993  37.100  1.00  0.00     0.029 A 
ATOM     65  C   UNL A   1      41.492  32.082  36.025  1.00  0.00     0.049 A 
ATOM     66  H   UNL A   1      41.451  30.935  34.255  1.00  0.00     0.167 HD
ATOM     67  C   UNL A   1      39.579  33.023  34.750  1.00  0.00     0.074 A 
ATOM     68  C   UNL A   1      38.467  33.938  34.584  1.00  0.00     0.031 C 
ATOM     69  C   UNL A   1      40.381  32.985  35.843  1.00  0.00     0.037 A 
BRANCH  56  70
ATOM     70  C   UNL A   1      44.792  28.641  35.622  1.00  0.00     0.058 A 
ATOM     71  C   UNL A   1      44.585  27.555  36.489  1.00  0.00     0.135 A 
ATOM     72  C   UNL A   1      46.116  29.056  35.404  1.00  0.00     0.135 A 
ATOM     73  F   UNL A   1      43.339  27.123  36.746  1.00  0.00    -0.206 F 
ATOM     74  C   UNL A   1      45.642  26.932  37.144  1.00  0.00     0.059 A 
ATOM     75  C   UNL A   1      47.192  28.428  36.025  1.00  0.00     0.059 A 
ATOM     76  F   UNL A   1      46.376  30.087  34.585  1.00  0.00    -0.206 F 
ATOM     77  C   UNL A   1      46.942  27.377  36.908  1.00  0.00     0.060 A 
BRANCH  77  78
ATOM     78  S   UNL A   1      48.302  26.563  37.772  1.00  0.00     0.124 S 
ATOM     79  O   UNL A   1      49.154  26.157  36.658  1.00  0.00    -0.237 OA
ATOM     80  O   UNL A   1      48.826  27.638  38.611  1.00  0.00    -0.237 OA
ATOM     81  O   UNL A   1      47.648  25.474  38.490  1.00  0.00    -0.744 OA
ENDBRANCH  77  78
ENDBRANCH  56  70
BRANCH  57  82
ATOM     82  C   UNL A   1      37.070  32.783  30.764  1.00  0.00     0.058 A 
ATOM     83  C   UNL A   1      35.772  32.286  30.947  1.00  0.00     0.135 A 
ATOM     84  C   UNL A   1      37.232  33.881  29.905  1.00  0.00     0.135 A 
ATOM     85  F   UNL A   1      35.565  31.232  31.753  1.00  0.00    -0.206 F 
ATOM     86  C   UNL A   1      34.676  32.846  30.298  1.00  0.00     0.059 A 
ATOM     87  C   UNL A   1      36.148  34.477  29.264  1.00  0.00     0.059 A 
ATOM     88  F   UNL A   1      38.451  34.406  29.707  1.00  0.00    -0.206 F 
ATOM     89  C   UNL A   1      34.874  33.945  29.461  1.00  0.00     0.060 A 
BRANCH  89  90
ATOM     90  S   UNL A   1      33.437  34.699  28.669  1.00  0.00     0.124 S 
ATOM     91  O   UNL A   1      32.744  33.529  28.142  1.00  0.00    -0.237 OA
ATOM     92  O   UNL A   1      32.790  35.375  29.789  1.00  0.00    -0.237 OA
ATOM     93  O   UNL A   1      34.030  35.584  27.670  1.00  0.00    -0.744 OA
ENDBRANCH  89  90
ENDBRANCH  57  82
BRANCH  69  94
ATOM     94  C   UNL A   1      40.104  33.978  36.938  1.00  0.00     0.058 A 
ATOM     95  C   UNL A   1      40.731  35.233  36.972  1.00  0.00     0.135 A 
ATOM     96  C   UNL A   1      39.159  33.691  37.938  1.00  0.00     0.135 A 
ATOM     97  F   UNL A   1      41.649  35.557  36.047  1.00  0.00    -0.206 F 
ATOM     98  C   UNL A   1      40.450  36.160  37.972  1.00  0.00     0.059 A 
ATOM     99  C   UNL A   1      38.839  34.613  38.928  1.00  0.00     0.059 A 
ATOM    100  F   UNL A   1      38.522  32.509  37.945  1.00  0.00    -0.206 F 
ATOM    101  C   UNL A   1      39.499  35.840  38.944  1.00  0.00     0.060 A 
BRANCH 101 102
ATOM    102  S   UNL A   1      39.118  37.066  40.214  1.00  0.00     0.124 S 
ATOM    103  O   UNL A   1      38.243  36.307  41.102  1.00  0.00    -0.237 OA
ATOM    104  O   UNL A   1      40.439  37.385  40.746  1.00  0.00    -0.237 OA
ATOM    105  O   UNL A   1      38.473  38.141  39.465  1.00  0.00    -0.744 OA
ENDBRANCH 101 102
ENDBRANCH  69  94
ENDBRANCH  43  44
ENDBRANCH  35  38
ENDBRANCH  33  34
ENDBRANCH  32  33
ENDBRANCH  31  32
ENDBRANCH   1  31
TORSDOF 20
ENDMDL
MODEL 3
REMARK VINA RESULT:     -10.1      6.090     11.795
REMARK SMILES COc1ccc(CCC(=O)Nc2ccc(N3CCCC3)cc2C(=O)NCCCCNC(=O)c2ccc(-c3c4nc(c(-c5c(F)cc(S(=O)(=O)[O-])cc5F)c5ccc([nH]5)c(-c5c(F)cc(S(=O)(=O)[O-])cc5F)c5nc(c(-c6c(F)cc(S(=O)(=O)[O-])cc6F)c6ccc3[nH]6)C=C5)C=C4)cc2)cc1
REMARK SMILES IDX 26 1 25 2 23 3 24 4 22 6 12 7 13 8 14 9 21 10 15 11 11 12
REMARK SMILES IDX 9 13 10 14 8 16 7 17 6 18 3 19 4 20 100 21 5 22 99 23 2 24
REMARK SMILES IDX 1 25 16 26 17 27 20 28 18 29 19 30 27 31 28 32 29 33 30 34
REMARK SMILES IDX 31 35 32 37 33 38 34 39 98 40 35 41 97 42 36 43 37 44 38 45
REMARK SMILES IDX 91 46 39 47 96 48 90 49 92 50 40 51 95 52 89 53 88 54 41 56
REMARK SMILES IDX 75 57 54 58 74 59 55 60 58 61 73 62 93 63 56 64 57 65 72 67
REMARK SMILES IDX 94 68 59 69 42 70 43 71 52 72 44 73 45 74 51 75 53 76 46 77
REMARK SMILES IDX 47 78 48 79 49 80 50 81 76 82 77 83 86 84 78 85 79 86 85 87
REMARK SMILES IDX 87 88 80 89 81 90 82 91 83 92 84 93 60 94 61 95 70 96 62 97
REMARK SMILES IDX 63 98 69 99 71 100 64 101 65 102 66 103 67 104 68 105
REMARK H PARENT 25 5 11 15 30 36 92 55 58 66
REMARK Flexibility Score: inf
ROOT
ATOM      1  C   UNL A   1      40.177  33.001  37.950  1.00  0.00     0.116 C 
ENDROOT
BRANCH   1   2
ATOM      2  N   UNL A   1      39.286  32.045  37.370  1.00  0.00    -0.352 N 
ATOM      3  C   UNL A   1      38.257  32.033  36.479  1.00  0.00     0.253 C 
ATOM      4  O   UNL A   1      37.578  31.072  36.701  1.00  0.00    -0.269 OA
ATOM      5  H   UNL A   1      39.468  31.140  37.712  1.00  0.00     0.163 HD
BRANCH   3   6
ATOM      6  C   UNL A   1      38.149  32.831  35.213  1.00  0.00     0.065 A 
ATOM      7  C   UNL A   1      38.919  32.348  34.193  1.00  0.00     0.054 A 
ATOM      8  C   UNL A   1      39.232  33.183  33.134  1.00  0.00     0.029 A 
ATOM      9  C   UNL A   1      38.273  34.128  32.781  1.00  0.00     0.028 A 
ATOM     10  C   UNL A   1      37.080  33.642  34.770  1.00  0.00     0.042 A 
ATOM     11  C   UNL A   1      37.057  34.192  33.464  1.00  0.00     0.038 A 
BRANCH   7  12
ATOM     12  N   UNL A   1      39.006  30.947  34.032  1.00  0.00    -0.325 N 
ATOM     13  C   UNL A   1      38.135  30.139  33.277  1.00  0.00     0.224 C 
ATOM     14  O   UNL A   1      38.045  28.956  33.625  1.00  0.00    -0.275 OA
ATOM     15  H   UNL A   1      39.748  30.492  34.491  1.00  0.00     0.169 HD
BRANCH  13  16
ATOM     16  C   UNL A   1      37.526  30.629  31.869  1.00  0.00     0.105 C 
BRANCH  16  17
ATOM     17  C   UNL A   1      37.471  29.851  30.460  1.00  0.00     0.045 C 
BRANCH  17  18
ATOM     18  C   UNL A   1      38.661  29.840  29.444  1.00  0.00    -0.047 A 
ATOM     19  C   UNL A   1      40.950  28.933  28.073  1.00  0.00     0.118 A 
ATOM     20  C   UNL A   1      41.090  29.696  29.217  1.00  0.00     0.046 A 
ATOM     21  C   UNL A   1      39.712  28.946  27.427  1.00  0.00     0.046 A 
ATOM     22  C   UNL A   1      39.955  30.265  29.814  1.00  0.00     0.007 A 
ATOM     23  C   UNL A   1      38.554  29.339  28.145  1.00  0.00     0.007 A 
BRANCH  19  24
ATOM     24  O   UNL A   1      41.790  27.841  28.032  1.00  0.00    -0.497 OA
ATOM     25  C   UNL A   1      41.371  26.620  28.604  1.00  0.00     0.278 C 
ENDBRANCH  19  24
ENDBRANCH  17  18
ENDBRANCH  16  17
ENDBRANCH  13  16
ENDBRANCH   7  12
BRANCH  11  26
ATOM     26  N   UNL A   1      35.945  34.653  32.788  1.00  0.00    -0.372 N 
ATOM     27  C   UNL A   1      34.932  35.588  33.240  1.00  0.00     0.116 C 
ATOM     28  C   UNL A   1      35.529  34.030  31.518  1.00  0.00     0.116 C 
ATOM     29  C   UNL A   1      33.657  35.151  32.509  1.00  0.00     0.023 C 
ATOM     30  C   UNL A   1      34.186  34.679  31.168  1.00  0.00     0.023 C 
ENDBRANCH  11  26
ENDBRANCH   3   6
ENDBRANCH   1   2
BRANCH   1  31
ATOM     31  C   UNL A   1      39.905  33.064  39.466  1.00  0.00     0.023 C 
BRANCH  31  32
ATOM     32  C   UNL A   1      39.229  34.341  40.023  1.00  0.00     0.023 C 
BRANCH  32  33
ATOM     33  C   UNL A   1      38.864  35.438  39.024  1.00  0.00     0.116 C 
BRANCH  33  34
ATOM     34  N   UNL A   1      39.583  36.677  39.262  1.00  0.00    -0.352 N 
ATOM     35  C   UNL A   1      40.685  37.201  38.637  1.00  0.00     0.251 C 
ATOM     36  H   UNL A   1      39.220  37.231  39.991  1.00  0.00     0.163 HD
ATOM     37  O   UNL A   1      41.231  38.197  39.102  1.00  0.00    -0.269 OA
BRANCH  35  38
ATOM     38  C   UNL A   1      41.229  36.554  37.428  1.00  0.00     0.039 A 
ATOM     39  C   UNL A   1      42.578  36.192  37.411  1.00  0.00     0.014 A 
ATOM     40  C   UNL A   1      40.418  36.311  36.316  1.00  0.00     0.014 A 
ATOM     41  C   UNL A   1      43.099  35.521  36.304  1.00  0.00     0.010 A 
ATOM     42  C   UNL A   1      40.921  35.583  35.241  1.00  0.00     0.010 A 
ATOM     43  C   UNL A   1      42.265  35.176  35.226  1.00  0.00    -0.014 A 
BRANCH  43  44
ATOM     44  C   UNL A   1      42.786  34.382  34.084  1.00  0.00     0.031 A 
ATOM     45  C   UNL A   1      43.197  35.067  32.811  1.00  0.00     0.074 A 
ATOM     46  C   UNL A   1      42.837  33.039  34.182  1.00  0.00     0.049 A 
ATOM     47  N   UNL A   1      43.635  34.543  31.695  1.00  0.00    -0.248 NA
ATOM     48  C   UNL A   1      43.075  36.533  32.777  1.00  0.00     0.031 C 
ATOM     49  C   UNL A   1      42.418  32.261  35.351  1.00  0.00     0.029 A 
ATOM     50  N   UNL A   1      43.256  32.088  33.286  1.00  0.00    -0.354 N 
ATOM     51  C   UNL A   1      43.829  35.610  30.825  1.00  0.00     0.074 A 
ATOM     52  C   UNL A   1      43.406  36.804  31.523  1.00  0.00     0.031 C 
ATOM     53  C   UNL A   1      42.628  30.957  35.111  1.00  0.00     0.029 A 
ATOM     54  C   UNL A   1      43.157  30.800  33.760  1.00  0.00     0.049 A 
ATOM     55  H   UNL A   1      43.594  32.306  32.388  1.00  0.00     0.167 HD
ATOM     56  C   UNL A   1      44.337  35.597  29.570  1.00  0.00     0.037 A 
ATOM     57  C   UNL A   1      43.454  29.626  33.169  1.00  0.00     0.037 A 
ATOM     58  C   UNL A   1      44.768  34.401  28.892  1.00  0.00     0.049 A 
ATOM     59  C   UNL A   1      44.007  29.635  31.771  1.00  0.00     0.074 A 
ATOM     60  C   UNL A   1      45.348  34.281  27.642  1.00  0.00     0.029 A 
ATOM     61  N   UNL A   1      44.659  33.117  29.406  1.00  0.00    -0.354 N 
ATOM     62  N   UNL A   1      44.251  30.660  30.988  1.00  0.00    -0.248 NA
ATOM     63  C   UNL A   1      44.329  28.331  31.175  1.00  0.00     0.031 C 
ATOM     64  C   UNL A   1      45.542  32.921  27.380  1.00  0.00     0.029 A 
ATOM     65  C   UNL A   1      45.136  32.195  28.488  1.00  0.00     0.049 A 
ATOM     66  H   UNL A   1      44.296  32.892  30.294  1.00  0.00     0.167 HD
ATOM     67  C   UNL A   1      44.777  30.126  29.815  1.00  0.00     0.074 A 
ATOM     68  C   UNL A   1      44.830  28.690  30.001  1.00  0.00     0.031 C 
ATOM     69  C   UNL A   1      45.180  30.767  28.690  1.00  0.00     0.037 A 
BRANCH  56  70
ATOM     70  C   UNL A   1      44.452  36.916  28.854  1.00  0.00     0.058 A 
ATOM     71  C   UNL A   1      45.598  37.721  28.965  1.00  0.00     0.135 A 
ATOM     72  C   UNL A   1      43.410  37.378  28.032  1.00  0.00     0.135 A 
ATOM     73  F   UNL A   1      46.621  37.337  29.747  1.00  0.00    -0.206 F 
ATOM     74  C   UNL A   1      45.692  38.951  28.323  1.00  0.00     0.059 A 
ATOM     75  C   UNL A   1      43.495  38.592  27.355  1.00  0.00     0.059 A 
ATOM     76  F   UNL A   1      42.292  36.652  27.886  1.00  0.00    -0.206 F 
ATOM     77  C   UNL A   1      44.633  39.380  27.522  1.00  0.00     0.060 A 
BRANCH  77  78
ATOM     78  S   UNL A   1      44.767  40.982  26.702  1.00  0.00     0.124 S 
ATOM     79  O   UNL A   1      46.195  41.039  26.403  1.00  0.00    -0.237 OA
ATOM     80  O   UNL A   1      43.886  40.817  25.550  1.00  0.00    -0.237 OA
ATOM     81  O   UNL A   1      44.301  41.924  27.714  1.00  0.00    -0.744 OA
ENDBRANCH  77  78
ENDBRANCH  56  70
BRANCH  57  82
ATOM     82  C   UNL A   1      43.260  28.351  33.913  1.00  0.00     0.058 A 
ATOM     83  C   UNL A   1      42.039  27.663  33.860  1.00  0.00     0.135 A 
ATOM     84  C   UNL A   1      44.295  27.782  34.672  1.00  0.00     0.135 A 
ATOM     85  F   UNL A   1      41.015  28.169  33.154  1.00  0.00    -0.206 F 
ATOM     86  C   UNL A   1      41.845  26.465  34.539  1.00  0.00     0.059 A 
ATOM     87  C   UNL A   1      44.135  26.571  35.339  1.00  0.00     0.059 A 
ATOM     88  F   UNL A   1      45.489  28.391  34.743  1.00  0.00    -0.206 F 
ATOM     89  C   UNL A   1      42.901  25.924  35.273  1.00  0.00     0.060 A 
BRANCH  89  90
ATOM     90  S   UNL A   1      42.656  24.339  36.104  1.00  0.00     0.124 S 
ATOM     91  O   UNL A   1      41.419  24.581  36.838  1.00  0.00    -0.237 OA
ATOM     92  O   UNL A   1      42.560  23.415  34.978  1.00  0.00    -0.237 OA
ATOM     93  O   UNL A   1      43.858  24.198  36.921  1.00  0.00    -0.744 OA
ENDBRANCH  89  90
ENDBRANCH  57  82
BRANCH  69  94
ATOM     94  C   UNL A   1      45.740  29.923  27.578  1.00  0.00     0.058 A 
ATOM     95  C   UNL A   1      44.936  29.468  26.521  1.00  0.00     0.135 A 
ATOM     96  C   UNL A   1      47.109  29.609  27.542  1.00  0.00     0.135 A 
ATOM     97  F   UNL A   1      43.620  29.732  26.509  1.00  0.00    -0.206 F 
ATOM     98  C   UNL A   1      45.465  28.712  25.479  1.00  0.00     0.059 A 
ATOM     99  C   UNL A   1      47.665  28.882  26.495  1.00  0.00     0.059 A 
ATOM    100  F   UNL A   1      47.924  30.030  28.523  1.00  0.00    -0.206 F 
ATOM    101  C   UNL A   1      46.832  28.427  25.475  1.00  0.00     0.060 A 
BRANCH 101 102
ATOM    102  S   UNL A   1      47.511  27.475  24.099  1.00  0.00     0.124 S 
ATOM    103  O   UNL A   1      46.913  26.163  24.325  1.00  0.00    -0.237 OA
ATOM    104  O   UNL A   1      47.015  28.207  22.938  1.00  0.00    -0.237 OA
ATOM    105  O   UNL A   1      48.954  27.552  24.312  1.00  0.00    -0.744 OA
ENDBRANCH 101 102
ENDBRANCH  69  94
ENDBRANCH  43  44
ENDBRANCH  35  38
ENDBRANCH  33  34
ENDBRANCH  32  33
ENDBRANCH  31  32
ENDBRANCH   1  31
TORSDOF 20
ENDMDL
