MODEL 1
REMARK VINA RESULT:     -12.4      0.000      0.000
REMARK SMILES O=C(NCCCCNC(=O)[C@H]1O[C@@H](Oc2c(-c3cc(O)c(O)c(O)c3)oc3cc(O)cc(O)c3c2=O)[C@H](O)[C@@H](O)[C@@H]1O)c1ccc(-c2c3nc(c(-c4c(F)cc(S(=O)(=O)[O-])cc4F)c4ccc([nH]4)c(-c4c(F)cc(S(=O)(=O)[O-])cc4F)c4nc(c(-c5c(F)cc(S(=O)(=O)[O-])cc5F)c5ccc2[nH]5)C=C4)C=C3)cc1
REMARK SMILES IDX 6 1 5 2 4 3 3 4 1 5 2 6 43 8 44 9 108 10 45 11 107 12 46 13
REMARK SMILES IDX 47 14 48 15 101 16 49 17 106 18 100 19 102 20 50 21 105 22
REMARK SMILES IDX 99 23 98 24 51 26 85 27 64 28 84 29 65 30 68 31 83 32 103 33
REMARK SMILES IDX 66 34 67 35 82 37 104 38 69 39 52 40 53 41 62 42 54 43 55 44
REMARK SMILES IDX 61 45 63 46 56 47 57 48 58 49 59 50 60 51 86 52 87 53 96 54
REMARK SMILES IDX 88 55 89 56 95 57 97 58 90 59 91 60 92 61 93 62 94 63 70 64
REMARK SMILES IDX 71 65 80 66 72 67 73 68 79 69 81 70 74 71 75 72 76 73 77 74
REMARK SMILES IDX 78 75 7 76 8 77 9 78 10 80 11 81 12 82 41 83 13 84 39 85
REMARK SMILES IDX 37 86 42 87 14 89 15 90 16 91 35 92 26 93 34 94 36 95 27 96
REMARK SMILES IDX 32 97 28 98 31 99 29 100 17 101 18 102 25 103 19 104 23 105
REMARK SMILES IDX 21 106 20 107 24 109 22 111 33 113 30 115 40 117 38 119
REMARK H PARENT 3 7 102 25 68 36 8 79 42 88 20 108 24 110 22 112 33 114 30 116
REMARK H PARENT 40 118 38 120
REMARK Flexibility Score: inf
ROOT
ATOM      1  C   UNL A   1      32.354  27.670  27.217  1.00  0.00     0.023 C 
ENDROOT
BRANCH   1   2
ATOM      2  C   UNL A   1      33.744  27.652  26.584  1.00  0.00     0.023 C 
BRANCH   2   3
ATOM      3  C   UNL A   1      34.105  28.877  25.756  1.00  0.00     0.116 C 
BRANCH   3   4
ATOM      4  N   UNL A   1      33.694  30.131  26.369  1.00  0.00    -0.352 N 
ATOM      5  O   UNL A   1      33.736  31.806  27.883  1.00  0.00    -0.269 OA
ATOM      6  C   UNL A   1      34.281  30.812  27.411  1.00  0.00     0.251 C 
ATOM      7  H   UNL A   1      32.890  30.549  25.987  1.00  0.00     0.163 HD
BRANCH   6   8
ATOM      8  C   UNL A   1      35.550  30.313  27.986  1.00  0.00     0.039 A 
ATOM      9  C   UNL A   1      35.556  29.602  29.187  1.00  0.00     0.014 A 
ATOM     10  C   UNL A   1      36.752  30.599  27.332  1.00  0.00     0.014 A 
ATOM     11  C   UNL A   1      36.764  29.332  29.821  1.00  0.00     0.010 A 
ATOM     12  C   UNL A   1      37.966  30.239  27.927  1.00  0.00     0.010 A 
ATOM     13  C   UNL A   1      37.984  29.644  29.199  1.00  0.00    -0.014 A 
BRANCH  13  14
ATOM     14  C   UNL A   1      39.260  29.311  29.884  1.00  0.00     0.031 A 
ATOM     15  C   UNL A   1      39.665  30.006  31.158  1.00  0.00     0.074 A 
ATOM     16  C   UNL A   1      40.045  28.347  29.364  1.00  0.00     0.049 A 
ATOM     17  N   UNL A   1      40.730  29.819  31.896  1.00  0.00    -0.248 NA
ATOM     18  C   UNL A   1      38.766  31.054  31.664  1.00  0.00     0.031 C 
ATOM     19  C   UNL A   1      39.761  27.607  28.131  1.00  0.00     0.029 A 
ATOM     20  N   UNL A   1      41.225  27.811  29.807  1.00  0.00    -0.354 N 
ATOM     21  C   UNL A   1      40.646  30.740  32.935  1.00  0.00     0.074 A 
ATOM     22  C   UNL A   1      39.434  31.503  32.717  1.00  0.00     0.031 C 
ATOM     23  C   UNL A   1      40.709  26.677  27.948  1.00  0.00     0.029 A 
ATOM     24  C   UNL A   1      41.703  26.798  29.009  1.00  0.00     0.049 A 
ATOM     25  H   UNL A   1      41.688  28.120  30.619  1.00  0.00     0.167 HD
ATOM     26  C   UNL A   1      41.494  30.926  33.976  1.00  0.00     0.037 A 
ATOM     27  C   UNL A   1      42.820  26.055  29.109  1.00  0.00     0.037 A 
ATOM     28  C   UNL A   1      42.689  30.148  34.192  1.00  0.00     0.049 A 
ATOM     29  C   UNL A   1      43.753  26.293  30.262  1.00  0.00     0.074 A 
ATOM     30  C   UNL A   1      43.593  30.230  35.238  1.00  0.00     0.029 A 
ATOM     31  N   UNL A   1      43.153  29.151  33.344  1.00  0.00    -0.354 N 
ATOM     32  N   UNL A   1      43.638  27.144  31.252  1.00  0.00    -0.248 NA
ATOM     33  C   UNL A   1      44.966  25.468  30.310  1.00  0.00     0.031 C 
ATOM     34  C   UNL A   1      44.630  29.321  34.996  1.00  0.00     0.029 A 
ATOM     35  C   UNL A   1      44.342  28.628  33.831  1.00  0.00     0.049 A 
ATOM     36  H   UNL A   1      42.704  28.859  32.519  1.00  0.00     0.167 HD
ATOM     37  C   UNL A   1      44.750  26.937  32.061  1.00  0.00     0.074 A 
ATOM     38  C   UNL A   1      45.519  25.874  31.444  1.00  0.00     0.031 C 
ATOM     39  C   UNL A   1      45.096  27.566  33.211  1.00  0.00     0.037 A 
BRANCH  26  40
ATOM     40  C   UNL A   1      41.181  32.037  34.945  1.00  0.00     0.058 A 
ATOM     41  C   UNL A   1      41.748  33.316  34.823  1.00  0.00     0.135 A 
ATOM     42  C   UNL A   1      40.282  31.823  36.003  1.00  0.00     0.135 A 
ATOM     43  F   UNL A   1      42.623  33.577  33.838  1.00  0.00    -0.206 F 
ATOM     44  C   UNL A   1      41.467  34.328  35.737  1.00  0.00     0.059 A 
ATOM     45  C   UNL A   1      39.963  32.830  36.911  1.00  0.00     0.059 A 
ATOM     46  F   UNL A   1      39.703  30.623  36.166  1.00  0.00    -0.206 F 
ATOM     47  C   UNL A   1      40.578  34.073  36.782  1.00  0.00     0.060 A 
BRANCH  47  48
ATOM     48  S   UNL A   1      40.245  35.387  37.975  1.00  0.00     0.124 S 
ATOM     49  O   UNL A   1      39.958  36.514  37.093  1.00  0.00    -0.237 OA
ATOM     50  O   UNL A   1      39.103  34.856  38.715  1.00  0.00    -0.237 OA
ATOM     51  O   UNL A   1      41.489  35.483  38.733  1.00  0.00    -0.744 OA
ENDBRANCH  47  48
ENDBRANCH  26  40
BRANCH  27  52
ATOM     52  C   UNL A   1      43.097  25.004  28.096  1.00  0.00     0.058 A 
ATOM     53  C   UNL A   1      43.892  25.275  26.975  1.00  0.00     0.135 A 
ATOM     54  C   UNL A   1      42.608  23.697  28.251  1.00  0.00     0.135 A 
ATOM     55  F   UNL A   1      44.379  26.510  26.781  1.00  0.00    -0.206 F 
ATOM     56  C   UNL A   1      44.189  24.291  26.037  1.00  0.00     0.059 A 
ATOM     57  C   UNL A   1      42.914  22.689  27.342  1.00  0.00     0.059 A 
ATOM     58  F   UNL A   1      41.857  23.381  29.318  1.00  0.00    -0.206 F 
ATOM     59  C   UNL A   1      43.700  22.999  26.234  1.00  0.00     0.060 A 
BRANCH  59  60
ATOM     60  S   UNL A   1      44.146  21.716  25.045  1.00  0.00     0.124 S 
ATOM     61  O   UNL A   1      43.856  22.377  23.778  1.00  0.00    -0.237 OA
ATOM     62  O   UNL A   1      45.557  21.498  25.345  1.00  0.00    -0.237 OA
ATOM     63  O   UNL A   1      43.261  20.609  25.397  1.00  0.00    -0.744 OA
ENDBRANCH  59  60
ENDBRANCH  27  52
BRANCH  39  64
ATOM     64  C   UNL A   1      46.340  27.084  33.910  1.00  0.00     0.058 A 
ATOM     65  C   UNL A   1      47.600  27.651  33.663  1.00  0.00     0.135 A 
ATOM     66  C   UNL A   1      46.259  26.056  34.864  1.00  0.00     0.135 A 
ATOM     67  F   UNL A   1      47.735  28.631  32.755  1.00  0.00    -0.206 F 
ATOM     68  C   UNL A   1      48.742  27.194  34.314  1.00  0.00     0.059 A 
ATOM     69  C   UNL A   1      47.382  25.605  35.549  1.00  0.00     0.059 A 
ATOM     70  F   UNL A   1      45.077  25.486  35.146  1.00  0.00    -0.206 F 
ATOM     71  C   UNL A   1      48.622  26.170  35.255  1.00  0.00     0.060 A 
BRANCH  71  72
ATOM     72  S   UNL A   1      50.107  25.598  36.107  1.00  0.00     0.124 S 
ATOM     73  O   UNL A   1      50.783  24.852  35.051  1.00  0.00    -0.237 OA
ATOM     74  O   UNL A   1      50.742  26.850  36.505  1.00  0.00    -0.237 OA
ATOM     75  O   UNL A   1      49.580  24.793  37.205  1.00  0.00    -0.744 OA
ENDBRANCH  71  72
ENDBRANCH  39  64
ENDBRANCH  13  14
ENDBRANCH   6   8
ENDBRANCH   3   4
ENDBRANCH   2   3
ENDBRANCH   1   2
BRANCH   1  76
ATOM     76  C   UNL A   1      31.303  26.815  26.511  1.00  0.00     0.116 C 
BRANCH  76  77
ATOM     77  N   UNL A   1      30.665  27.501  25.398  1.00  0.00    -0.354 N 
ATOM     78  C   UNL A   1      30.780  27.244  24.055  1.00  0.00     0.252 C 
ATOM     79  H   UNL A   1      30.073  28.249  25.641  1.00  0.00     0.163 HD
ATOM     80  O   UNL A   1      30.031  27.826  23.274  1.00  0.00    -0.272 OA
BRANCH  78  81
ATOM     81  C   UNL A   1      31.865  26.260  23.616  1.00  0.00     0.242 C 
ATOM     82  O   UNL A   1      31.802  25.078  24.435  1.00  0.00    -0.324 OA
ATOM     83  C   UNL A   1      31.753  25.826  22.152  1.00  0.00     0.184 C 
ATOM     84  C   UNL A   1      33.002  24.311  24.336  1.00  0.00     0.340 C 
ATOM     85  C   UNL A   1      33.031  25.042  21.822  1.00  0.00     0.181 C 
ATOM     86  C   UNL A   1      33.366  23.986  22.871  1.00  0.00     0.214 C 
BRANCH  83  87
ATOM     87  O   UNL A   1      31.652  26.893  21.206  1.00  0.00    -0.387 OA
ATOM     88  H   UNL A   1      30.808  26.827  20.732  1.00  0.00     0.211 HD
ENDBRANCH  83  87
BRANCH  84  89
ATOM     89  O   UNL A   1      33.017  23.073  25.095  1.00  0.00    -0.454 OA
BRANCH  89  90
ATOM     90  C   UNL A   1      34.227  22.450  25.358  1.00  0.00     0.214 A 
ATOM     91  C   UNL A   1      34.549  21.206  24.937  1.00  0.00     0.181 A 
ATOM     92  C   UNL A   1      35.335  23.295  25.911  1.00  0.00     0.239 A 
ATOM     93  O   UNL A   1      35.770  20.597  25.125  1.00  0.00    -0.452 OA
ATOM     94  C   UNL A   1      36.702  22.703  25.899  1.00  0.00     0.111 A 
ATOM     95  O   UNL A   1      35.100  24.427  26.323  1.00  0.00    -0.285 OA
ATOM     96  C   UNL A   1      36.827  21.365  25.528  1.00  0.00     0.146 A 
ATOM     97  C   UNL A   1      37.869  23.411  26.231  1.00  0.00     0.134 A 
ATOM     98  C   UNL A   1      38.069  20.724  25.528  1.00  0.00     0.094 A 
ATOM     99  C   UNL A   1      39.121  22.779  26.227  1.00  0.00     0.093 A 
ATOM    100  C   UNL A   1      39.206  21.433  25.882  1.00  0.00     0.123 A 
BRANCH  91 101
ATOM    101  C   UNL A   1      33.586  20.300  24.288  1.00  0.00     0.029 A 
ATOM    102  C   UNL A   1      32.830  20.793  23.207  1.00  0.00     0.062 A 
ATOM    103  C   UNL A   1      33.530  18.934  24.617  1.00  0.00     0.062 A 
ATOM    104  C   UNL A   1      32.151  19.903  22.384  1.00  0.00     0.162 A 
ATOM    105  C   UNL A   1      32.830  18.064  23.788  1.00  0.00     0.162 A 
ATOM    106  C   UNL A   1      32.185  18.540  22.652  1.00  0.00     0.200 A 
BRANCH 104 107
ATOM    107  O   UNL A   1      31.540  20.383  21.263  1.00  0.00    -0.504 OA
ATOM    108  H   UNL A   1      31.539  21.305  21.088  1.00  0.00     0.293 HD
ENDBRANCH 104 107
BRANCH 105 109
ATOM    109  O   UNL A   1      32.890  16.721  24.031  1.00  0.00    -0.504 OA
ATOM    110  H   UNL A   1      32.835  16.114  23.319  1.00  0.00     0.293 HD
ENDBRANCH 105 109
BRANCH 106 111
ATOM    111  O   UNL A   1      31.721  17.640  21.730  1.00  0.00    -0.502 OA
ATOM    112  H   UNL A   1      30.808  17.614  21.520  1.00  0.00     0.293 HD
ENDBRANCH 106 111
ENDBRANCH  91 101
BRANCH  97 113
ATOM    113  O   UNL A   1      37.815  24.741  26.537  1.00  0.00    -0.507 OA
ATOM    114  H   UNL A   1      36.991  25.185  26.556  1.00  0.00     0.293 HD
ENDBRANCH  97 113
BRANCH 100 115
ATOM    115  O   UNL A   1      40.395  20.768  25.866  1.00  0.00    -0.508 OA
ATOM    116  H   UNL A   1      40.726  20.382  26.653  1.00  0.00     0.293 HD
ENDBRANCH 100 115
ENDBRANCH  89  90
ENDBRANCH  84  89
BRANCH  85 117
ATOM    117  O   UNL A   1      32.930  24.381  20.536  1.00  0.00    -0.387 OA
ATOM    118  H   UNL A   1      33.017  25.037  19.827  1.00  0.00     0.211 HD
ENDBRANCH  85 117
BRANCH  86 119
ATOM    119  O   UNL A   1      34.752  23.633  22.754  1.00  0.00    -0.384 OA
ATOM    120  H   UNL A   1      35.288  24.439  22.714  1.00  0.00     0.211 HD
ENDBRANCH  86 119
ENDBRANCH  78  81
ENDBRANCH  76  77
ENDBRANCH   1  76
TORSDOF 25
ENDMDL
MODEL 2
REMARK VINA RESULT:     -12.4      4.588      5.818
REMARK SMILES O=C(NCCCCNC(=O)[C@H]1O[C@@H](Oc2c(-c3cc(O)c(O)c(O)c3)oc3cc(O)cc(O)c3c2=O)[C@H](O)[C@@H](O)[C@@H]1O)c1ccc(-c2c3nc(c(-c4c(F)cc(S(=O)(=O)[O-])cc4F)c4ccc([nH]4)c(-c4c(F)cc(S(=O)(=O)[O-])cc4F)c4nc(c(-c5c(F)cc(S(=O)(=O)[O-])cc5F)c5ccc2[nH]5)C=C4)C=C3)cc1
REMARK SMILES IDX 6 1 5 2 4 3 3 4 1 5 2 6 43 8 44 9 108 10 45 11 107 12 46 13
REMARK SMILES IDX 47 14 48 15 101 16 49 17 106 18 100 19 102 20 50 21 105 22
REMARK SMILES IDX 99 23 98 24 51 26 85 27 64 28 84 29 65 30 68 31 83 32 103 33
REMARK SMILES IDX 66 34 67 35 82 37 104 38 69 39 52 40 53 41 62 42 54 43 55 44
REMARK SMILES IDX 61 45 63 46 56 47 57 48 58 49 59 50 60 51 86 52 87 53 96 54
REMARK SMILES IDX 88 55 89 56 95 57 97 58 90 59 91 60 92 61 93 62 94 63 70 64
REMARK SMILES IDX 71 65 80 66 72 67 73 68 79 69 81 70 74 71 75 72 76 73 77 74
REMARK SMILES IDX 78 75 7 76 8 77 9 78 10 80 11 81 12 82 41 83 13 84 39 85
REMARK SMILES IDX 37 86 42 87 14 89 15 90 16 91 35 92 26 93 34 94 36 95 27 96
REMARK SMILES IDX 32 97 28 98 31 99 29 100 17 101 18 102 25 103 19 104 23 105
REMARK SMILES IDX 21 106 20 107 24 109 22 111 33 113 30 115 40 117 38 119
REMARK H PARENT 3 7 102 25 68 36 8 79 42 88 20 108 24 110 22 112 33 114 30 116
REMARK H PARENT 40 118 38 120
REMARK Flexibility Score: inf
ROOT
ATOM      1  C   UNL A   1      33.039  29.435  27.259  1.00  0.00     0.023 C 
ENDROOT
BRANCH   1   2
ATOM      2  C   UNL A   1      34.370  30.102  26.915  1.00  0.00     0.023 C 
BRANCH   2   3
ATOM      3  C   UNL A   1      35.580  29.586  27.681  1.00  0.00     0.116 C 
BRANCH   3   4
ATOM      4  N   UNL A   1      35.452  29.723  29.124  1.00  0.00    -0.352 N 
ATOM      5  O   UNL A   1      36.136  29.685  31.276  1.00  0.00    -0.269 OA
ATOM      6  C   UNL A   1      36.435  29.662  30.085  1.00  0.00     0.251 C 
ATOM      7  H   UNL A   1      34.539  29.880  29.458  1.00  0.00     0.163 HD
BRANCH   6   8
ATOM      8  C   UNL A   1      37.849  29.526  29.673  1.00  0.00     0.039 A 
ATOM      9  C   UNL A   1      38.220  29.685  28.337  1.00  0.00     0.014 A 
ATOM     10  C   UNL A   1      38.809  29.194  30.634  1.00  0.00     0.014 A 
ATOM     11  C   UNL A   1      39.505  29.342  27.934  1.00  0.00     0.010 A 
ATOM     12  C   UNL A   1      40.127  28.944  30.237  1.00  0.00     0.010 A 
ATOM     13  C   UNL A   1      40.476  28.970  28.878  1.00  0.00    -0.014 A 
BRANCH  13  14
ATOM     14  C   UNL A   1      41.853  28.643  28.421  1.00  0.00     0.031 A 
ATOM     15  C   UNL A   1      42.942  29.683  28.420  1.00  0.00     0.074 A 
ATOM     16  C   UNL A   1      42.125  27.382  28.031  1.00  0.00     0.049 A 
ATOM     17  N   UNL A   1      44.199  29.559  28.077  1.00  0.00    -0.248 NA
ATOM     18  C   UNL A   1      42.572  31.040  28.848  1.00  0.00     0.031 C 
ATOM     19  C   UNL A   1      41.151  26.288  27.983  1.00  0.00     0.029 A 
ATOM     20  N   UNL A   1      43.296  26.800  27.622  1.00  0.00    -0.354 N 
ATOM     21  C   UNL A   1      44.764  30.822  28.220  1.00  0.00     0.074 A 
ATOM     22  C   UNL A   1      43.703  31.705  28.658  1.00  0.00     0.031 C 
ATOM     23  C   UNL A   1      41.775  25.158  27.623  1.00  0.00     0.029 A 
ATOM     24  C   UNL A   1      43.175  25.457  27.348  1.00  0.00     0.049 A 
ATOM     25  H   UNL A   1      44.142  27.294  27.532  1.00  0.00     0.167 HD
ATOM     26  C   UNL A   1      46.048  31.207  28.013  1.00  0.00     0.037 A 
ATOM     27  C   UNL A   1      44.084  24.566  26.913  1.00  0.00     0.037 A 
ATOM     28  C   UNL A   1      47.100  30.315  27.594  1.00  0.00     0.049 A 
ATOM     29  C   UNL A   1      45.496  25.021  26.674  1.00  0.00     0.074 A 
ATOM     30  C   UNL A   1      48.441  30.597  27.396  1.00  0.00     0.029 A 
ATOM     31  N   UNL A   1      46.931  28.969  27.298  1.00  0.00    -0.354 N 
ATOM     32  N   UNL A   1      46.018  26.211  26.848  1.00  0.00    -0.248 NA
ATOM     33  C   UNL A   1      46.441  24.012  26.182  1.00  0.00     0.031 C 
ATOM     34  C   UNL A   1      49.071  29.436  26.932  1.00  0.00     0.029 A 
ATOM     35  C   UNL A   1      48.137  28.414  26.897  1.00  0.00     0.049 A 
ATOM     36  H   UNL A   1      46.079  28.480  27.364  1.00  0.00     0.167 HD
ATOM     37  C   UNL A   1      47.362  26.088  26.515  1.00  0.00     0.074 A 
ATOM     38  C   UNL A   1      47.570  24.704  26.137  1.00  0.00     0.031 C 
ATOM     39  C   UNL A   1      48.334  27.034  26.528  1.00  0.00     0.037 A 
BRANCH  26  40
ATOM     40  C   UNL A   1      46.381  32.664  28.203  1.00  0.00     0.058 A 
ATOM     41  C   UNL A   1      46.856  33.169  29.425  1.00  0.00     0.135 A 
ATOM     42  C   UNL A   1      46.242  33.569  27.138  1.00  0.00     0.135 A 
ATOM     43  F   UNL A   1      47.000  32.354  30.483  1.00  0.00    -0.206 F 
ATOM     44  C   UNL A   1      47.141  34.521  29.595  1.00  0.00     0.059 A 
ATOM     45  C   UNL A   1      46.548  34.920  27.276  1.00  0.00     0.059 A 
ATOM     46  F   UNL A   1      45.798  33.144  25.944  1.00  0.00    -0.206 F 
ATOM     47  C   UNL A   1      46.977  35.390  28.516  1.00  0.00     0.060 A 
BRANCH  47  48
ATOM     48  S   UNL A   1      47.323  37.146  28.759  1.00  0.00     0.124 S 
ATOM     49  O   UNL A   1      46.460  37.754  27.751  1.00  0.00    -0.237 OA
ATOM     50  O   UNL A   1      46.921  37.355  30.146  1.00  0.00    -0.237 OA
ATOM     51  O   UNL A   1      48.757  37.250  28.502  1.00  0.00    -0.744 OA
ENDBRANCH  47  48
ENDBRANCH  26  40
BRANCH  27  52
ATOM     52  C   UNL A   1      43.683  23.151  26.701  1.00  0.00     0.058 A 
ATOM     53  C   UNL A   1      43.600  22.611  25.410  1.00  0.00     0.135 A 
ATOM     54  C   UNL A   1      43.418  22.299  27.785  1.00  0.00     0.135 A 
ATOM     55  F   UNL A   1      43.841  23.387  24.343  1.00  0.00    -0.206 F 
ATOM     56  C   UNL A   1      43.261  21.279  25.199  1.00  0.00     0.059 A 
ATOM     57  C   UNL A   1      43.105  20.956  27.601  1.00  0.00     0.059 A 
ATOM     58  F   UNL A   1      43.503  22.763  29.042  1.00  0.00    -0.206 F 
ATOM     59  C   UNL A   1      43.021  20.458  26.302  1.00  0.00     0.060 A 
BRANCH  59  60
ATOM     60  S   UNL A   1      42.646  18.715  26.016  1.00  0.00     0.124 S 
ATOM     61  O   UNL A   1      42.955  18.131  27.315  1.00  0.00    -0.237 OA
ATOM     62  O   UNL A   1      41.232  18.762  25.655  1.00  0.00    -0.237 OA
ATOM     63  O   UNL A   1      43.549  18.351  24.927  1.00  0.00    -0.744 OA
ENDBRANCH  59  60
ENDBRANCH  27  52
BRANCH  39  64
ATOM     64  C   UNL A   1      49.727  26.591  26.171  1.00  0.00     0.058 A 
ATOM     65  C   UNL A   1      50.240  26.719  24.870  1.00  0.00     0.135 A 
ATOM     66  C   UNL A   1      50.572  26.056  27.158  1.00  0.00     0.135 A 
ATOM     67  F   UNL A   1      49.472  27.217  23.888  1.00  0.00    -0.206 F 
ATOM     68  C   UNL A   1      51.529  26.304  24.553  1.00  0.00     0.059 A 
ATOM     69  C   UNL A   1      51.875  25.663  26.870  1.00  0.00     0.059 A 
ATOM     70  F   UNL A   1      50.136  25.920  28.420  1.00  0.00    -0.206 F 
ATOM     71  C   UNL A   1      52.339  25.776  25.561  1.00  0.00     0.060 A 
BRANCH  71  72
ATOM     72  S   UNL A   1      54.016  25.258  25.142  1.00  0.00     0.124 S 
ATOM     73  O   UNL A   1      54.764  25.711  26.310  1.00  0.00    -0.237 OA
ATOM     74  O   UNL A   1      53.873  23.813  25.003  1.00  0.00    -0.237 OA
ATOM     75  O   UNL A   1      54.294  25.976  23.902  1.00  0.00    -0.744 OA
ENDBRANCH  71  72
ENDBRANCH  39  64
ENDBRANCH  13  14
ENDBRANCH   6   8
ENDBRANCH   3   4
ENDBRANCH   2   3
ENDBRANCH   1   2
BRANCH   1  76
ATOM     76  C   UNL A   1      32.637  28.273  26.352  1.00  0.00     0.116 C 
BRANCH  76  77
ATOM     77  N   UNL A   1      31.386  28.509  25.648  1.00  0.00    -0.354 N 
ATOM     78  C   UNL A   1      30.859  27.818  24.586  1.00  0.00     0.252 C 
ATOM     79  H   UNL A   1      30.846  29.263  25.977  1.00  0.00     0.163 HD
ATOM     80  O   UNL A   1      29.708  28.062  24.232  1.00  0.00    -0.272 OA
BRANCH  78  81
ATOM     81  C   UNL A   1      31.764  26.801  23.888  1.00  0.00     0.242 C 
ATOM     82  O   UNL A   1      31.681  25.536  24.570  1.00  0.00    -0.324 OA
ATOM     83  C   UNL A   1      31.412  26.567  22.416  1.00  0.00     0.184 C 
ATOM     84  C   UNL A   1      32.766  24.681  24.214  1.00  0.00     0.340 C 
ATOM     85  C   UNL A   1      32.542  25.715  21.820  1.00  0.00     0.181 C 
ATOM     86  C   UNL A   1      32.896  24.510  22.685  1.00  0.00     0.214 C 
BRANCH  83  87
ATOM     87  O   UNL A   1      31.304  27.749  21.619  1.00  0.00    -0.387 OA
ATOM     88  H   UNL A   1      30.958  27.517  20.743  1.00  0.00     0.211 HD
ENDBRANCH  83  87
BRANCH  84  89
ATOM     89  O   UNL A   1      32.746  23.361  24.821  1.00  0.00    -0.454 OA
BRANCH  89  90
ATOM     90  C   UNL A   1      33.941  22.762  25.186  1.00  0.00     0.214 A 
ATOM     91  C   UNL A   1      34.293  21.499  24.852  1.00  0.00     0.181 A 
ATOM     92  C   UNL A   1      35.011  23.643  25.758  1.00  0.00     0.239 A 
ATOM     93  O   UNL A   1      35.504  20.911  25.143  1.00  0.00    -0.452 OA
ATOM     94  C   UNL A   1      36.379  23.061  25.858  1.00  0.00     0.111 A 
ATOM     95  O   UNL A   1      34.748  24.793  26.095  1.00  0.00    -0.285 OA
ATOM     96  C   UNL A   1      36.532  21.706  25.566  1.00  0.00     0.146 A 
ATOM     97  C   UNL A   1      37.521  23.795  26.220  1.00  0.00     0.134 A 
ATOM     98  C   UNL A   1      37.775  21.076  25.672  1.00  0.00     0.094 A 
ATOM     99  C   UNL A   1      38.774  23.172  26.322  1.00  0.00     0.093 A 
ATOM    100  C   UNL A   1      38.885  21.811  26.054  1.00  0.00     0.123 A 
BRANCH  91 101
ATOM    101  C   UNL A   1      33.374  20.554  24.196  1.00  0.00     0.029 A 
ATOM    102  C   UNL A   1      32.709  20.971  23.028  1.00  0.00     0.062 A 
ATOM    103  C   UNL A   1      33.279  19.215  24.617  1.00  0.00     0.062 A 
ATOM    104  C   UNL A   1      32.086  20.027  22.220  1.00  0.00     0.162 A 
ATOM    105  C   UNL A   1      32.637  18.291  23.800  1.00  0.00     0.162 A 
ATOM    106  C   UNL A   1      32.086  18.686  22.586  1.00  0.00     0.200 A 
BRANCH 104 107
ATOM    107  O   UNL A   1      31.569  20.428  21.023  1.00  0.00    -0.504 OA
ATOM    108  H   UNL A   1      32.074  20.976  20.454  1.00  0.00     0.293 HD
ENDBRANCH 104 107
BRANCH 105 109
ATOM    109  O   UNL A   1      32.664  16.968  24.142  1.00  0.00    -0.504 OA
ATOM    110  H   UNL A   1      33.000  16.707  24.977  1.00  0.00     0.293 HD
ENDBRANCH 105 109
BRANCH 106 111
ATOM    111  O   UNL A   1      31.685  17.725  21.698  1.00  0.00    -0.502 OA
ATOM    112  H   UNL A   1      31.438  17.966  20.827  1.00  0.00     0.293 HD
ENDBRANCH 106 111
ENDBRANCH  91 101
BRANCH  97 113
ATOM    113  O   UNL A   1      37.444  25.139  26.451  1.00  0.00    -0.507 OA
ATOM    114  H   UNL A   1      36.620  25.532  26.659  1.00  0.00     0.293 HD
ENDBRANCH  97 113
BRANCH 100 115
ATOM    115  O   UNL A   1      40.077  21.155  26.143  1.00  0.00    -0.508 OA
ATOM    116  H   UNL A   1      40.313  20.523  25.494  1.00  0.00     0.293 HD
ENDBRANCH 100 115
ENDBRANCH  89  90
ENDBRANCH  84  89
BRANCH  85 117
ATOM    117  O   UNL A   1      32.201  25.233  20.496  1.00  0.00    -0.387 OA
ATOM    118  H   UNL A   1      31.254  25.026  20.461  1.00  0.00     0.211 HD
ENDBRANCH  85 117
BRANCH  86 119
ATOM    119  O   UNL A   1      34.207  24.048  22.331  1.00  0.00    -0.384 OA
ATOM    120  H   UNL A   1      34.712  24.777  21.941  1.00  0.00     0.211 HD
ENDBRANCH  86 119
ENDBRANCH  78  81
ENDBRANCH  76  77
ENDBRANCH   1  76
TORSDOF 25
ENDMDL
MODEL 3
REMARK VINA RESULT:     -11.6      5.926     10.981
REMARK SMILES O=C(NCCCCNC(=O)[C@H]1O[C@@H](Oc2c(-c3cc(O)c(O)c(O)c3)oc3cc(O)cc(O)c3c2=O)[C@H](O)[C@@H](O)[C@@H]1O)c1ccc(-c2c3nc(c(-c4c(F)cc(S(=O)(=O)[O-])cc4F)c4ccc([nH]4)c(-c4c(F)cc(S(=O)(=O)[O-])cc4F)c4nc(c(-c5c(F)cc(S(=O)(=O)[O-])cc5F)c5ccc2[nH]5)C=C4)C=C3)cc1
REMARK SMILES IDX 6 1 5 2 4 3 3 4 1 5 2 6 43 8 44 9 108 10 45 11 107 12 46 13
REMARK SMILES IDX 47 14 48 15 101 16 49 17 106 18 100 19 102 20 50 21 105 22
REMARK SMILES IDX 99 23 98 24 51 26 85 27 64 28 84 29 65 30 68 31 83 32 103 33
REMARK SMILES IDX 66 34 67 35 82 37 104 38 69 39 52 40 53 41 62 42 54 43 55 44
REMARK SMILES IDX 61 45 63 46 56 47 57 48 58 49 59 50 60 51 86 52 87 53 96 54
REMARK SMILES IDX 88 55 89 56 95 57 97 58 90 59 91 60 92 61 93 62 94 63 70 64
REMARK SMILES IDX 71 65 80 66 72 67 73 68 79 69 81 70 74 71 75 72 76 73 77 74
REMARK SMILES IDX 78 75 7 76 8 77 9 78 10 80 11 81 12 82 41 83 13 84 39 85
REMARK SMILES IDX 37 86 42 87 14 89 15 90 16 91 35 92 26 93 34 94 36 95 27 96
REMARK SMILES IDX 32 97 28 98 31 99 29 100 17 101 18 102 25 103 19 104 23 105
REMARK SMILES IDX 21 106 20 107 24 109 22 111 33 113 30 115 40 117 38 119
REMARK H PARENT 3 7 102 25 68 36 8 79 42 88 20 108 24 110 22 112 33 114 30 116
REMARK H PARENT 40 118 38 120
REMARK Flexibility Score: inf
ROOT
ATOM      1  C   UNL A   1      38.988  33.724  29.578  1.00  0.00     0.023 C 
ENDROOT
BRANCH   1   2
ATOM      2  C   UNL A   1      37.478  33.946  29.632  1.00  0.00     0.023 C 
BRANCH   2   3
ATOM      3  C   UNL A   1      36.624  32.743  29.258  1.00  0.00     0.116 C 
BRANCH   3   4
ATOM      4  N   UNL A   1      36.142  31.994  30.409  1.00  0.00    -0.352 N 
ATOM      5  O   UNL A   1      36.066  30.283  31.881  1.00  0.00    -0.269 OA
ATOM      6  C   UNL A   1      36.665  30.854  30.975  1.00  0.00     0.251 C 
ATOM      7  H   UNL A   1      35.334  32.352  30.842  1.00  0.00     0.163 HD
BRANCH   6   8
ATOM      8  C   UNL A   1      37.934  30.299  30.453  1.00  0.00     0.039 A 
ATOM      9  C   UNL A   1      38.971  29.955  31.322  1.00  0.00     0.014 A 
ATOM     10  C   UNL A   1      38.100  30.159  29.072  1.00  0.00     0.014 A 
ATOM     11  C   UNL A   1      40.225  29.643  30.808  1.00  0.00     0.010 A 
ATOM     12  C   UNL A   1      39.336  29.750  28.561  1.00  0.00     0.010 A 
ATOM     13  C   UNL A   1      40.423  29.533  29.422  1.00  0.00    -0.014 A 
BRANCH  13  14
ATOM     14  C   UNL A   1      41.766  29.163  28.903  1.00  0.00     0.031 A 
ATOM     15  C   UNL A   1      42.898  30.157  28.891  1.00  0.00     0.074 A 
ATOM     16  C   UNL A   1      41.969  27.905  28.465  1.00  0.00     0.049 A 
ATOM     17  N   UNL A   1      44.135  29.991  28.496  1.00  0.00    -0.248 NA
ATOM     18  C   UNL A   1      42.603  31.514  29.374  1.00  0.00     0.031 C 
ATOM     19  C   UNL A   1      40.947  26.855  28.423  1.00  0.00     0.029 A 
ATOM     20  N   UNL A   1      43.097  27.287  27.994  1.00  0.00    -0.354 N 
ATOM     21  C   UNL A   1      44.759  31.224  28.656  1.00  0.00     0.074 A 
ATOM     22  C   UNL A   1      43.754  32.136  29.161  1.00  0.00     0.031 C 
ATOM     23  C   UNL A   1      41.508  25.711  28.004  1.00  0.00     0.029 A 
ATOM     24  C   UNL A   1      42.909  25.960  27.685  1.00  0.00     0.049 A 
ATOM     25  H   UNL A   1      43.960  27.748  27.886  1.00  0.00     0.167 HD
ATOM     26  C   UNL A   1      46.050  31.560  28.411  1.00  0.00     0.037 A 
ATOM     27  C   UNL A   1      43.762  25.046  27.189  1.00  0.00     0.037 A 
ATOM     28  C   UNL A   1      47.046  30.639  27.924  1.00  0.00     0.049 A 
ATOM     29  C   UNL A   1      45.182  25.448  26.909  1.00  0.00     0.074 A 
ATOM     30  C   UNL A   1      48.390  30.871  27.683  1.00  0.00     0.029 A 
ATOM     31  N   UNL A   1      46.807  29.311  27.595  1.00  0.00    -0.354 N 
ATOM     32  N   UNL A   1      45.761  26.610  27.098  1.00  0.00    -0.248 NA
ATOM     33  C   UNL A   1      46.063  24.417  26.350  1.00  0.00     0.031 C 
ATOM     34  C   UNL A   1      48.951  29.700  27.160  1.00  0.00     0.029 A 
ATOM     35  C   UNL A   1      47.973  28.719  27.131  1.00  0.00     0.049 A 
ATOM     36  H   UNL A   1      45.938  28.856  27.679  1.00  0.00     0.167 HD
ATOM     37  C   UNL A   1      47.085  26.440  26.709  1.00  0.00     0.074 A 
ATOM     38  C   UNL A   1      47.219  25.062  26.282  1.00  0.00     0.031 C 
ATOM     39  C   UNL A   1      48.096  27.344  26.713  1.00  0.00     0.037 A 
BRANCH  26  40
ATOM     40  C   UNL A   1      46.452  32.996  28.631  1.00  0.00     0.058 A 
ATOM     41  C   UNL A   1      46.428  33.946  27.597  1.00  0.00     0.135 A 
ATOM     42  C   UNL A   1      46.852  33.433  29.905  1.00  0.00     0.135 A 
ATOM     43  F   UNL A   1      46.065  33.585  26.356  1.00  0.00    -0.206 F 
ATOM     44  C   UNL A   1      46.822  35.264  27.809  1.00  0.00     0.059 A 
ATOM     45  C   UNL A   1      47.222  34.753  30.147  1.00  0.00     0.059 A 
ATOM     46  F   UNL A   1      46.889  32.571  30.935  1.00  0.00    -0.206 F 
ATOM     47  C   UNL A   1      47.225  35.657  29.087  1.00  0.00     0.060 A 
BRANCH  47  48
ATOM     48  S   UNL A   1      47.761  37.363  29.339  1.00  0.00     0.124 S 
ATOM     49  O   UNL A   1      46.882  37.785  30.426  1.00  0.00    -0.237 OA
ATOM     50  O   UNL A   1      49.168  37.200  29.691  1.00  0.00    -0.237 OA
ATOM     51  O   UNL A   1      47.510  37.994  28.047  1.00  0.00    -0.744 OA
ENDBRANCH  47  48
ENDBRANCH  26  40
BRANCH  27  52
ATOM     52  C   UNL A   1      43.292  23.656  26.950  1.00  0.00     0.058 A 
ATOM     53  C   UNL A   1      43.074  23.183  25.649  1.00  0.00     0.135 A 
ATOM     54  C   UNL A   1      43.094  22.762  28.014  1.00  0.00     0.135 A 
ATOM     55  F   UNL A   1      43.247  24.002  24.600  1.00  0.00    -0.206 F 
ATOM     56  C   UNL A   1      42.669  21.874  25.408  1.00  0.00     0.059 A 
ATOM     57  C   UNL A   1      42.717  21.440  27.797  1.00  0.00     0.059 A 
ATOM     58  F   UNL A   1      43.308  23.161  29.277  1.00  0.00    -0.206 F 
ATOM     59  C   UNL A   1      42.500  21.008  26.490  1.00  0.00     0.060 A 
BRANCH  59  60
ATOM     60  S   UNL A   1      42.037  19.295  26.161  1.00  0.00     0.124 S 
ATOM     61  O   UNL A   1      42.835  18.997  24.978  1.00  0.00    -0.237 OA
ATOM     62  O   UNL A   1      42.444  18.626  27.392  1.00  0.00    -0.237 OA
ATOM     63  O   UNL A   1      40.594  19.372  25.947  1.00  0.00    -0.744 OA
ENDBRANCH  59  60
ENDBRANCH  27  52
BRANCH  39  64
ATOM     64  C   UNL A   1      49.455  26.855  26.289  1.00  0.00     0.058 A 
ATOM     65  C   UNL A   1      50.322  26.200  27.178  1.00  0.00     0.135 A 
ATOM     66  C   UNL A   1      49.881  27.021  24.961  1.00  0.00     0.135 A 
ATOM     67  F   UNL A   1      49.967  26.022  28.461  1.00  0.00    -0.206 F 
ATOM     68  C   UNL A   1      51.577  25.755  26.774  1.00  0.00     0.059 A 
ATOM     69  C   UNL A   1      51.119  26.557  24.527  1.00  0.00     0.059 A 
ATOM     70  F   UNL A   1      49.088  27.631  24.067  1.00  0.00    -0.206 F 
ATOM     71  C   UNL A   1      51.966  25.939  25.446  1.00  0.00     0.060 A 
BRANCH  71  72
ATOM     72  S   UNL A   1      53.588  25.341  24.927  1.00  0.00     0.124 S 
ATOM     73  O   UNL A   1      53.452  23.903  25.139  1.00  0.00    -0.237 OA
ATOM     74  O   UNL A   1      53.652  25.773  23.536  1.00  0.00    -0.237 OA
ATOM     75  O   UNL A   1      54.508  26.024  25.832  1.00  0.00    -0.744 OA
ENDBRANCH  71  72
ENDBRANCH  39  64
ENDBRANCH  13  14
ENDBRANCH   6   8
ENDBRANCH   3   4
ENDBRANCH   2   3
ENDBRANCH   1   2
BRANCH   1  76
ATOM     76  C   UNL A   1      39.673  33.555  30.933  1.00  0.00     0.116 C 
BRANCH  76  77
ATOM     77  N   UNL A   1      39.117  34.419  31.963  1.00  0.00    -0.354 N 
ATOM     78  C   UNL A   1      38.938  34.154  33.297  1.00  0.00     0.252 C 
ATOM     79  H   UNL A   1      38.832  35.313  31.662  1.00  0.00     0.163 HD
ATOM     80  O   UNL A   1      38.606  35.071  34.044  1.00  0.00    -0.272 OA
BRANCH  78  81
ATOM     81  C   UNL A   1      39.135  32.710  33.761  1.00  0.00     0.242 C 
ATOM     82  O   UNL A   1      40.522  32.494  34.080  1.00  0.00    -0.324 OA
ATOM     83  C   UNL A   1      38.305  32.336  34.991  1.00  0.00     0.184 C 
ATOM     84  C   UNL A   1      40.831  31.102  34.144  1.00  0.00     0.340 C 
ATOM     85  C   UNL A   1      38.441  30.818  35.174  1.00  0.00     0.181 C 
ATOM     86  C   UNL A   1      39.888  30.340  35.099  1.00  0.00     0.214 C 
BRANCH  83  87
ATOM     87  O   UNL A   1      36.908  32.629  34.896  1.00  0.00    -0.387 OA
ATOM     88  H   UNL A   1      36.525  32.669  35.787  1.00  0.00     0.211 HD
ENDBRANCH  83  87
BRANCH  84  89
ATOM     89  O   UNL A   1      42.201  30.782  34.503  1.00  0.00    -0.454 OA
BRANCH  89  90
ATOM     90  C   UNL A   1      43.070  30.317  33.528  1.00  0.00     0.214 A 
ATOM     91  C   UNL A   1      44.036  31.066  32.950  1.00  0.00     0.181 A 
ATOM     92  C   UNL A   1      43.113  28.838  33.288  1.00  0.00     0.239 A 
ATOM     93  O   UNL A   1      44.955  30.604  32.033  1.00  0.00    -0.452 OA
ATOM     94  C   UNL A   1      44.250  28.322  32.475  1.00  0.00     0.111 A 
ATOM     95  O   UNL A   1      42.254  28.109  33.773  1.00  0.00    -0.285 OA
ATOM     96  C   UNL A   1      45.092  29.254  31.869  1.00  0.00     0.146 A 
ATOM     97  C   UNL A   1      44.528  26.957  32.288  1.00  0.00     0.134 A 
ATOM     98  C   UNL A   1      46.157  28.852  31.060  1.00  0.00     0.094 A 
ATOM     99  C   UNL A   1      45.600  26.545  31.483  1.00  0.00     0.093 A 
ATOM    100  C   UNL A   1      46.401  27.502  30.868  1.00  0.00     0.123 A 
BRANCH  91 101
ATOM    101  C   UNL A   1      44.174  32.515  33.172  1.00  0.00     0.029 A 
ATOM    102  C   UNL A   1      43.249  33.377  32.550  1.00  0.00     0.062 A 
ATOM    103  C   UNL A   1      45.093  33.029  34.104  1.00  0.00     0.062 A 
ATOM    104  C   UNL A   1      43.153  34.697  32.972  1.00  0.00     0.162 A 
ATOM    105  C   UNL A   1      44.989  34.358  34.499  1.00  0.00     0.162 A 
ATOM    106  C   UNL A   1      43.993  35.174  33.971  1.00  0.00     0.200 A 
BRANCH 104 107
ATOM    107  O   UNL A   1      42.159  35.478  32.459  1.00  0.00    -0.504 OA
ATOM    108  H   UNL A   1      42.075  36.371  32.734  1.00  0.00     0.293 HD
ENDBRANCH 104 107
BRANCH 105 109
ATOM    109  O   UNL A   1      45.791  34.819  35.504  1.00  0.00    -0.504 OA
ATOM    110  H   UNL A   1      45.419  35.048  36.333  1.00  0.00     0.293 HD
ENDBRANCH 105 109
BRANCH 106 111
ATOM    111  O   UNL A   1      43.759  36.390  34.553  1.00  0.00    -0.502 OA
ATOM    112  H   UNL A   1      43.867  36.496  35.478  1.00  0.00     0.293 HD
ENDBRANCH 106 111
ENDBRANCH  91 101
BRANCH  97 113
ATOM    113  O   UNL A   1      43.779  26.000  32.912  1.00  0.00    -0.507 OA
ATOM    114  H   UNL A   1      44.089  25.602  33.701  1.00  0.00     0.293 HD
ENDBRANCH  97 113
BRANCH 100 115
ATOM    115  O   UNL A   1      47.452  27.156  30.072  1.00  0.00    -0.508 OA
ATOM    116  H   UNL A   1      47.402  27.290  29.146  1.00  0.00     0.293 HD
ENDBRANCH 100 115
ENDBRANCH  89  90
ENDBRANCH  84  89
BRANCH  85 117
ATOM    117  O   UNL A   1      37.890  30.385  36.444  1.00  0.00    -0.387 OA
ATOM    118  H   UNL A   1      38.075  31.053  37.121  1.00  0.00     0.211 HD
ENDBRANCH  85 117
BRANCH  86 119
ATOM    119  O   UNL A   1      39.902  28.932  34.817  1.00  0.00    -0.384 OA
ATOM    120  H   UNL A   1      39.963  28.437  35.648  1.00  0.00     0.211 HD
ENDBRANCH  86 119
ENDBRANCH  78  81
ENDBRANCH  76  77
ENDBRANCH   1  76
TORSDOF 25
ENDMDL
