MODEL 1
REMARK VINA RESULT:     -11.8      0.000      0.000
REMARK SMILES O=C(CCCN1C(=O)/C(=C/c2cc(Br)ccc2O)SC1=S)NCCCCNC(=O)c1ccc(-c2c3nc(c(-c4c(F)cc(S(=O)(=O)[O-])cc4F)c4ccc([nH]4)c(-c4c(F)cc(S(=O)(=O)[O-])cc4F)c4nc(c(-c5c(F)cc(S(=O)(=O)[O-])cc5F)c5ccc2[nH]5)C=C4)C=C3)cc1
REMARK SMILES IDX 23 1 22 2 1 3 2 4 3 6 4 7 5 8 6 9 7 10 20 11 8 12 9 13 19 14
REMARK SMILES IDX 21 15 10 16 11 17 12 18 17 19 13 20 16 21 14 22 15 23 18 24
REMARK SMILES IDX 24 26 25 27 26 28 27 29 28 30 29 32 30 33 31 34 95 35 32 36
REMARK SMILES IDX 94 37 33 38 34 39 35 40 88 41 36 42 93 43 87 44 89 45 37 46
REMARK SMILES IDX 92 47 86 48 85 49 38 51 72 52 51 53 71 54 52 55 55 56 70 57
REMARK SMILES IDX 90 58 53 59 54 60 69 62 91 63 56 64 39 65 40 66 49 67 41 68
REMARK SMILES IDX 42 69 48 70 50 71 43 72 44 73 45 74 46 75 47 76 73 77 74 78
REMARK SMILES IDX 83 79 75 80 76 81 82 82 84 83 77 84 78 85 79 86 80 87 81 88
REMARK SMILES IDX 57 89 58 90 67 91 59 92 60 93 66 94 68 95 61 96 62 97 63 98
REMARK SMILES IDX 64 99 65 100
REMARK H PARENT 22 5 18 25 27 31 89 50 55 61
REMARK Flexibility Score: inf
ROOT
ATOM      1  C   UNL A   1      34.777  30.666  27.631  1.00  0.00     0.116 C 
ENDROOT
BRANCH   1   2
ATOM      2  N   UNL A   1      33.552  29.890  27.688  1.00  0.00    -0.356 N 
ATOM      3  O   UNL A   1      34.362  28.094  26.508  1.00  0.00    -0.275 OA
ATOM      4  C   UNL A   1      33.450  28.644  27.116  1.00  0.00     0.220 C 
ATOM      5  H   UNL A   1      32.769  30.268  28.150  1.00  0.00     0.163 HD
BRANCH   4   6
ATOM      6  C   UNL A   1      32.105  27.974  27.308  1.00  0.00     0.102 C 
BRANCH   6   7
ATOM      7  C   UNL A   1      31.316  27.855  26.004  1.00  0.00     0.032 C 
BRANCH   7   8
ATOM      8  C   UNL A   1      30.502  26.562  25.833  1.00  0.00     0.128 C 
BRANCH   8   9
ATOM      9  N   UNL A   1      31.254  25.385  25.377  1.00  0.00    -0.293 N 
ATOM     10  C   UNL A   1      31.416  24.290  26.208  1.00  0.00     0.266 C 
ATOM     11  C   UNL A   1      31.666  25.188  24.075  1.00  0.00     0.148 C 
ATOM     12  O   UNL A   1      30.915  24.143  27.318  1.00  0.00    -0.268 OA
ATOM     13  C   UNL A   1      32.287  23.274  25.563  1.00  0.00     0.081 C 
ATOM     14  S   UNL A   1      32.690  23.769  23.973  1.00  0.00    -0.054 SA
ATOM     15  S   UNL A   1      31.291  26.103  22.736  1.00  0.00    -0.052 S 
ATOM     16  C   UNL A   1      32.677  22.163  26.203  1.00  0.00     0.033 C 
BRANCH  16  17
ATOM     17  C   UNL A   1      33.640  21.190  25.677  1.00  0.00     0.019 A 
ATOM     18  C   UNL A   1      34.998  21.523  25.608  1.00  0.00     0.027 A 
ATOM     19  C   UNL A   1      33.222  19.924  25.236  1.00  0.00     0.122 A 
ATOM     20  C   UNL A   1      35.912  20.598  25.099  1.00  0.00     0.018 A 
ATOM     21  C   UNL A   1      34.139  19.002  24.732  1.00  0.00     0.048 A 
ATOM     22  Br  UNL A   1      37.743  21.057  24.986  1.00  0.00    -0.051 Br
ATOM     23  C   UNL A   1      35.491  19.342  24.663  1.00  0.00     0.019 A 
BRANCH  19  24
ATOM     24  O   UNL A   1      31.893  19.598  25.297  1.00  0.00    -0.507 OA
ATOM     25  H   UNL A   1      31.628  18.700  25.250  1.00  0.00     0.293 HD
ENDBRANCH  19  24
ENDBRANCH  16  17
ENDBRANCH   8   9
ENDBRANCH   7   8
ENDBRANCH   6   7
ENDBRANCH   4   6
ENDBRANCH   1   2
BRANCH   1  26
ATOM     26  C   UNL A   1      34.586  32.107  28.104  1.00  0.00     0.023 C 
BRANCH  26  27
ATOM     27  C   UNL A   1      35.865  32.938  28.225  1.00  0.00     0.023 C 
BRANCH  27  28
ATOM     28  C   UNL A   1      36.506  32.968  29.609  1.00  0.00     0.116 C 
BRANCH  28  29
ATOM     29  N   UNL A   1      36.047  31.911  30.487  1.00  0.00    -0.352 N 
ATOM     30  C   UNL A   1      36.660  30.715  30.785  1.00  0.00     0.251 C 
ATOM     31  H   UNL A   1      35.182  32.069  30.930  1.00  0.00     0.163 HD
ATOM     32  O   UNL A   1      36.066  29.884  31.467  1.00  0.00    -0.269 OA
BRANCH  30  33
ATOM     33  C   UNL A   1      38.014  30.405  30.257  1.00  0.00     0.039 A 
ATOM     34  C   UNL A   1      39.084  30.351  31.155  1.00  0.00     0.014 A 
ATOM     35  C   UNL A   1      38.242  30.176  28.896  1.00  0.00     0.014 A 
ATOM     36  C   UNL A   1      40.363  30.015  30.701  1.00  0.00     0.010 A 
ATOM     37  C   UNL A   1      39.508  29.777  28.456  1.00  0.00     0.010 A 
ATOM     38  C   UNL A   1      40.584  29.692  29.352  1.00  0.00    -0.014 A 
BRANCH  38  39
ATOM     39  C   UNL A   1      41.928  29.254  28.879  1.00  0.00     0.031 A 
ATOM     40  C   UNL A   1      43.063  30.238  28.765  1.00  0.00     0.074 A 
ATOM     41  C   UNL A   1      42.123  27.970  28.513  1.00  0.00     0.049 A 
ATOM     42  N   UNL A   1      44.288  30.044  28.348  1.00  0.00    -0.248 NA
ATOM     43  C   UNL A   1      42.777  31.628  29.155  1.00  0.00     0.031 C 
ATOM     44  C   UNL A   1      41.102  26.921  28.535  1.00  0.00     0.029 A 
ATOM     45  N   UNL A   1      43.245  27.328  28.044  1.00  0.00    -0.354 N 
ATOM     46  C   UNL A   1      44.919  31.282  28.420  1.00  0.00     0.074 A 
ATOM     47  C   UNL A   1      43.923  32.231  28.871  1.00  0.00     0.031 C 
ATOM     48  C   UNL A   1      41.646  25.766  28.121  1.00  0.00     0.029 A 
ATOM     49  C   UNL A   1      43.043  25.996  27.762  1.00  0.00     0.049 A 
ATOM     50  H   UNL A   1      44.111  27.778  27.922  1.00  0.00     0.167 HD
ATOM     51  C   UNL A   1      46.211  31.596  28.155  1.00  0.00     0.037 A 
ATOM     52  C   UNL A   1      43.879  25.065  27.260  1.00  0.00     0.037 A 
ATOM     53  C   UNL A   1      47.202  30.647  27.713  1.00  0.00     0.049 A 
ATOM     54  C   UNL A   1      45.304  25.442  26.950  1.00  0.00     0.074 A 
ATOM     55  C   UNL A   1      48.547  30.862  27.464  1.00  0.00     0.029 A 
ATOM     56  N   UNL A   1      46.958  29.309  27.441  1.00  0.00    -0.354 N 
ATOM     57  N   UNL A   1      45.898  26.604  27.086  1.00  0.00    -0.248 NA
ATOM     58  C   UNL A   1      46.175  24.381  26.424  1.00  0.00     0.031 C 
ATOM     59  C   UNL A   1      49.102  29.669  26.990  1.00  0.00     0.029 A 
ATOM     60  C   UNL A   1      48.120  28.693  27.002  1.00  0.00     0.049 A 
ATOM     61  H   UNL A   1      46.087  28.861  27.545  1.00  0.00     0.167 HD
ATOM     62  C   UNL A   1      47.217  26.407  26.690  1.00  0.00     0.074 A 
ATOM     63  C   UNL A   1      47.336  25.011  26.322  1.00  0.00     0.031 C 
ATOM     64  C   UNL A   1      48.235  27.301  26.640  1.00  0.00     0.037 A 
BRANCH  51  65
ATOM     65  C   UNL A   1      46.632  33.032  28.335  1.00  0.00     0.058 A 
ATOM     66  C   UNL A   1      47.087  33.520  29.571  1.00  0.00     0.135 A 
ATOM     67  C   UNL A   1      46.617  33.922  27.249  1.00  0.00     0.135 A 
ATOM     68  F   UNL A   1      47.115  32.716  30.646  1.00  0.00    -0.206 F 
ATOM     69  C   UNL A   1      47.479  34.845  29.732  1.00  0.00     0.059 A 
ATOM     70  C   UNL A   1      47.034  35.245  27.380  1.00  0.00     0.059 A 
ATOM     71  F   UNL A   1      46.196  33.512  26.043  1.00  0.00    -0.206 F 
ATOM     72  C   UNL A   1      47.447  35.700  28.630  1.00  0.00     0.060 A 
BRANCH  72  73
ATOM     73  S   UNL A   1      47.954  37.418  28.859  1.00  0.00     0.124 S 
ATOM     74  O   UNL A   1      48.869  37.303  29.991  1.00  0.00    -0.237 OA
ATOM     75  O   UNL A   1      48.573  37.734  27.575  1.00  0.00    -0.237 OA
ATOM     76  O   UNL A   1      46.700  38.111  29.134  1.00  0.00    -0.744 OA
ENDBRANCH  72  73
ENDBRANCH  51  65
BRANCH  52  77
ATOM     77  C   UNL A   1      43.390  23.679  27.027  1.00  0.00     0.058 A 
ATOM     78  C   UNL A   1      43.136  23.206  25.731  1.00  0.00     0.135 A 
ATOM     79  C   UNL A   1      43.179  22.793  28.096  1.00  0.00     0.135 A 
ATOM     80  F   UNL A   1      43.310  24.016  24.675  1.00  0.00    -0.206 F 
ATOM     81  C   UNL A   1      42.682  21.910  25.502  1.00  0.00     0.059 A 
ATOM     82  C   UNL A   1      42.754  21.485  27.891  1.00  0.00     0.059 A 
ATOM     83  F   UNL A   1      43.420  23.190  29.356  1.00  0.00    -0.206 F 
ATOM     84  C   UNL A   1      42.499  21.055  26.590  1.00  0.00     0.060 A 
BRANCH  84  85
ATOM     85  S   UNL A   1      41.969  19.357  26.280  1.00  0.00     0.124 S 
ATOM     86  O   UNL A   1      42.481  18.667  27.458  1.00  0.00    -0.237 OA
ATOM     87  O   UNL A   1      40.518  19.499  26.202  1.00  0.00    -0.237 OA
ATOM     88  O   UNL A   1      42.625  19.025  25.018  1.00  0.00    -0.744 OA
ENDBRANCH  84  85
ENDBRANCH  52  77
BRANCH  64  89
ATOM     89  C   UNL A   1      49.586  26.797  26.204  1.00  0.00     0.058 A 
ATOM     90  C   UNL A   1      50.003  26.854  24.864  1.00  0.00     0.135 A 
ATOM     91  C   UNL A   1      50.497  26.298  27.151  1.00  0.00     0.135 A 
ATOM     92  F   UNL A   1      49.172  27.315  23.917  1.00  0.00    -0.206 F 
ATOM     93  C   UNL A   1      51.264  26.412  24.476  1.00  0.00     0.059 A 
ATOM     94  C   UNL A   1      51.774  25.879  26.789  1.00  0.00     0.059 A 
ATOM     95  F   UNL A   1      50.155  26.230  28.447  1.00  0.00    -0.206 F 
ATOM     96  C   UNL A   1      52.144  25.929  25.446  1.00  0.00     0.060 A 
BRANCH  96  97
ATOM     97  S   UNL A   1      53.789  25.390  24.932  1.00  0.00     0.124 S 
ATOM     98  O   UNL A   1      53.947  26.094  23.664  1.00  0.00    -0.237 OA
ATOM     99  O   UNL A   1      54.629  25.863  26.028  1.00  0.00    -0.237 OA
ATOM    100  O   UNL A   1      53.658  23.940  24.832  1.00  0.00    -0.744 OA
ENDBRANCH  96  97
ENDBRANCH  64  89
ENDBRANCH  38  39
ENDBRANCH  30  33
ENDBRANCH  28  29
ENDBRANCH  27  28
ENDBRANCH  26  27
ENDBRANCH   1  26
TORSDOF 19
ENDMDL
MODEL 2
REMARK VINA RESULT:     -11.4      6.526     12.213
REMARK SMILES O=C(CCCN1C(=O)/C(=C/c2cc(Br)ccc2O)SC1=S)NCCCCNC(=O)c1ccc(-c2c3nc(c(-c4c(F)cc(S(=O)(=O)[O-])cc4F)c4ccc([nH]4)c(-c4c(F)cc(S(=O)(=O)[O-])cc4F)c4nc(c(-c5c(F)cc(S(=O)(=O)[O-])cc5F)c5ccc2[nH]5)C=C4)C=C3)cc1
REMARK SMILES IDX 23 1 22 2 1 3 2 4 3 6 4 7 5 8 6 9 7 10 20 11 8 12 9 13 19 14
REMARK SMILES IDX 21 15 10 16 11 17 12 18 17 19 13 20 16 21 14 22 15 23 18 24
REMARK SMILES IDX 24 26 25 27 26 28 27 29 28 30 29 32 30 33 31 34 95 35 32 36
REMARK SMILES IDX 94 37 33 38 34 39 35 40 88 41 36 42 93 43 87 44 89 45 37 46
REMARK SMILES IDX 92 47 86 48 85 49 38 51 72 52 51 53 71 54 52 55 55 56 70 57
REMARK SMILES IDX 90 58 53 59 54 60 69 62 91 63 56 64 39 65 40 66 49 67 41 68
REMARK SMILES IDX 42 69 48 70 50 71 43 72 44 73 45 74 46 75 47 76 73 77 74 78
REMARK SMILES IDX 83 79 75 80 76 81 82 82 84 83 77 84 78 85 79 86 80 87 81 88
REMARK SMILES IDX 57 89 58 90 67 91 59 92 60 93 66 94 68 95 61 96 62 97 63 98
REMARK SMILES IDX 64 99 65 100
REMARK H PARENT 22 5 18 25 27 31 89 50 55 61
REMARK Flexibility Score: inf
ROOT
ATOM      1  C   UNL A   1      35.891  23.804  25.797  1.00  0.00     0.116 C 
ENDROOT
BRANCH   1   2
ATOM      2  N   UNL A   1      34.964  23.012  25.010  1.00  0.00    -0.356 N 
ATOM      3  O   UNL A   1      34.830  21.269  26.500  1.00  0.00    -0.275 OA
ATOM      4  C   UNL A   1      34.499  21.792  25.441  1.00  0.00     0.220 C 
ATOM      5  H   UNL A   1      34.659  23.359  24.141  1.00  0.00     0.163 HD
BRANCH   4   6
ATOM      6  C   UNL A   1      33.514  21.129  24.500  1.00  0.00     0.102 C 
BRANCH   6   7
ATOM      7  C   UNL A   1      33.154  22.013  23.307  1.00  0.00     0.032 C 
BRANCH   7   8
ATOM      8  C   UNL A   1      31.791  22.719  23.387  1.00  0.00     0.128 C 
BRANCH   8   9
ATOM      9  N   UNL A   1      31.762  23.977  24.145  1.00  0.00    -0.293 N 
ATOM     10  C   UNL A   1      31.966  25.188  23.505  1.00  0.00     0.266 C 
ATOM     11  C   UNL A   1      31.345  24.080  25.456  1.00  0.00     0.148 C 
ATOM     12  O   UNL A   1      32.100  25.354  22.297  1.00  0.00    -0.268 OA
ATOM     13  C   UNL A   1      31.985  26.299  24.490  1.00  0.00     0.081 C 
ATOM     14  S   UNL A   1      31.637  25.700  26.058  1.00  0.00    -0.054 SA
ATOM     15  S   UNL A   1      30.651  22.899  26.402  1.00  0.00    -0.052 S 
ATOM     16  C   UNL A   1      32.263  27.561  24.135  1.00  0.00     0.033 C 
BRANCH  16  17
ATOM     17  C   UNL A   1      32.432  28.676  25.072  1.00  0.00     0.019 A 
ATOM     18  C   UNL A   1      33.546  28.711  25.919  1.00  0.00     0.027 A 
ATOM     19  C   UNL A   1      31.488  29.714  25.139  1.00  0.00     0.122 A 
ATOM     20  C   UNL A   1      33.699  29.770  26.817  1.00  0.00     0.018 A 
ATOM     21  C   UNL A   1      31.648  30.772  26.033  1.00  0.00     0.048 A 
ATOM     22  Br  UNL A   1      35.194  29.805  27.974  1.00  0.00    -0.051 Br
ATOM     23  C   UNL A   1      32.759  30.798  26.877  1.00  0.00     0.019 A 
BRANCH  19  24
ATOM     24  O   UNL A   1      30.394  29.679  24.316  1.00  0.00    -0.507 OA
ATOM     25  H   UNL A   1      30.045  28.855  24.035  1.00  0.00     0.293 HD
ENDBRANCH  19  24
ENDBRANCH  16  17
ENDBRANCH   8   9
ENDBRANCH   7   8
ENDBRANCH   6   7
ENDBRANCH   4   6
ENDBRANCH   1   2
BRANCH   1  26
ATOM     26  C   UNL A   1      37.326  23.728  25.274  1.00  0.00     0.023 C 
BRANCH  26  27
ATOM     27  C   UNL A   1      38.289  22.879  26.105  1.00  0.00     0.023 C 
BRANCH  27  28
ATOM     28  C   UNL A   1      39.298  23.654  26.946  1.00  0.00     0.116 C 
BRANCH  28  29
ATOM     29  N   UNL A   1      40.584  23.827  26.302  1.00  0.00    -0.352 N 
ATOM     30  C   UNL A   1      41.503  24.836  26.478  1.00  0.00     0.251 C 
ATOM     31  H   UNL A   1      40.833  23.131  25.652  1.00  0.00     0.163 HD
ATOM     32  O   UNL A   1      42.497  24.881  25.757  1.00  0.00    -0.269 OA
BRANCH  30  33
ATOM     33  C   UNL A   1      41.286  25.890  27.502  1.00  0.00     0.039 A 
ATOM     34  C   UNL A   1      40.189  25.769  28.360  1.00  0.00     0.014 A 
ATOM     35  C   UNL A   1      42.138  26.993  27.621  1.00  0.00     0.014 A 
ATOM     36  C   UNL A   1      39.980  26.717  29.367  1.00  0.00     0.010 A 
ATOM     37  C   UNL A   1      41.964  27.902  28.669  1.00  0.00     0.010 A 
ATOM     38  C   UNL A   1      40.883  27.777  29.554  1.00  0.00    -0.014 A 
BRANCH  38  39
ATOM     39  C   UNL A   1      40.711  28.742  30.677  1.00  0.00     0.031 A 
ATOM     40  C   UNL A   1      41.546  28.627  31.926  1.00  0.00     0.074 A 
ATOM     41  C   UNL A   1      39.772  29.707  30.592  1.00  0.00     0.049 A 
ATOM     42  N   UNL A   1      41.514  29.358  33.012  1.00  0.00    -0.248 NA
ATOM     43  C   UNL A   1      42.534  27.538  31.966  1.00  0.00     0.031 C 
ATOM     44  C   UNL A   1      38.868  29.907  29.458  1.00  0.00     0.029 A 
ATOM     45  N   UNL A   1      39.416  30.697  31.477  1.00  0.00    -0.354 N 
ATOM     46  C   UNL A   1      42.471  28.817  33.865  1.00  0.00     0.074 A 
ATOM     47  C   UNL A   1      43.028  27.663  33.190  1.00  0.00     0.031 C 
ATOM     48  C   UNL A   1      38.077  30.963  29.706  1.00  0.00     0.029 A 
ATOM     49  C   UNL A   1      38.385  31.492  31.032  1.00  0.00     0.049 A 
ATOM     50  H   UNL A   1      39.856  30.826  32.347  1.00  0.00     0.167 HD
ATOM     51  C   UNL A   1      42.864  29.251  35.088  1.00  0.00     0.037 A 
ATOM     52  C   UNL A   1      37.748  32.524  31.624  1.00  0.00     0.037 A 
ATOM     53  C   UNL A   1      42.312  30.403  35.755  1.00  0.00     0.049 A 
ATOM     54  C   UNL A   1      38.185  32.973  32.992  1.00  0.00     0.074 A 
ATOM     55  C   UNL A   1      42.679  30.947  36.975  1.00  0.00     0.029 A 
ATOM     56  N   UNL A   1      41.273  31.183  35.270  1.00  0.00    -0.354 N 
ATOM     57  N   UNL A   1      39.135  32.489  33.755  1.00  0.00    -0.248 NA
ATOM     58  C   UNL A   1      37.468  34.115  33.579  1.00  0.00     0.031 C 
ATOM     59  C   UNL A   1      41.826  32.021  37.251  1.00  0.00     0.029 A 
ATOM     60  C   UNL A   1      40.967  32.186  36.177  1.00  0.00     0.049 A 
ATOM     61  H   UNL A   1      40.818  31.044  34.407  1.00  0.00     0.167 HD
ATOM     62  C   UNL A   1      39.149  33.281  34.898  1.00  0.00     0.074 A 
ATOM     63  C   UNL A   1      38.121  34.286  34.720  1.00  0.00     0.031 C 
ATOM     64  C   UNL A   1      39.944  33.187  35.993  1.00  0.00     0.037 A 
BRANCH  51  65
ATOM     65  C   UNL A   1      43.946  28.473  35.791  1.00  0.00     0.058 A 
ATOM     66  C   UNL A   1      45.308  28.764  35.604  1.00  0.00     0.135 A 
ATOM     67  C   UNL A   1      43.618  27.448  36.694  1.00  0.00     0.135 A 
ATOM     68  F   UNL A   1      45.681  29.728  34.746  1.00  0.00    -0.206 F 
ATOM     69  C   UNL A   1      46.304  28.046  36.258  1.00  0.00     0.059 A 
ATOM     70  C   UNL A   1      44.598  26.736  37.382  1.00  0.00     0.059 A 
ATOM     71  F   UNL A   1      42.334  27.127  36.916  1.00  0.00    -0.206 F 
ATOM     72  C   UNL A   1      45.939  27.033  37.145  1.00  0.00     0.060 A 
BRANCH  72  73
ATOM     73  S   UNL A   1      47.245  26.108  37.981  1.00  0.00     0.124 S 
ATOM     74  O   UNL A   1      48.200  25.907  36.895  1.00  0.00    -0.237 OA
ATOM     75  O   UNL A   1      47.663  27.036  39.027  1.00  0.00    -0.237 OA
ATOM     76  O   UNL A   1      46.565  24.905  38.449  1.00  0.00    -0.744 OA
ENDBRANCH  72  73
ENDBRANCH  51  65
BRANCH  52  77
ATOM     77  C   UNL A   1      36.631  33.208  30.917  1.00  0.00     0.058 A 
ATOM     78  C   UNL A   1      35.299  33.028  31.317  1.00  0.00     0.135 A 
ATOM     79  C   UNL A   1      36.875  34.068  29.833  1.00  0.00     0.135 A 
ATOM     80  F   UNL A   1      35.010  32.207  32.338  1.00  0.00    -0.206 F 
ATOM     81  C   UNL A   1      34.248  33.666  30.665  1.00  0.00     0.059 A 
ATOM     82  C   UNL A   1      35.845  34.740  29.185  1.00  0.00     0.059 A 
ATOM     83  F   UNL A   1      38.133  34.287  29.419  1.00  0.00    -0.206 F 
ATOM     84  C   UNL A   1      34.532  34.526  29.602  1.00  0.00     0.060 A 
BRANCH  84  85
ATOM     85  S   UNL A   1      33.168  35.398  28.802  1.00  0.00     0.124 S 
ATOM     86  O   UNL A   1      32.542  34.326  28.037  1.00  0.00    -0.237 OA
ATOM     87  O   UNL A   1      32.410  35.894  29.946  1.00  0.00    -0.237 OA
ATOM     88  O   UNL A   1      33.842  36.426  28.014  1.00  0.00    -0.744 OA
ENDBRANCH  84  85
ENDBRANCH  52  77
BRANCH  64  89
ATOM     89  C   UNL A   1      39.764  34.217  37.078  1.00  0.00     0.058 A 
ATOM     90  C   UNL A   1      38.955  33.980  38.200  1.00  0.00     0.135 A 
ATOM     91  C   UNL A   1      40.456  35.438  37.017  1.00  0.00     0.135 A 
ATOM     92  F   UNL A   1      38.265  32.833  38.306  1.00  0.00    -0.206 F 
ATOM     93  C   UNL A   1      38.817  34.927  39.211  1.00  0.00     0.059 A 
ATOM     94  C   UNL A   1      40.358  36.387  38.032  1.00  0.00     0.059 A 
ATOM     95  F   UNL A   1      41.252  35.714  35.973  1.00  0.00    -0.206 F 
ATOM     96  C   UNL A   1      39.525  36.126  39.119  1.00  0.00     0.060 A 
BRANCH  96  97
ATOM     97  S   UNL A   1      39.364  37.331  40.454  1.00  0.00     0.124 S 
ATOM     98  O   UNL A   1      40.667  37.986  40.420  1.00  0.00    -0.237 OA
ATOM     99  O   UNL A   1      38.236  38.142  40.008  1.00  0.00    -0.237 OA
ATOM    100  O   UNL A   1      39.108  36.505  41.630  1.00  0.00    -0.744 OA
ENDBRANCH  96  97
ENDBRANCH  64  89
ENDBRANCH  38  39
ENDBRANCH  30  33
ENDBRANCH  28  29
ENDBRANCH  27  28
ENDBRANCH  26  27
ENDBRANCH   1  26
TORSDOF 19
ENDMDL
MODEL 3
REMARK VINA RESULT:     -11.3      0.797      1.852
REMARK SMILES O=C(CCCN1C(=O)/C(=C/c2cc(Br)ccc2O)SC1=S)NCCCCNC(=O)c1ccc(-c2c3nc(c(-c4c(F)cc(S(=O)(=O)[O-])cc4F)c4ccc([nH]4)c(-c4c(F)cc(S(=O)(=O)[O-])cc4F)c4nc(c(-c5c(F)cc(S(=O)(=O)[O-])cc5F)c5ccc2[nH]5)C=C4)C=C3)cc1
REMARK SMILES IDX 23 1 22 2 1 3 2 4 3 6 4 7 5 8 6 9 7 10 20 11 8 12 9 13 19 14
REMARK SMILES IDX 21 15 10 16 11 17 12 18 17 19 13 20 16 21 14 22 15 23 18 24
REMARK SMILES IDX 24 26 25 27 26 28 27 29 28 30 29 32 30 33 31 34 95 35 32 36
REMARK SMILES IDX 94 37 33 38 34 39 35 40 88 41 36 42 93 43 87 44 89 45 37 46
REMARK SMILES IDX 92 47 86 48 85 49 38 51 72 52 51 53 71 54 52 55 55 56 70 57
REMARK SMILES IDX 90 58 53 59 54 60 69 62 91 63 56 64 39 65 40 66 49 67 41 68
REMARK SMILES IDX 42 69 48 70 50 71 43 72 44 73 45 74 46 75 47 76 73 77 74 78
REMARK SMILES IDX 83 79 75 80 76 81 82 82 84 83 77 84 78 85 79 86 80 87 81 88
REMARK SMILES IDX 57 89 58 90 67 91 59 92 60 93 66 94 68 95 61 96 62 97 63 98
REMARK SMILES IDX 64 99 65 100
REMARK H PARENT 22 5 18 25 27 31 89 50 55 61
REMARK Flexibility Score: inf
ROOT
ATOM      1  C   UNL A   1      34.385  30.955  27.651  1.00  0.00     0.116 C 
ENDROOT
BRANCH   1   2
ATOM      2  N   UNL A   1      33.404  30.768  26.598  1.00  0.00    -0.356 N 
ATOM      3  O   UNL A   1      32.301  29.030  27.616  1.00  0.00    -0.275 OA
ATOM      4  C   UNL A   1      32.424  29.807  26.675  1.00  0.00     0.220 C 
ATOM      5  H   UNL A   1      33.443  31.348  25.803  1.00  0.00     0.163 HD
BRANCH   4   6
ATOM      6  C   UNL A   1      31.473  29.786  25.496  1.00  0.00     0.102 C 
BRANCH   6   7
ATOM      7  C   UNL A   1      31.398  28.414  24.826  1.00  0.00     0.032 C 
BRANCH   7   8
ATOM      8  C   UNL A   1      32.722  27.874  24.261  1.00  0.00     0.128 C 
BRANCH   8   9
ATOM      9  N   UNL A   1      32.824  26.413  24.147  1.00  0.00    -0.293 N 
ATOM     10  C   UNL A   1      32.923  25.625  25.280  1.00  0.00     0.266 C 
ATOM     11  C   UNL A   1      32.629  25.714  22.973  1.00  0.00     0.148 C 
ATOM     12  O   UNL A   1      32.856  26.016  26.441  1.00  0.00    -0.268 OA
ATOM     13  C   UNL A   1      33.108  24.199  24.907  1.00  0.00     0.081 C 
ATOM     14  S   UNL A   1      33.022  24.021  23.205  1.00  0.00    -0.054 SA
ATOM     15  S   UNL A   1      32.097  26.304  21.510  1.00  0.00    -0.052 S 
ATOM     16  C   UNL A   1      33.328  23.247  25.824  1.00  0.00     0.033 C 
BRANCH  16  17
ATOM     17  C   UNL A   1      33.653  21.850  25.516  1.00  0.00     0.019 A 
ATOM     18  C   UNL A   1      34.983  21.479  25.287  1.00  0.00     0.027 A 
ATOM     19  C   UNL A   1      32.647  20.872  25.444  1.00  0.00     0.122 A 
ATOM     20  C   UNL A   1      35.289  20.150  24.986  1.00  0.00     0.018 A 
ATOM     21  C   UNL A   1      32.958  19.545  25.148  1.00  0.00     0.048 A 
ATOM     22  Br  UNL A   1      37.083  19.655  24.656  1.00  0.00    -0.051 Br
ATOM     23  C   UNL A   1      34.285  19.184  24.917  1.00  0.00     0.019 A 
BRANCH  19  24
ATOM     24  O   UNL A   1      31.344  21.234  25.662  1.00  0.00    -0.507 OA
ATOM     25  H   UNL A   1      31.111  21.702  26.440  1.00  0.00     0.293 HD
ENDBRANCH  19  24
ENDBRANCH  16  17
ENDBRANCH   8   9
ENDBRANCH   7   8
ENDBRANCH   6   7
ENDBRANCH   4   6
ENDBRANCH   1   2
BRANCH   1  26
ATOM     26  C   UNL A   1      34.419  32.389  28.180  1.00  0.00     0.023 C 
BRANCH  26  27
ATOM     27  C   UNL A   1      35.810  33.015  28.303  1.00  0.00     0.023 C 
BRANCH  27  28
ATOM     28  C   UNL A   1      36.409  33.023  29.706  1.00  0.00     0.116 C 
BRANCH  28  29
ATOM     29  N   UNL A   1      35.930  31.948  30.551  1.00  0.00    -0.352 N 
ATOM     30  C   UNL A   1      36.534  30.742  30.831  1.00  0.00     0.251 C 
ATOM     31  H   UNL A   1      35.059  32.098  30.983  1.00  0.00     0.163 HD
ATOM     32  O   UNL A   1      35.924  29.898  31.482  1.00  0.00    -0.269 OA
BRANCH  30  33
ATOM     33  C   UNL A   1      37.895  30.439  30.319  1.00  0.00     0.039 A 
ATOM     34  C   UNL A   1      38.959  30.416  31.226  1.00  0.00     0.014 A 
ATOM     35  C   UNL A   1      38.137  30.187  28.965  1.00  0.00     0.014 A 
ATOM     36  C   UNL A   1      40.246  30.087  30.789  1.00  0.00     0.010 A 
ATOM     37  C   UNL A   1      39.411  29.795  28.542  1.00  0.00     0.010 A 
ATOM     38  C   UNL A   1      40.481  29.741  29.447  1.00  0.00    -0.014 A 
BRANCH  38  39
ATOM     39  C   UNL A   1      41.834  29.310  28.993  1.00  0.00     0.031 A 
ATOM     40  C   UNL A   1      42.967  30.299  28.905  1.00  0.00     0.074 A 
ATOM     41  C   UNL A   1      42.039  28.030  28.621  1.00  0.00     0.049 A 
ATOM     42  N   UNL A   1      44.200  30.111  28.507  1.00  0.00    -0.248 NA
ATOM     43  C   UNL A   1      42.671  31.685  29.302  1.00  0.00     0.031 C 
ATOM     44  C   UNL A   1      41.021  26.978  28.618  1.00  0.00     0.029 A 
ATOM     45  N   UNL A   1      43.170  27.395  28.166  1.00  0.00    -0.354 N 
ATOM     46  C   UNL A   1      44.825  31.351  28.599  1.00  0.00     0.074 A 
ATOM     47  C   UNL A   1      43.819  32.294  29.040  1.00  0.00     0.031 C 
ATOM     48  C   UNL A   1      41.576  25.828  28.204  1.00  0.00     0.029 A 
ATOM     49  C   UNL A   1      42.977  26.065  27.870  1.00  0.00     0.049 A 
ATOM     50  H   UNL A   1      44.037  27.848  28.061  1.00  0.00     0.167 HD
ATOM     51  C   UNL A   1      46.121  31.671  28.357  1.00  0.00     0.037 A 
ATOM     52  C   UNL A   1      43.825  25.140  27.374  1.00  0.00     0.037 A 
ATOM     53  C   UNL A   1      47.121  30.729  27.924  1.00  0.00     0.049 A 
ATOM     54  C   UNL A   1      45.253  25.524  27.091  1.00  0.00     0.074 A 
ATOM     55  C   UNL A   1      48.470  30.950  27.699  1.00  0.00     0.029 A 
ATOM     56  N   UNL A   1      46.886  29.392  27.638  1.00  0.00    -0.354 N 
ATOM     57  N   UNL A   1      45.841  26.686  27.246  1.00  0.00    -0.248 NA
ATOM     58  C   UNL A   1      46.136  24.469  26.571  1.00  0.00     0.031 C 
ATOM     59  C   UNL A   1      49.037  29.762  27.225  1.00  0.00     0.029 A 
ATOM     60  C   UNL A   1      48.058  28.783  27.214  1.00  0.00     0.049 A 
ATOM     61  H   UNL A   1      46.015  28.941  27.725  1.00  0.00     0.167 HD
ATOM     62  C   UNL A   1      47.167  26.497  26.870  1.00  0.00     0.074 A 
ATOM     63  C   UNL A   1      47.297  25.104  26.493  1.00  0.00     0.031 C 
ATOM     64  C   UNL A   1      48.183  27.394  26.843  1.00  0.00     0.037 A 
BRANCH  51  65
ATOM     65  C   UNL A   1      46.534  33.107  28.555  1.00  0.00     0.058 A 
ATOM     66  C   UNL A   1      46.480  34.042  27.508  1.00  0.00     0.135 A 
ATOM     67  C   UNL A   1      46.951  33.564  29.816  1.00  0.00     0.135 A 
ATOM     68  F   UNL A   1      46.098  33.660  26.279  1.00  0.00    -0.206 F 
ATOM     69  C   UNL A   1      46.858  35.368  27.695  1.00  0.00     0.059 A 
ATOM     70  C   UNL A   1      47.304  34.894  30.033  1.00  0.00     0.059 A 
ATOM     71  F   UNL A   1      47.018  32.717  30.855  1.00  0.00    -0.206 F 
ATOM     72  C   UNL A   1      47.270  35.784  28.962  1.00  0.00     0.060 A 
BRANCH  72  73
ATOM     73  S   UNL A   1      47.762  37.507  29.185  1.00  0.00     0.124 S 
ATOM     74  O   UNL A   1      48.764  37.662  28.135  1.00  0.00    -0.237 OA
ATOM     75  O   UNL A   1      46.506  38.219  28.972  1.00  0.00    -0.237 OA
ATOM     76  O   UNL A   1      48.275  37.541  30.551  1.00  0.00    -0.744 OA
ENDBRANCH  72  73
ENDBRANCH  51  65
BRANCH  52  77
ATOM     77  C   UNL A   1      43.344  23.754  27.123  1.00  0.00     0.058 A 
ATOM     78  C   UNL A   1      43.162  22.846  28.177  1.00  0.00     0.135 A 
ATOM     79  C   UNL A   1      43.042  23.314  25.824  1.00  0.00     0.135 A 
ATOM     80  F   UNL A   1      43.448  23.213  29.435  1.00  0.00    -0.206 F 
ATOM     81  C   UNL A   1      42.709  21.549  27.953  1.00  0.00     0.059 A 
ATOM     82  C   UNL A   1      42.560  22.033  25.578  1.00  0.00     0.059 A 
ATOM     83  F   UNL A   1      43.184  24.147  24.781  1.00  0.00    -0.206 F 
ATOM     84  C   UNL A   1      42.404  21.154  26.649  1.00  0.00     0.060 A 
BRANCH  84  85
ATOM     85  S   UNL A   1      41.759  19.490  26.375  1.00  0.00     0.124 S 
ATOM     86  O   UNL A   1      42.472  19.092  25.166  1.00  0.00    -0.237 OA
ATOM     87  O   UNL A   1      42.150  18.805  27.603  1.00  0.00    -0.237 OA
ATOM     88  O   UNL A   1      40.323  19.707  26.219  1.00  0.00    -0.744 OA
ENDBRANCH  84  85
ENDBRANCH  52  77
BRANCH  64  89
ATOM     89  C   UNL A   1      49.543  26.898  26.425  1.00  0.00     0.058 A 
ATOM     90  C   UNL A   1      50.447  26.346  27.346  1.00  0.00     0.135 A 
ATOM     91  C   UNL A   1      49.924  26.928  25.073  1.00  0.00     0.135 A 
ATOM     92  F   UNL A   1      50.138  26.300  28.651  1.00  0.00    -0.206 F 
ATOM     93  C   UNL A   1      51.690  25.865  26.946  1.00  0.00     0.059 A 
ATOM     94  C   UNL A   1      51.149  26.424  24.646  1.00  0.00     0.059 A 
ATOM     95  F   UNL A   1      49.095  27.435  24.147  1.00  0.00    -0.206 F 
ATOM     96  C   UNL A   1      52.031  25.906  25.593  1.00  0.00     0.060 A 
BRANCH  96  97
ATOM     97  S   UNL A   1      53.634  25.247  25.084  1.00  0.00     0.124 S 
ATOM     98  O   UNL A   1      54.524  25.834  26.079  1.00  0.00    -0.237 OA
ATOM     99  O   UNL A   1      53.427  23.806  25.191  1.00  0.00    -0.237 OA
ATOM    100  O   UNL A   1      53.794  25.752  23.724  1.00  0.00    -0.744 OA
ENDBRANCH  96  97
ENDBRANCH  64  89
ENDBRANCH  38  39
ENDBRANCH  30  33
ENDBRANCH  28  29
ENDBRANCH  27  28
ENDBRANCH  26  27
ENDBRANCH   1  26
TORSDOF 19
ENDMDL
