MODEL 1
REMARK VINA RESULT:     -10.3      0.000      0.000
REMARK SMILES CCCCS[C@@H]1CC[C@@]([NH2+]CC)(C(=O)NCCCCNC(=O)c2ccc(-c3c4nc(c(-c5c(F)cc(S(=O)(=O)[O-])cc5F)c5ccc([nH]5)c(-c5c(F)cc(S(=O)(=O)[O-])cc5F)c5nc(c(-c6c(F)cc(S(=O)(=O)[O-])cc6F)c6ccc3[nH]6)C=C5)C=C4)cc2)C1
REMARK SMILES IDX 17 1 16 2 15 3 13 4 14 5 9 7 6 8 7 9 89 10 8 11 5 12 4 13
REMARK SMILES IDX 3 14 2 15 1 16 10 17 11 20 12 21 18 22 19 23 20 24 21 25
REMARK SMILES IDX 22 27 23 28 24 29 88 30 25 31 87 32 26 33 27 34 28 35 81 36
REMARK SMILES IDX 29 37 86 38 80 39 82 40 30 41 85 42 79 43 78 44 31 46 65 47
REMARK SMILES IDX 44 48 64 49 45 50 48 51 63 52 83 53 46 54 47 55 62 57 84 58
REMARK SMILES IDX 49 59 32 60 33 61 42 62 34 63 35 64 41 65 43 66 36 67 37 68
REMARK SMILES IDX 38 69 39 70 40 71 66 72 67 73 76 74 68 75 69 76 75 77 77 78
REMARK SMILES IDX 70 79 71 80 72 81 73 82 74 83 50 84 51 85 60 86 52 87 53 88
REMARK SMILES IDX 59 89 61 90 54 91 55 92 56 93 57 94 58 95
REMARK H PARENT 15 6 10 18 10 19 20 26 82 45 48 56
REMARK Flexibility Score: inf
ROOT
ATOM      1  C   UNL A   1      39.407  21.980  26.086  1.00  0.00     0.023 C 
ENDROOT
BRANCH   1   2
ATOM      2  C   UNL A   1      37.950  22.331  25.803  1.00  0.00     0.116 C 
BRANCH   2   3
ATOM      3  N   UNL A   1      37.757  22.633  24.398  1.00  0.00    -0.351 N 
ATOM      4  C   UNL A   1      36.591  22.768  23.699  1.00  0.00     0.281 C 
ATOM      5  O   UNL A   1      36.676  22.933  22.479  1.00  0.00    -0.268 OA
ATOM      6  H   UNL A   1      38.580  22.759  23.874  1.00  0.00     0.163 HD
BRANCH   4   7
ATOM      7  C   UNL A   1      35.218  22.702  24.438  1.00  0.00     0.176 C 
ATOM      8  C   UNL A   1      34.410  25.001  24.688  1.00  0.00     0.053 C 
ATOM      9  C   UNL A   1      33.418  24.278  23.781  1.00  0.00     0.022 C 
ATOM     10  C   UNL A   1      35.068  23.857  25.433  1.00  0.00     0.093 C 
ATOM     11  C   UNL A   1      34.085  22.949  23.412  1.00  0.00     0.080 C 
BRANCH   8  12
ATOM     12  S   UNL A   1      33.524  26.112  25.846  1.00  0.00    -0.158 SA
BRANCH  12  13
ATOM     13  C   UNL A   1      31.820  25.453  25.794  1.00  0.00     0.070 C 
BRANCH  13  14
ATOM     14  C   UNL A   1      31.516  24.266  26.719  1.00  0.00     0.011 C 
BRANCH  14  15
ATOM     15  C   UNL A   1      30.497  23.224  26.256  1.00  0.00    -0.003 C 
ATOM     16  C   UNL A   1      29.587  22.677  27.348  1.00  0.00     0.004 C 
ENDBRANCH  14  15
ENDBRANCH  13  14
ENDBRANCH  12  13
ENDBRANCH   8  12
BRANCH   7  17
ATOM     17  N   UNL A   1      35.050  21.401  25.141  1.00  0.00    -0.334 N 
ATOM     18  H   UNL A   1      35.787  21.333  25.841  1.00  0.00     0.347 HD
ATOM     19  H   UNL A   1      35.089  20.696  24.405  1.00  0.00     0.347 HD
BRANCH  17  20
ATOM     20  C   UNL A   1      33.770  21.171  25.821  1.00  0.00     0.257 C 
ATOM     21  C   UNL A   1      33.059  19.872  25.468  1.00  0.00     0.071 C 
ENDBRANCH  17  20
ENDBRANCH   7  17
ENDBRANCH   4   7
ENDBRANCH   2   3
ENDBRANCH   1   2
BRANCH   1  22
ATOM     22  C   UNL A   1      39.919  22.479  27.436  1.00  0.00     0.023 C 
BRANCH  22  23
ATOM     23  C   UNL A   1      41.317  23.084  27.401  1.00  0.00     0.116 C 
BRANCH  23  24
ATOM     24  N   UNL A   1      41.536  23.903  26.217  1.00  0.00    -0.352 N 
ATOM     25  C   UNL A   1      41.465  25.267  26.089  1.00  0.00     0.251 C 
ATOM     26  H   UNL A   1      41.766  23.411  25.397  1.00  0.00     0.163 HD
ATOM     27  O   UNL A   1      41.498  25.783  24.974  1.00  0.00    -0.269 OA
BRANCH  25  28
ATOM     28  C   UNL A   1      41.326  26.104  27.298  1.00  0.00     0.039 A 
ATOM     29  C   UNL A   1      42.341  27.008  27.615  1.00  0.00     0.014 A 
ATOM     30  C   UNL A   1      40.186  26.010  28.100  1.00  0.00     0.014 A 
ATOM     31  C   UNL A   1      42.187  27.858  28.711  1.00  0.00     0.010 A 
ATOM     32  C   UNL A   1      39.997  26.915  29.141  1.00  0.00     0.010 A 
ATOM     33  C   UNL A   1      41.000  27.841  29.464  1.00  0.00    -0.014 A 
BRANCH  33  34
ATOM     34  C   UNL A   1      40.799  28.782  30.596  1.00  0.00     0.031 A 
ATOM     35  C   UNL A   1      41.612  28.634  31.854  1.00  0.00     0.074 A 
ATOM     36  C   UNL A   1      39.846  29.733  30.510  1.00  0.00     0.049 A 
ATOM     37  N   UNL A   1      41.554  29.330  32.960  1.00  0.00    -0.248 NA
ATOM     38  C   UNL A   1      42.601  27.543  31.887  1.00  0.00     0.031 C 
ATOM     39  C   UNL A   1      38.949  29.932  29.368  1.00  0.00     0.029 A 
ATOM     40  N   UNL A   1      39.463  30.701  31.403  1.00  0.00    -0.354 N 
ATOM     41  C   UNL A   1      42.477  28.751  33.823  1.00  0.00     0.074 A 
ATOM     42  C   UNL A   1      43.050  27.617  33.132  1.00  0.00     0.031 C 
ATOM     43  C   UNL A   1      38.137  30.971  29.621  1.00  0.00     0.029 A 
ATOM     44  C   UNL A   1      38.425  31.488  30.956  1.00  0.00     0.049 A 
ATOM     45  H   UNL A   1      39.890  30.824  32.281  1.00  0.00     0.167 HD
ATOM     46  C   UNL A   1      42.831  29.143  35.070  1.00  0.00     0.037 A 
ATOM     47  C   UNL A   1      37.773  32.502  31.557  1.00  0.00     0.037 A 
ATOM     48  C   UNL A   1      42.282  30.296  35.735  1.00  0.00     0.049 A 
ATOM     49  C   UNL A   1      38.207  32.935  32.933  1.00  0.00     0.074 A 
ATOM     50  C   UNL A   1      42.637  30.829  36.962  1.00  0.00     0.029 A 
ATOM     51  N   UNL A   1      41.262  31.092  35.234  1.00  0.00    -0.354 N 
ATOM     52  N   UNL A   1      39.148  32.433  33.696  1.00  0.00    -0.248 NA
ATOM     53  C   UNL A   1      37.500  34.078  33.524  1.00  0.00     0.031 C 
ATOM     54  C   UNL A   1      41.791  31.909  37.230  1.00  0.00     0.029 A 
ATOM     55  C   UNL A   1      40.954  32.092  36.141  1.00  0.00     0.049 A 
ATOM     56  H   UNL A   1      40.822  30.964  34.363  1.00  0.00     0.167 HD
ATOM     57  C   UNL A   1      39.167  33.219  34.844  1.00  0.00     0.074 A 
ATOM     58  C   UNL A   1      38.155  34.239  34.665  1.00  0.00     0.031 C 
ATOM     59  C   UNL A   1      39.951  33.108  35.945  1.00  0.00     0.037 A 
BRANCH  46  60
ATOM     60  C   UNL A   1      43.858  28.326  35.805  1.00  0.00     0.058 A 
ATOM     61  C   UNL A   1      45.233  28.590  35.698  1.00  0.00     0.135 A 
ATOM     62  C   UNL A   1      43.455  27.308  36.685  1.00  0.00     0.135 A 
ATOM     63  F   UNL A   1      45.677  29.540  34.859  1.00  0.00    -0.206 F 
ATOM     64  C   UNL A   1      46.172  27.864  36.424  1.00  0.00     0.059 A 
ATOM     65  C   UNL A   1      44.374  26.589  37.443  1.00  0.00     0.059 A 
ATOM     66  F   UNL A   1      42.153  27.010  36.823  1.00  0.00    -0.206 F 
ATOM     67  C   UNL A   1      45.732  26.869  37.299  1.00  0.00     0.060 A 
BRANCH  67  68
ATOM     68  S   UNL A   1      46.962  25.964  38.262  1.00  0.00     0.124 S 
ATOM     69  O   UNL A   1      46.294  24.680  38.453  1.00  0.00    -0.237 OA
ATOM     70  O   UNL A   1      48.112  25.953  37.364  1.00  0.00    -0.237 OA
ATOM     71  O   UNL A   1      47.116  26.775  39.466  1.00  0.00    -0.744 OA
ENDBRANCH  67  68
ENDBRANCH  46  60
BRANCH  47  72
ATOM     72  C   UNL A   1      36.647  33.185  30.863  1.00  0.00     0.058 A 
ATOM     73  C   UNL A   1      36.878  34.104  29.828  1.00  0.00     0.135 A 
ATOM     74  C   UNL A   1      35.314  32.942  31.232  1.00  0.00     0.135 A 
ATOM     75  F   UNL A   1      38.133  34.373  29.438  1.00  0.00    -0.206 F 
ATOM     76  C   UNL A   1      35.834  34.783  29.206  1.00  0.00     0.059 A 
ATOM     77  C   UNL A   1      34.251  33.585  30.606  1.00  0.00     0.059 A 
ATOM     78  F   UNL A   1      35.035  32.058  32.202  1.00  0.00    -0.206 F 
ATOM     79  C   UNL A   1      34.523  34.517  29.605  1.00  0.00     0.060 A 
BRANCH  79  80
ATOM     80  S   UNL A   1      33.173  35.388  28.781  1.00  0.00     0.124 S 
ATOM     81  O   UNL A   1      32.481  34.292  28.113  1.00  0.00    -0.237 OA
ATOM     82  O   UNL A   1      32.470  35.998  29.904  1.00  0.00    -0.237 OA
ATOM     83  O   UNL A   1      33.866  36.326  27.902  1.00  0.00    -0.744 OA
ENDBRANCH  79  80
ENDBRANCH  47  72
BRANCH  59  84
ATOM     84  C   UNL A   1      39.781  34.143  37.024  1.00  0.00     0.058 A 
ATOM     85  C   UNL A   1      38.997  33.907  38.165  1.00  0.00     0.135 A 
ATOM     86  C   UNL A   1      40.444  35.377  36.930  1.00  0.00     0.135 A 
ATOM     87  F   UNL A   1      38.338  32.745  38.304  1.00  0.00    -0.206 F 
ATOM     88  C   UNL A   1      38.848  34.871  39.156  1.00  0.00     0.059 A 
ATOM     89  C   UNL A   1      40.338  36.343  37.925  1.00  0.00     0.059 A 
ATOM     90  F   UNL A   1      41.218  35.651  35.868  1.00  0.00    -0.206 F 
ATOM     91  C   UNL A   1      39.522  36.087  39.027  1.00  0.00     0.060 A 
BRANCH  91  92
ATOM     92  S   UNL A   1      39.332  37.326  40.327  1.00  0.00     0.124 S 
ATOM     93  O   UNL A   1      38.546  38.348  39.644  1.00  0.00    -0.237 OA
ATOM     94  O   UNL A   1      38.634  36.579  41.368  1.00  0.00    -0.237 OA
ATOM     95  O   UNL A   1      40.706  37.699  40.645  1.00  0.00    -0.744 OA
ENDBRANCH  91  92
ENDBRANCH  59  84
ENDBRANCH  33  34
ENDBRANCH  25  28
ENDBRANCH  23  24
ENDBRANCH  22  23
ENDBRANCH   1  22
TORSDOF 20
ENDMDL
MODEL 2
REMARK VINA RESULT:     -10.1      1.024      8.516
REMARK SMILES CCCCS[C@@H]1CC[C@@]([NH2+]CC)(C(=O)NCCCCNC(=O)c2ccc(-c3c4nc(c(-c5c(F)cc(S(=O)(=O)[O-])cc5F)c5ccc([nH]5)c(-c5c(F)cc(S(=O)(=O)[O-])cc5F)c5nc(c(-c6c(F)cc(S(=O)(=O)[O-])cc6F)c6ccc3[nH]6)C=C5)C=C4)cc2)C1
REMARK SMILES IDX 17 1 16 2 15 3 13 4 14 5 9 7 6 8 7 9 89 10 8 11 5 12 4 13
REMARK SMILES IDX 3 14 2 15 1 16 10 17 11 20 12 21 18 22 19 23 20 24 21 25
REMARK SMILES IDX 22 27 23 28 24 29 88 30 25 31 87 32 26 33 27 34 28 35 81 36
REMARK SMILES IDX 29 37 86 38 80 39 82 40 30 41 85 42 79 43 78 44 31 46 65 47
REMARK SMILES IDX 44 48 64 49 45 50 48 51 63 52 83 53 46 54 47 55 62 57 84 58
REMARK SMILES IDX 49 59 32 60 33 61 42 62 34 63 35 64 41 65 43 66 36 67 37 68
REMARK SMILES IDX 38 69 39 70 40 71 66 72 67 73 76 74 68 75 69 76 75 77 77 78
REMARK SMILES IDX 70 79 71 80 72 81 73 82 74 83 50 84 51 85 60 86 52 87 53 88
REMARK SMILES IDX 59 89 61 90 54 91 55 92 56 93 57 94 58 95
REMARK H PARENT 15 6 10 18 10 19 20 26 82 45 48 56
REMARK Flexibility Score: inf
ROOT
ATOM      1  C   UNL A   1      39.507  21.995  26.147  1.00  0.00     0.023 C 
ENDROOT
BRANCH   1   2
ATOM      2  C   UNL A   1      38.072  22.482  25.972  1.00  0.00     0.116 C 
BRANCH   2   3
ATOM      3  N   UNL A   1      37.815  22.840  24.591  1.00  0.00    -0.351 N 
ATOM      4  C   UNL A   1      36.627  22.873  23.918  1.00  0.00     0.281 C 
ATOM      5  O   UNL A   1      36.666  23.118  22.709  1.00  0.00    -0.268 OA
ATOM      6  H   UNL A   1      38.606  23.096  24.065  1.00  0.00     0.163 HD
BRANCH   4   7
ATOM      7  C   UNL A   1      35.287  22.598  24.669  1.00  0.00     0.176 C 
ATOM      8  C   UNL A   1      34.104  24.734  24.863  1.00  0.00     0.053 C 
ATOM      9  C   UNL A   1      33.246  23.828  23.985  1.00  0.00     0.022 C 
ATOM     10  C   UNL A   1      34.948  23.738  25.634  1.00  0.00     0.093 C 
ATOM     11  C   UNL A   1      34.126  22.622  23.647  1.00  0.00     0.080 C 
BRANCH   8  12
ATOM     12  S   UNL A   1      33.048  25.712  25.998  1.00  0.00    -0.158 SA
BRANCH  12  13
ATOM     13  C   UNL A   1      33.849  27.355  25.960  1.00  0.00     0.070 C 
BRANCH  13  14
ATOM     14  C   UNL A   1      33.170  28.467  26.770  1.00  0.00     0.011 C 
BRANCH  14  15
ATOM     15  C   UNL A   1      34.005  29.678  27.187  1.00  0.00    -0.003 C 
ATOM     16  C   UNL A   1      35.433  29.365  27.615  1.00  0.00     0.004 C 
ENDBRANCH  14  15
ENDBRANCH  13  14
ENDBRANCH  12  13
ENDBRANCH   8  12
BRANCH   7  17
ATOM     17  N   UNL A   1      35.344  21.308  25.409  1.00  0.00    -0.334 N 
ATOM     18  H   UNL A   1      34.962  21.470  26.339  1.00  0.00     0.347 HD
ATOM     19  H   UNL A   1      36.327  21.035  25.389  1.00  0.00     0.347 HD
BRANCH  17  20
ATOM     20  C   UNL A   1      34.622  20.172  24.824  1.00  0.00     0.257 C 
ATOM     21  C   UNL A   1      33.290  19.829  25.476  1.00  0.00     0.071 C 
ENDBRANCH  17  20
ENDBRANCH   7  17
ENDBRANCH   4   7
ENDBRANCH   2   3
ENDBRANCH   1   2
BRANCH   1  22
ATOM     22  C   UNL A   1      40.146  22.395  27.476  1.00  0.00     0.023 C 
BRANCH  22  23
ATOM     23  C   UNL A   1      41.459  23.156  27.346  1.00  0.00     0.116 C 
BRANCH  23  24
ATOM     24  N   UNL A   1      41.480  24.026  26.178  1.00  0.00    -0.352 N 
ATOM     25  C   UNL A   1      41.268  25.379  26.110  1.00  0.00     0.251 C 
ATOM     26  H   UNL A   1      41.674  23.582  25.322  1.00  0.00     0.163 HD
ATOM     27  O   UNL A   1      41.141  25.928  25.017  1.00  0.00    -0.269 OA
BRANCH  25  28
ATOM     28  C   UNL A   1      41.170  26.164  27.357  1.00  0.00     0.039 A 
ATOM     29  C   UNL A   1      42.168  27.096  27.650  1.00  0.00     0.014 A 
ATOM     30  C   UNL A   1      40.085  25.995  28.220  1.00  0.00     0.014 A 
ATOM     31  C   UNL A   1      42.047  27.896  28.786  1.00  0.00     0.010 A 
ATOM     32  C   UNL A   1      39.925  26.851  29.306  1.00  0.00     0.010 A 
ATOM     33  C   UNL A   1      40.910  27.804  29.606  1.00  0.00    -0.014 A 
BRANCH  33  34
ATOM     34  C   UNL A   1      40.742  28.693  30.784  1.00  0.00     0.031 A 
ATOM     35  C   UNL A   1      39.666  29.746  30.787  1.00  0.00     0.074 A 
ATOM     36  C   UNL A   1      41.593  28.588  31.824  1.00  0.00     0.049 A 
ATOM     37  N   UNL A   1      39.389  30.639  31.702  1.00  0.00    -0.248 NA
ATOM     38  C   UNL A   1      38.805  29.828  29.595  1.00  0.00     0.031 C 
ATOM     39  C   UNL A   1      42.717  27.651  31.908  1.00  0.00     0.029 A 
ATOM     40  N   UNL A   1      41.656  29.284  33.005  1.00  0.00    -0.354 N 
ATOM     41  C   UNL A   1      38.343  31.398  31.189  1.00  0.00     0.074 A 
ATOM     42  C   UNL A   1      38.064  30.893  29.864  1.00  0.00     0.031 C 
ATOM     43  C   UNL A   1      43.342  27.816  33.085  1.00  0.00     0.029 A 
ATOM     44  C   UNL A   1      42.692  28.894  33.823  1.00  0.00     0.049 A 
ATOM     45  H   UNL A   1      41.020  29.994  33.246  1.00  0.00     0.167 HD
ATOM     46  C   UNL A   1      37.663  32.409  31.779  1.00  0.00     0.037 A 
ATOM     47  C   UNL A   1      43.082  29.359  35.026  1.00  0.00     0.037 A 
ATOM     48  C   UNL A   1      37.924  32.880  33.115  1.00  0.00     0.049 A 
ATOM     49  C   UNL A   1      42.289  30.466  35.671  1.00  0.00     0.074 A 
ATOM     50  C   UNL A   1      37.234  33.839  33.837  1.00  0.00     0.029 A 
ATOM     51  N   UNL A   1      38.955  32.433  33.928  1.00  0.00    -0.354 N 
ATOM     52  N   UNL A   1      41.243  31.108  35.209  1.00  0.00    -0.248 NA
ATOM     53  C   UNL A   1      42.721  30.903  37.005  1.00  0.00     0.031 C 
ATOM     54  C   UNL A   1      37.884  34.015  35.061  1.00  0.00     0.029 A 
ATOM     55  C   UNL A   1      38.939  33.119  35.131  1.00  0.00     0.049 A 
ATOM     56  H   UNL A   1      39.603  31.733  33.685  1.00  0.00     0.167 HD
ATOM     57  C   UNL A   1      40.873  32.002  36.209  1.00  0.00     0.074 A 
ATOM     58  C   UNL A   1      41.798  31.805  37.306  1.00  0.00     0.031 C 
ATOM     59  C   UNL A   1      39.860  32.904  36.219  1.00  0.00     0.037 A 
BRANCH  46  60
ATOM     60  C   UNL A   1      36.570  33.082  30.994  1.00  0.00     0.058 A 
ATOM     61  C   UNL A   1      35.211  32.874  31.283  1.00  0.00     0.135 A 
ATOM     62  C   UNL A   1      36.888  34.002  29.982  1.00  0.00     0.135 A 
ATOM     63  F   UNL A   1      34.848  31.992  32.229  1.00  0.00    -0.206 F 
ATOM     64  C   UNL A   1      34.209  33.542  30.587  1.00  0.00     0.059 A 
ATOM     65  C   UNL A   1      35.904  34.704  29.293  1.00  0.00     0.059 A 
ATOM     66  F   UNL A   1      38.171  34.236  29.661  1.00  0.00    -0.206 F 
ATOM     67  C   UNL A   1      34.566  34.460  29.598  1.00  0.00     0.060 A 
BRANCH  67  68
ATOM     68  S   UNL A   1      33.253  35.346  28.732  1.00  0.00     0.124 S 
ATOM     69  O   UNL A   1      34.022  36.253  27.887  1.00  0.00    -0.237 OA
ATOM     70  O   UNL A   1      32.557  34.268  28.037  1.00  0.00    -0.237 OA
ATOM     71  O   UNL A   1      32.501  35.981  29.811  1.00  0.00    -0.744 OA
ENDBRANCH  67  68
ENDBRANCH  46  60
BRANCH  47  72
ATOM     72  C   UNL A   1      44.273  28.779  35.705  1.00  0.00     0.058 A 
ATOM     73  C   UNL A   1      45.564  29.271  35.457  1.00  0.00     0.135 A 
ATOM     74  C   UNL A   1      44.146  27.709  36.604  1.00  0.00     0.135 A 
ATOM     75  F   UNL A   1      45.741  30.292  34.605  1.00  0.00    -0.206 F 
ATOM     76  C   UNL A   1      46.688  28.703  36.050  1.00  0.00     0.059 A 
ATOM     77  C   UNL A   1      45.250  27.144  37.233  1.00  0.00     0.059 A 
ATOM     78  F   UNL A   1      42.932  27.213  36.891  1.00  0.00    -0.206 F 
ATOM     79  C   UNL A   1      46.520  27.637  36.935  1.00  0.00     0.060 A 
BRANCH  79  80
ATOM     80  S   UNL A   1      47.982  26.919  37.714  1.00  0.00     0.124 S 
ATOM     81  O   UNL A   1      48.856  26.713  36.565  1.00  0.00    -0.237 OA
ATOM     82  O   UNL A   1      48.383  27.970  38.643  1.00  0.00    -0.237 OA
ATOM     83  O   UNL A   1      47.466  25.705  38.340  1.00  0.00    -0.744 OA
ENDBRANCH  79  80
ENDBRANCH  47  72
BRANCH  59  84
ATOM     84  C   UNL A   1      39.666  33.714  37.472  1.00  0.00     0.058 A 
ATOM     85  C   UNL A   1      40.344  34.924  37.688  1.00  0.00     0.135 A 
ATOM     86  C   UNL A   1      38.757  33.289  38.455  1.00  0.00     0.135 A 
ATOM     87  F   UNL A   1      41.227  35.376  36.783  1.00  0.00    -0.206 F 
ATOM     88  C   UNL A   1      40.156  35.665  38.851  1.00  0.00     0.059 A 
ATOM     89  C   UNL A   1      38.527  34.031  39.609  1.00  0.00     0.059 A 
ATOM     90  F   UNL A   1      38.071  32.147  38.294  1.00  0.00    -0.206 F 
ATOM     91  C   UNL A   1      39.245  35.209  39.806  1.00  0.00     0.060 A 
BRANCH  91  92
ATOM     92  S   UNL A   1      38.999  36.186  41.304  1.00  0.00     0.124 S 
ATOM     93  O   UNL A   1      38.737  37.511  40.750  1.00  0.00    -0.237 OA
ATOM     94  O   UNL A   1      37.860  35.521  41.926  1.00  0.00    -0.237 OA
ATOM     95  O   UNL A   1      40.266  36.044  42.015  1.00  0.00    -0.744 OA
ENDBRANCH  91  92
ENDBRANCH  59  84
ENDBRANCH  33  34
ENDBRANCH  25  28
ENDBRANCH  23  24
ENDBRANCH  22  23
ENDBRANCH   1  22
TORSDOF 20
ENDMDL
MODEL 3
REMARK VINA RESULT:      -9.7      1.160      2.141
REMARK SMILES CCCCS[C@@H]1CC[C@@]([NH2+]CC)(C(=O)NCCCCNC(=O)c2ccc(-c3c4nc(c(-c5c(F)cc(S(=O)(=O)[O-])cc5F)c5ccc([nH]5)c(-c5c(F)cc(S(=O)(=O)[O-])cc5F)c5nc(c(-c6c(F)cc(S(=O)(=O)[O-])cc6F)c6ccc3[nH]6)C=C5)C=C4)cc2)C1
REMARK SMILES IDX 17 1 16 2 15 3 13 4 14 5 9 7 6 8 7 9 89 10 8 11 5 12 4 13
REMARK SMILES IDX 3 14 2 15 1 16 10 17 11 20 12 21 18 22 19 23 20 24 21 25
REMARK SMILES IDX 22 27 23 28 24 29 88 30 25 31 87 32 26 33 27 34 28 35 81 36
REMARK SMILES IDX 29 37 86 38 80 39 82 40 30 41 85 42 79 43 78 44 31 46 65 47
REMARK SMILES IDX 44 48 64 49 45 50 48 51 63 52 83 53 46 54 47 55 62 57 84 58
REMARK SMILES IDX 49 59 32 60 33 61 42 62 34 63 35 64 41 65 43 66 36 67 37 68
REMARK SMILES IDX 38 69 39 70 40 71 66 72 67 73 76 74 68 75 69 76 75 77 77 78
REMARK SMILES IDX 70 79 71 80 72 81 73 82 74 83 50 84 51 85 60 86 52 87 53 88
REMARK SMILES IDX 59 89 61 90 54 91 55 92 56 93 57 94 58 95
REMARK H PARENT 15 6 10 18 10 19 20 26 82 45 48 56
REMARK Flexibility Score: inf
ROOT
ATOM      1  C   UNL A   1      39.404  21.886  26.165  1.00  0.00     0.023 C 
ENDROOT
BRANCH   1   2
ATOM      2  C   UNL A   1      37.942  21.752  25.751  1.00  0.00     0.116 C 
BRANCH   2   3
ATOM      3  N   UNL A   1      37.736  22.269  24.413  1.00  0.00    -0.351 N 
ATOM      4  C   UNL A   1      36.613  22.826  23.869  1.00  0.00     0.281 C 
ATOM      5  O   UNL A   1      36.644  23.109  22.668  1.00  0.00    -0.268 OA
ATOM      6  H   UNL A   1      38.513  22.212  23.812  1.00  0.00     0.163 HD
BRANCH   4   7
ATOM      7  C   UNL A   1      35.350  23.074  24.751  1.00  0.00     0.176 C 
ATOM      8  C   UNL A   1      33.998  21.033  24.684  1.00  0.00     0.053 C 
ATOM      9  C   UNL A   1      34.457  21.215  26.128  1.00  0.00     0.022 C 
ATOM     10  C   UNL A   1      34.104  22.438  24.127  1.00  0.00     0.093 C 
ATOM     11  C   UNL A   1      35.518  22.318  26.091  1.00  0.00     0.080 C 
BRANCH   8  12
ATOM     12  S   UNL A   1      32.264  20.439  24.634  1.00  0.00    -0.158 SA
BRANCH  12  13
ATOM     13  C   UNL A   1      32.450  18.744  23.976  1.00  0.00     0.070 C 
BRANCH  13  14
ATOM     14  C   UNL A   1      32.351  17.600  24.994  1.00  0.00     0.011 C 
BRANCH  14  15
ATOM     15  C   UNL A   1      33.576  16.710  25.211  1.00  0.00    -0.003 C 
ATOM     16  C   UNL A   1      34.517  16.600  24.018  1.00  0.00     0.004 C 
ENDBRANCH  14  15
ENDBRANCH  13  14
ENDBRANCH  12  13
ENDBRANCH   8  12
BRANCH   7  17
ATOM     17  N   UNL A   1      35.124  24.530  24.964  1.00  0.00    -0.334 N 
ATOM     18  H   UNL A   1      35.841  25.032  24.443  1.00  0.00     0.347 HD
ATOM     19  H   UNL A   1      35.158  24.657  25.976  1.00  0.00     0.347 HD
BRANCH  17  20
ATOM     20  C   UNL A   1      33.821  25.069  24.557  1.00  0.00     0.257 C 
ATOM     21  C   UNL A   1      33.744  26.583  24.426  1.00  0.00     0.071 C 
ENDBRANCH  17  20
ENDBRANCH   7  17
ENDBRANCH   4   7
ENDBRANCH   2   3
ENDBRANCH   1   2
BRANCH   1  22
ATOM     22  C   UNL A   1      39.679  23.043  27.122  1.00  0.00     0.023 C 
BRANCH  22  23
ATOM     23  C   UNL A   1      41.155  23.364  27.324  1.00  0.00     0.116 C 
BRANCH  23  24
ATOM     24  N   UNL A   1      41.742  24.021  26.165  1.00  0.00    -0.352 N 
ATOM     25  C   UNL A   1      41.895  25.362  25.922  1.00  0.00     0.251 C 
ATOM     26  H   UNL A   1      42.074  23.421  25.460  1.00  0.00     0.163 HD
ATOM     27  O   UNL A   1      42.244  25.750  24.809  1.00  0.00    -0.269 OA
BRANCH  25  28
ATOM     28  C   UNL A   1      41.614  26.333  27.000  1.00  0.00     0.039 A 
ATOM     29  C   UNL A   1      40.404  26.246  27.690  1.00  0.00     0.014 A 
ATOM     30  C   UNL A   1      42.554  27.309  27.340  1.00  0.00     0.014 A 
ATOM     31  C   UNL A   1      40.160  27.108  28.759  1.00  0.00     0.010 A 
ATOM     32  C   UNL A   1      42.345  28.110  28.458  1.00  0.00     0.010 A 
ATOM     33  C   UNL A   1      41.140  28.025  29.173  1.00  0.00    -0.014 A 
BRANCH  33  34
ATOM     34  C   UNL A   1      40.916  28.906  30.348  1.00  0.00     0.031 A 
ATOM     35  C   UNL A   1      41.733  28.718  31.599  1.00  0.00     0.074 A 
ATOM     36  C   UNL A   1      39.940  29.836  30.307  1.00  0.00     0.049 A 
ATOM     37  N   UNL A   1      41.657  29.360  32.737  1.00  0.00    -0.248 NA
ATOM     38  C   UNL A   1      42.749  27.653  31.582  1.00  0.00     0.031 C 
ATOM     39  C   UNL A   1      39.038  30.067  29.175  1.00  0.00     0.029 A 
ATOM     40  N   UNL A   1      39.533  30.751  31.245  1.00  0.00    -0.354 N 
ATOM     41  C   UNL A   1      42.595  28.764  33.572  1.00  0.00     0.074 A 
ATOM     42  C   UNL A   1      43.196  27.679  32.829  1.00  0.00     0.031 C 
ATOM     43  C   UNL A   1      38.200  31.072  29.476  1.00  0.00     0.029 A 
ATOM     44  C   UNL A   1      38.476  31.532  30.834  1.00  0.00     0.049 A 
ATOM     45  H   UNL A   1      39.957  30.842  32.128  1.00  0.00     0.167 HD
ATOM     46  C   UNL A   1      42.939  29.104  34.837  1.00  0.00     0.037 A 
ATOM     47  C   UNL A   1      37.799  32.500  31.482  1.00  0.00     0.037 A 
ATOM     48  C   UNL A   1      42.362  30.211  35.555  1.00  0.00     0.049 A 
ATOM     49  C   UNL A   1      38.222  32.877  32.878  1.00  0.00     0.074 A 
ATOM     50  C   UNL A   1      42.704  30.693  36.807  1.00  0.00     0.029 A 
ATOM     51  N   UNL A   1      41.322  31.004  35.092  1.00  0.00    -0.354 N 
ATOM     52  N   UNL A   1      39.175  32.363  33.617  1.00  0.00    -0.248 NA
ATOM     53  C   UNL A   1      37.487  33.973  33.522  1.00  0.00     0.031 C 
ATOM     54  C   UNL A   1      41.831  31.738  37.125  1.00  0.00     0.029 A 
ATOM     55  C   UNL A   1      40.990  31.952  36.045  1.00  0.00     0.049 A 
ATOM     56  H   UNL A   1      40.885  30.906  34.215  1.00  0.00     0.167 HD
ATOM     57  C   UNL A   1      39.175  33.094  34.801  1.00  0.00     0.074 A 
ATOM     58  C   UNL A   1      38.137  34.096  34.670  1.00  0.00     0.031 C 
ATOM     59  C   UNL A   1      39.961  32.951  35.896  1.00  0.00     0.037 A 
BRANCH  46  60
ATOM     60  C   UNL A   1      43.987  28.279  35.534  1.00  0.00     0.058 A 
ATOM     61  C   UNL A   1      45.356  28.574  35.429  1.00  0.00     0.135 A 
ATOM     62  C   UNL A   1      43.609  27.219  36.374  1.00  0.00     0.135 A 
ATOM     63  F   UNL A   1      45.775  29.565  34.627  1.00  0.00    -0.206 F 
ATOM     64  C   UNL A   1      46.312  27.838  36.121  1.00  0.00     0.059 A 
ATOM     65  C   UNL A   1      44.546  26.489  37.099  1.00  0.00     0.059 A 
ATOM     66  F   UNL A   1      42.314  26.891  36.507  1.00  0.00    -0.206 F 
ATOM     67  C   UNL A   1      45.897  26.802  36.958  1.00  0.00     0.060 A 
BRANCH  67  68
ATOM     68  S   UNL A   1      47.150  25.883  37.878  1.00  0.00     0.124 S 
ATOM     69  O   UNL A   1      46.550  24.554  37.940  1.00  0.00    -0.237 OA
ATOM     70  O   UNL A   1      48.321  26.010  37.017  1.00  0.00    -0.237 OA
ATOM     71  O   UNL A   1      47.230  26.595  39.150  1.00  0.00    -0.744 OA
ENDBRANCH  67  68
ENDBRANCH  46  60
BRANCH  47  72
ATOM     72  C   UNL A   1      36.656  33.186  30.820  1.00  0.00     0.058 A 
ATOM     73  C   UNL A   1      36.863  34.129  29.801  1.00  0.00     0.135 A 
ATOM     74  C   UNL A   1      35.331  32.924  31.205  1.00  0.00     0.135 A 
ATOM     75  F   UNL A   1      38.109  34.417  29.397  1.00  0.00    -0.206 F 
ATOM     76  C   UNL A   1      35.802  34.811  29.210  1.00  0.00     0.059 A 
ATOM     77  C   UNL A   1      34.253  33.570  30.609  1.00  0.00     0.059 A 
ATOM     78  F   UNL A   1      35.075  32.017  32.161  1.00  0.00    -0.206 F 
ATOM     79  C   UNL A   1      34.500  34.525  29.623  1.00  0.00     0.060 A 
BRANCH  79  80
ATOM     80  S   UNL A   1      33.130  35.401  28.839  1.00  0.00     0.124 S 
ATOM     81  O   UNL A   1      32.495  34.330  28.079  1.00  0.00    -0.237 OA
ATOM     82  O   UNL A   1      32.384  35.897  29.990  1.00  0.00    -0.237 OA
ATOM     83  O   UNL A   1      33.799  36.427  28.045  1.00  0.00    -0.744 OA
ENDBRANCH  79  80
ENDBRANCH  47  72
BRANCH  59  84
ATOM     84  C   UNL A   1      39.766  33.929  37.023  1.00  0.00     0.058 A 
ATOM     85  C   UNL A   1      38.951  33.637  38.128  1.00  0.00     0.135 A 
ATOM     86  C   UNL A   1      40.435  35.163  37.012  1.00  0.00     0.135 A 
ATOM     87  F   UNL A   1      38.285  32.472  38.189  1.00  0.00    -0.206 F 
ATOM     88  C   UNL A   1      38.778  34.549  39.165  1.00  0.00     0.059 A 
ATOM     89  C   UNL A   1      40.305  36.076  38.053  1.00  0.00     0.059 A 
ATOM     90  F   UNL A   1      41.238  35.488  35.986  1.00  0.00    -0.206 F 
ATOM     91  C   UNL A   1      39.459  35.767  39.118  1.00  0.00     0.060 A 
BRANCH  91  92
ATOM     92  S   UNL A   1      39.238  36.936  40.475  1.00  0.00     0.124 S 
ATOM     93  O   UNL A   1      38.553  38.037  39.804  1.00  0.00    -0.237 OA
ATOM     94  O   UNL A   1      38.433  36.169  41.419  1.00  0.00    -0.237 OA
ATOM     95  O   UNL A   1      40.603  37.218  40.907  1.00  0.00    -0.744 OA
ENDBRANCH  91  92
ENDBRANCH  59  84
ENDBRANCH  33  34
ENDBRANCH  25  28
ENDBRANCH  23  24
ENDBRANCH  22  23
ENDBRANCH   1  22
TORSDOF 20
ENDMDL
