MODEL 1
REMARK VINA RESULT:     -11.5      0.000      0.000
REMARK SMILES N#C/C(=C/c1cc2c(cc1Br)OCO2)C(=O)NCCCCNC(=O)c1ccc(-c2c3nc(c(-c4c(F)cc(S(=O)(=O)[O-])cc4F)c4ccc([nH]4)c(-c4c(F)cc(S(=O)(=O)[O-])cc4F)c4nc(c(-c5c(F)cc(S(=O)(=O)[O-])cc5F)c5ccc2[nH]5)C=C4)C=C3)cc1
REMARK SMILES IDX 20 1 19 2 18 3 17 4 15 5 16 6 3 8 4 9 2 10 1 11 5 12 6 13
REMARK SMILES IDX 10 14 7 15 9 16 11 17 8 18 14 19 12 20 13 21 21 22 22 23
REMARK SMILES IDX 23 24 24 26 25 27 26 28 90 29 27 30 89 31 28 32 29 33 30 34
REMARK SMILES IDX 83 35 31 36 88 37 82 38 84 39 32 40 87 41 81 42 80 43 33 45
REMARK SMILES IDX 67 46 46 47 66 48 47 49 50 50 65 51 85 52 48 53 49 54 64 56
REMARK SMILES IDX 86 57 51 58 34 59 35 60 44 61 36 62 37 63 43 64 45 65 38 66
REMARK SMILES IDX 39 67 40 68 41 69 42 70 68 71 69 72 78 73 70 74 71 75 77 76
REMARK SMILES IDX 79 77 72 78 73 79 74 80 75 81 76 82 52 83 53 84 62 85 54 86
REMARK SMILES IDX 55 87 61 88 63 89 56 90 57 91 58 92 59 93 60 94
REMARK H PARENT 17 7 22 25 84 44 50 55
REMARK Flexibility Score: inf
ROOT
ATOM      1  C   UNL A   1      33.801  28.239  25.795  1.00  0.00     0.023 C 
ENDROOT
BRANCH   1   2
ATOM      2  C   UNL A   1      33.770  26.788  25.323  1.00  0.00     0.023 C 
BRANCH   2   3
ATOM      3  C   UNL A   1      32.521  25.984  25.653  1.00  0.00     0.116 C 
BRANCH   3   4
ATOM      4  N   UNL A   1      31.960  25.169  24.607  1.00  0.00    -0.351 N 
ATOM      5  C   UNL A   1      31.538  23.869  24.637  1.00  0.00     0.261 C 
ATOM      6  O   UNL A   1      31.081  23.406  23.589  1.00  0.00    -0.268 OA
ATOM      7  H   UNL A   1      31.865  25.618  23.735  1.00  0.00     0.163 HD
BRANCH   5   8
ATOM      8  C   UNL A   1      31.656  22.967  25.832  1.00  0.00     0.117 C 
ATOM      9  C   UNL A   1      32.682  22.237  26.339  1.00  0.00     0.034 C 
BRANCH   8  10
ATOM     10  C   UNL A   1      30.458  22.956  26.769  1.00  0.00     0.105 C 
ATOM     11  N   UNL A   1      29.465  22.946  27.545  1.00  0.00    -0.192 NA
ENDBRANCH   8  10
BRANCH   9  12
ATOM     12  C   UNL A   1      34.060  22.010  25.890  1.00  0.00    -0.006 A 
ATOM     13  C   UNL A   1      34.982  23.040  26.162  1.00  0.00     0.060 A 
ATOM     14  C   UNL A   1      34.503  20.825  25.253  1.00  0.00     0.029 A 
ATOM     15  C   UNL A   1      36.317  22.791  25.933  1.00  0.00     0.166 A 
ATOM     16  C   UNL A   1      35.863  20.628  24.983  1.00  0.00     0.067 A 
ATOM     17  Br  UNL A   1      33.298  19.436  24.783  1.00  0.00    -0.050 Br
ATOM     18  C   UNL A   1      36.744  21.615  25.368  1.00  0.00     0.166 A 
ATOM     19  O   UNL A   1      37.348  23.600  26.295  1.00  0.00    -0.454 OA
ATOM     20  O   UNL A   1      38.098  21.546  25.299  1.00  0.00    -0.454 OA
ATOM     21  C   UNL A   1      38.476  22.733  26.029  1.00  0.00     0.468 C 
ENDBRANCH   9  12
ENDBRANCH   5   8
ENDBRANCH   3   4
ENDBRANCH   2   3
ENDBRANCH   1   2
BRANCH   1  22
ATOM     22  C   UNL A   1      33.454  28.507  27.258  1.00  0.00     0.116 C 
BRANCH  22  23
ATOM     23  N   UNL A   1      33.494  29.912  27.636  1.00  0.00    -0.352 N 
ATOM     24  C   UNL A   1      34.514  30.671  28.174  1.00  0.00     0.251 C 
ATOM     25  H   UNL A   1      32.653  30.402  27.484  1.00  0.00     0.163 HD
ATOM     26  O   UNL A   1      34.292  31.818  28.535  1.00  0.00    -0.269 OA
BRANCH  24  27
ATOM     27  C   UNL A   1      35.862  30.088  28.362  1.00  0.00     0.039 A 
ATOM     28  C   UNL A   1      36.765  30.120  27.294  1.00  0.00     0.014 A 
ATOM     29  C   UNL A   1      36.247  29.531  29.582  1.00  0.00     0.014 A 
ATOM     30  C   UNL A   1      38.080  29.692  27.485  1.00  0.00     0.010 A 
ATOM     31  C   UNL A   1      37.579  29.200  29.800  1.00  0.00     0.010 A 
ATOM     32  C   UNL A   1      38.512  29.281  28.756  1.00  0.00    -0.014 A 
BRANCH  32  33
ATOM     33  C   UNL A   1      39.930  28.929  29.019  1.00  0.00     0.031 A 
ATOM     34  C   UNL A   1      40.861  29.958  29.602  1.00  0.00     0.074 A 
ATOM     35  C   UNL A   1      40.393  27.716  28.653  1.00  0.00     0.049 A 
ATOM     36  N   UNL A   1      42.148  29.879  29.823  1.00  0.00    -0.248 NA
ATOM     37  C   UNL A   1      40.274  31.263  29.945  1.00  0.00     0.031 C 
ATOM     38  C   UNL A   1      39.597  26.661  28.017  1.00  0.00     0.029 A 
ATOM     39  N   UNL A   1      41.646  27.166  28.752  1.00  0.00    -0.354 N 
ATOM     40  C   UNL A   1      42.527  31.130  30.296  1.00  0.00     0.074 A 
ATOM     41  C   UNL A   1      41.346  31.964  30.281  1.00  0.00     0.031 C 
ATOM     42  C   UNL A   1      40.372  25.583  27.817  1.00  0.00     0.029 A 
ATOM     43  C   UNL A   1      41.725  25.878  28.275  1.00  0.00     0.049 A 
ATOM     44  H   UNL A   1      42.417  27.648  29.130  1.00  0.00     0.167 HD
ATOM     45  C   UNL A   1      43.744  31.537  30.729  1.00  0.00     0.037 A 
ATOM     46  C   UNL A   1      42.772  25.031  28.220  1.00  0.00     0.037 A 
ATOM     47  C   UNL A   1      44.898  30.679  30.784  1.00  0.00     0.049 A 
ATOM     48  C   UNL A   1      44.100  25.488  28.759  1.00  0.00     0.074 A 
ATOM     49  C   UNL A   1      46.163  30.964  31.268  1.00  0.00     0.029 A 
ATOM     50  N   UNL A   1      44.924  29.363  30.345  1.00  0.00    -0.354 N 
ATOM     51  N   UNL A   1      44.428  26.655  29.263  1.00  0.00    -0.248 NA
ATOM     52  C   UNL A   1      45.198  24.512  28.736  1.00  0.00     0.031 C 
ATOM     53  C   UNL A   1      46.962  29.829  31.094  1.00  0.00     0.029 A 
ATOM     54  C   UNL A   1      46.183  28.823  30.543  1.00  0.00     0.049 A 
ATOM     55  H   UNL A   1      44.160  28.884  29.952  1.00  0.00     0.167 HD
ATOM     56  C   UNL A   1      45.757  26.541  29.653  1.00  0.00     0.074 A 
ATOM     57  C   UNL A   1      46.170  25.190  29.329  1.00  0.00     0.031 C 
ATOM     58  C   UNL A   1      46.563  27.468  30.229  1.00  0.00     0.037 A 
BRANCH  45  59
ATOM     59  C   UNL A   1      43.879  32.967  31.180  1.00  0.00     0.058 A 
ATOM     60  C   UNL A   1      43.687  33.342  32.519  1.00  0.00     0.135 A 
ATOM     61  C   UNL A   1      44.211  33.977  30.262  1.00  0.00     0.135 A 
ATOM     62  F   UNL A   1      43.353  32.422  33.438  1.00  0.00    -0.206 F 
ATOM     63  C   UNL A   1      43.777  34.670  32.926  1.00  0.00     0.059 A 
ATOM     64  C   UNL A   1      44.336  35.308  30.651  1.00  0.00     0.059 A 
ATOM     65  F   UNL A   1      44.406  33.677  28.968  1.00  0.00    -0.206 F 
ATOM     66  C   UNL A   1      44.097  35.647  31.982  1.00  0.00     0.060 A 
BRANCH  66  67
ATOM     67  S   UNL A   1      44.197  37.366  32.521  1.00  0.00     0.124 S 
ATOM     68  O   UNL A   1      43.140  37.418  33.526  1.00  0.00    -0.237 OA
ATOM     69  O   UNL A   1      45.561  37.456  33.032  1.00  0.00    -0.237 OA
ATOM     70  O   UNL A   1      43.938  38.121  31.299  1.00  0.00    -0.744 OA
ENDBRANCH  66  67
ENDBRANCH  45  59
BRANCH  46  71
ATOM     71  C   UNL A   1      42.590  23.652  27.693  1.00  0.00     0.058 A 
ATOM     72  C   UNL A   1      42.669  23.396  26.315  1.00  0.00     0.135 A 
ATOM     73  C   UNL A   1      42.355  22.563  28.546  1.00  0.00     0.135 A 
ATOM     74  F   UNL A   1      42.889  24.404  25.458  1.00  0.00    -0.206 F 
ATOM     75  C   UNL A   1      42.501  22.115  25.799  1.00  0.00     0.059 A 
ATOM     76  C   UNL A   1      42.208  21.268  28.055  1.00  0.00     0.059 A 
ATOM     77  F   UNL A   1      42.292  22.750  29.873  1.00  0.00    -0.206 F 
ATOM     78  C   UNL A   1      42.274  21.056  26.678  1.00  0.00     0.060 A 
BRANCH  78  79
ATOM     79  S   UNL A   1      42.109  19.389  26.001  1.00  0.00     0.124 S 
ATOM     80  O   UNL A   1      42.629  18.575  27.093  1.00  0.00    -0.237 OA
ATOM     81  O   UNL A   1      40.672  19.295  25.762  1.00  0.00    -0.237 OA
ATOM     82  O   UNL A   1      42.934  19.433  24.797  1.00  0.00    -0.744 OA
ENDBRANCH  78  79
ENDBRANCH  46  71
BRANCH  58  83
ATOM     83  C   UNL A   1      47.952  27.032  30.600  1.00  0.00     0.058 A 
ATOM     84  C   UNL A   1      49.026  27.139  29.704  1.00  0.00     0.135 A 
ATOM     85  C   UNL A   1      48.215  26.540  31.889  1.00  0.00     0.135 A 
ATOM     86  F   UNL A   1      48.826  27.601  28.459  1.00  0.00    -0.206 F 
ATOM     87  C   UNL A   1      50.310  26.742  30.063  1.00  0.00     0.059 A 
ATOM     88  C   UNL A   1      49.495  26.163  32.277  1.00  0.00     0.059 A 
ATOM     89  F   UNL A   1      47.223  26.430  32.787  1.00  0.00    -0.206 F 
ATOM     90  C   UNL A   1      50.534  26.254  31.351  1.00  0.00     0.060 A 
BRANCH  90  91
ATOM     91  S   UNL A   1      52.207  25.760  31.814  1.00  0.00     0.124 S 
ATOM     92  O   UNL A   1      52.026  24.340  32.094  1.00  0.00    -0.237 OA
ATOM     93  O   UNL A   1      52.971  26.077  30.611  1.00  0.00    -0.237 OA
ATOM     94  O   UNL A   1      52.500  26.598  32.973  1.00  0.00    -0.744 OA
ENDBRANCH  90  91
ENDBRANCH  58  83
ENDBRANCH  32  33
ENDBRANCH  24  27
ENDBRANCH  22  23
ENDBRANCH   1  22
TORSDOF 16
ENDMDL
MODEL 2
REMARK VINA RESULT:     -11.0      1.395      2.692
REMARK SMILES N#C/C(=C/c1cc2c(cc1Br)OCO2)C(=O)NCCCCNC(=O)c1ccc(-c2c3nc(c(-c4c(F)cc(S(=O)(=O)[O-])cc4F)c4ccc([nH]4)c(-c4c(F)cc(S(=O)(=O)[O-])cc4F)c4nc(c(-c5c(F)cc(S(=O)(=O)[O-])cc5F)c5ccc2[nH]5)C=C4)C=C3)cc1
REMARK SMILES IDX 20 1 19 2 18 3 17 4 15 5 16 6 3 8 4 9 2 10 1 11 5 12 6 13
REMARK SMILES IDX 10 14 7 15 9 16 11 17 8 18 14 19 12 20 13 21 21 22 22 23
REMARK SMILES IDX 23 24 24 26 25 27 26 28 90 29 27 30 89 31 28 32 29 33 30 34
REMARK SMILES IDX 83 35 31 36 88 37 82 38 84 39 32 40 87 41 81 42 80 43 33 45
REMARK SMILES IDX 67 46 46 47 66 48 47 49 50 50 65 51 85 52 48 53 49 54 64 56
REMARK SMILES IDX 86 57 51 58 34 59 35 60 44 61 36 62 37 63 43 64 45 65 38 66
REMARK SMILES IDX 39 67 40 68 41 69 42 70 68 71 69 72 78 73 70 74 71 75 77 76
REMARK SMILES IDX 79 77 72 78 73 79 74 80 75 81 76 82 52 83 53 84 62 85 54 86
REMARK SMILES IDX 55 87 61 88 63 89 56 90 57 91 58 92 59 93 60 94
REMARK H PARENT 17 7 22 25 84 44 50 55
REMARK Flexibility Score: inf
ROOT
ATOM      1  C   UNL A   1      32.043  27.866  27.166  1.00  0.00     0.023 C 
ENDROOT
BRANCH   1   2
ATOM      2  C   UNL A   1      31.339  27.808  25.813  1.00  0.00     0.023 C 
BRANCH   2   3
ATOM      3  C   UNL A   1      31.824  26.752  24.831  1.00  0.00     0.116 C 
BRANCH   3   4
ATOM      4  N   UNL A   1      30.841  25.856  24.280  1.00  0.00    -0.351 N 
ATOM      5  C   UNL A   1      31.000  24.775  23.458  1.00  0.00     0.261 C 
ATOM      6  O   UNL A   1      29.978  24.163  23.136  1.00  0.00    -0.268 OA
ATOM      7  H   UNL A   1      29.910  26.052  24.535  1.00  0.00     0.163 HD
BRANCH   5   8
ATOM      8  C   UNL A   1      32.315  24.334  22.881  1.00  0.00     0.117 C 
ATOM      9  C   UNL A   1      33.074  23.223  23.060  1.00  0.00     0.034 C 
BRANCH   8  10
ATOM     10  C   UNL A   1      32.868  25.205  21.765  1.00  0.00     0.105 C 
ATOM     11  N   UNL A   1      33.328  25.927  20.839  1.00  0.00    -0.192 NA
ENDBRANCH   8  10
BRANCH   9  12
ATOM     12  C   UNL A   1      32.926  22.043  23.919  1.00  0.00    -0.006 A 
ATOM     13  C   UNL A   1      32.426  20.880  23.301  1.00  0.00     0.060 A 
ATOM     14  C   UNL A   1      33.289  22.006  25.287  1.00  0.00     0.029 A 
ATOM     15  C   UNL A   1      32.452  19.703  24.016  1.00  0.00     0.166 A 
ATOM     16  C   UNL A   1      33.251  20.802  26.002  1.00  0.00     0.067 A 
ATOM     17  Br  UNL A   1      33.890  23.557  26.201  1.00  0.00    -0.050 Br
ATOM     18  C   UNL A   1      32.861  19.666  25.325  1.00  0.00     0.166 A 
ATOM     19  O   UNL A   1      32.171  18.469  23.522  1.00  0.00    -0.454 OA
ATOM     20  O   UNL A   1      32.879  18.401  25.817  1.00  0.00    -0.454 OA
ATOM     21  C   UNL A   1      32.593  17.635  24.627  1.00  0.00     0.468 C 
ENDBRANCH   9  12
ENDBRANCH   5   8
ENDBRANCH   3   4
ENDBRANCH   2   3
ENDBRANCH   1   2
BRANCH   1  22
ATOM     22  C   UNL A   1      33.428  28.508  27.207  1.00  0.00     0.116 C 
BRANCH  22  23
ATOM     23  N   UNL A   1      33.433  29.896  27.645  1.00  0.00    -0.352 N 
ATOM     24  C   UNL A   1      34.429  30.652  28.232  1.00  0.00     0.251 C 
ATOM     25  H   UNL A   1      32.586  30.376  27.499  1.00  0.00     0.163 HD
ATOM     26  O   UNL A   1      34.178  31.777  28.637  1.00  0.00    -0.269 OA
BRANCH  24  27
ATOM     27  C   UNL A   1      35.785  30.087  28.419  1.00  0.00     0.039 A 
ATOM     28  C   UNL A   1      36.674  30.097  27.339  1.00  0.00     0.014 A 
ATOM     29  C   UNL A   1      36.191  29.569  29.649  1.00  0.00     0.014 A 
ATOM     30  C   UNL A   1      37.996  29.688  27.525  1.00  0.00     0.010 A 
ATOM     31  C   UNL A   1      37.529  29.258  29.860  1.00  0.00     0.010 A 
ATOM     32  C   UNL A   1      38.448  29.317  28.801  1.00  0.00    -0.014 A 
BRANCH  32  33
ATOM     33  C   UNL A   1      39.872  28.987  29.056  1.00  0.00     0.031 A 
ATOM     34  C   UNL A   1      40.788  30.025  29.648  1.00  0.00     0.074 A 
ATOM     35  C   UNL A   1      40.355  27.787  28.676  1.00  0.00     0.049 A 
ATOM     36  N   UNL A   1      42.076  29.966  29.863  1.00  0.00    -0.248 NA
ATOM     37  C   UNL A   1      40.180  31.317  30.006  1.00  0.00     0.031 C 
ATOM     38  C   UNL A   1      39.575  26.725  28.031  1.00  0.00     0.029 A 
ATOM     39  N   UNL A   1      41.617  27.257  28.765  1.00  0.00    -0.354 N 
ATOM     40  C   UNL A   1      42.436  31.218  30.349  1.00  0.00     0.074 A 
ATOM     41  C   UNL A   1      41.241  32.033  30.346  1.00  0.00     0.031 C 
ATOM     42  C   UNL A   1      40.368  25.662  27.817  1.00  0.00     0.029 A 
ATOM     43  C   UNL A   1      41.717  25.975  28.273  1.00  0.00     0.049 A 
ATOM     44  H   UNL A   1      42.381  27.748  29.145  1.00  0.00     0.167 HD
ATOM     45  C   UNL A   1      43.647  31.641  30.782  1.00  0.00     0.037 A 
ATOM     46  C   UNL A   1      42.778  25.148  28.206  1.00  0.00     0.037 A 
ATOM     47  C   UNL A   1      44.816  30.803  30.824  1.00  0.00     0.049 A 
ATOM     48  C   UNL A   1      44.100  25.621  28.746  1.00  0.00     0.074 A 
ATOM     49  C   UNL A   1      46.077  31.104  31.307  1.00  0.00     0.029 A 
ATOM     50  N   UNL A   1      44.863  29.493  30.371  1.00  0.00    -0.354 N 
ATOM     51  N   UNL A   1      44.409  26.788  29.261  1.00  0.00    -0.248 NA
ATOM     52  C   UNL A   1      45.214  24.665  28.709  1.00  0.00     0.031 C 
ATOM     53  C   UNL A   1      46.895  29.985  31.118  1.00  0.00     0.029 A 
ATOM     54  C   UNL A   1      46.132  28.972  30.559  1.00  0.00     0.049 A 
ATOM     55  H   UNL A   1      44.106  29.005  29.975  1.00  0.00     0.167 HD
ATOM     56  C   UNL A   1      45.742  26.693  29.645  1.00  0.00     0.074 A 
ATOM     57  C   UNL A   1      46.177  25.352  29.306  1.00  0.00     0.031 C 
ATOM     58  C   UNL A   1      46.534  27.627  30.229  1.00  0.00     0.037 A 
BRANCH  45  59
ATOM     59  C   UNL A   1      43.759  33.069  31.248  1.00  0.00     0.058 A 
ATOM     60  C   UNL A   1      43.968  34.127  30.348  1.00  0.00     0.135 A 
ATOM     61  C   UNL A   1      43.651  33.385  32.611  1.00  0.00     0.135 A 
ATOM     62  F   UNL A   1      44.095  33.883  29.034  1.00  0.00    -0.206 F 
ATOM     63  C   UNL A   1      44.107  35.441  30.786  1.00  0.00     0.059 A 
ATOM     64  C   UNL A   1      43.756  34.696  33.070  1.00  0.00     0.059 A 
ATOM     65  F   UNL A   1      43.451  32.415  33.518  1.00  0.00    -0.206 F 
ATOM     66  C   UNL A   1      44.005  35.714  32.150  1.00  0.00     0.060 A 
BRANCH  66  67
ATOM     67  S   UNL A   1      44.201  37.420  32.705  1.00  0.00     0.124 S 
ATOM     68  O   UNL A   1      43.079  37.557  33.628  1.00  0.00    -0.237 OA
ATOM     69  O   UNL A   1      45.526  37.400  33.317  1.00  0.00    -0.237 OA
ATOM     70  O   UNL A   1      44.097  38.193  31.471  1.00  0.00    -0.744 OA
ENDBRANCH  66  67
ENDBRANCH  45  59
BRANCH  46  71
ATOM     71  C   UNL A   1      42.618  23.771  27.665  1.00  0.00     0.058 A 
ATOM     72  C   UNL A   1      42.466  22.675  28.529  1.00  0.00     0.135 A 
ATOM     73  C   UNL A   1      42.595  23.520  26.285  1.00  0.00     0.135 A 
ATOM     74  F   UNL A   1      42.483  22.862  29.857  1.00  0.00    -0.206 F 
ATOM     75  C   UNL A   1      42.316  21.379  28.047  1.00  0.00     0.059 A 
ATOM     76  C   UNL A   1      42.421  22.235  25.777  1.00  0.00     0.059 A 
ATOM     77  F   UNL A   1      42.715  24.535  25.416  1.00  0.00    -0.206 F 
ATOM     78  C   UNL A   1      42.292  21.169  26.667  1.00  0.00     0.060 A 
BRANCH  78  79
ATOM     79  S   UNL A   1      42.045  19.489  26.052  1.00  0.00     0.124 S 
ATOM     80  O   UNL A   1      42.894  19.482  24.866  1.00  0.00    -0.237 OA
ATOM     81  O   UNL A   1      42.508  18.679  27.175  1.00  0.00    -0.237 OA
ATOM     82  O   UNL A   1      40.607  19.432  25.800  1.00  0.00    -0.744 OA
ENDBRANCH  78  79
ENDBRANCH  46  71
BRANCH  58  83
ATOM     83  C   UNL A   1      47.931  27.211  30.590  1.00  0.00     0.058 A 
ATOM     84  C   UNL A   1      48.220  26.544  31.790  1.00  0.00     0.135 A 
ATOM     85  C   UNL A   1      48.989  27.451  29.698  1.00  0.00     0.135 A 
ATOM     86  F   UNL A   1      47.244  26.295  32.677  1.00  0.00    -0.206 F 
ATOM     87  C   UNL A   1      49.517  26.155  32.107  1.00  0.00     0.059 A 
ATOM     88  C   UNL A   1      50.288  27.047  29.983  1.00  0.00     0.059 A 
ATOM     89  F   UNL A   1      48.762  28.076  28.531  1.00  0.00    -0.206 F 
ATOM     90  C   UNL A   1      50.544  26.412  31.198  1.00  0.00     0.060 A 
BRANCH  90  91
ATOM     91  S   UNL A   1      52.221  25.886  31.611  1.00  0.00     0.124 S 
ATOM     92  O   UNL A   1      52.895  26.020  30.323  1.00  0.00    -0.237 OA
ATOM     93  O   UNL A   1      52.610  26.853  32.634  1.00  0.00    -0.237 OA
ATOM     94  O   UNL A   1      52.039  24.519  32.087  1.00  0.00    -0.744 OA
ENDBRANCH  90  91
ENDBRANCH  58  83
ENDBRANCH  32  33
ENDBRANCH  24  27
ENDBRANCH  22  23
ENDBRANCH   1  22
TORSDOF 16
ENDMDL
MODEL 3
REMARK VINA RESULT:     -10.9      3.138      9.501
REMARK SMILES N#C/C(=C/c1cc2c(cc1Br)OCO2)C(=O)NCCCCNC(=O)c1ccc(-c2c3nc(c(-c4c(F)cc(S(=O)(=O)[O-])cc4F)c4ccc([nH]4)c(-c4c(F)cc(S(=O)(=O)[O-])cc4F)c4nc(c(-c5c(F)cc(S(=O)(=O)[O-])cc5F)c5ccc2[nH]5)C=C4)C=C3)cc1
REMARK SMILES IDX 20 1 19 2 18 3 17 4 15 5 16 6 3 8 4 9 2 10 1 11 5 12 6 13
REMARK SMILES IDX 10 14 7 15 9 16 11 17 8 18 14 19 12 20 13 21 21 22 22 23
REMARK SMILES IDX 23 24 24 26 25 27 26 28 90 29 27 30 89 31 28 32 29 33 30 34
REMARK SMILES IDX 83 35 31 36 88 37 82 38 84 39 32 40 87 41 81 42 80 43 33 45
REMARK SMILES IDX 67 46 46 47 66 48 47 49 50 50 65 51 85 52 48 53 49 54 64 56
REMARK SMILES IDX 86 57 51 58 34 59 35 60 44 61 36 62 37 63 43 64 45 65 38 66
REMARK SMILES IDX 39 67 40 68 41 69 42 70 68 71 69 72 78 73 70 74 71 75 77 76
REMARK SMILES IDX 79 77 72 78 73 79 74 80 75 81 76 82 52 83 53 84 62 85 54 86
REMARK SMILES IDX 55 87 61 88 63 89 56 90 57 91 58 92 59 93 60 94
REMARK H PARENT 17 7 22 25 84 44 50 55
REMARK Flexibility Score: inf
ROOT
ATOM      1  C   UNL A   1      35.629  23.041  25.321  1.00  0.00     0.023 C 
ENDROOT
BRANCH   1   2
ATOM      2  C   UNL A   1      34.485  23.407  24.379  1.00  0.00     0.023 C 
BRANCH   2   3
ATOM      3  C   UNL A   1      33.556  24.525  24.827  1.00  0.00     0.116 C 
BRANCH   3   4
ATOM      4  N   UNL A   1      32.181  24.455  24.405  1.00  0.00    -0.351 N 
ATOM      5  C   UNL A   1      31.530  25.138  23.415  1.00  0.00     0.261 C 
ATOM      6  O   UNL A   1      30.335  24.879  23.251  1.00  0.00    -0.268 OA
ATOM      7  H   UNL A   1      31.624  23.817  24.907  1.00  0.00     0.163 HD
BRANCH   5   8
ATOM      8  C   UNL A   1      32.156  26.213  22.573  1.00  0.00     0.117 C 
ATOM      9  C   UNL A   1      32.562  27.479  22.846  1.00  0.00     0.034 C 
BRANCH   8  10
ATOM     10  C   UNL A   1      32.569  25.793  21.171  1.00  0.00     0.105 C 
ATOM     11  N   UNL A   1      32.911  25.446  20.009  1.00  0.00    -0.192 NA
ENDBRANCH   8  10
BRANCH   9  12
ATOM     12  C   UNL A   1      32.504  28.304  24.058  1.00  0.00    -0.006 A 
ATOM     13  C   UNL A   1      33.621  28.236  24.913  1.00  0.00     0.060 A 
ATOM     14  C   UNL A   1      31.430  29.170  24.379  1.00  0.00     0.029 A 
ATOM     15  C   UNL A   1      33.695  29.132  25.956  1.00  0.00     0.166 A 
ATOM     16  C   UNL A   1      31.514  30.030  25.481  1.00  0.00     0.067 A 
ATOM     17  Br  UNL A   1      29.860  29.247  23.315  1.00  0.00    -0.050 Br
ATOM     18  C   UNL A   1      32.674  30.009  26.225  1.00  0.00     0.166 A 
ATOM     19  O   UNL A   1      34.770  29.319  26.767  1.00  0.00    -0.454 OA
ATOM     20  O   UNL A   1      32.980  30.849  27.246  1.00  0.00    -0.454 OA
ATOM     21  C   UNL A   1      34.365  30.512  27.479  1.00  0.00     0.468 C 
ENDBRANCH   9  12
ENDBRANCH   5   8
ENDBRANCH   3   4
ENDBRANCH   2   3
ENDBRANCH   1   2
BRANCH   1  22
ATOM     22  C   UNL A   1      37.016  23.581  24.981  1.00  0.00     0.116 C 
BRANCH  22  23
ATOM     23  N   UNL A   1      38.110  22.684  25.327  1.00  0.00    -0.352 N 
ATOM     24  C   UNL A   1      39.246  22.899  26.081  1.00  0.00     0.251 C 
ATOM     25  H   UNL A   1      38.025  21.774  24.961  1.00  0.00     0.163 HD
ATOM     26  O   UNL A   1      40.106  22.033  26.143  1.00  0.00    -0.269 OA
BRANCH  24  27
ATOM     27  C   UNL A   1      39.452  24.192  26.774  1.00  0.00     0.039 A 
ATOM     28  C   UNL A   1      38.894  24.373  28.044  1.00  0.00     0.014 A 
ATOM     29  C   UNL A   1      40.202  25.214  26.192  1.00  0.00     0.014 A 
ATOM     30  C   UNL A   1      39.180  25.532  28.768  1.00  0.00     0.010 A 
ATOM     31  C   UNL A   1      40.567  26.320  26.950  1.00  0.00     0.010 A 
ATOM     32  C   UNL A   1      40.064  26.490  28.249  1.00  0.00    -0.014 A 
BRANCH  32  33
ATOM     33  C   UNL A   1      40.477  27.676  29.039  1.00  0.00     0.031 A 
ATOM     34  C   UNL A   1      41.805  27.678  29.748  1.00  0.00     0.074 A 
ATOM     35  C   UNL A   1      39.621  28.708  29.186  1.00  0.00     0.049 A 
ATOM     36  N   UNL A   1      42.309  28.573  30.558  1.00  0.00    -0.248 NA
ATOM     37  C   UNL A   1      42.661  26.497  29.554  1.00  0.00     0.031 C 
ATOM     38  C   UNL A   1      38.279  28.787  28.599  1.00  0.00     0.029 A 
ATOM     39  N   UNL A   1      39.744  29.885  29.880  1.00  0.00    -0.354 N 
ATOM     40  C   UNL A   1      43.521  28.049  30.992  1.00  0.00     0.074 A 
ATOM     41  C   UNL A   1      43.651  26.736  30.400  1.00  0.00     0.031 C 
ATOM     42  C   UNL A   1      37.721  29.964  28.929  1.00  0.00     0.029 A 
ATOM     43  C   UNL A   1      38.645  30.707  29.778  1.00  0.00     0.049 A 
ATOM     44  H   UNL A   1      40.545  30.120  30.403  1.00  0.00     0.167 HD
ATOM     45  C   UNL A   1      44.452  28.621  31.792  1.00  0.00     0.037 A 
ATOM     46  C   UNL A   1      38.415  31.925  30.307  1.00  0.00     0.037 A 
ATOM     47  C   UNL A   1      44.330  29.949  32.334  1.00  0.00     0.049 A 
ATOM     48  C   UNL A   1      39.489  32.563  31.145  1.00  0.00     0.074 A 
ATOM     49  C   UNL A   1      45.240  30.656  33.098  1.00  0.00     0.029 A 
ATOM     50  N   UNL A   1      43.227  30.772  32.160  1.00  0.00    -0.354 N 
ATOM     51  N   UNL A   1      40.658  32.080  31.495  1.00  0.00    -0.248 NA
ATOM     52  C   UNL A   1      39.220  33.916  31.650  1.00  0.00     0.031 C 
ATOM     53  C   UNL A   1      44.675  31.897  33.412  1.00  0.00     0.029 A 
ATOM     54  C   UNL A   1      43.431  31.980  32.806  1.00  0.00     0.049 A 
ATOM     55  H   UNL A   1      42.418  30.534  31.652  1.00  0.00     0.167 HD
ATOM     56  C   UNL A   1      41.280  33.084  32.228  1.00  0.00     0.074 A 
ATOM     57  C   UNL A   1      40.358  34.202  32.266  1.00  0.00     0.031 C 
ATOM     58  C   UNL A   1      42.504  33.084  32.813  1.00  0.00     0.037 A 
BRANCH  45  59
ATOM     59  C   UNL A   1      45.681  27.814  32.117  1.00  0.00     0.058 A 
ATOM     60  C   UNL A   1      45.743  26.984  33.248  1.00  0.00     0.135 A 
ATOM     61  C   UNL A   1      46.810  27.865  31.284  1.00  0.00     0.135 A 
ATOM     62  F   UNL A   1      44.699  26.907  34.089  1.00  0.00    -0.206 F 
ATOM     63  C   UNL A   1      46.893  26.267  33.565  1.00  0.00     0.059 A 
ATOM     64  C   UNL A   1      47.961  27.134  31.564  1.00  0.00     0.059 A 
ATOM     65  F   UNL A   1      46.808  28.641  30.188  1.00  0.00    -0.206 F 
ATOM     66  C   UNL A   1      47.999  26.353  32.719  1.00  0.00     0.060 A 
BRANCH  66  67
ATOM     67  S   UNL A   1      49.488  25.429  33.150  1.00  0.00     0.124 S 
ATOM     68  O   UNL A   1      49.956  25.001  31.835  1.00  0.00    -0.237 OA
ATOM     69  O   UNL A   1      50.304  26.441  33.813  1.00  0.00    -0.237 OA
ATOM     70  O   UNL A   1      48.989  24.365  34.015  1.00  0.00    -0.744 OA
ENDBRANCH  66  67
ENDBRANCH  45  59
BRANCH  46  71
ATOM     71  C   UNL A   1      37.146  32.641  30.007  1.00  0.00     0.058 A 
ATOM     72  C   UNL A   1      37.108  33.654  29.036  1.00  0.00     0.135 A 
ATOM     73  C   UNL A   1      35.948  32.322  30.663  1.00  0.00     0.135 A 
ATOM     74  F   UNL A   1      38.228  33.998  28.383  1.00  0.00    -0.206 F 
ATOM     75  C   UNL A   1      35.934  34.339  28.740  1.00  0.00     0.059 A 
ATOM     76  C   UNL A   1      34.755  32.976  30.366  1.00  0.00     0.059 A 
ATOM     77  F   UNL A   1      35.925  31.347  31.584  1.00  0.00    -0.206 F 
ATOM     78  C   UNL A   1      34.760  33.990  29.409  1.00  0.00     0.060 A 
BRANCH  78  79
ATOM     79  S   UNL A   1      33.231  34.850  28.980  1.00  0.00     0.124 S 
ATOM     80  O   UNL A   1      32.574  34.949  30.278  1.00  0.00    -0.237 OA
ATOM     81  O   UNL A   1      33.730  36.102  28.418  1.00  0.00    -0.237 OA
ATOM     82  O   UNL A   1      32.599  33.951  28.018  1.00  0.00    -0.744 OA
ENDBRANCH  78  79
ENDBRANCH  46  71
BRANCH  58  83
ATOM     83  C   UNL A   1      42.939  34.351  33.492  1.00  0.00     0.058 A 
ATOM     84  C   UNL A   1      42.649  34.607  34.841  1.00  0.00     0.135 A 
ATOM     85  C   UNL A   1      43.694  35.304  32.788  1.00  0.00     0.135 A 
ATOM     86  F   UNL A   1      41.927  33.728  35.555  1.00  0.00    -0.206 F 
ATOM     87  C   UNL A   1      43.066  35.779  35.461  1.00  0.00     0.059 A 
ATOM     88  C   UNL A   1      44.144  36.470  33.397  1.00  0.00     0.059 A 
ATOM     89  F   UNL A   1      44.009  35.101  31.499  1.00  0.00    -0.206 F 
ATOM     90  C   UNL A   1      43.812  36.705  34.730  1.00  0.00     0.060 A 
BRANCH  90  91
ATOM     91  S   UNL A   1      44.366  38.215  35.550  1.00  0.00     0.124 S 
ATOM     92  O   UNL A   1      43.769  39.243  34.704  1.00  0.00    -0.237 OA
ATOM     93  O   UNL A   1      43.788  38.077  36.884  1.00  0.00    -0.237 OA
ATOM     94  O   UNL A   1      45.821  38.118  35.492  1.00  0.00    -0.744 OA
ENDBRANCH  90  91
ENDBRANCH  58  83
ENDBRANCH  32  33
ENDBRANCH  24  27
ENDBRANCH  22  23
ENDBRANCH   1  22
TORSDOF 16
ENDMDL
