MODEL 1
REMARK VINA RESULT:     -12.1      0.000      0.000
REMARK SMILES COc1ccc(-n2c(SCc3cn(-c4ccc(C(=O)NCCCCNC(=O)c5ccc(-c6c7nc(c(-c8c(F)cc(S(=O)(=O)[O-])cc8F)c8ccc([nH]8)c(-c8c(F)cc(S(=O)(=O)[O-])cc8F)c8nc(c(-c9c(F)cc(S(=O)(=O)[O-])cc9F)c9ccc6[nH]9)C=C8)C=C7)cc5)cc4)nn3)nc3ccccc3c2=O)cc1
REMARK SMILES IDX 21 1 20 2 18 3 19 4 17 6 14 7 15 8 95 9 16 10 94 11 13 12
REMARK SMILES IDX 11 13 12 14 97 15 96 16 10 17 9 18 8 19 7 20 105 21 98 22
REMARK SMILES IDX 104 23 106 24 99 25 103 26 100 27 102 28 101 29 6 30 3 31
REMARK SMILES IDX 4 32 108 33 5 34 107 35 2 36 1 37 22 38 23 39 24 40 25 41
REMARK SMILES IDX 26 42 27 44 28 45 29 46 93 47 30 48 92 49 31 50 32 51 33 52
REMARK SMILES IDX 86 53 34 54 91 55 85 56 87 57 35 58 90 59 84 60 83 61 36 63
REMARK SMILES IDX 70 64 49 65 69 66 50 67 53 68 68 69 88 70 51 71 52 72 67 74
REMARK SMILES IDX 89 75 54 76 37 77 38 78 47 79 39 80 40 81 46 82 48 83 41 84
REMARK SMILES IDX 42 85 43 86 44 87 45 88 71 89 72 90 81 91 73 92 74 93 80 94
REMARK SMILES IDX 82 95 75 96 76 97 77 98 78 99 79 100 55 101 56 102 65 103
REMARK SMILES IDX 57 104 58 105 64 106 66 107 59 108 60 109 61 110 62 111
REMARK SMILES IDX 63 112
REMARK H PARENT 20 5 25 43 87 62 53 73
REMARK Flexibility Score: inf
ROOT
ATOM      1  C   UNL A   1      34.521  30.912  27.609  1.00  0.00     0.116 C 
ENDROOT
BRANCH   1   2
ATOM      2  N   UNL A   1      33.438  31.126  26.666  1.00  0.00    -0.352 N 
ATOM      3  C   UNL A   1      32.535  30.275  26.076  1.00  0.00     0.251 C 
ATOM      4  O   UNL A   1      31.695  30.758  25.319  1.00  0.00    -0.269 OA
ATOM      5  H   UNL A   1      33.329  32.068  26.397  1.00  0.00     0.163 HD
BRANCH   3   6
ATOM      6  C   UNL A   1      32.522  28.807  26.313  1.00  0.00     0.039 A 
ATOM      7  C   UNL A   1      32.401  26.070  26.805  1.00  0.00     0.066 A 
ATOM      8  C   UNL A   1      31.372  26.887  27.273  1.00  0.00     0.029 A 
ATOM      9  C   UNL A   1      33.462  26.589  26.075  1.00  0.00     0.029 A 
ATOM     10  C   UNL A   1      31.454  28.263  27.049  1.00  0.00     0.016 A 
ATOM     11  C   UNL A   1      33.485  27.942  25.796  1.00  0.00     0.016 A 
BRANCH   7  12
ATOM     12  N   UNL A   1      32.377  24.692  27.014  1.00  0.00    -0.220 N 
ATOM     13  C   UNL A   1      32.893  22.600  27.147  1.00  0.00     0.093 A 
ATOM     14  C   UNL A   1      33.445  23.836  26.949  1.00  0.00     0.141 A 
ATOM     15  N   UNL A   1      31.531  22.728  27.207  1.00  0.00    -0.134 NA
ATOM     16  N   UNL A   1      31.238  24.016  27.236  1.00  0.00    -0.062 NA
BRANCH  13  17
ATOM     17  C   UNL A   1      33.594  21.331  27.375  1.00  0.00     0.138 C 
BRANCH  17  18
ATOM     18  S   UNL A   1      33.055  20.008  26.310  1.00  0.00    -0.081 SA
BRANCH  18  19
ATOM     19  C   UNL A   1      34.014  20.285  24.785  1.00  0.00     0.176 A 
ATOM     20  N   UNL A   1      33.192  20.447  23.687  1.00  0.00    -0.255 N 
ATOM     21  C   UNL A   1      32.816  19.277  23.040  1.00  0.00     0.266 A 
ATOM     22  N   UNL A   1      35.066  19.532  24.658  1.00  0.00    -0.223 NA
ATOM     23  C   UNL A   1      33.458  18.044  23.614  1.00  0.00     0.066 A 
ATOM     24  O   UNL A   1      32.001  19.174  22.131  1.00  0.00    -0.268 OA
ATOM     25  C   UNL A   1      34.653  18.225  24.341  1.00  0.00     0.079 A 
ATOM     26  C   UNL A   1      32.770  16.838  23.701  1.00  0.00     0.016 A 
ATOM     27  C   UNL A   1      35.222  17.170  25.050  1.00  0.00     0.029 A 
ATOM     28  C   UNL A   1      33.292  15.818  24.505  1.00  0.00     0.001 A 
ATOM     29  C   UNL A   1      34.524  15.971  25.152  1.00  0.00     0.002 A 
BRANCH  20  30
ATOM     30  C   UNL A   1      32.719  21.738  23.348  1.00  0.00     0.052 A 
ATOM     31  C   UNL A   1      32.010  24.444  23.205  1.00  0.00     0.119 A 
ATOM     32  C   UNL A   1      33.206  24.014  22.635  1.00  0.00     0.048 A 
ATOM     33  C   UNL A   1      31.120  23.514  23.742  1.00  0.00     0.048 A 
ATOM     34  C   UNL A   1      33.578  22.668  22.741  1.00  0.00     0.030 A 
ATOM     35  C   UNL A   1      31.461  22.157  23.787  1.00  0.00     0.030 A 
BRANCH  31  36
ATOM     36  O   UNL A   1      31.704  25.775  23.146  1.00  0.00    -0.497 OA
ATOM     37  C   UNL A   1      30.425  26.074  23.706  1.00  0.00     0.278 C 
ENDBRANCH  31  36
ENDBRANCH  20  30
ENDBRANCH  18  19
ENDBRANCH  17  18
ENDBRANCH  13  17
ENDBRANCH   7  12
ENDBRANCH   3   6
ENDBRANCH   1   2
BRANCH   1  38
ATOM     38  C   UNL A   1      35.388  32.171  27.786  1.00  0.00     0.023 C 
BRANCH  38  39
ATOM     39  C   UNL A   1      34.627  33.489  27.954  1.00  0.00     0.023 C 
BRANCH  39  40
ATOM     40  C   UNL A   1      35.373  34.549  28.745  1.00  0.00     0.116 C 
BRANCH  40  41
ATOM     41  N   UNL A   1      34.740  34.861  30.033  1.00  0.00    -0.352 N 
ATOM     42  C   UNL A   1      34.746  34.093  31.192  1.00  0.00     0.251 C 
ATOM     43  H   UNL A   1      34.254  35.716  30.082  1.00  0.00     0.163 HD
ATOM     44  O   UNL A   1      33.898  34.230  32.054  1.00  0.00    -0.269 OA
BRANCH  42  45
ATOM     45  C   UNL A   1      35.850  33.131  31.353  1.00  0.00     0.039 A 
ATOM     46  C   UNL A   1      35.682  31.745  31.301  1.00  0.00     0.014 A 
ATOM     47  C   UNL A   1      37.110  33.699  31.461  1.00  0.00     0.014 A 
ATOM     48  C   UNL A   1      36.822  30.942  31.285  1.00  0.00     0.010 A 
ATOM     49  C   UNL A   1      38.199  32.936  31.174  1.00  0.00     0.010 A 
ATOM     50  C   UNL A   1      38.080  31.555  31.211  1.00  0.00    -0.014 A 
BRANCH  50  51
ATOM     51  C   UNL A   1      39.328  30.814  31.112  1.00  0.00     0.031 A 
ATOM     52  C   UNL A   1      39.985  30.509  32.410  1.00  0.00     0.074 A 
ATOM     53  C   UNL A   1      39.682  30.209  29.954  1.00  0.00     0.049 A 
ATOM     54  N   UNL A   1      41.090  30.998  32.865  1.00  0.00    -0.248 NA
ATOM     55  C   UNL A   1      39.256  29.687  33.391  1.00  0.00     0.031 C 
ATOM     56  C   UNL A   1      38.953  30.154  28.675  1.00  0.00     0.029 A 
ATOM     57  N   UNL A   1      40.730  29.382  29.718  1.00  0.00    -0.354 N 
ATOM     58  C   UNL A   1      41.325  30.347  34.073  1.00  0.00     0.074 A 
ATOM     59  C   UNL A   1      40.075  29.736  34.444  1.00  0.00     0.031 C 
ATOM     60  C   UNL A   1      39.436  29.147  27.916  1.00  0.00     0.029 A 
ATOM     61  C   UNL A   1      40.619  28.615  28.559  1.00  0.00     0.049 A 
ATOM     62  H   UNL A   1      41.508  29.327  30.318  1.00  0.00     0.167 HD
ATOM     63  C   UNL A   1      42.592  30.143  34.534  1.00  0.00     0.037 A 
ATOM     64  C   UNL A   1      41.434  27.590  28.204  1.00  0.00     0.037 A 
ATOM     65  C   UNL A   1      43.547  30.935  33.794  1.00  0.00     0.049 A 
ATOM     66  C   UNL A   1      42.700  27.787  28.970  1.00  0.00     0.074 A 
ATOM     67  C   UNL A   1      43.688  32.286  33.538  1.00  0.00     0.029 A 
ATOM     68  N   UNL A   1      44.298  30.298  32.831  1.00  0.00    -0.354 N 
ATOM     69  N   UNL A   1      43.494  28.812  28.788  1.00  0.00    -0.248 NA
ATOM     70  C   UNL A   1      42.799  27.148  30.275  1.00  0.00     0.031 C 
ATOM     71  C   UNL A   1      44.051  32.358  32.160  1.00  0.00     0.029 A 
ATOM     72  C   UNL A   1      44.205  31.054  31.688  1.00  0.00     0.049 A 
ATOM     73  H   UNL A   1      44.804  29.460  32.941  1.00  0.00     0.167 HD
ATOM     74  C   UNL A   1      43.879  29.201  30.065  1.00  0.00     0.074 A 
ATOM     75  C   UNL A   1      43.462  28.102  30.937  1.00  0.00     0.031 C 
ATOM     76  C   UNL A   1      44.215  30.496  30.353  1.00  0.00     0.037 A 
BRANCH  63  77
ATOM     77  C   UNL A   1      43.023  28.971  35.381  1.00  0.00     0.058 A 
ATOM     78  C   UNL A   1      43.806  29.205  36.531  1.00  0.00     0.135 A 
ATOM     79  C   UNL A   1      42.939  27.625  34.963  1.00  0.00     0.135 A 
ATOM     80  F   UNL A   1      43.959  30.449  37.012  1.00  0.00    -0.206 F 
ATOM     81  C   UNL A   1      44.516  28.188  37.170  1.00  0.00     0.059 A 
ATOM     82  C   UNL A   1      43.592  26.587  35.620  1.00  0.00     0.059 A 
ATOM     83  F   UNL A   1      42.306  27.261  33.842  1.00  0.00    -0.206 F 
ATOM     84  C   UNL A   1      44.414  26.884  36.695  1.00  0.00     0.060 A 
BRANCH  84  85
ATOM     85  S   UNL A   1      45.413  25.590  37.448  1.00  0.00     0.124 S 
ATOM     86  O   UNL A   1      44.385  24.687  37.953  1.00  0.00    -0.237 OA
ATOM     87  O   UNL A   1      46.188  25.107  36.312  1.00  0.00    -0.237 OA
ATOM     88  O   UNL A   1      46.179  26.307  38.464  1.00  0.00    -0.744 OA
ENDBRANCH  84  85
ENDBRANCH  63  77
BRANCH  64  89
ATOM     89  C   UNL A   1      41.040  26.291  27.586  1.00  0.00     0.058 A 
ATOM     90  C   UNL A   1      41.856  25.662  26.629  1.00  0.00     0.135 A 
ATOM     91  C   UNL A   1      40.001  25.501  28.122  1.00  0.00     0.135 A 
ATOM     92  F   UNL A   1      42.877  26.331  26.071  1.00  0.00    -0.206 F 
ATOM     93  C   UNL A   1      41.693  24.317  26.271  1.00  0.00     0.059 A 
ATOM     94  C   UNL A   1      39.812  24.163  27.775  1.00  0.00     0.059 A 
ATOM     95  F   UNL A   1      39.185  25.979  29.073  1.00  0.00    -0.206 F 
ATOM     96  C   UNL A   1      40.682  23.567  26.871  1.00  0.00     0.060 A 
BRANCH  96  97
ATOM     97  S   UNL A   1      40.591  21.784  26.570  1.00  0.00     0.124 S 
ATOM     98  O   UNL A   1      40.698  21.244  27.920  1.00  0.00    -0.237 OA
ATOM     99  O   UNL A   1      39.288  21.646  25.929  1.00  0.00    -0.237 OA
ATOM    100  O   UNL A   1      41.738  21.528  25.702  1.00  0.00    -0.744 OA
ENDBRANCH  96  97
ENDBRANCH  64  89
BRANCH  76 101
ATOM    101  C   UNL A   1      44.388  31.479  29.218  1.00  0.00     0.058 A 
ATOM    102  C   UNL A   1      45.516  31.541  28.380  1.00  0.00     0.135 A 
ATOM    103  C   UNL A   1      43.284  32.262  28.849  1.00  0.00     0.135 A 
ATOM    104  F   UNL A   1      46.575  30.748  28.590  1.00  0.00    -0.206 F 
ATOM    105  C   UNL A   1      45.560  32.367  27.254  1.00  0.00     0.059 A 
ATOM    106  C   UNL A   1      43.292  33.070  27.715  1.00  0.00     0.059 A 
ATOM    107  F   UNL A   1      42.149  32.201  29.566  1.00  0.00    -0.206 F 
ATOM    108  C   UNL A   1      44.440  33.129  26.928  1.00  0.00     0.060 A 
BRANCH 108 109
ATOM    109  S   UNL A   1      44.469  34.147  25.436  1.00  0.00     0.124 S 
ATOM    110  O   UNL A   1      45.789  34.764  25.512  1.00  0.00    -0.237 OA
ATOM    111  O   UNL A   1      44.292  33.159  24.375  1.00  0.00    -0.237 OA
ATOM    112  O   UNL A   1      43.342  35.057  25.622  1.00  0.00    -0.744 OA
ENDBRANCH 108 109
ENDBRANCH  76 101
ENDBRANCH  50  51
ENDBRANCH  42  45
ENDBRANCH  40  41
ENDBRANCH  39  40
ENDBRANCH  38  39
ENDBRANCH   1  38
TORSDOF 20
ENDMDL
MODEL 2
REMARK VINA RESULT:     -11.2      4.092      6.456
REMARK SMILES COc1ccc(-n2c(SCc3cn(-c4ccc(C(=O)NCCCCNC(=O)c5ccc(-c6c7nc(c(-c8c(F)cc(S(=O)(=O)[O-])cc8F)c8ccc([nH]8)c(-c8c(F)cc(S(=O)(=O)[O-])cc8F)c8nc(c(-c9c(F)cc(S(=O)(=O)[O-])cc9F)c9ccc6[nH]9)C=C8)C=C7)cc5)cc4)nn3)nc3ccccc3c2=O)cc1
REMARK SMILES IDX 21 1 20 2 18 3 19 4 17 6 14 7 15 8 95 9 16 10 94 11 13 12
REMARK SMILES IDX 11 13 12 14 97 15 96 16 10 17 9 18 8 19 7 20 105 21 98 22
REMARK SMILES IDX 104 23 106 24 99 25 103 26 100 27 102 28 101 29 6 30 3 31
REMARK SMILES IDX 4 32 108 33 5 34 107 35 2 36 1 37 22 38 23 39 24 40 25 41
REMARK SMILES IDX 26 42 27 44 28 45 29 46 93 47 30 48 92 49 31 50 32 51 33 52
REMARK SMILES IDX 86 53 34 54 91 55 85 56 87 57 35 58 90 59 84 60 83 61 36 63
REMARK SMILES IDX 70 64 49 65 69 66 50 67 53 68 68 69 88 70 51 71 52 72 67 74
REMARK SMILES IDX 89 75 54 76 37 77 38 78 47 79 39 80 40 81 46 82 48 83 41 84
REMARK SMILES IDX 42 85 43 86 44 87 45 88 71 89 72 90 81 91 73 92 74 93 80 94
REMARK SMILES IDX 82 95 75 96 76 97 77 98 78 99 79 100 55 101 56 102 65 103
REMARK SMILES IDX 57 104 58 105 64 106 66 107 59 108 60 109 61 110 62 111
REMARK SMILES IDX 63 112
REMARK H PARENT 20 5 25 43 87 62 53 73
REMARK Flexibility Score: inf
ROOT
ATOM      1  C   UNL A   1      34.613  30.848  27.662  1.00  0.00     0.116 C 
ENDROOT
BRANCH   1   2
ATOM      2  N   UNL A   1      33.399  31.586  27.360  1.00  0.00    -0.352 N 
ATOM      3  C   UNL A   1      32.194  31.213  26.815  1.00  0.00     0.251 C 
ATOM      4  O   UNL A   1      31.321  32.073  26.699  1.00  0.00    -0.269 OA
ATOM      5  H   UNL A   1      33.450  32.542  27.591  1.00  0.00     0.163 HD
BRANCH   3   6
ATOM      6  C   UNL A   1      31.894  29.827  26.368  1.00  0.00     0.039 A 
ATOM      7  C   UNL A   1      31.325  27.203  25.634  1.00  0.00     0.066 A 
ATOM      8  C   UNL A   1      31.448  27.515  26.987  1.00  0.00     0.029 A 
ATOM      9  C   UNL A   1      31.450  28.178  24.652  1.00  0.00     0.029 A 
ATOM     10  C   UNL A   1      31.763  28.827  27.347  1.00  0.00     0.016 A 
ATOM     11  C   UNL A   1      31.684  29.485  25.033  1.00  0.00     0.016 A 
BRANCH   7  12
ATOM     12  N   UNL A   1      31.026  25.907  25.218  1.00  0.00    -0.220 N 
ATOM     13  C   UNL A   1      30.870  23.760  25.056  1.00  0.00     0.093 A 
ATOM     14  C   UNL A   1      31.263  24.750  25.914  1.00  0.00     0.141 A 
ATOM     15  N   UNL A   1      30.526  24.324  23.857  1.00  0.00    -0.134 NA
ATOM     16  N   UNL A   1      30.519  25.636  24.005  1.00  0.00    -0.062 NA
BRANCH  13  17
ATOM     17  C   UNL A   1      30.715  22.330  25.348  1.00  0.00     0.138 C 
BRANCH  17  18
ATOM     18  S   UNL A   1      32.217  21.536  25.885  1.00  0.00    -0.081 SA
BRANCH  18  19
ATOM     19  C   UNL A   1      32.980  20.988  24.324  1.00  0.00     0.176 A 
ATOM     20  N   UNL A   1      33.991  20.073  24.542  1.00  0.00    -0.255 N 
ATOM     21  C   UNL A   1      35.250  20.615  24.772  1.00  0.00     0.266 A 
ATOM     22  N   UNL A   1      33.183  21.933  23.455  1.00  0.00    -0.223 NA
ATOM     23  C   UNL A   1      35.288  22.113  24.650  1.00  0.00     0.066 A 
ATOM     24  O   UNL A   1      36.257  20.004  25.110  1.00  0.00    -0.268 OA
ATOM     25  C   UNL A   1      34.269  22.718  23.884  1.00  0.00     0.079 A 
ATOM     26  C   UNL A   1      36.082  22.892  25.484  1.00  0.00     0.016 A 
ATOM     27  C   UNL A   1      34.125  24.103  23.858  1.00  0.00     0.029 A 
ATOM     28  C   UNL A   1      35.859  24.273  25.536  1.00  0.00     0.001 A 
ATOM     29  C   UNL A   1      34.906  24.879  24.707  1.00  0.00     0.002 A 
BRANCH  20  30
ATOM     30  C   UNL A   1      33.688  18.692  24.610  1.00  0.00     0.052 A 
ATOM     31  C   UNL A   1      33.592  15.929  25.062  1.00  0.00     0.119 A 
ATOM     32  C   UNL A   1      32.913  16.792  25.919  1.00  0.00     0.048 A 
ATOM     33  C   UNL A   1      34.220  16.432  23.922  1.00  0.00     0.048 A 
ATOM     34  C   UNL A   1      32.993  18.175  25.715  1.00  0.00     0.030 A 
ATOM     35  C   UNL A   1      34.244  17.811  23.680  1.00  0.00     0.030 A 
BRANCH  31  36
ATOM     36  O   UNL A   1      33.551  14.588  25.323  1.00  0.00    -0.497 OA
ATOM     37  C   UNL A   1      32.245  14.133  25.677  1.00  0.00     0.278 C 
ENDBRANCH  31  36
ENDBRANCH  20  30
ENDBRANCH  18  19
ENDBRANCH  17  18
ENDBRANCH  13  17
ENDBRANCH   7  12
ENDBRANCH   3   6
ENDBRANCH   1   2
BRANCH   1  38
ATOM     38  C   UNL A   1      35.821  31.781  27.857  1.00  0.00     0.023 C 
BRANCH  38  39
ATOM     39  C   UNL A   1      35.498  33.270  28.010  1.00  0.00     0.023 C 
BRANCH  39  40
ATOM     40  C   UNL A   1      35.846  33.852  29.369  1.00  0.00     0.116 C 
BRANCH  40  41
ATOM     41  N   UNL A   1      34.713  34.527  30.016  1.00  0.00    -0.352 N 
ATOM     42  C   UNL A   1      34.290  34.404  31.335  1.00  0.00     0.251 C 
ATOM     43  H   UNL A   1      34.191  35.139  29.449  1.00  0.00     0.163 HD
ATOM     44  O   UNL A   1      33.152  34.678  31.670  1.00  0.00    -0.269 OA
BRANCH  42  45
ATOM     45  C   UNL A   1      35.292  33.968  32.322  1.00  0.00     0.039 A 
ATOM     46  C   UNL A   1      35.456  32.639  32.721  1.00  0.00     0.014 A 
ATOM     47  C   UNL A   1      36.150  34.962  32.765  1.00  0.00     0.014 A 
ATOM     48  C   UNL A   1      36.553  32.320  33.523  1.00  0.00     0.010 A 
ATOM     49  C   UNL A   1      37.344  34.603  33.308  1.00  0.00     0.010 A 
ATOM     50  C   UNL A   1      37.499  33.316  33.800  1.00  0.00    -0.014 A 
BRANCH  50  51
ATOM     51  C   UNL A   1      38.716  33.075  34.558  1.00  0.00     0.031 A 
ATOM     52  C   UNL A   1      38.659  33.479  35.988  1.00  0.00     0.074 A 
ATOM     53  C   UNL A   1      39.693  32.281  34.061  1.00  0.00     0.049 A 
ATOM     54  N   UNL A   1      39.294  34.448  36.556  1.00  0.00    -0.248 NA
ATOM     55  C   UNL A   1      37.662  32.835  36.860  1.00  0.00     0.031 C 
ATOM     56  C   UNL A   1      39.733  31.544  32.787  1.00  0.00     0.029 A 
ATOM     57  N   UNL A   1      40.824  31.849  34.673  1.00  0.00    -0.354 N 
ATOM     58  C   UNL A   1      38.975  34.370  37.909  1.00  0.00     0.074 A 
ATOM     59  C   UNL A   1      37.815  33.522  37.995  1.00  0.00     0.031 C 
ATOM     60  C   UNL A   1      40.675  30.579  32.844  1.00  0.00     0.029 A 
ATOM     61  C   UNL A   1      41.430  30.748  34.067  1.00  0.00     0.049 A 
ATOM     62  H   UNL A   1      41.187  32.277  35.481  1.00  0.00     0.167 HD
ATOM     63  C   UNL A   1      39.847  34.794  38.869  1.00  0.00     0.037 A 
ATOM     64  C   UNL A   1      42.452  30.021  34.585  1.00  0.00     0.037 A 
ATOM     65  C   UNL A   1      40.918  35.572  38.291  1.00  0.00     0.049 A 
ATOM     66  C   UNL A   1      43.109  30.897  35.599  1.00  0.00     0.074 A 
ATOM     67  C   UNL A   1      40.970  36.714  37.515  1.00  0.00     0.029 A 
ATOM     68  N   UNL A   1      42.137  34.955  38.120  1.00  0.00    -0.354 N 
ATOM     69  N   UNL A   1      43.726  32.010  35.291  1.00  0.00    -0.248 NA
ATOM     70  C   UNL A   1      42.623  30.815  36.970  1.00  0.00     0.031 C 
ATOM     71  C   UNL A   1      41.967  36.440  36.532  1.00  0.00     0.029 A 
ATOM     72  C   UNL A   1      42.528  35.196  36.826  1.00  0.00     0.049 A 
ATOM     73  H   UNL A   1      42.633  34.439  38.797  1.00  0.00     0.167 HD
ATOM     74  C   UNL A   1      43.347  32.917  36.274  1.00  0.00     0.074 A 
ATOM     75  C   UNL A   1      42.710  32.104  37.312  1.00  0.00     0.031 C 
ATOM     76  C   UNL A   1      43.297  34.262  36.031  1.00  0.00     0.037 A 
BRANCH  63  77
ATOM     77  C   UNL A   1      39.953  34.209  40.255  1.00  0.00     0.058 A 
ATOM     78  C   UNL A   1      40.422  32.887  40.411  1.00  0.00     0.135 A 
ATOM     79  C   UNL A   1      39.357  34.783  41.400  1.00  0.00     0.135 A 
ATOM     80  F   UNL A   1      41.001  32.243  39.384  1.00  0.00    -0.206 F 
ATOM     81  C   UNL A   1      40.240  32.164  41.590  1.00  0.00     0.059 A 
ATOM     82  C   UNL A   1      39.217  34.099  42.603  1.00  0.00     0.059 A 
ATOM     83  F   UNL A   1      38.788  35.994  41.380  1.00  0.00    -0.206 F 
ATOM     84  C   UNL A   1      39.621  32.776  42.676  1.00  0.00     0.060 A 
BRANCH  84  85
ATOM     85  S   UNL A   1      39.287  31.812  44.158  1.00  0.00     0.124 S 
ATOM     86  O   UNL A   1      40.614  31.734  44.758  1.00  0.00    -0.237 OA
ATOM     87  O   UNL A   1      38.319  32.653  44.853  1.00  0.00    -0.237 OA
ATOM     88  O   UNL A   1      38.757  30.558  43.631  1.00  0.00    -0.744 OA
ENDBRANCH  84  85
ENDBRANCH  63  77
BRANCH  64  89
ATOM     89  C   UNL A   1      42.621  28.540  34.545  1.00  0.00     0.058 A 
ATOM     90  C   UNL A   1      43.613  27.940  33.747  1.00  0.00     0.135 A 
ATOM     91  C   UNL A   1      42.006  27.698  35.496  1.00  0.00     0.135 A 
ATOM     92  F   UNL A   1      44.261  28.665  32.822  1.00  0.00    -0.206 F 
ATOM     93  C   UNL A   1      44.015  26.609  33.923  1.00  0.00     0.059 A 
ATOM     94  C   UNL A   1      42.382  26.367  35.682  1.00  0.00     0.059 A 
ATOM     95  F   UNL A   1      41.077  28.168  36.341  1.00  0.00    -0.206 F 
ATOM     96  C   UNL A   1      43.409  25.837  34.913  1.00  0.00     0.060 A 
BRANCH  96  97
ATOM     97  S   UNL A   1      44.057  24.187  35.283  1.00  0.00     0.124 S 
ATOM     98  O   UNL A   1      45.180  24.090  34.357  1.00  0.00    -0.237 OA
ATOM     99  O   UNL A   1      44.403  24.302  36.695  1.00  0.00    -0.237 OA
ATOM    100  O   UNL A   1      42.929  23.307  34.991  1.00  0.00    -0.744 OA
ENDBRANCH  96  97
ENDBRANCH  64  89
BRANCH  76 101
ATOM    101  C   UNL A   1      43.877  34.799  34.743  1.00  0.00     0.058 A 
ATOM    102  C   UNL A   1      45.248  35.010  34.512  1.00  0.00     0.135 A 
ATOM    103  C   UNL A   1      43.024  34.922  33.636  1.00  0.00     0.135 A 
ATOM    104  F   UNL A   1      46.150  34.808  35.480  1.00  0.00    -0.206 F 
ATOM    105  C   UNL A   1      45.743  35.364  33.254  1.00  0.00     0.059 A 
ATOM    106  C   UNL A   1      43.496  35.244  32.367  1.00  0.00     0.059 A 
ATOM    107  F   UNL A   1      41.711  34.668  33.770  1.00  0.00    -0.206 F 
ATOM    108  C   UNL A   1      44.857  35.478  32.184  1.00  0.00     0.060 A 
BRANCH 108 109
ATOM    109  S   UNL A   1      45.501  35.870  30.543  1.00  0.00     0.124 S 
ATOM    110  O   UNL A   1      46.627  36.743  30.856  1.00  0.00    -0.237 OA
ATOM    111  O   UNL A   1      45.848  34.552  30.016  1.00  0.00    -0.237 OA
ATOM    112  O   UNL A   1      44.373  36.519  29.879  1.00  0.00    -0.744 OA
ENDBRANCH 108 109
ENDBRANCH  76 101
ENDBRANCH  50  51
ENDBRANCH  42  45
ENDBRANCH  40  41
ENDBRANCH  39  40
ENDBRANCH  38  39
ENDBRANCH   1  38
TORSDOF 20
ENDMDL
MODEL 3
REMARK VINA RESULT:     -11.2      3.382      9.346
REMARK SMILES COc1ccc(-n2c(SCc3cn(-c4ccc(C(=O)NCCCCNC(=O)c5ccc(-c6c7nc(c(-c8c(F)cc(S(=O)(=O)[O-])cc8F)c8ccc([nH]8)c(-c8c(F)cc(S(=O)(=O)[O-])cc8F)c8nc(c(-c9c(F)cc(S(=O)(=O)[O-])cc9F)c9ccc6[nH]9)C=C8)C=C7)cc5)cc4)nn3)nc3ccccc3c2=O)cc1
REMARK SMILES IDX 21 1 20 2 18 3 19 4 17 6 14 7 15 8 95 9 16 10 94 11 13 12
REMARK SMILES IDX 11 13 12 14 97 15 96 16 10 17 9 18 8 19 7 20 105 21 98 22
REMARK SMILES IDX 104 23 106 24 99 25 103 26 100 27 102 28 101 29 6 30 3 31
REMARK SMILES IDX 4 32 108 33 5 34 107 35 2 36 1 37 22 38 23 39 24 40 25 41
REMARK SMILES IDX 26 42 27 44 28 45 29 46 93 47 30 48 92 49 31 50 32 51 33 52
REMARK SMILES IDX 86 53 34 54 91 55 85 56 87 57 35 58 90 59 84 60 83 61 36 63
REMARK SMILES IDX 70 64 49 65 69 66 50 67 53 68 68 69 88 70 51 71 52 72 67 74
REMARK SMILES IDX 89 75 54 76 37 77 38 78 47 79 39 80 40 81 46 82 48 83 41 84
REMARK SMILES IDX 42 85 43 86 44 87 45 88 71 89 72 90 81 91 73 92 74 93 80 94
REMARK SMILES IDX 82 95 75 96 76 97 77 98 78 99 79 100 55 101 56 102 65 103
REMARK SMILES IDX 57 104 58 105 64 106 66 107 59 108 60 109 61 110 62 111
REMARK SMILES IDX 63 112
REMARK H PARENT 20 5 25 43 87 62 53 73
REMARK Flexibility Score: inf
ROOT
ATOM      1  C   UNL A   1      44.939  24.491  27.768  1.00  0.00     0.116 C 
ENDROOT
BRANCH   1   2
ATOM      2  N   UNL A   1      44.538  23.926  29.044  1.00  0.00    -0.352 N 
ATOM      3  C   UNL A   1      43.360  23.376  29.490  1.00  0.00     0.251 C 
ATOM      4  O   UNL A   1      43.321  22.948  30.642  1.00  0.00    -0.269 OA
ATOM      5  H   UNL A   1      45.250  23.941  29.725  1.00  0.00     0.163 HD
BRANCH   3   6
ATOM      6  C   UNL A   1      42.140  23.268  28.647  1.00  0.00     0.039 A 
ATOM      7  C   UNL A   1      39.843  23.170  27.077  1.00  0.00     0.066 A 
ATOM      8  C   UNL A   1      40.256  24.397  27.595  1.00  0.00     0.029 A 
ATOM      9  C   UNL A   1      40.570  22.008  27.302  1.00  0.00     0.029 A 
ATOM     10  C   UNL A   1      41.392  24.434  28.406  1.00  0.00     0.016 A 
ATOM     11  C   UNL A   1      41.734  22.079  28.042  1.00  0.00     0.016 A 
BRANCH   7  12
ATOM     12  N   UNL A   1      38.709  23.074  26.273  1.00  0.00    -0.220 N 
ATOM     13  C   UNL A   1      36.829  23.443  25.277  1.00  0.00     0.093 A 
ATOM     14  C   UNL A   1      37.768  24.048  26.067  1.00  0.00     0.141 A 
ATOM     15  N   UNL A   1      37.162  22.124  25.128  1.00  0.00    -0.134 NA
ATOM     16  N   UNL A   1      38.362  21.939  25.645  1.00  0.00    -0.062 NA
BRANCH  13  17
ATOM     17  C   UNL A   1      35.698  24.072  24.586  1.00  0.00     0.138 C 
BRANCH  17  18
ATOM     18  S   UNL A   1      34.464  24.743  25.683  1.00  0.00    -0.081 SA
BRANCH  18  19
ATOM     19  C   UNL A   1      33.112  25.209  24.554  1.00  0.00     0.176 A 
ATOM     20  N   UNL A   1      31.963  25.543  25.242  1.00  0.00    -0.255 N 
ATOM     21  C   UNL A   1      31.118  24.484  25.548  1.00  0.00     0.266 A 
ATOM     22  N   UNL A   1      33.000  24.458  23.498  1.00  0.00    -0.223 NA
ATOM     23  C   UNL A   1      31.580  23.168  24.985  1.00  0.00     0.066 A 
ATOM     24  O   UNL A   1      30.117  24.529  26.254  1.00  0.00    -0.268 OA
ATOM     25  C   UNL A   1      32.455  23.218  23.880  1.00  0.00     0.079 A 
ATOM     26  C   UNL A   1      31.415  21.978  25.685  1.00  0.00     0.016 A 
ATOM     27  C   UNL A   1      33.067  22.062  23.403  1.00  0.00     0.029 A 
ATOM     28  C   UNL A   1      32.120  20.844  25.266  1.00  0.00     0.001 A 
ATOM     29  C   UNL A   1      32.918  20.877  24.116  1.00  0.00     0.002 A 
BRANCH  20  30
ATOM     30  C   UNL A   1      31.759  26.879  25.665  1.00  0.00     0.052 A 
ATOM     31  C   UNL A   1      31.946  29.567  26.430  1.00  0.00     0.119 A 
ATOM     32  C   UNL A   1      31.651  29.246  25.108  1.00  0.00     0.048 A 
ATOM     33  C   UNL A   1      32.036  28.557  27.389  1.00  0.00     0.048 A 
ATOM     34  C   UNL A   1      31.596  27.902  24.717  1.00  0.00     0.030 A 
ATOM     35  C   UNL A   1      31.913  27.215  27.012  1.00  0.00     0.030 A 
BRANCH  31  36
ATOM     36  O   UNL A   1      32.060  30.886  26.769  1.00  0.00    -0.497 OA
ATOM     37  C   UNL A   1      31.062  31.703  26.157  1.00  0.00     0.278 C 
ENDBRANCH  31  36
ENDBRANCH  20  30
ENDBRANCH  18  19
ENDBRANCH  17  18
ENDBRANCH  13  17
ENDBRANCH   7  12
ENDBRANCH   3   6
ENDBRANCH   1   2
BRANCH   1  38
ATOM     38  C   UNL A   1      44.974  23.429  26.655  1.00  0.00     0.023 C 
BRANCH  38  39
ATOM     39  C   UNL A   1      44.443  23.874  25.289  1.00  0.00     0.023 C 
BRANCH  39  40
ATOM     40  C   UNL A   1      44.094  25.350  25.200  1.00  0.00     0.116 C 
BRANCH  40  41
ATOM     41  N   UNL A   1      45.193  26.174  24.681  1.00  0.00    -0.352 N 
ATOM     42  C   UNL A   1      45.427  27.525  24.915  1.00  0.00     0.251 C 
ATOM     43  H   UNL A   1      45.842  25.716  24.099  1.00  0.00     0.163 HD
ATOM     44  O   UNL A   1      46.104  28.196  24.158  1.00  0.00    -0.269 OA
BRANCH  42  45
ATOM     45  C   UNL A   1      44.855  28.101  26.143  1.00  0.00     0.039 A 
ATOM     46  C   UNL A   1      45.501  28.078  27.381  1.00  0.00     0.014 A 
ATOM     47  C   UNL A   1      43.654  28.772  25.971  1.00  0.00     0.014 A 
ATOM     48  C   UNL A   1      44.946  28.812  28.430  1.00  0.00     0.010 A 
ATOM     49  C   UNL A   1      43.276  29.688  26.904  1.00  0.00     0.010 A 
ATOM     50  C   UNL A   1      43.834  29.625  28.172  1.00  0.00    -0.014 A 
BRANCH  50  51
ATOM     51  C   UNL A   1      43.224  30.489  29.170  1.00  0.00     0.031 A 
ATOM     52  C   UNL A   1      44.017  31.693  29.531  1.00  0.00     0.074 A 
ATOM     53  C   UNL A   1      41.919  30.345  29.503  1.00  0.00     0.049 A 
ATOM     54  N   UNL A   1      44.608  31.938  30.652  1.00  0.00    -0.248 NA
ATOM     55  C   UNL A   1      44.327  32.671  28.475  1.00  0.00     0.031 C 
ATOM     56  C   UNL A   1      40.924  29.398  28.974  1.00  0.00     0.029 A 
ATOM     57  N   UNL A   1      41.161  31.131  30.308  1.00  0.00    -0.354 N 
ATOM     58  C   UNL A   1      45.143  33.217  30.529  1.00  0.00     0.074 A 
ATOM     59  C   UNL A   1      45.135  33.516  29.121  1.00  0.00     0.031 C 
ATOM     60  C   UNL A   1      39.679  29.830  29.264  1.00  0.00     0.029 A 
ATOM     61  C   UNL A   1      39.785  30.967  30.154  1.00  0.00     0.049 A 
ATOM     62  H   UNL A   1      41.552  31.767  30.949  1.00  0.00     0.167 HD
ATOM     63  C   UNL A   1      45.302  34.027  31.615  1.00  0.00     0.037 A 
ATOM     64  C   UNL A   1      38.826  31.758  30.699  1.00  0.00     0.037 A 
ATOM     65  C   UNL A   1      45.149  33.283  32.844  1.00  0.00     0.049 A 
ATOM     66  C   UNL A   1      39.472  32.454  31.851  1.00  0.00     0.074 A 
ATOM     67  C   UNL A   1      45.769  32.173  33.383  1.00  0.00     0.029 A 
ATOM     68  N   UNL A   1      43.954  33.401  33.518  1.00  0.00    -0.354 N 
ATOM     69  N   UNL A   1      39.910  31.826  32.912  1.00  0.00    -0.248 NA
ATOM     70  C   UNL A   1      40.099  33.742  31.587  1.00  0.00     0.031 C 
ATOM     71  C   UNL A   1      44.708  31.399  33.940  1.00  0.00     0.029 A 
ATOM     72  C   UNL A   1      43.525  32.126  33.796  1.00  0.00     0.049 A 
ATOM     73  H   UNL A   1      43.494  34.240  33.755  1.00  0.00     0.167 HD
ATOM     74  C   UNL A   1      41.130  32.422  33.206  1.00  0.00     0.074 A 
ATOM     75  C   UNL A   1      41.166  33.634  32.386  1.00  0.00     0.031 C 
ATOM     76  C   UNL A   1      42.132  31.738  33.840  1.00  0.00     0.037 A 
BRANCH  63  77
ATOM     77  C   UNL A   1      45.221  35.533  31.586  1.00  0.00     0.058 A 
ATOM     78  C   UNL A   1      44.076  36.151  31.040  1.00  0.00     0.135 A 
ATOM     79  C   UNL A   1      46.326  36.385  31.809  1.00  0.00     0.135 A 
ATOM     80  F   UNL A   1      42.971  35.433  30.782  1.00  0.00    -0.206 F 
ATOM     81  C   UNL A   1      44.058  37.496  30.672  1.00  0.00     0.059 A 
ATOM     82  C   UNL A   1      46.309  37.741  31.502  1.00  0.00     0.059 A 
ATOM     83  F   UNL A   1      47.508  35.928  32.238  1.00  0.00    -0.206 F 
ATOM     84  C   UNL A   1      45.187  38.279  30.892  1.00  0.00     0.060 A 
BRANCH  84  85
ATOM     85  S   UNL A   1      45.203  39.984  30.318  1.00  0.00     0.124 S 
ATOM     86  O   UNL A   1      43.910  40.078  29.649  1.00  0.00    -0.237 OA
ATOM     87  O   UNL A   1      45.332  40.722  31.570  1.00  0.00    -0.237 OA
ATOM     88  O   UNL A   1      46.372  40.033  29.445  1.00  0.00    -0.744 OA
ENDBRANCH  84  85
ENDBRANCH  63  77
BRANCH  64  89
ATOM     89  C   UNL A   1      37.566  32.228  30.055  1.00  0.00     0.058 A 
ATOM     90  C   UNL A   1      36.306  31.872  30.570  1.00  0.00     0.135 A 
ATOM     91  C   UNL A   1      37.566  33.262  29.094  1.00  0.00     0.135 A 
ATOM     92  F   UNL A   1      36.208  30.905  31.496  1.00  0.00    -0.206 F 
ATOM     93  C   UNL A   1      35.130  32.539  30.204  1.00  0.00     0.059 A 
ATOM     94  C   UNL A   1      36.407  33.935  28.707  1.00  0.00     0.059 A 
ATOM     95  F   UNL A   1      38.711  33.716  28.563  1.00  0.00    -0.206 F 
ATOM     96  C   UNL A   1      35.194  33.588  29.289  1.00  0.00     0.060 A 
BRANCH  96  97
ATOM     97  S   UNL A   1      33.718  34.586  28.965  1.00  0.00     0.124 S 
ATOM     98  O   UNL A   1      32.994  33.751  28.012  1.00  0.00    -0.237 OA
ATOM     99  O   UNL A   1      33.125  34.699  30.293  1.00  0.00    -0.237 OA
ATOM    100  O   UNL A   1      34.262  35.828  28.420  1.00  0.00    -0.744 OA
ENDBRANCH  96  97
ENDBRANCH  64  89
BRANCH  76 101
ATOM    101  C   UNL A   1      41.834  30.380  34.432  1.00  0.00     0.058 A 
ATOM    102  C   UNL A   1      41.910  29.166  33.725  1.00  0.00     0.135 A 
ATOM    103  C   UNL A   1      41.648  30.292  35.820  1.00  0.00     0.135 A 
ATOM    104  F   UNL A   1      42.194  29.147  32.417  1.00  0.00    -0.206 F 
ATOM    105  C   UNL A   1      41.771  27.929  34.358  1.00  0.00     0.059 A 
ATOM    106  C   UNL A   1      41.537  29.071  36.478  1.00  0.00     0.059 A 
ATOM    107  F   UNL A   1      41.634  31.409  36.566  1.00  0.00    -0.206 F 
ATOM    108  C   UNL A   1      41.585  27.891  35.739  1.00  0.00     0.060 A 
BRANCH 108 109
ATOM    109  S   UNL A   1      41.472  26.291  36.570  1.00  0.00     0.124 S 
ATOM    110  O   UNL A   1      40.681  26.616  37.752  1.00  0.00    -0.237 OA
ATOM    111  O   UNL A   1      40.806  25.461  35.570  1.00  0.00    -0.237 OA
ATOM    112  O   UNL A   1      42.866  25.940  36.828  1.00  0.00    -0.744 OA
ENDBRANCH 108 109
ENDBRANCH  76 101
ENDBRANCH  50  51
ENDBRANCH  42  45
ENDBRANCH  40  41
ENDBRANCH  39  40
ENDBRANCH  38  39
ENDBRANCH   1  38
TORSDOF 20
ENDMDL
