MODEL 1
REMARK VINA RESULT:     -14.5      0.000      0.000
REMARK SMILES Cc1ccc(NC(=O)c2ccccc2NC(=O)[C@H]2CCCC[C@H]2C(=O)NCCCCNC(=O)c2ccc(-c3c4nc(c(-c5c(F)cc(S(=O)(=O)[O-])cc5F)c5ccc([nH]5)c(-c5c(F)cc(S(=O)(=O)[O-])cc5F)c5nc(c(-c6c(F)cc(S(=O)(=O)[O-])cc6F)c6ccc3[nH]6)C=C5)C=C4)cc2)cc1
REMARK SMILES IDX 28 1 27 2 26 3 24 4 25 5 23 7 18 8 19 9 20 10 22 11 21 12
REMARK SMILES IDX 16 13 15 14 17 16 14 17 9 18 10 19 11 20 13 21 12 22 7 23
REMARK SMILES IDX 6 24 8 26 5 27 1 28 2 29 3 30 101 31 4 32 100 33 29 34 30 35
REMARK SMILES IDX 31 36 32 37 33 39 34 40 35 41 99 42 36 43 98 44 37 45 38 46
REMARK SMILES IDX 39 47 92 48 40 49 97 50 91 51 93 52 41 53 96 54 90 55 89 56
REMARK SMILES IDX 42 58 76 59 55 60 75 61 56 62 59 63 74 64 94 65 57 66 58 67
REMARK SMILES IDX 73 69 95 70 60 71 43 72 44 73 53 74 45 75 46 76 52 77 54 78
REMARK SMILES IDX 47 79 48 80 49 81 50 82 51 83 77 84 78 85 87 86 79 87 80 88
REMARK SMILES IDX 86 89 88 90 81 91 82 92 83 93 84 94 85 95 61 96 62 97 71 98
REMARK SMILES IDX 63 99 64 100 70 101 72 102 65 103 66 104 67 105 68 106
REMARK SMILES IDX 69 107
REMARK H PARENT 26 6 15 15 6 25 31 38 93 57 59 68
REMARK Flexibility Score: inf
ROOT
ATOM      1  C   UNL A   1      31.965  29.311  26.458  1.00  0.00     0.023 C 
ENDROOT
BRANCH   1   2
ATOM      2  C   UNL A   1      31.523  29.346  24.993  1.00  0.00     0.116 C 
BRANCH   2   3
ATOM      3  N   UNL A   1      32.674  29.297  24.098  1.00  0.00    -0.356 N 
ATOM      4  C   UNL A   1      33.259  28.315  23.374  1.00  0.00     0.223 C 
ATOM      5  O   UNL A   1      34.342  28.606  22.844  1.00  0.00    -0.275 OA
ATOM      6  H   UNL A   1      33.121  30.168  23.997  1.00  0.00     0.163 HD
BRANCH   4   7
ATOM      7  C   UNL A   1      32.734  26.886  23.200  1.00  0.00     0.091 C 
ATOM      8  C   UNL A   1      33.764  25.799  23.574  1.00  0.00     0.091 C 
ATOM      9  C   UNL A   1      33.264  24.401  23.157  1.00  0.00     0.014 C 
ATOM     10  C   UNL A   1      31.813  24.116  23.566  1.00  0.00     0.001 C 
ATOM     11  C   UNL A   1      31.291  26.596  23.612  1.00  0.00     0.014 C 
ATOM     12  C   UNL A   1      30.854  25.215  23.117  1.00  0.00     0.001 C 
BRANCH   8  13
ATOM     13  C   UNL A   1      34.058  25.758  25.053  1.00  0.00     0.228 C 
ATOM     14  N   UNL A   1      34.832  24.828  25.664  1.00  0.00    -0.325 N 
ATOM     15  H   UNL A   1      35.017  25.090  26.594  1.00  0.00     0.169 HD
ATOM     16  O   UNL A   1      33.613  26.646  25.787  1.00  0.00    -0.274 OA
BRANCH  14  17
ATOM     17  C   UNL A   1      35.451  23.602  25.371  1.00  0.00     0.054 A 
ATOM     18  C   UNL A   1      34.777  22.377  25.630  1.00  0.00     0.063 A 
ATOM     19  C   UNL A   1      35.459  21.160  25.398  1.00  0.00     0.016 A 
ATOM     20  C   UNL A   1      36.755  21.134  24.894  1.00  0.00     0.001 A 
ATOM     21  C   UNL A   1      36.729  23.547  24.797  1.00  0.00     0.027 A 
ATOM     22  C   UNL A   1      37.383  22.328  24.581  1.00  0.00     0.002 A 
BRANCH  18  23
ATOM     23  C   UNL A   1      33.462  22.174  26.322  1.00  0.00     0.257 C 
ATOM     24  N   UNL A   1      32.559  21.162  26.105  1.00  0.00    -0.322 N 
ATOM     25  H   UNL A   1      31.703  21.315  26.567  1.00  0.00     0.170 HD
ATOM     26  O   UNL A   1      33.130  23.036  27.145  1.00  0.00    -0.269 OA
BRANCH  24  27
ATOM     27  C   UNL A   1      32.572  19.966  25.381  1.00  0.00     0.041 A 
ATOM     28  C   UNL A   1      33.791  16.774  22.801  1.00  0.00     0.044 C 
ATOM     29  C   UNL A   1      33.218  17.831  23.695  1.00  0.00    -0.051 A 
ATOM     30  C   UNL A   1      33.229  17.666  25.088  1.00  0.00     0.005 A 
ATOM     31  C   UNL A   1      32.747  19.031  23.157  1.00  0.00     0.005 A 
ATOM     32  C   UNL A   1      32.888  18.727  25.931  1.00  0.00     0.026 A 
ATOM     33  C   UNL A   1      32.402  20.087  23.997  1.00  0.00     0.026 A 
ENDBRANCH  24  27
ENDBRANCH  18  23
ENDBRANCH  14  17
ENDBRANCH   8  13
ENDBRANCH   4   7
ENDBRANCH   2   3
ENDBRANCH   1   2
BRANCH   1  34
ATOM     34  C   UNL A   1      32.742  30.508  26.974  1.00  0.00     0.023 C 
BRANCH  34  35
ATOM     35  C   UNL A   1      34.101  30.137  27.528  1.00  0.00     0.116 C 
BRANCH  35  36
ATOM     36  N   UNL A   1      34.908  31.260  27.999  1.00  0.00    -0.352 N 
ATOM     37  C   UNL A   1      36.152  31.200  28.616  1.00  0.00     0.251 C 
ATOM     38  H   UNL A   1      34.530  32.159  27.863  1.00  0.00     0.163 HD
ATOM     39  O   UNL A   1      36.676  32.185  29.101  1.00  0.00    -0.269 OA
BRANCH  37  40
ATOM     40  C   UNL A   1      36.844  29.885  28.600  1.00  0.00     0.039 A 
ATOM     41  C   UNL A   1      37.108  29.266  29.824  1.00  0.00     0.014 A 
ATOM     42  C   UNL A   1      37.530  29.511  27.452  1.00  0.00     0.014 A 
ATOM     43  C   UNL A   1      38.229  28.441  29.938  1.00  0.00     0.010 A 
ATOM     44  C   UNL A   1      38.726  28.840  27.609  1.00  0.00     0.010 A 
ATOM     45  C   UNL A   1      39.109  28.333  28.861  1.00  0.00    -0.014 A 
BRANCH  45  46
ATOM     46  C   UNL A   1      40.474  27.806  28.967  1.00  0.00     0.031 A 
ATOM     47  C   UNL A   1      40.756  26.389  28.565  1.00  0.00     0.074 A 
ATOM     48  C   UNL A   1      41.512  28.599  29.339  1.00  0.00     0.049 A 
ATOM     49  N   UNL A   1      41.805  25.717  28.911  1.00  0.00    -0.248 NA
ATOM     50  C   UNL A   1      39.839  25.591  27.754  1.00  0.00     0.031 C 
ATOM     51  C   UNL A   1      42.932  28.276  29.180  1.00  0.00     0.029 A 
ATOM     52  N   UNL A   1      41.554  29.800  30.056  1.00  0.00    -0.354 N 
ATOM     53  C   UNL A   1      41.848  24.553  28.169  1.00  0.00     0.074 A 
ATOM     54  C   UNL A   1      40.576  24.509  27.491  1.00  0.00     0.031 C 
ATOM     55  C   UNL A   1      43.647  29.027  30.028  1.00  0.00     0.029 A 
ATOM     56  C   UNL A   1      42.702  29.738  30.865  1.00  0.00     0.049 A 
ATOM     57  H   UNL A   1      40.909  30.541  30.004  1.00  0.00     0.167 HD
ATOM     58  C   UNL A   1      43.000  23.819  28.127  1.00  0.00     0.037 A 
ATOM     59  C   UNL A   1      42.730  29.736  32.233  1.00  0.00     0.037 A 
ATOM     60  C   UNL A   1      44.002  24.368  29.042  1.00  0.00     0.049 A 
ATOM     61  C   UNL A   1      43.440  28.532  32.834  1.00  0.00     0.074 A 
ATOM     62  C   UNL A   1      45.100  25.192  28.854  1.00  0.00     0.029 A 
ATOM     63  N   UNL A   1      43.787  24.309  30.414  1.00  0.00    -0.354 N 
ATOM     64  N   UNL A   1      43.795  27.483  32.145  1.00  0.00    -0.248 NA
ATOM     65  C   UNL A   1      43.755  28.383  34.255  1.00  0.00     0.031 C 
ATOM     66  C   UNL A   1      45.510  25.674  30.121  1.00  0.00     0.029 A 
ATOM     67  C   UNL A   1      44.671  25.135  31.080  1.00  0.00     0.049 A 
ATOM     68  H   UNL A   1      43.098  23.756  30.850  1.00  0.00     0.167 HD
ATOM     69  C   UNL A   1      44.287  26.517  32.984  1.00  0.00     0.074 A 
ATOM     70  C   UNL A   1      44.287  27.147  34.289  1.00  0.00     0.031 C 
ATOM     71  C   UNL A   1      44.617  25.270  32.530  1.00  0.00     0.037 A 
BRANCH  58  72
ATOM     72  C   UNL A   1      43.328  22.770  27.070  1.00  0.00     0.058 A 
ATOM     73  C   UNL A   1      42.671  21.516  27.069  1.00  0.00     0.135 A 
ATOM     74  C   UNL A   1      44.317  22.898  26.074  1.00  0.00     0.135 A 
ATOM     75  F   UNL A   1      41.626  21.270  27.869  1.00  0.00    -0.206 F 
ATOM     76  C   UNL A   1      43.056  20.449  26.251  1.00  0.00     0.059 A 
ATOM     77  C   UNL A   1      44.759  21.830  25.284  1.00  0.00     0.059 A 
ATOM     78  F   UNL A   1      44.855  24.083  25.770  1.00  0.00    -0.206 F 
ATOM     79  C   UNL A   1      44.132  20.600  25.390  1.00  0.00     0.060 A 
BRANCH  79  80
ATOM     80  S   UNL A   1      44.679  19.190  24.411  1.00  0.00     0.124 S 
ATOM     81  O   UNL A   1      46.040  18.986  24.898  1.00  0.00    -0.237 OA
ATOM     82  O   UNL A   1      43.710  18.165  24.782  1.00  0.00    -0.237 OA
ATOM     83  O   UNL A   1      44.583  19.674  23.036  1.00  0.00    -0.744 OA
ENDBRANCH  79  80
ENDBRANCH  58  72
BRANCH  59  84
ATOM     84  C   UNL A   1      41.617  30.473  32.875  1.00  0.00     0.058 A 
ATOM     85  C   UNL A   1      41.784  31.856  33.065  1.00  0.00     0.135 A 
ATOM     86  C   UNL A   1      40.312  29.963  32.863  1.00  0.00     0.135 A 
ATOM     87  F   UNL A   1      43.017  32.379  33.138  1.00  0.00    -0.206 F 
ATOM     88  C   UNL A   1      40.703  32.725  33.022  1.00  0.00     0.059 A 
ATOM     89  C   UNL A   1      39.210  30.818  32.828  1.00  0.00     0.059 A 
ATOM     90  F   UNL A   1      40.100  28.649  32.706  1.00  0.00    -0.206 F 
ATOM     91  C   UNL A   1      39.431  32.197  32.818  1.00  0.00     0.060 A 
BRANCH  91  92
ATOM     92  S   UNL A   1      38.122  33.338  32.310  1.00  0.00     0.124 S 
ATOM     93  O   UNL A   1      36.955  32.465  32.257  1.00  0.00    -0.237 OA
ATOM     94  O   UNL A   1      38.147  34.299  33.411  1.00  0.00    -0.237 OA
ATOM     95  O   UNL A   1      38.602  33.837  31.027  1.00  0.00    -0.744 OA
ENDBRANCH  91  92
ENDBRANCH  59  84
BRANCH  71  96
ATOM     96  C   UNL A   1      44.982  24.083  33.390  1.00  0.00     0.058 A 
ATOM     97  C   UNL A   1      44.162  22.955  33.565  1.00  0.00     0.135 A 
ATOM     98  C   UNL A   1      46.272  23.994  33.971  1.00  0.00     0.135 A 
ATOM     99  F   UNL A   1      42.964  22.868  32.970  1.00  0.00    -0.206 F 
ATOM    100  C   UNL A   1      44.560  21.847  34.319  1.00  0.00     0.059 A 
ATOM    101  C   UNL A   1      46.708  22.879  34.682  1.00  0.00     0.059 A 
ATOM    102  F   UNL A   1      47.157  24.995  33.856  1.00  0.00    -0.206 F 
ATOM    103  C   UNL A   1      45.835  21.818  34.877  1.00  0.00     0.060 A 
BRANCH 103 104
ATOM    104  S   UNL A   1      46.385  20.376  35.809  1.00  0.00     0.124 S 
ATOM    105  O   UNL A   1      45.319  19.421  35.524  1.00  0.00    -0.237 OA
ATOM    106  O   UNL A   1      47.679  20.069  35.206  1.00  0.00    -0.237 OA
ATOM    107  O   UNL A   1      46.443  20.873  37.179  1.00  0.00    -0.744 OA
ENDBRANCH 103 104
ENDBRANCH  71  96
ENDBRANCH  45  46
ENDBRANCH  37  40
ENDBRANCH  35  36
ENDBRANCH  34  35
ENDBRANCH   1  34
TORSDOF 18
ENDMDL
MODEL 2
REMARK VINA RESULT:     -13.7      3.887     10.732
REMARK SMILES Cc1ccc(NC(=O)c2ccccc2NC(=O)[C@H]2CCCC[C@H]2C(=O)NCCCCNC(=O)c2ccc(-c3c4nc(c(-c5c(F)cc(S(=O)(=O)[O-])cc5F)c5ccc([nH]5)c(-c5c(F)cc(S(=O)(=O)[O-])cc5F)c5nc(c(-c6c(F)cc(S(=O)(=O)[O-])cc6F)c6ccc3[nH]6)C=C5)C=C4)cc2)cc1
REMARK SMILES IDX 28 1 27 2 26 3 24 4 25 5 23 7 18 8 19 9 20 10 22 11 21 12
REMARK SMILES IDX 16 13 15 14 17 16 14 17 9 18 10 19 11 20 13 21 12 22 7 23
REMARK SMILES IDX 6 24 8 26 5 27 1 28 2 29 3 30 101 31 4 32 100 33 29 34 30 35
REMARK SMILES IDX 31 36 32 37 33 39 34 40 35 41 99 42 36 43 98 44 37 45 38 46
REMARK SMILES IDX 39 47 92 48 40 49 97 50 91 51 93 52 41 53 96 54 90 55 89 56
REMARK SMILES IDX 42 58 76 59 55 60 75 61 56 62 59 63 74 64 94 65 57 66 58 67
REMARK SMILES IDX 73 69 95 70 60 71 43 72 44 73 53 74 45 75 46 76 52 77 54 78
REMARK SMILES IDX 47 79 48 80 49 81 50 82 51 83 77 84 78 85 87 86 79 87 80 88
REMARK SMILES IDX 86 89 88 90 81 91 82 92 83 93 84 94 85 95 61 96 62 97 71 98
REMARK SMILES IDX 63 99 64 100 70 101 72 102 65 103 66 104 67 105 68 106
REMARK SMILES IDX 69 107
REMARK H PARENT 26 6 15 15 6 25 31 38 93 57 59 68
REMARK Flexibility Score: inf
ROOT
ATOM      1  C   UNL A   1      36.363  22.755  23.260  1.00  0.00     0.023 C 
ENDROOT
BRANCH   1   2
ATOM      2  C   UNL A   1      35.308  23.726  22.721  1.00  0.00     0.116 C 
BRANCH   2   3
ATOM      3  N   UNL A   1      33.998  23.086  22.647  1.00  0.00    -0.356 N 
ATOM      4  C   UNL A   1      33.225  22.424  23.538  1.00  0.00     0.223 C 
ATOM      5  O   UNL A   1      32.222  21.863  23.073  1.00  0.00    -0.275 OA
ATOM      6  H   UNL A   1      33.587  23.152  21.755  1.00  0.00     0.163 HD
BRANCH   4   7
ATOM      7  C   UNL A   1      33.506  22.268  25.036  1.00  0.00     0.091 C 
ATOM      8  C   UNL A   1      33.476  23.601  25.814  1.00  0.00     0.091 C 
ATOM      9  C   UNL A   1      33.994  23.409  27.254  1.00  0.00     0.014 C 
ATOM     10  C   UNL A   1      33.382  22.201  27.975  1.00  0.00     0.001 C 
ATOM     11  C   UNL A   1      32.893  21.069  25.761  1.00  0.00     0.014 C 
ATOM     12  C   UNL A   1      33.496  20.916  27.160  1.00  0.00     0.001 C 
BRANCH   8  13
ATOM     13  C   UNL A   1      32.092  24.196  25.900  1.00  0.00     0.228 C 
ATOM     14  N   UNL A   1      31.714  25.363  25.323  1.00  0.00    -0.325 N 
ATOM     15  H   UNL A   1      30.737  25.469  25.372  1.00  0.00     0.169 HD
ATOM     16  O   UNL A   1      31.201  23.581  26.495  1.00  0.00    -0.274 OA
BRANCH  14  17
ATOM     17  C   UNL A   1      32.293  26.466  24.678  1.00  0.00     0.054 A 
ATOM     18  C   UNL A   1      32.509  27.681  25.386  1.00  0.00     0.063 A 
ATOM     19  C   UNL A   1      33.022  28.797  24.686  1.00  0.00     0.016 A 
ATOM     20  C   UNL A   1      33.347  28.726  23.335  1.00  0.00     0.001 A 
ATOM     21  C   UNL A   1      32.696  26.401  23.337  1.00  0.00     0.027 A 
ATOM     22  C   UNL A   1      33.196  27.522  22.666  1.00  0.00     0.002 A 
BRANCH  18  23
ATOM     23  C   UNL A   1      32.080  28.026  26.780  1.00  0.00     0.257 C 
ATOM     24  N   UNL A   1      32.675  28.924  27.633  1.00  0.00    -0.322 N 
ATOM     25  H   UNL A   1      32.310  28.877  28.546  1.00  0.00     0.170 HD
ATOM     26  O   UNL A   1      31.111  27.403  27.233  1.00  0.00    -0.269 OA
BRANCH  24  27
ATOM     27  C   UNL A   1      33.681  29.888  27.506  1.00  0.00     0.041 A 
ATOM     28  C   UNL A   1      36.546  32.936  28.414  1.00  0.00     0.044 C 
ATOM     29  C   UNL A   1      35.561  31.910  27.944  1.00  0.00    -0.051 A 
ATOM     30  C   UNL A   1      35.977  30.598  27.673  1.00  0.00     0.005 A 
ATOM     31  C   UNL A   1      34.203  32.224  27.855  1.00  0.00     0.005 A 
ATOM     32  C   UNL A   1      35.039  29.590  27.435  1.00  0.00     0.026 A 
ATOM     33  C   UNL A   1      33.268  31.221  27.613  1.00  0.00     0.026 A 
ENDBRANCH  24  27
ENDBRANCH  18  23
ENDBRANCH  14  17
ENDBRANCH   8  13
ENDBRANCH   4   7
ENDBRANCH   2   3
ENDBRANCH   1   2
BRANCH   1  34
ATOM     34  C   UNL A   1      37.327  23.291  24.302  1.00  0.00     0.023 C 
BRANCH  34  35
ATOM     35  C   UNL A   1      37.301  22.504  25.594  1.00  0.00     0.116 C 
BRANCH  35  36
ATOM     36  N   UNL A   1      38.586  21.950  26.011  1.00  0.00    -0.352 N 
ATOM     37  C   UNL A   1      39.704  22.654  26.445  1.00  0.00     0.251 C 
ATOM     38  H   UNL A   1      38.670  20.969  25.983  1.00  0.00     0.163 HD
ATOM     39  O   UNL A   1      40.774  22.107  26.632  1.00  0.00    -0.269 OA
BRANCH  37  40
ATOM     40  C   UNL A   1      39.514  24.099  26.733  1.00  0.00     0.039 A 
ATOM     41  C   UNL A   1      40.237  25.021  25.973  1.00  0.00     0.014 A 
ATOM     42  C   UNL A   1      38.954  24.465  27.949  1.00  0.00     0.014 A 
ATOM     43  C   UNL A   1      40.600  26.239  26.551  1.00  0.00     0.010 A 
ATOM     44  C   UNL A   1      39.456  25.588  28.575  1.00  0.00     0.010 A 
ATOM     45  C   UNL A   1      40.317  26.466  27.898  1.00  0.00    -0.014 A 
BRANCH  45  46
ATOM     46  C   UNL A   1      40.946  27.521  28.701  1.00  0.00     0.031 A 
ATOM     47  C   UNL A   1      40.140  28.715  29.120  1.00  0.00     0.074 A 
ATOM     48  C   UNL A   1      42.221  27.401  29.153  1.00  0.00     0.049 A 
ATOM     49  N   UNL A   1      40.638  29.837  29.527  1.00  0.00    -0.248 NA
ATOM     50  C   UNL A   1      38.680  28.748  29.077  1.00  0.00     0.031 C 
ATOM     51  C   UNL A   1      42.836  28.221  30.199  1.00  0.00     0.029 A 
ATOM     52  N   UNL A   1      43.298  26.628  28.705  1.00  0.00    -0.354 N 
ATOM     53  C   UNL A   1      39.619  30.606  30.053  1.00  0.00     0.074 A 
ATOM     54  C   UNL A   1      38.413  29.892  29.710  1.00  0.00     0.031 C 
ATOM     55  C   UNL A   1      44.168  28.154  30.079  1.00  0.00     0.029 A 
ATOM     56  C   UNL A   1      44.447  27.421  28.861  1.00  0.00     0.049 A 
ATOM     57  H   UNL A   1      43.258  25.711  28.350  1.00  0.00     0.167 HD
ATOM     58  C   UNL A   1      39.920  31.699  30.815  1.00  0.00     0.037 A 
ATOM     59  C   UNL A   1      45.264  27.871  27.861  1.00  0.00     0.037 A 
ATOM     60  C   UNL A   1      41.363  31.946  30.826  1.00  0.00     0.049 A 
ATOM     61  C   UNL A   1      45.422  29.384  27.827  1.00  0.00     0.074 A 
ATOM     62  C   UNL A   1      42.363  31.647  31.736  1.00  0.00     0.029 A 
ATOM     63  N   UNL A   1      42.002  32.344  29.657  1.00  0.00    -0.354 N 
ATOM     64  N   UNL A   1      44.687  30.204  28.526  1.00  0.00    -0.248 NA
ATOM     65  C   UNL A   1      46.370  30.098  26.970  1.00  0.00     0.031 C 
ATOM     66  C   UNL A   1      43.612  31.814  31.088  1.00  0.00     0.029 A 
ATOM     67  C   UNL A   1      43.372  32.226  29.789  1.00  0.00     0.049 A 
ATOM     68  H   UNL A   1      41.541  32.664  28.848  1.00  0.00     0.167 HD
ATOM     69  C   UNL A   1      44.974  31.500  28.182  1.00  0.00     0.074 A 
ATOM     70  C   UNL A   1      46.069  31.382  27.239  1.00  0.00     0.031 C 
ATOM     71  C   UNL A   1      44.258  32.552  28.679  1.00  0.00     0.037 A 
BRANCH  58  72
ATOM     72  C   UNL A   1      38.953  32.391  31.770  1.00  0.00     0.058 A 
ATOM     73  C   UNL A   1      38.503  31.737  32.941  1.00  0.00     0.135 A 
ATOM     74  C   UNL A   1      38.377  33.661  31.567  1.00  0.00     0.135 A 
ATOM     75  F   UNL A   1      39.036  30.577  33.347  1.00  0.00    -0.206 F 
ATOM     76  C   UNL A   1      37.480  32.236  33.754  1.00  0.00     0.059 A 
ATOM     77  C   UNL A   1      37.313  34.157  32.330  1.00  0.00     0.059 A 
ATOM     78  F   UNL A   1      38.865  34.515  30.661  1.00  0.00    -0.206 F 
ATOM     79  C   UNL A   1      36.858  33.428  33.417  1.00  0.00     0.060 A 
BRANCH  79  80
ATOM     80  S   UNL A   1      35.478  34.013  34.416  1.00  0.00     0.124 S 
ATOM     81  O   UNL A   1      34.400  33.116  34.008  1.00  0.00    -0.237 OA
ATOM     82  O   UNL A   1      35.981  33.827  35.772  1.00  0.00    -0.237 OA
ATOM     83  O   UNL A   1      35.317  35.402  33.993  1.00  0.00    -0.744 OA
ENDBRANCH  79  80
ENDBRANCH  58  72
BRANCH  59  84
ATOM     84  C   UNL A   1      45.340  26.983  26.677  1.00  0.00     0.058 A 
ATOM     85  C   UNL A   1      46.302  25.959  26.700  1.00  0.00     0.135 A 
ATOM     86  C   UNL A   1      44.248  26.842  25.811  1.00  0.00     0.135 A 
ATOM     87  F   UNL A   1      47.391  26.078  27.476  1.00  0.00    -0.206 F 
ATOM     88  C   UNL A   1      46.081  24.747  26.061  1.00  0.00     0.059 A 
ATOM     89  C   UNL A   1      44.011  25.637  25.150  1.00  0.00     0.059 A 
ATOM     90  F   UNL A   1      43.314  27.801  25.737  1.00  0.00    -0.206 F 
ATOM     91  C   UNL A   1      44.890  24.572  25.359  1.00  0.00     0.060 A 
BRANCH  91  92
ATOM     92  S   UNL A   1      44.411  22.880  24.933  1.00  0.00     0.124 S 
ATOM     93  O   UNL A   1      44.577  22.183  26.202  1.00  0.00    -0.237 OA
ATOM     94  O   UNL A   1      43.032  23.084  24.495  1.00  0.00    -0.237 OA
ATOM     95  O   UNL A   1      45.359  22.525  23.883  1.00  0.00    -0.744 OA
ENDBRANCH  91  92
ENDBRANCH  59  84
BRANCH  71  96
ATOM     96  C   UNL A   1      44.363  33.989  28.224  1.00  0.00     0.058 A 
ATOM     97  C   UNL A   1      43.938  34.450  26.966  1.00  0.00     0.135 A 
ATOM     98  C   UNL A   1      44.787  34.994  29.129  1.00  0.00     0.135 A 
ATOM     99  F   UNL A   1      43.409  33.614  26.062  1.00  0.00    -0.206 F 
ATOM    100  C   UNL A   1      43.994  35.799  26.603  1.00  0.00     0.059 A 
ATOM    101  C   UNL A   1      44.802  36.349  28.806  1.00  0.00     0.059 A 
ATOM    102  F   UNL A   1      45.196  34.686  30.369  1.00  0.00    -0.206 F 
ATOM    103  C   UNL A   1      44.430  36.742  27.529  1.00  0.00     0.060 A 
BRANCH 103 104
ATOM    104  S   UNL A   1      44.460  38.492  27.096  1.00  0.00     0.124 S 
ATOM    105  O   UNL A   1      43.135  38.670  26.510  1.00  0.00    -0.237 OA
ATOM    106  O   UNL A   1      44.669  39.146  28.385  1.00  0.00    -0.237 OA
ATOM    107  O   UNL A   1      45.581  38.582  26.167  1.00  0.00    -0.744 OA
ENDBRANCH 103 104
ENDBRANCH  71  96
ENDBRANCH  45  46
ENDBRANCH  37  40
ENDBRANCH  35  36
ENDBRANCH  34  35
ENDBRANCH   1  34
TORSDOF 18
ENDMDL
MODEL 3
REMARK VINA RESULT:     -13.6      2.191      3.955
REMARK SMILES Cc1ccc(NC(=O)c2ccccc2NC(=O)[C@H]2CCCC[C@H]2C(=O)NCCCCNC(=O)c2ccc(-c3c4nc(c(-c5c(F)cc(S(=O)(=O)[O-])cc5F)c5ccc([nH]5)c(-c5c(F)cc(S(=O)(=O)[O-])cc5F)c5nc(c(-c6c(F)cc(S(=O)(=O)[O-])cc6F)c6ccc3[nH]6)C=C5)C=C4)cc2)cc1
REMARK SMILES IDX 28 1 27 2 26 3 24 4 25 5 23 7 18 8 19 9 20 10 22 11 21 12
REMARK SMILES IDX 16 13 15 14 17 16 14 17 9 18 10 19 11 20 13 21 12 22 7 23
REMARK SMILES IDX 6 24 8 26 5 27 1 28 2 29 3 30 101 31 4 32 100 33 29 34 30 35
REMARK SMILES IDX 31 36 32 37 33 39 34 40 35 41 99 42 36 43 98 44 37 45 38 46
REMARK SMILES IDX 39 47 92 48 40 49 97 50 91 51 93 52 41 53 96 54 90 55 89 56
REMARK SMILES IDX 42 58 76 59 55 60 75 61 56 62 59 63 74 64 94 65 57 66 58 67
REMARK SMILES IDX 73 69 95 70 60 71 43 72 44 73 53 74 45 75 46 76 52 77 54 78
REMARK SMILES IDX 47 79 48 80 49 81 50 82 51 83 77 84 78 85 87 86 79 87 80 88
REMARK SMILES IDX 86 89 88 90 81 91 82 92 83 93 84 94 85 95 61 96 62 97 71 98
REMARK SMILES IDX 63 99 64 100 70 101 72 102 65 103 66 104 67 105 68 106
REMARK SMILES IDX 69 107
REMARK H PARENT 26 6 15 15 6 25 31 38 93 57 59 68
REMARK Flexibility Score: inf
ROOT
ATOM      1  C   UNL A   1      34.069  28.435  25.447  1.00  0.00     0.023 C 
ENDROOT
BRANCH   1   2
ATOM      2  C   UNL A   1      33.497  27.022  25.303  1.00  0.00     0.116 C 
BRANCH   2   3
ATOM      3  N   UNL A   1      33.745  26.491  23.967  1.00  0.00    -0.356 N 
ATOM      4  C   UNL A   1      33.478  25.310  23.362  1.00  0.00     0.223 C 
ATOM      5  O   UNL A   1      33.989  25.147  22.245  1.00  0.00    -0.275 OA
ATOM      6  H   UNL A   1      34.205  27.130  23.377  1.00  0.00     0.163 HD
BRANCH   4   7
ATOM      7  C   UNL A   1      32.657  24.158  23.952  1.00  0.00     0.091 C 
ATOM      8  C   UNL A   1      33.518  22.988  24.473  1.00  0.00     0.091 C 
ATOM      9  C   UNL A   1      32.637  21.774  24.831  1.00  0.00     0.014 C 
ATOM     10  C   UNL A   1      31.410  22.130  25.681  1.00  0.00     0.001 C 
ATOM     11  C   UNL A   1      31.437  24.509  24.805  1.00  0.00     0.014 C 
ATOM     12  C   UNL A   1      30.588  23.263  25.072  1.00  0.00     0.001 C 
BRANCH   8  13
ATOM     13  C   UNL A   1      34.318  23.352  25.699  1.00  0.00     0.228 C 
ATOM     14  N   UNL A   1      35.508  22.800  26.039  1.00  0.00    -0.325 N 
ATOM     15  H   UNL A   1      35.921  23.301  26.779  1.00  0.00     0.169 HD
ATOM     16  O   UNL A   1      33.910  24.245  26.449  1.00  0.00    -0.274 OA
BRANCH  14  17
ATOM     17  C   UNL A   1      36.332  21.730  25.655  1.00  0.00     0.054 A 
ATOM     18  C   UNL A   1      37.747  21.842  25.750  1.00  0.00     0.063 A 
ATOM     19  C   UNL A   1      38.549  20.777  25.282  1.00  0.00     0.016 A 
ATOM     20  C   UNL A   1      37.989  19.615  24.762  1.00  0.00     0.001 A 
ATOM     21  C   UNL A   1      35.793  20.521  25.194  1.00  0.00     0.027 A 
ATOM     22  C   UNL A   1      36.610  19.484  24.732  1.00  0.00     0.002 A 
BRANCH  18  23
ATOM     23  C   UNL A   1      38.555  23.051  26.115  1.00  0.00     0.257 C 
ATOM     24  N   UNL A   1      39.854  23.077  26.561  1.00  0.00    -0.322 N 
ATOM     25  H   UNL A   1      40.127  23.968  26.878  1.00  0.00     0.170 HD
ATOM     26  O   UNL A   1      37.978  24.144  26.053  1.00  0.00    -0.269 OA
BRANCH  24  27
ATOM     27  C   UNL A   1      40.879  22.131  26.670  1.00  0.00     0.041 A 
ATOM     28  C   UNL A   1      43.046  18.439  26.591  1.00  0.00     0.044 C 
ATOM     29  C   UNL A   1      42.406  19.790  26.706  1.00  0.00    -0.051 A 
ATOM     30  C   UNL A   1      42.618  20.763  25.718  1.00  0.00     0.005 A 
ATOM     31  C   UNL A   1      41.522  20.064  27.751  1.00  0.00     0.005 A 
ATOM     32  C   UNL A   1      41.868  21.942  25.710  1.00  0.00     0.026 A 
ATOM     33  C   UNL A   1      40.778  21.242  27.747  1.00  0.00     0.026 A 
ENDBRANCH  24  27
ENDBRANCH  18  23
ENDBRANCH  14  17
ENDBRANCH   8  13
ENDBRANCH   4   7
ENDBRANCH   2   3
ENDBRANCH   1   2
BRANCH   1  34
ATOM     34  C   UNL A   1      33.098  29.539  25.822  1.00  0.00     0.023 C 
BRANCH  34  35
ATOM     35  C   UNL A   1      33.037  29.794  27.312  1.00  0.00     0.116 C 
BRANCH  35  36
ATOM     36  N   UNL A   1      33.485  31.118  27.736  1.00  0.00    -0.352 N 
ATOM     37  C   UNL A   1      34.656  31.431  28.417  1.00  0.00     0.251 C 
ATOM     38  H   UNL A   1      32.893  31.873  27.514  1.00  0.00     0.163 HD
ATOM     39  O   UNL A   1      34.867  32.548  28.851  1.00  0.00    -0.269 OA
BRANCH  37  40
ATOM     40  C   UNL A   1      35.670  30.352  28.534  1.00  0.00     0.039 A 
ATOM     41  C   UNL A   1      35.872  29.773  29.789  1.00  0.00     0.014 A 
ATOM     42  C   UNL A   1      36.623  30.226  27.532  1.00  0.00     0.014 A 
ATOM     43  C   UNL A   1      37.136  29.274  30.110  1.00  0.00     0.010 A 
ATOM     44  C   UNL A   1      37.909  29.893  27.907  1.00  0.00     0.010 A 
ATOM     45  C   UNL A   1      38.188  29.453  29.211  1.00  0.00    -0.014 A 
BRANCH  45  46
ATOM     46  C   UNL A   1      39.604  29.306  29.567  1.00  0.00     0.031 A 
ATOM     47  C   UNL A   1      40.346  28.067  29.163  1.00  0.00     0.074 A 
ATOM     48  C   UNL A   1      40.287  30.308  30.179  1.00  0.00     0.049 A 
ATOM     49  N   UNL A   1      41.463  27.672  29.682  1.00  0.00    -0.248 NA
ATOM     50  C   UNL A   1      39.859  27.140  28.145  1.00  0.00     0.031 C 
ATOM     51  C   UNL A   1      41.744  30.399  30.297  1.00  0.00     0.029 A 
ATOM     52  N   UNL A   1      39.854  31.395  30.946  1.00  0.00    -0.354 N 
ATOM     53  C   UNL A   1      41.970  26.646  28.909  1.00  0.00     0.074 A 
ATOM     54  C   UNL A   1      40.908  26.330  27.986  1.00  0.00     0.031 C 
ATOM     55  C   UNL A   1      42.049  31.224  31.307  1.00  0.00     0.029 A 
ATOM     56  C   UNL A   1      40.805  31.563  31.967  1.00  0.00     0.049 A 
ATOM     57  H   UNL A   1      39.045  31.935  30.799  1.00  0.00     0.167 HD
ATOM     58  C   UNL A   1      43.271  26.259  29.067  1.00  0.00     0.037 A 
ATOM     59  C   UNL A   1      40.585  31.428  33.310  1.00  0.00     0.037 A 
ATOM     60  C   UNL A   1      43.892  26.962  30.191  1.00  0.00     0.049 A 
ATOM     61  C   UNL A   1      41.487  30.406  33.985  1.00  0.00     0.074 A 
ATOM     62  C   UNL A   1      44.724  28.066  30.269  1.00  0.00     0.029 A 
ATOM     63  N   UNL A   1      43.457  26.705  31.487  1.00  0.00    -0.354 N 
ATOM     64  N   UNL A   1      42.246  29.568  33.333  1.00  0.00    -0.248 NA
ATOM     65  C   UNL A   1      41.569  30.201  35.432  1.00  0.00     0.031 C 
ATOM     66  C   UNL A   1      44.743  28.509  31.615  1.00  0.00     0.029 A 
ATOM     67  C   UNL A   1      43.933  27.667  32.357  1.00  0.00     0.049 A 
ATOM     68  H   UNL A   1      42.888  25.946  31.747  1.00  0.00     0.167 HD
ATOM     69  C   UNL A   1      42.832  28.690  34.207  1.00  0.00     0.074 A 
ATOM     70  C   UNL A   1      42.416  29.158  35.514  1.00  0.00     0.031 C 
ATOM     71  C   UNL A   1      43.581  27.632  33.771  1.00  0.00     0.037 A 
BRANCH  58  72
ATOM     72  C   UNL A   1      44.070  25.452  28.050  1.00  0.00     0.058 A 
ATOM     73  C   UNL A   1      44.727  26.094  26.973  1.00  0.00     0.135 A 
ATOM     74  C   UNL A   1      44.181  24.047  28.031  1.00  0.00     0.135 A 
ATOM     75  F   UNL A   1      44.822  27.428  26.903  1.00  0.00    -0.206 F 
ATOM     76  C   UNL A   1      45.313  25.402  25.909  1.00  0.00     0.059 A 
ATOM     77  C   UNL A   1      44.711  23.329  26.952  1.00  0.00     0.059 A 
ATOM     78  F   UNL A   1      43.843  23.303  29.089  1.00  0.00    -0.206 F 
ATOM     79  C   UNL A   1      45.263  24.016  25.883  1.00  0.00     0.060 A 
BRANCH  79  80
ATOM     80  S   UNL A   1      45.938  23.138  24.462  1.00  0.00     0.124 S 
ATOM     81  O   UNL A   1      44.757  22.959  23.622  1.00  0.00    -0.237 OA
ATOM     82  O   UNL A   1      46.934  24.079  23.966  1.00  0.00    -0.237 OA
ATOM     83  O   UNL A   1      46.472  21.910  25.044  1.00  0.00    -0.744 OA
ENDBRANCH  79  80
ENDBRANCH  58  72
BRANCH  59  84
ATOM     84  C   UNL A   1      39.210  31.766  33.748  1.00  0.00     0.058 A 
ATOM     85  C   UNL A   1      38.914  33.125  33.950  1.00  0.00     0.135 A 
ATOM     86  C   UNL A   1      38.143  30.887  33.521  1.00  0.00     0.135 A 
ATOM     87  F   UNL A   1      39.900  33.994  34.224  1.00  0.00    -0.206 F 
ATOM     88  C   UNL A   1      37.642  33.629  33.716  1.00  0.00     0.059 A 
ATOM     89  C   UNL A   1      36.855  31.369  33.292  1.00  0.00     0.059 A 
ATOM     90  F   UNL A   1      38.372  29.578  33.344  1.00  0.00    -0.206 F 
ATOM     91  C   UNL A   1      36.643  32.750  33.306  1.00  0.00     0.060 A 
BRANCH  91  92
ATOM     92  S   UNL A   1      35.150  33.462  32.572  1.00  0.00     0.124 S 
ATOM     93  O   UNL A   1      34.458  32.280  32.073  1.00  0.00    -0.237 OA
ATOM     94  O   UNL A   1      34.548  34.106  33.736  1.00  0.00    -0.237 OA
ATOM     95  O   UNL A   1      35.682  34.364  31.557  1.00  0.00    -0.744 OA
ENDBRANCH  91  92
ENDBRANCH  59  84
BRANCH  71  96
ATOM     96  C   UNL A   1      44.107  26.506  34.629  1.00  0.00     0.058 A 
ATOM     97  C   UNL A   1      43.363  25.365  34.975  1.00  0.00     0.135 A 
ATOM     98  C   UNL A   1      45.468  26.488  35.025  1.00  0.00     0.135 A 
ATOM     99  F   UNL A   1      42.097  25.209  34.562  1.00  0.00    -0.206 F 
ATOM    100  C   UNL A   1      43.904  24.314  35.720  1.00  0.00     0.059 A 
ATOM    101  C   UNL A   1      46.042  25.428  35.723  1.00  0.00     0.059 A 
ATOM    102  F   UNL A   1      46.290  27.508  34.735  1.00  0.00    -0.206 F 
ATOM    103  C   UNL A   1      45.245  24.354  36.092  1.00  0.00     0.060 A 
BRANCH 103 104
ATOM    104  S   UNL A   1      45.974  22.983  37.008  1.00  0.00     0.124 S 
ATOM    105  O   UNL A   1      47.387  23.129  36.677  1.00  0.00    -0.237 OA
ATOM    106  O   UNL A   1      45.620  23.287  38.392  1.00  0.00    -0.237 OA
ATOM    107  O   UNL A   1      45.307  21.817  36.441  1.00  0.00    -0.744 OA
ENDBRANCH 103 104
ENDBRANCH  71  96
ENDBRANCH  45  46
ENDBRANCH  37  40
ENDBRANCH  35  36
ENDBRANCH  34  35
ENDBRANCH   1  34
TORSDOF 18
ENDMDL
