MODEL 1
REMARK VINA RESULT:     -10.4      0.000      0.000
REMARK SMILES CC[C@@](C)([NH2+]CC(=O)N[C@@H](C)C(C)C)C(=O)NCCCCNC(=O)c1ccc(-c2c3nc(c(-c4c(F)cc(S(=O)(=O)[O-])cc4F)c4ccc([nH]4)c(-c4c(F)cc(S(=O)(=O)[O-])cc4F)c4nc(c(-c5c(F)cc(S(=O)(=O)[O-])cc5F)c5ccc2[nH]5)C=C4)C=C3)cc1
REMARK SMILES IDX 18 1 17 2 15 3 16 4 3 6 4 7 2 8 1 9 5 10 6 13 7 14 8 15 9 16
REMARK SMILES IDX 10 18 11 19 12 20 13 21 14 22 19 23 20 24 21 25 22 26 23 27
REMARK SMILES IDX 24 29 25 30 26 31 90 32 27 33 89 34 28 35 29 36 30 37 83 38
REMARK SMILES IDX 31 39 88 40 82 41 84 42 32 43 87 44 81 45 80 46 33 48 67 49
REMARK SMILES IDX 46 50 66 51 47 52 50 53 65 54 85 55 48 56 49 57 64 59 86 60
REMARK SMILES IDX 51 61 34 62 35 63 44 64 36 65 37 66 43 67 45 68 38 69 39 70
REMARK SMILES IDX 40 71 41 72 42 73 68 74 69 75 78 76 70 77 71 78 77 79 79 80
REMARK SMILES IDX 72 81 73 82 74 83 75 84 76 85 52 86 53 87 62 88 54 89 55 90
REMARK SMILES IDX 61 91 63 92 56 93 57 94 58 95 59 96 60 97
REMARK H PARENT 17 5 5 11 5 12 9 17 22 28 84 47 50 58
REMARK Flexibility Score: inf
ROOT
ATOM      1  C   UNL A   1      34.341  30.337  27.515  1.00  0.00     0.116 C 
ENDROOT
BRANCH   1   2
ATOM      2  N   UNL A   1      33.951  30.086  26.125  1.00  0.00    -0.351 N 
ATOM      3  C   UNL A   1      32.655  29.708  25.805  1.00  0.00     0.281 C 
ATOM      4  O   UNL A   1      31.774  30.570  25.791  1.00  0.00    -0.268 OA
ATOM      5  H   UNL A   1      34.619  30.187  25.409  1.00  0.00     0.163 HD
BRANCH   3   6
ATOM      6  C   UNL A   1      32.409  28.246  25.244  1.00  0.00     0.172 C 
ATOM      7  C   UNL A   1      33.558  27.229  25.225  1.00  0.00     0.090 C 
BRANCH   6   8
ATOM      8  C   UNL A   1      31.357  27.644  26.245  1.00  0.00     0.075 C 
ATOM      9  C   UNL A   1      31.627  28.010  27.722  1.00  0.00     0.011 C 
ENDBRANCH   6   8
BRANCH   6  10
ATOM     10  N   UNL A   1      31.899  28.270  23.863  1.00  0.00    -0.326 N 
ATOM     11  H   UNL A   1      32.645  28.658  23.284  1.00  0.00     0.347 HD
ATOM     12  H   UNL A   1      31.034  28.805  23.950  1.00  0.00     0.347 HD
BRANCH  10  13
ATOM     13  C   UNL A   1      31.451  27.026  23.197  1.00  0.00     0.362 C 
BRANCH  13  14
ATOM     14  C   UNL A   1      30.199  26.177  23.563  1.00  0.00     0.275 C 
ATOM     15  O   UNL A   1      29.114  26.774  23.665  1.00  0.00    -0.268 OA
ATOM     16  N   UNL A   1      30.081  24.808  23.563  1.00  0.00    -0.349 N 
ATOM     17  H   UNL A   1      29.300  24.485  23.058  1.00  0.00     0.163 HD
BRANCH  16  18
ATOM     18  C   UNL A   1      30.876  23.719  24.160  1.00  0.00     0.081 C 
ATOM     19  C   UNL A   1      32.049  23.372  23.215  1.00  0.00     0.031 C 
BRANCH  18  20
ATOM     20  C   UNL A   1      31.488  23.981  25.571  1.00  0.00     0.005 C 
ATOM     21  C   UNL A   1      30.819  23.272  26.744  1.00  0.00     0.009 C 
ATOM     22  C   UNL A   1      32.990  23.631  25.583  1.00  0.00     0.009 C 
ENDBRANCH  18  20
ENDBRANCH  16  18
ENDBRANCH  13  14
ENDBRANCH  10  13
ENDBRANCH   6  10
ENDBRANCH   3   6
ENDBRANCH   1   2
BRANCH   1  23
ATOM     23  C   UNL A   1      34.219  31.815  27.918  1.00  0.00     0.023 C 
BRANCH  23  24
ATOM     24  C   UNL A   1      35.551  32.557  28.033  1.00  0.00     0.023 C 
BRANCH  24  25
ATOM     25  C   UNL A   1      36.228  32.529  29.400  1.00  0.00     0.116 C 
BRANCH  25  26
ATOM     26  N   UNL A   1      35.833  31.421  30.254  1.00  0.00    -0.352 N 
ATOM     27  C   UNL A   1      36.591  30.317  30.616  1.00  0.00     0.251 C 
ATOM     28  H   UNL A   1      34.919  31.458  30.620  1.00  0.00     0.163 HD
ATOM     29  O   UNL A   1      36.123  29.429  31.293  1.00  0.00    -0.269 OA
BRANCH  27  30
ATOM     30  C   UNL A   1      37.983  30.224  30.105  1.00  0.00     0.039 A 
ATOM     31  C   UNL A   1      39.040  30.286  31.016  1.00  0.00     0.014 A 
ATOM     32  C   UNL A   1      38.229  29.982  28.752  1.00  0.00     0.014 A 
ATOM     33  C   UNL A   1      40.341  30.007  30.583  1.00  0.00     0.010 A 
ATOM     34  C   UNL A   1      39.516  29.644  28.335  1.00  0.00     0.010 A 
ATOM     35  C   UNL A   1      40.581  29.631  29.251  1.00  0.00    -0.014 A 
BRANCH  35  36
ATOM     36  C   UNL A   1      41.929  29.184  28.808  1.00  0.00     0.031 A 
ATOM     37  C   UNL A   1      43.063  30.167  28.706  1.00  0.00     0.074 A 
ATOM     38  C   UNL A   1      42.115  27.902  28.428  1.00  0.00     0.049 A 
ATOM     39  N   UNL A   1      44.286  29.974  28.286  1.00  0.00    -0.248 NA
ATOM     40  C   UNL A   1      42.775  31.555  29.102  1.00  0.00     0.031 C 
ATOM     41  C   UNL A   1      41.083  26.861  28.423  1.00  0.00     0.029 A 
ATOM     42  N   UNL A   1      43.233  27.257  27.960  1.00  0.00    -0.354 N 
ATOM     43  C   UNL A   1      44.910  31.214  28.351  1.00  0.00     0.074 A 
ATOM     44  C   UNL A   1      43.915  32.162  28.808  1.00  0.00     0.031 C 
ATOM     45  C   UNL A   1      41.623  25.707  28.000  1.00  0.00     0.029 A 
ATOM     46  C   UNL A   1      43.028  25.928  27.670  1.00  0.00     0.049 A 
ATOM     47  H   UNL A   1      44.102  27.705  27.842  1.00  0.00     0.167 HD
ATOM     48  C   UNL A   1      46.198  31.532  28.078  1.00  0.00     0.037 A 
ATOM     49  C   UNL A   1      43.873  24.993  27.194  1.00  0.00     0.037 A 
ATOM     50  C   UNL A   1      47.195  30.582  27.655  1.00  0.00     0.049 A 
ATOM     51  C   UNL A   1      45.303  25.366  26.913  1.00  0.00     0.074 A 
ATOM     52  C   UNL A   1      48.542  30.795  27.423  1.00  0.00     0.029 A 
ATOM     53  N   UNL A   1      46.953  29.240  27.400  1.00  0.00    -0.354 N 
ATOM     54  N   UNL A   1      45.892  26.530  27.051  1.00  0.00    -0.248 NA
ATOM     55  C   UNL A   1      46.185  24.300  26.417  1.00  0.00     0.031 C 
ATOM     56  C   UNL A   1      49.109  29.590  26.993  1.00  0.00     0.029 A 
ATOM     57  C   UNL A   1      48.122  28.617  26.996  1.00  0.00     0.049 A 
ATOM     58  H   UNL A   1      46.079  28.796  27.493  1.00  0.00     0.167 HD
ATOM     59  C   UNL A   1      47.220  26.329  26.687  1.00  0.00     0.074 A 
ATOM     60  C   UNL A   1      47.348  24.931  26.330  1.00  0.00     0.031 C 
ATOM     61  C   UNL A   1      48.239  27.221  26.654  1.00  0.00     0.037 A 
BRANCH  48  62
ATOM     62  C   UNL A   1      46.608  32.969  28.237  1.00  0.00     0.058 A 
ATOM     63  C   UNL A   1      47.140  33.453  29.443  1.00  0.00     0.135 A 
ATOM     64  C   UNL A   1      46.499  33.867  27.163  1.00  0.00     0.135 A 
ATOM     65  F   UNL A   1      47.253  32.640  30.506  1.00  0.00    -0.206 F 
ATOM     66  C   UNL A   1      47.519  34.783  29.589  1.00  0.00     0.059 A 
ATOM     67  C   UNL A   1      46.897  35.195  27.278  1.00  0.00     0.059 A 
ATOM     68  F   UNL A   1      45.998  33.456  25.987  1.00  0.00    -0.206 F 
ATOM     69  C   UNL A   1      47.391  35.648  28.501  1.00  0.00     0.060 A 
BRANCH  69  70
ATOM     70  S   UNL A   1      47.887  37.372  28.706  1.00  0.00     0.124 S 
ATOM     71  O   UNL A   1      46.855  38.062  27.939  1.00  0.00    -0.237 OA
ATOM     72  O   UNL A   1      47.823  37.546  30.154  1.00  0.00    -0.237 OA
ATOM     73  O   UNL A   1      49.228  37.409  28.132  1.00  0.00    -0.744 OA
ENDBRANCH  69  70
ENDBRANCH  48  62
BRANCH  49  74
ATOM     74  C   UNL A   1      43.399  23.598  26.981  1.00  0.00     0.058 A 
ATOM     75  C   UNL A   1      43.224  22.725  28.065  1.00  0.00     0.135 A 
ATOM     76  C   UNL A   1      43.110  23.113  25.697  1.00  0.00     0.135 A 
ATOM     77  F   UNL A   1      43.495  23.142  29.311  1.00  0.00    -0.206 F 
ATOM     78  C   UNL A   1      42.797  21.414  27.884  1.00  0.00     0.059 A 
ATOM     79  C   UNL A   1      42.660  21.811  25.492  1.00  0.00     0.059 A 
ATOM     80  F   UNL A   1      43.246  23.913  24.628  1.00  0.00    -0.206 F 
ATOM     81  C   UNL A   1      42.516  20.966  26.592  1.00  0.00     0.060 A 
BRANCH  81  82
ATOM     82  S   UNL A   1      41.918  19.276  26.371  1.00  0.00     0.124 S 
ATOM     83  O   UNL A   1      42.200  18.692  27.677  1.00  0.00    -0.237 OA
ATOM     84  O   UNL A   1      40.509  19.487  26.056  1.00  0.00    -0.237 OA
ATOM     85  O   UNL A   1      42.731  18.777  25.265  1.00  0.00    -0.744 OA
ENDBRANCH  81  82
ENDBRANCH  49  74
BRANCH  61  86
ATOM     86  C   UNL A   1      49.594  26.711  26.250  1.00  0.00     0.058 A 
ATOM     87  C   UNL A   1      50.053  26.806  24.928  1.00  0.00     0.135 A 
ATOM     88  C   UNL A   1      50.465  26.172  27.210  1.00  0.00     0.135 A 
ATOM     89  F   UNL A   1      49.256  27.307  23.970  1.00  0.00    -0.206 F 
ATOM     90  C   UNL A   1      51.322  26.365  24.566  1.00  0.00     0.059 A 
ATOM     91  C   UNL A   1      51.747  25.747  26.877  1.00  0.00     0.059 A 
ATOM     92  F   UNL A   1      50.078  26.068  28.492  1.00  0.00    -0.206 F 
ATOM     93  C   UNL A   1      52.163  25.838  25.548  1.00  0.00     0.060 A 
BRANCH  93  94
ATOM     94  S   UNL A   1      53.822  25.305  25.077  1.00  0.00     0.124 S 
ATOM     95  O   UNL A   1      54.090  26.161  23.926  1.00  0.00    -0.237 OA
ATOM     96  O   UNL A   1      54.599  25.597  26.278  1.00  0.00    -0.237 OA
ATOM     97  O   UNL A   1      53.651  23.886  24.779  1.00  0.00    -0.744 OA
ENDBRANCH  93  94
ENDBRANCH  61  86
ENDBRANCH  35  36
ENDBRANCH  27  30
ENDBRANCH  25  26
ENDBRANCH  24  25
ENDBRANCH  23  24
ENDBRANCH   1  23
TORSDOF 20
ENDMDL
MODEL 2
REMARK VINA RESULT:     -10.3      2.583      8.762
REMARK SMILES CC[C@@](C)([NH2+]CC(=O)N[C@@H](C)C(C)C)C(=O)NCCCCNC(=O)c1ccc(-c2c3nc(c(-c4c(F)cc(S(=O)(=O)[O-])cc4F)c4ccc([nH]4)c(-c4c(F)cc(S(=O)(=O)[O-])cc4F)c4nc(c(-c5c(F)cc(S(=O)(=O)[O-])cc5F)c5ccc2[nH]5)C=C4)C=C3)cc1
REMARK SMILES IDX 18 1 17 2 15 3 16 4 3 6 4 7 2 8 1 9 5 10 6 13 7 14 8 15 9 16
REMARK SMILES IDX 10 18 11 19 12 20 13 21 14 22 19 23 20 24 21 25 22 26 23 27
REMARK SMILES IDX 24 29 25 30 26 31 90 32 27 33 89 34 28 35 29 36 30 37 83 38
REMARK SMILES IDX 31 39 88 40 82 41 84 42 32 43 87 44 81 45 80 46 33 48 67 49
REMARK SMILES IDX 46 50 66 51 47 52 50 53 65 54 85 55 48 56 49 57 64 59 86 60
REMARK SMILES IDX 51 61 34 62 35 63 44 64 36 65 37 66 43 67 45 68 38 69 39 70
REMARK SMILES IDX 40 71 41 72 42 73 68 74 69 75 78 76 70 77 71 78 77 79 79 80
REMARK SMILES IDX 72 81 73 82 74 83 75 84 76 85 52 86 53 87 62 88 54 89 55 90
REMARK SMILES IDX 61 91 63 92 56 93 57 94 58 95 59 96 60 97
REMARK H PARENT 17 5 5 11 5 12 9 17 22 28 84 47 50 58
REMARK Flexibility Score: inf
ROOT
ATOM      1  C   UNL A   1      36.170  22.939  24.800  1.00  0.00     0.116 C 
ENDROOT
BRANCH   1   2
ATOM      2  N   UNL A   1      35.407  22.225  23.773  1.00  0.00    -0.351 N 
ATOM      3  C   UNL A   1      34.228  22.750  23.265  1.00  0.00     0.281 C 
ATOM      4  O   UNL A   1      34.295  23.662  22.438  1.00  0.00    -0.268 OA
ATOM      5  H   UNL A   1      35.736  21.359  23.440  1.00  0.00     0.163 HD
BRANCH   3   6
ATOM      6  C   UNL A   1      32.866  22.005  23.585  1.00  0.00     0.172 C 
ATOM      7  C   UNL A   1      32.131  21.241  22.475  1.00  0.00     0.090 C 
BRANCH   6   8
ATOM      8  C   UNL A   1      33.291  20.898  24.618  1.00  0.00     0.075 C 
ATOM      9  C   UNL A   1      32.729  19.495  24.289  1.00  0.00     0.011 C 
ENDBRANCH   6   8
BRANCH   6  10
ATOM     10  N   UNL A   1      31.861  22.922  24.147  1.00  0.00    -0.326 N 
ATOM     11  H   UNL A   1      31.104  22.977  23.465  1.00  0.00     0.347 HD
ATOM     12  H   UNL A   1      32.403  23.768  24.329  1.00  0.00     0.347 HD
BRANCH  10  13
ATOM     13  C   UNL A   1      31.231  22.646  25.458  1.00  0.00     0.362 C 
BRANCH  13  14
ATOM     14  C   UNL A   1      30.792  23.699  26.516  1.00  0.00     0.275 C 
ATOM     15  O   UNL A   1      30.139  23.291  27.492  1.00  0.00    -0.268 OA
ATOM     16  N   UNL A   1      31.228  24.997  26.644  1.00  0.00    -0.349 N 
ATOM     17  H   UNL A   1      31.527  25.217  27.556  1.00  0.00     0.163 HD
BRANCH  16  18
ATOM     18  C   UNL A   1      31.342  26.128  25.706  1.00  0.00     0.081 C 
ATOM     19  C   UNL A   1      29.974  26.359  25.023  1.00  0.00     0.031 C 
BRANCH  18  20
ATOM     20  C   UNL A   1      31.794  27.498  26.300  1.00  0.00     0.005 C 
ATOM     21  C   UNL A   1      33.269  27.627  26.664  1.00  0.00     0.009 C 
ATOM     22  C   UNL A   1      31.425  28.651  25.343  1.00  0.00     0.009 C 
ENDBRANCH  18  20
ENDBRANCH  16  18
ENDBRANCH  13  14
ENDBRANCH  10  13
ENDBRANCH   6  10
ENDBRANCH   3   6
ENDBRANCH   1   2
BRANCH   1  23
ATOM     23  C   UNL A   1      36.844  22.002  25.814  1.00  0.00     0.023 C 
BRANCH  23  24
ATOM     24  C   UNL A   1      37.983  21.158  25.244  1.00  0.00     0.023 C 
BRANCH  24  25
ATOM     25  C   UNL A   1      39.261  21.091  26.076  1.00  0.00     0.116 C 
BRANCH  25  26
ATOM     26  N   UNL A   1      40.004  19.848  25.954  1.00  0.00    -0.352 N 
ATOM     27  C   UNL A   1      41.376  19.667  26.050  1.00  0.00     0.251 C 
ATOM     28  H   UNL A   1      39.471  19.038  25.783  1.00  0.00     0.163 HD
ATOM     29  O   UNL A   1      41.880  18.581  25.872  1.00  0.00    -0.269 OA
BRANCH  27  30
ATOM     30  C   UNL A   1      42.223  20.856  26.325  1.00  0.00     0.039 A 
ATOM     31  C   UNL A   1      42.689  21.615  25.250  1.00  0.00     0.014 A 
ATOM     32  C   UNL A   1      42.470  21.264  27.638  1.00  0.00     0.014 A 
ATOM     33  C   UNL A   1      43.320  22.840  25.492  1.00  0.00     0.010 A 
ATOM     34  C   UNL A   1      43.042  22.512  27.876  1.00  0.00     0.010 A 
ATOM     35  C   UNL A   1      43.454  23.323  26.805  1.00  0.00    -0.014 A 
BRANCH  35  36
ATOM     36  C   UNL A   1      43.983  24.687  27.073  1.00  0.00     0.031 A 
ATOM     37  C   UNL A   1      43.064  25.783  27.540  1.00  0.00     0.074 A 
ATOM     38  C   UNL A   1      45.281  24.961  26.824  1.00  0.00     0.049 A 
ATOM     39  N   UNL A   1      43.330  27.042  27.768  1.00  0.00    -0.248 NA
ATOM     40  C   UNL A   1      41.654  25.419  27.754  1.00  0.00     0.031 C 
ATOM     41  C   UNL A   1      46.266  24.003  26.313  1.00  0.00     0.029 A 
ATOM     42  N   UNL A   1      45.995  26.126  26.956  1.00  0.00    -0.354 N 
ATOM     43  C   UNL A   1      42.124  27.626  28.135  1.00  0.00     0.074 A 
ATOM     44  C   UNL A   1      41.115  26.591  28.055  1.00  0.00     0.031 C 
ATOM     45  C   UNL A   1      47.457  24.613  26.199  1.00  0.00     0.029 A 
ATOM     46  C   UNL A   1      47.318  26.011  26.597  1.00  0.00     0.049 A 
ATOM     47  H   UNL A   1      45.597  26.967  27.279  1.00  0.00     0.167 HD
ATOM     48  C   UNL A   1      41.881  28.900  28.525  1.00  0.00     0.037 A 
ATOM     49  C   UNL A   1      48.308  26.926  26.587  1.00  0.00     0.037 A 
ATOM     50  C   UNL A   1      42.893  29.920  28.636  1.00  0.00     0.049 A 
ATOM     51  C   UNL A   1      48.017  28.331  27.040  1.00  0.00     0.074 A 
ATOM     52  C   UNL A   1      42.756  31.220  29.090  1.00  0.00     0.029 A 
ATOM     53  N   UNL A   1      44.225  29.756  28.288  1.00  0.00    -0.354 N 
ATOM     54  N   UNL A   1      46.883  28.845  27.454  1.00  0.00    -0.248 NA
ATOM     55  C   UNL A   1      49.139  29.280  27.030  1.00  0.00     0.031 C 
ATOM     56  C   UNL A   1      43.999  31.854  28.984  1.00  0.00     0.029 A 
ATOM     57  C   UNL A   1      44.918  30.936  28.502  1.00  0.00     0.049 A 
ATOM     58  H   UNL A   1      44.620  28.923  27.942  1.00  0.00     0.167 HD
ATOM     59  C   UNL A   1      47.162  30.168  27.781  1.00  0.00     0.074 A 
ATOM     60  C   UNL A   1      48.573  30.373  27.524  1.00  0.00     0.031 C 
ATOM     61  C   UNL A   1      46.326  31.124  28.253  1.00  0.00     0.037 A 
BRANCH  48  62
ATOM     62  C   UNL A   1      40.464  29.263  28.872  1.00  0.00     0.058 A 
ATOM     63  C   UNL A   1      40.055  29.439  30.202  1.00  0.00     0.135 A 
ATOM     64  C   UNL A   1      39.511  29.468  27.860  1.00  0.00     0.135 A 
ATOM     65  F   UNL A   1      40.922  29.241  31.208  1.00  0.00    -0.206 F 
ATOM     66  C   UNL A   1      38.744  29.775  30.521  1.00  0.00     0.059 A 
ATOM     67  C   UNL A   1      38.201  29.831  28.155  1.00  0.00     0.059 A 
ATOM     68  F   UNL A   1      39.851  29.314  26.570  1.00  0.00    -0.206 F 
ATOM     69  C   UNL A   1      37.822  29.966  29.490  1.00  0.00     0.060 A 
BRANCH  69  70
ATOM     70  S   UNL A   1      36.123  30.401  29.920  1.00  0.00     0.124 S 
ATOM     71  O   UNL A   1      35.376  29.726  28.864  1.00  0.00    -0.237 OA
ATOM     72  O   UNL A   1      35.983  29.833  31.258  1.00  0.00    -0.237 OA
ATOM     73  O   UNL A   1      36.121  31.859  29.857  1.00  0.00    -0.744 OA
ENDBRANCH  69  70
ENDBRANCH  48  62
BRANCH  49  74
ATOM     74  C   UNL A   1      49.679  26.536  26.163  1.00  0.00     0.058 A 
ATOM     75  C   UNL A   1      50.151  26.849  24.879  1.00  0.00     0.135 A 
ATOM     76  C   UNL A   1      50.544  25.848  27.028  1.00  0.00     0.135 A 
ATOM     77  F   UNL A   1      49.358  27.499  24.014  1.00  0.00    -0.206 F 
ATOM     78  C   UNL A   1      51.424  26.480  24.460  1.00  0.00     0.059 A 
ATOM     79  C   UNL A   1      51.831  25.488  26.639  1.00  0.00     0.059 A 
ATOM     80  F   UNL A   1      50.146  25.539  28.272  1.00  0.00    -0.206 F 
ATOM     81  C   UNL A   1      52.259  25.799  25.348  1.00  0.00     0.060 A 
BRANCH  81  82
ATOM     82  S   UNL A   1      53.928  25.363  24.811  1.00  0.00     0.124 S 
ATOM     83  O   UNL A   1      53.918  23.914  24.970  1.00  0.00    -0.237 OA
ATOM     84  O   UNL A   1      53.947  25.856  23.438  1.00  0.00    -0.237 OA
ATOM     85  O   UNL A   1      54.779  26.096  25.743  1.00  0.00    -0.744 OA
ENDBRANCH  81  82
ENDBRANCH  49  74
BRANCH  61  86
ATOM     86  C   UNL A   1      46.916  32.472  28.556  1.00  0.00     0.058 A 
ATOM     87  C   UNL A   1      46.975  33.486  27.589  1.00  0.00     0.135 A 
ATOM     88  C   UNL A   1      47.378  32.770  29.848  1.00  0.00     0.135 A 
ATOM     89  F   UNL A   1      46.553  33.250  26.336  1.00  0.00    -0.206 F 
ATOM     90  C   UNL A   1      47.489  34.744  27.885  1.00  0.00     0.059 A 
ATOM     91  C   UNL A   1      47.873  34.028  30.175  1.00  0.00     0.059 A 
ATOM     92  F   UNL A   1      47.335  31.838  30.814  1.00  0.00    -0.206 F 
ATOM     93  C   UNL A   1      47.935  35.007  29.182  1.00  0.00     0.060 A 
BRANCH  93  94
ATOM     94  S   UNL A   1      48.565  36.655  29.568  1.00  0.00     0.124 S 
ATOM     95  O   UNL A   1      49.654  36.345  30.487  1.00  0.00    -0.237 OA
ATOM     96  O   UNL A   1      48.966  37.152  28.255  1.00  0.00    -0.237 OA
ATOM     97  O   UNL A   1      47.413  37.327  30.161  1.00  0.00    -0.744 OA
ENDBRANCH  93  94
ENDBRANCH  61  86
ENDBRANCH  35  36
ENDBRANCH  27  30
ENDBRANCH  25  26
ENDBRANCH  24  25
ENDBRANCH  23  24
ENDBRANCH   1  23
TORSDOF 20
ENDMDL
MODEL 3
REMARK VINA RESULT:      -9.9      2.684      8.576
REMARK SMILES CC[C@@](C)([NH2+]CC(=O)N[C@@H](C)C(C)C)C(=O)NCCCCNC(=O)c1ccc(-c2c3nc(c(-c4c(F)cc(S(=O)(=O)[O-])cc4F)c4ccc([nH]4)c(-c4c(F)cc(S(=O)(=O)[O-])cc4F)c4nc(c(-c5c(F)cc(S(=O)(=O)[O-])cc5F)c5ccc2[nH]5)C=C4)C=C3)cc1
REMARK SMILES IDX 18 1 17 2 15 3 16 4 3 6 4 7 2 8 1 9 5 10 6 13 7 14 8 15 9 16
REMARK SMILES IDX 10 18 11 19 12 20 13 21 14 22 19 23 20 24 21 25 22 26 23 27
REMARK SMILES IDX 24 29 25 30 26 31 90 32 27 33 89 34 28 35 29 36 30 37 83 38
REMARK SMILES IDX 31 39 88 40 82 41 84 42 32 43 87 44 81 45 80 46 33 48 67 49
REMARK SMILES IDX 46 50 66 51 47 52 50 53 65 54 85 55 48 56 49 57 64 59 86 60
REMARK SMILES IDX 51 61 34 62 35 63 44 64 36 65 37 66 43 67 45 68 38 69 39 70
REMARK SMILES IDX 40 71 41 72 42 73 68 74 69 75 78 76 70 77 71 78 77 79 79 80
REMARK SMILES IDX 72 81 73 82 74 83 75 84 76 85 52 86 53 87 62 88 54 89 55 90
REMARK SMILES IDX 61 91 63 92 56 93 57 94 58 95 59 96 60 97
REMARK H PARENT 17 5 5 11 5 12 9 17 22 28 84 47 50 58
REMARK Flexibility Score: inf
ROOT
ATOM      1  C   UNL A   1      36.586  23.176  24.771  1.00  0.00     0.116 C 
ENDROOT
BRANCH   1   2
ATOM      2  N   UNL A   1      36.009  24.223  25.618  1.00  0.00    -0.351 N 
ATOM      3  C   UNL A   1      34.669  24.195  25.973  1.00  0.00     0.281 C 
ATOM      4  O   UNL A   1      34.307  23.419  26.860  1.00  0.00    -0.268 OA
ATOM      5  H   UNL A   1      36.582  24.957  25.940  1.00  0.00     0.163 HD
BRANCH   3   6
ATOM      6  C   UNL A   1      33.709  25.319  25.399  1.00  0.00     0.172 C 
ATOM      7  C   UNL A   1      34.184  26.777  25.343  1.00  0.00     0.090 C 
BRANCH   6   8
ATOM      8  C   UNL A   1      33.520  24.902  23.894  1.00  0.00     0.075 C 
ATOM      9  C   UNL A   1      33.464  26.103  22.921  1.00  0.00     0.011 C 
ENDBRANCH   6   8
BRANCH   6  10
ATOM     10  N   UNL A   1      32.427  25.362  26.120  1.00  0.00    -0.326 N 
ATOM     11  H   UNL A   1      32.048  26.300  25.984  1.00  0.00     0.347 HD
ATOM     12  H   UNL A   1      32.689  25.085  27.067  1.00  0.00     0.347 HD
BRANCH  10  13
ATOM     13  C   UNL A   1      31.338  24.414  25.790  1.00  0.00     0.362 C 
BRANCH  13  14
ATOM     14  C   UNL A   1      31.109  23.010  26.418  1.00  0.00     0.275 C 
ATOM     15  O   UNL A   1      30.535  22.963  27.520  1.00  0.00    -0.268 OA
ATOM     16  N   UNL A   1      31.246  21.783  25.812  1.00  0.00    -0.349 N 
ATOM     17  H   UNL A   1      30.458  21.204  25.926  1.00  0.00     0.163 HD
BRANCH  16  18
ATOM     18  C   UNL A   1      32.323  21.152  25.028  1.00  0.00     0.081 C 
ATOM     19  C   UNL A   1      32.805  19.880  25.763  1.00  0.00     0.031 C 
BRANCH  18  20
ATOM     20  C   UNL A   1      31.980  20.732  23.565  1.00  0.00     0.005 C 
ATOM     21  C   UNL A   1      32.447  21.675  22.461  1.00  0.00     0.009 C 
ATOM     22  C   UNL A   1      32.526  19.321  23.264  1.00  0.00     0.009 C 
ENDBRANCH  18  20
ENDBRANCH  16  18
ENDBRANCH  13  14
ENDBRANCH  10  13
ENDBRANCH   6  10
ENDBRANCH   3   6
ENDBRANCH   1   2
BRANCH   1  23
ATOM     23  C   UNL A   1      36.909  21.886  25.542  1.00  0.00     0.023 C 
BRANCH  23  24
ATOM     24  C   UNL A   1      38.159  21.151  25.059  1.00  0.00     0.023 C 
BRANCH  24  25
ATOM     25  C   UNL A   1      39.306  21.031  26.060  1.00  0.00     0.116 C 
BRANCH  25  26
ATOM     26  N   UNL A   1      40.044  19.781  25.994  1.00  0.00    -0.352 N 
ATOM     27  C   UNL A   1      41.410  19.594  26.152  1.00  0.00     0.251 C 
ATOM     28  H   UNL A   1      39.513  18.971  25.817  1.00  0.00     0.163 HD
ATOM     29  O   UNL A   1      41.913  18.501  26.017  1.00  0.00    -0.269 OA
BRANCH  27  30
ATOM     30  C   UNL A   1      42.253  20.783  26.439  1.00  0.00     0.039 A 
ATOM     31  C   UNL A   1      42.807  21.490  25.370  1.00  0.00     0.014 A 
ATOM     32  C   UNL A   1      42.410  21.242  27.749  1.00  0.00     0.014 A 
ATOM     33  C   UNL A   1      43.438  22.716  25.608  1.00  0.00     0.010 A 
ATOM     34  C   UNL A   1      42.983  22.492  27.976  1.00  0.00     0.010 A 
ATOM     35  C   UNL A   1      43.483  23.252  26.906  1.00  0.00    -0.014 A 
BRANCH  35  36
ATOM     36  C   UNL A   1      44.012  24.620  27.155  1.00  0.00     0.031 A 
ATOM     37  C   UNL A   1      43.088  25.729  27.579  1.00  0.00     0.074 A 
ATOM     38  C   UNL A   1      45.317  24.883  26.928  1.00  0.00     0.049 A 
ATOM     39  N   UNL A   1      43.355  26.992  27.785  1.00  0.00    -0.248 NA
ATOM     40  C   UNL A   1      41.672  25.375  27.770  1.00  0.00     0.031 C 
ATOM     41  C   UNL A   1      46.308  23.911  26.459  1.00  0.00     0.029 A 
ATOM     42  N   UNL A   1      46.032  26.048  27.050  1.00  0.00    -0.354 N 
ATOM     43  C   UNL A   1      42.144  27.588  28.113  1.00  0.00     0.074 A 
ATOM     44  C   UNL A   1      41.132  26.556  28.034  1.00  0.00     0.031 C 
ATOM     45  C   UNL A   1      47.503  24.513  26.358  1.00  0.00     0.029 A 
ATOM     46  C   UNL A   1      47.362  25.921  26.722  1.00  0.00     0.049 A 
ATOM     47  H   UNL A   1      45.631  26.897  27.346  1.00  0.00     0.167 HD
ATOM     48  C   UNL A   1      41.898  28.872  28.470  1.00  0.00     0.037 A 
ATOM     49  C   UNL A   1      48.356  26.831  26.713  1.00  0.00     0.037 A 
ATOM     50  C   UNL A   1      42.911  29.889  28.581  1.00  0.00     0.049 A 
ATOM     51  C   UNL A   1      48.062  28.246  27.129  1.00  0.00     0.074 A 
ATOM     52  C   UNL A   1      42.771  31.200  29.003  1.00  0.00     0.029 A 
ATOM     53  N   UNL A   1      44.250  29.713  28.265  1.00  0.00    -0.354 N 
ATOM     54  N   UNL A   1      46.922  28.773  27.507  1.00  0.00    -0.248 NA
ATOM     55  C   UNL A   1      49.188  29.191  27.122  1.00  0.00     0.031 C 
ATOM     56  C   UNL A   1      44.019  31.826  28.910  1.00  0.00     0.029 A 
ATOM     57  C   UNL A   1      44.944  30.895  28.468  1.00  0.00     0.049 A 
ATOM     58  H   UNL A   1      44.649  28.872  27.945  1.00  0.00     0.167 HD
ATOM     59  C   UNL A   1      47.199  30.102  27.811  1.00  0.00     0.074 A 
ATOM     60  C   UNL A   1      48.616  30.296  27.580  1.00  0.00     0.031 C 
ATOM     61  C   UNL A   1      46.357  31.071  28.245  1.00  0.00     0.037 A 
BRANCH  48  62
ATOM     62  C   UNL A   1      40.476  29.247  28.778  1.00  0.00     0.058 A 
ATOM     63  C   UNL A   1      40.029  29.417  30.098  1.00  0.00     0.135 A 
ATOM     64  C   UNL A   1      39.555  29.472  27.742  1.00  0.00     0.135 A 
ATOM     65  F   UNL A   1      40.864  29.201  31.127  1.00  0.00    -0.206 F 
ATOM     66  C   UNL A   1      38.713  29.764  30.382  1.00  0.00     0.059 A 
ATOM     67  C   UNL A   1      38.241  29.847  28.001  1.00  0.00     0.059 A 
ATOM     68  F   UNL A   1      39.930  29.324  26.460  1.00  0.00    -0.206 F 
ATOM     69  C   UNL A   1      37.824  29.974  29.326  1.00  0.00     0.060 A 
BRANCH  69  70
ATOM     70  S   UNL A   1      36.119  30.425  29.710  1.00  0.00     0.124 S 
ATOM     71  O   UNL A   1      36.186  31.882  29.658  1.00  0.00    -0.237 OA
ATOM     72  O   UNL A   1      35.375  29.786  28.628  1.00  0.00    -0.237 OA
ATOM     73  O   UNL A   1      35.907  29.852  31.036  1.00  0.00    -0.744 OA
ENDBRANCH  69  70
ENDBRANCH  48  62
BRANCH  49  74
ATOM     74  C   UNL A   1      49.735  26.427  26.327  1.00  0.00     0.058 A 
ATOM     75  C   UNL A   1      50.638  25.947  27.287  1.00  0.00     0.135 A 
ATOM     76  C   UNL A   1      50.175  26.508  24.997  1.00  0.00     0.135 A 
ATOM     77  F   UNL A   1      50.265  25.858  28.573  1.00  0.00    -0.206 F 
ATOM     78  C   UNL A   1      51.936  25.580  26.948  1.00  0.00     0.059 A 
ATOM     79  C   UNL A   1      51.462  26.125  24.629  1.00  0.00     0.059 A 
ATOM     80  F   UNL A   1      49.344  26.946  24.038  1.00  0.00    -0.206 F 
ATOM     81  C   UNL A   1      52.339  25.671  25.614  1.00  0.00     0.060 A 
BRANCH  81  82
ATOM     82  S   UNL A   1      54.011  25.148  25.175  1.00  0.00     0.124 S 
ATOM     83  O   UNL A   1      54.244  25.908  23.953  1.00  0.00    -0.237 OA
ATOM     84  O   UNL A   1      54.780  25.563  26.343  1.00  0.00    -0.237 OA
ATOM     85  O   UNL A   1      53.875  23.704  25.006  1.00  0.00    -0.744 OA
ENDBRANCH  81  82
ENDBRANCH  49  74
BRANCH  61  86
ATOM     86  C   UNL A   1      46.947  32.424  28.531  1.00  0.00     0.058 A 
ATOM     87  C   UNL A   1      47.486  32.742  29.786  1.00  0.00     0.135 A 
ATOM     88  C   UNL A   1      47.023  33.394  27.518  1.00  0.00     0.135 A 
ATOM     89  F   UNL A   1      47.432  31.853  30.791  1.00  0.00    -0.206 F 
ATOM     90  C   UNL A   1      48.064  33.984  30.035  1.00  0.00     0.059 A 
ATOM     91  C   UNL A   1      47.618  34.632  27.737  1.00  0.00     0.059 A 
ATOM     92  F   UNL A   1      46.531  33.136  26.296  1.00  0.00    -0.206 F 
ATOM     93  C   UNL A   1      48.126  34.922  29.003  1.00  0.00     0.060 A 
BRANCH  93  94
ATOM     94  S   UNL A   1      48.913  36.515  29.324  1.00  0.00     0.124 S 
ATOM     95  O   UNL A   1      48.516  37.281  28.148  1.00  0.00    -0.237 OA
ATOM     96  O   UNL A   1      48.294  36.923  30.583  1.00  0.00    -0.237 OA
ATOM     97  O   UNL A   1      50.331  36.182  29.409  1.00  0.00    -0.744 OA
ENDBRANCH  93  94
ENDBRANCH  61  86
ENDBRANCH  35  36
ENDBRANCH  27  30
ENDBRANCH  25  26
ENDBRANCH  24  25
ENDBRANCH  23  24
ENDBRANCH   1  23
TORSDOF 20
ENDMDL
