MODEL 1
REMARK VINA RESULT:     -12.1      0.000      0.000
REMARK SMILES CCOC(=O)c1c(NC(=O)[C@H]2[C@@H]3CC[C@@H](C3)[C@@H]2C(=O)NCCCCNC(=O)c2ccc(-c3c4nc(c(-c5c(F)cc(S(=O)(=O)[O-])cc5F)c5ccc([nH]5)c(-c5c(F)cc(S(=O)(=O)[O-])cc5F)c5nc(c(-c6c(F)cc(S(=O)(=O)[O-])cc6F)c6ccc3[nH]6)C=C5)C=C4)cc2)sc2c1CCCC2
REMARK SMILES IDX 21 1 20 2 18 3 19 4 17 6 11 7 12 8 13 9 16 10 15 11 14 12
REMARK SMILES IDX 9 13 8 14 10 16 7 17 6 18 96 19 94 20 95 21 97 22 100 23
REMARK SMILES IDX 98 24 99 25 4 26 5 27 3 28 2 29 1 30 22 31 23 32 24 33 25 34
REMARK SMILES IDX 26 35 27 37 28 38 29 39 93 40 30 41 92 42 31 43 32 44 33 45
REMARK SMILES IDX 86 46 34 47 91 48 85 49 87 50 35 51 90 52 84 53 83 54 36 56
REMARK SMILES IDX 70 57 49 58 69 59 50 60 53 61 68 62 88 63 51 64 52 65 67 67
REMARK SMILES IDX 89 68 54 69 37 70 38 71 47 72 39 73 40 74 46 75 48 76 41 77
REMARK SMILES IDX 42 78 43 79 44 80 45 81 71 82 72 83 81 84 73 85 74 86 80 87
REMARK SMILES IDX 82 88 75 89 76 90 77 91 78 92 79 93 55 94 56 95 65 96 57 97
REMARK SMILES IDX 58 98 64 99 66 100 59 101 60 102 61 103 62 104 63 105
REMARK H PARENT 20 5 8 15 25 36 87 55 53 66
REMARK Flexibility Score: inf
ROOT
ATOM      1  C   UNL A   1      36.733  23.213  24.688  1.00  0.00     0.116 C 
ENDROOT
BRANCH   1   2
ATOM      2  N   UNL A   1      35.846  24.128  25.378  1.00  0.00    -0.356 N 
ATOM      3  C   UNL A   1      34.593  24.552  25.046  1.00  0.00     0.224 C 
ATOM      4  O   UNL A   1      34.026  25.293  25.849  1.00  0.00    -0.275 OA
ATOM      5  H   UNL A   1      36.204  24.501  26.217  1.00  0.00     0.163 HD
BRANCH   3   6
ATOM      6  C   UNL A   1      33.927  24.057  23.759  1.00  0.00     0.094 C 
ATOM      7  C   UNL A   1      32.686  24.859  23.274  1.00  0.00     0.094 C 
ATOM      8  C   UNL A   1      31.669  23.728  22.933  1.00  0.00     0.002 C 
ATOM      9  C   UNL A   1      31.035  23.233  24.232  1.00  0.00     0.005 C 
ATOM     10  C   UNL A   1      32.565  22.532  22.576  1.00  0.00     0.009 C 
ATOM     11  C   UNL A   1      33.349  22.618  23.883  1.00  0.00     0.002 C 
ATOM     12  C   UNL A   1      32.197  22.503  24.909  1.00  0.00     0.005 C 
BRANCH   7  13
ATOM     13  C   UNL A   1      32.890  25.634  21.989  1.00  0.00     0.229 C 
ATOM     14  N   UNL A   1      32.540  26.936  21.817  1.00  0.00    -0.317 N 
ATOM     15  H   UNL A   1      32.350  27.162  20.878  1.00  0.00     0.170 HD
ATOM     16  O   UNL A   1      33.339  25.061  20.987  1.00  0.00    -0.274 OA
BRANCH  14  17
ATOM     17  C   UNL A   1      32.394  28.013  22.667  1.00  0.00     0.110 A 
ATOM     18  C   UNL A   1      31.460  28.946  23.084  1.00  0.00     0.098 A 
ATOM     19  C   UNL A   1      31.850  29.513  24.366  1.00  0.00    -0.017 A 
ATOM     20  S   UNL A   1      33.844  28.125  23.599  1.00  0.00    -0.122 S 
ATOM     21  C   UNL A   1      33.096  29.085  24.770  1.00  0.00     0.011 A 
ATOM     22  C   UNL A   1      30.992  30.391  25.239  1.00  0.00     0.038 C 
ATOM     23  C   UNL A   1      33.743  29.422  26.077  1.00  0.00     0.047 C 
ATOM     24  C   UNL A   1      31.753  30.942  26.455  1.00  0.00     0.005 C 
ATOM     25  C   UNL A   1      32.678  29.891  27.082  1.00  0.00     0.006 C 
BRANCH  18  26
ATOM     26  C   UNL A   1      30.187  29.311  22.489  1.00  0.00     0.341 C 
ATOM     27  O   UNL A   1      29.947  30.445  22.098  1.00  0.00    -0.246 OA
BRANCH  26  28
ATOM     28  O   UNL A   1      29.397  28.224  22.247  1.00  0.00    -0.462 OA
BRANCH  28  29
ATOM     29  C   UNL A   1      28.646  27.811  23.399  1.00  0.00     0.230 C 
ATOM     30  C   UNL A   1      29.049  26.401  23.779  1.00  0.00     0.049 C 
ENDBRANCH  28  29
ENDBRANCH  26  28
ENDBRANCH  18  26
ENDBRANCH  14  17
ENDBRANCH   7  13
ENDBRANCH   3   6
ENDBRANCH   1   2
BRANCH   1  31
ATOM     31  C   UNL A   1      36.667  21.831  25.320  1.00  0.00     0.023 C 
BRANCH  31  32
ATOM     32  C   UNL A   1      37.838  20.908  25.005  1.00  0.00     0.023 C 
BRANCH  32  33
ATOM     33  C   UNL A   1      39.054  21.105  25.899  1.00  0.00     0.116 C 
BRANCH  33  34
ATOM     34  N   UNL A   1      39.940  19.947  25.925  1.00  0.00    -0.352 N 
ATOM     35  C   UNL A   1      41.296  19.866  26.131  1.00  0.00     0.251 C 
ATOM     36  H   UNL A   1      39.493  19.084  25.771  1.00  0.00     0.163 HD
ATOM     37  O   UNL A   1      41.860  18.783  25.994  1.00  0.00    -0.269 OA
BRANCH  35  38
ATOM     38  C   UNL A   1      42.086  21.071  26.468  1.00  0.00     0.039 A 
ATOM     39  C   UNL A   1      42.443  21.951  25.439  1.00  0.00     0.014 A 
ATOM     40  C   UNL A   1      42.480  21.345  27.779  1.00  0.00     0.014 A 
ATOM     41  C   UNL A   1      43.114  23.140  25.737  1.00  0.00     0.010 A 
ATOM     42  C   UNL A   1      43.072  22.566  28.086  1.00  0.00     0.010 A 
ATOM     43  C   UNL A   1      43.390  23.479  27.070  1.00  0.00    -0.014 A 
BRANCH  43  44
ATOM     44  C   UNL A   1      44.015  24.774  27.446  1.00  0.00     0.031 A 
ATOM     45  C   UNL A   1      43.159  25.873  28.015  1.00  0.00     0.074 A 
ATOM     46  C   UNL A   1      45.311  25.008  27.162  1.00  0.00     0.049 A 
ATOM     47  N   UNL A   1      43.433  27.143  28.160  1.00  0.00    -0.248 NA
ATOM     48  C   UNL A   1      41.796  25.501  28.428  1.00  0.00     0.031 C 
ATOM     49  C   UNL A   1      46.242  24.049  26.560  1.00  0.00     0.029 A 
ATOM     50  N   UNL A   1      46.066  26.144  27.320  1.00  0.00    -0.354 N 
ATOM     51  C   UNL A   1      42.252  27.737  28.590  1.00  0.00     0.074 A 
ATOM     52  C   UNL A   1      41.264  26.684  28.703  1.00  0.00     0.031 C 
ATOM     53  C   UNL A   1      47.445  24.630  26.420  1.00  0.00     0.029 A 
ATOM     54  C   UNL A   1      47.362  26.012  26.880  1.00  0.00     0.049 A 
ATOM     55  H   UNL A   1      45.712  26.975  27.713  1.00  0.00     0.167 HD
ATOM     56  C   UNL A   1      42.013  29.041  28.859  1.00  0.00     0.037 A 
ATOM     57  C   UNL A   1      48.363  26.910  26.836  1.00  0.00     0.037 A 
ATOM     58  C   UNL A   1      43.023  30.066  28.850  1.00  0.00     0.049 A 
ATOM     59  C   UNL A   1      48.115  28.315  27.304  1.00  0.00     0.074 A 
ATOM     60  C   UNL A   1      42.898  31.405  29.177  1.00  0.00     0.029 A 
ATOM     61  N   UNL A   1      44.355  29.853  28.530  1.00  0.00    -0.354 N 
ATOM     62  N   UNL A   1      46.991  28.861  27.700  1.00  0.00    -0.248 NA
ATOM     63  C   UNL A   1      49.268  29.227  27.317  1.00  0.00     0.031 C 
ATOM     64  C   UNL A   1      44.160  32.001  29.064  1.00  0.00     0.029 A 
ATOM     65  C   UNL A   1      45.068  31.029  28.676  1.00  0.00     0.049 A 
ATOM     66  H   UNL A   1      44.736  28.992  28.243  1.00  0.00     0.167 HD
ATOM     67  C   UNL A   1      47.303  30.177  28.021  1.00  0.00     0.074 A 
ATOM     68  C   UNL A   1      48.722  30.342  27.784  1.00  0.00     0.031 C 
ATOM     69  C   UNL A   1      46.485  31.161  28.462  1.00  0.00     0.037 A 
BRANCH  56  70
ATOM     70  C   UNL A   1      40.601  29.433  29.176  1.00  0.00     0.058 A 
ATOM     71  C   UNL A   1      39.620  29.539  28.179  1.00  0.00     0.135 A 
ATOM     72  C   UNL A   1      40.223  29.697  30.503  1.00  0.00     0.135 A 
ATOM     73  F   UNL A   1      39.938  29.317  26.895  1.00  0.00    -0.206 F 
ATOM     74  C   UNL A   1      38.318  29.922  28.482  1.00  0.00     0.059 A 
ATOM     75  C   UNL A   1      38.922  30.064  30.830  1.00  0.00     0.059 A 
ATOM     76  F   UNL A   1      41.127  29.612  31.492  1.00  0.00    -0.206 F 
ATOM     77  C   UNL A   1      37.981  30.192  29.810  1.00  0.00     0.060 A 
BRANCH  77  78
ATOM     78  S   UNL A   1      36.293  30.698  30.204  1.00  0.00     0.124 S 
ATOM     79  O   UNL A   1      36.481  32.113  30.507  1.00  0.00    -0.237 OA
ATOM     80  O   UNL A   1      35.572  30.408  28.969  1.00  0.00    -0.237 OA
ATOM     81  O   UNL A   1      35.947  29.850  31.340  1.00  0.00    -0.744 OA
ENDBRANCH  77  78
ENDBRANCH  56  70
BRANCH  57  82
ATOM     82  C   UNL A   1      49.705  26.503  26.352  1.00  0.00     0.058 A 
ATOM     83  C   UNL A   1      50.613  25.879  27.221  1.00  0.00     0.135 A 
ATOM     84  C   UNL A   1      50.102  26.719  25.026  1.00  0.00     0.135 A 
ATOM     85  F   UNL A   1      50.272  25.656  28.499  1.00  0.00    -0.206 F 
ATOM     86  C   UNL A   1      51.880  25.497  26.795  1.00  0.00     0.059 A 
ATOM     87  C   UNL A   1      51.359  26.333  24.573  1.00  0.00     0.059 A 
ATOM     88  F   UNL A   1      49.258  27.295  24.157  1.00  0.00    -0.206 F 
ATOM     89  C   UNL A   1      52.246  25.733  25.469  1.00  0.00     0.060 A 
BRANCH  89  90
ATOM     90  S   UNL A   1      53.873  25.195  24.898  1.00  0.00     0.124 S 
ATOM     91  O   UNL A   1      54.739  25.732  25.941  1.00  0.00    -0.237 OA
ATOM     92  O   UNL A   1      53.735  23.742  24.868  1.00  0.00    -0.237 OA
ATOM     93  O   UNL A   1      53.986  25.830  23.589  1.00  0.00    -0.744 OA
ENDBRANCH  89  90
ENDBRANCH  57  82
BRANCH  69  94
ATOM     94  C   UNL A   1      47.112  32.489  28.755  1.00  0.00     0.058 A 
ATOM     95  C   UNL A   1      47.579  32.806  30.038  1.00  0.00     0.135 A 
ATOM     96  C   UNL A   1      47.287  33.432  27.732  1.00  0.00     0.135 A 
ATOM     97  F   UNL A   1      47.425  31.935  31.047  1.00  0.00    -0.206 F 
ATOM     98  C   UNL A   1      48.196  34.023  30.302  1.00  0.00     0.059 A 
ATOM     99  C   UNL A   1      47.911  34.652  27.970  1.00  0.00     0.059 A 
ATOM    100  F   UNL A   1      46.856  33.168  26.488  1.00  0.00    -0.206 F 
ATOM    101  C   UNL A   1      48.355  34.942  29.261  1.00  0.00     0.060 A 
BRANCH 101 102
ATOM    102  S   UNL A   1      49.194  36.506  29.590  1.00  0.00     0.124 S 
ATOM    103  O   UNL A   1      50.324  36.430  28.671  1.00  0.00    -0.237 OA
ATOM    104  O   UNL A   1      48.173  37.495  29.259  1.00  0.00    -0.237 OA
ATOM    105  O   UNL A   1      49.527  36.413  31.009  1.00  0.00    -0.744 OA
ENDBRANCH 101 102
ENDBRANCH  69  94
ENDBRANCH  43  44
ENDBRANCH  35  38
ENDBRANCH  33  34
ENDBRANCH  32  33
ENDBRANCH  31  32
ENDBRANCH   1  31
TORSDOF 19
ENDMDL
MODEL 2
REMARK VINA RESULT:     -12.0      6.238     10.326
REMARK SMILES CCOC(=O)c1c(NC(=O)[C@H]2[C@@H]3CC[C@@H](C3)[C@@H]2C(=O)NCCCCNC(=O)c2ccc(-c3c4nc(c(-c5c(F)cc(S(=O)(=O)[O-])cc5F)c5ccc([nH]5)c(-c5c(F)cc(S(=O)(=O)[O-])cc5F)c5nc(c(-c6c(F)cc(S(=O)(=O)[O-])cc6F)c6ccc3[nH]6)C=C5)C=C4)cc2)sc2c1CCCC2
REMARK SMILES IDX 21 1 20 2 18 3 19 4 17 6 11 7 12 8 13 9 16 10 15 11 14 12
REMARK SMILES IDX 9 13 8 14 10 16 7 17 6 18 96 19 94 20 95 21 97 22 100 23
REMARK SMILES IDX 98 24 99 25 4 26 5 27 3 28 2 29 1 30 22 31 23 32 24 33 25 34
REMARK SMILES IDX 26 35 27 37 28 38 29 39 93 40 30 41 92 42 31 43 32 44 33 45
REMARK SMILES IDX 86 46 34 47 91 48 85 49 87 50 35 51 90 52 84 53 83 54 36 56
REMARK SMILES IDX 70 57 49 58 69 59 50 60 53 61 68 62 88 63 51 64 52 65 67 67
REMARK SMILES IDX 89 68 54 69 37 70 38 71 47 72 39 73 40 74 46 75 48 76 41 77
REMARK SMILES IDX 42 78 43 79 44 80 45 81 71 82 72 83 81 84 73 85 74 86 80 87
REMARK SMILES IDX 82 88 75 89 76 90 77 91 78 92 79 93 55 94 56 95 65 96 57 97
REMARK SMILES IDX 58 98 64 99 66 100 59 101 60 102 61 103 62 104 63 105
REMARK H PARENT 20 5 8 15 25 36 87 55 53 66
REMARK Flexibility Score: inf
ROOT
ATOM      1  C   UNL A   1      35.760  21.506  25.070  1.00  0.00     0.116 C 
ENDROOT
BRANCH   1   2
ATOM      2  N   UNL A   1      35.142  22.084  26.246  1.00  0.00    -0.356 N 
ATOM      3  C   UNL A   1      33.979  22.786  26.369  1.00  0.00     0.224 C 
ATOM      4  O   UNL A   1      33.646  23.114  27.508  1.00  0.00    -0.275 OA
ATOM      5  H   UNL A   1      35.638  21.949  27.086  1.00  0.00     0.163 HD
BRANCH   3   6
ATOM      6  C   UNL A   1      33.119  23.077  25.136  1.00  0.00     0.094 C 
ATOM      7  C   UNL A   1      32.863  24.576  24.813  1.00  0.00     0.094 C 
ATOM      8  C   UNL A   1      31.331  24.601  24.527  1.00  0.00     0.002 C 
ATOM      9  C   UNL A   1      30.586  24.600  25.861  1.00  0.00     0.005 C 
ATOM     10  C   UNL A   1      31.034  23.178  24.031  1.00  0.00     0.009 C 
ATOM     11  C   UNL A   1      31.670  22.523  25.255  1.00  0.00     0.002 C 
ATOM     12  C   UNL A   1      30.849  23.187  26.386  1.00  0.00     0.005 C 
BRANCH   7  13
ATOM     13  C   UNL A   1      33.528  25.079  23.548  1.00  0.00     0.229 C 
ATOM     14  N   UNL A   1      33.314  26.308  23.008  1.00  0.00    -0.317 N 
ATOM     15  H   UNL A   1      33.467  26.332  22.036  1.00  0.00     0.170 HD
ATOM     16  O   UNL A   1      34.269  24.329  22.900  1.00  0.00    -0.274 OA
BRANCH  14  17
ATOM     17  C   UNL A   1      32.930  27.530  23.520  1.00  0.00     0.110 A 
ATOM     18  C   UNL A   1      31.832  28.368  23.620  1.00  0.00     0.098 A 
ATOM     19  C   UNL A   1      32.015  29.311  24.712  1.00  0.00    -0.017 A 
ATOM     20  S   UNL A   1      34.256  28.130  24.451  1.00  0.00    -0.122 S 
ATOM     21  C   UNL A   1      33.268  29.224  25.276  1.00  0.00     0.011 A 
ATOM     22  C   UNL A   1      30.958  30.230  25.269  1.00  0.00     0.038 C 
ATOM     23  C   UNL A   1      33.737  30.000  26.468  1.00  0.00     0.047 C 
ATOM     24  C   UNL A   1      31.513  31.204  26.319  1.00  0.00     0.005 C 
ATOM     25  C   UNL A   1      32.526  30.530  27.254  1.00  0.00     0.006 C 
BRANCH  18  26
ATOM     26  C   UNL A   1      30.578  28.340  22.890  1.00  0.00     0.341 C 
ATOM     27  O   UNL A   1      29.694  27.530  23.137  1.00  0.00    -0.246 OA
BRANCH  26  28
ATOM     28  O   UNL A   1      30.435  29.415  22.062  1.00  0.00    -0.462 OA
BRANCH  28  29
ATOM     29  C   UNL A   1      29.064  29.802  21.879  1.00  0.00     0.230 C 
ATOM     30  C   UNL A   1      28.853  31.186  22.456  1.00  0.00     0.049 C 
ENDBRANCH  28  29
ENDBRANCH  26  28
ENDBRANCH  18  26
ENDBRANCH  14  17
ENDBRANCH   7  13
ENDBRANCH   3   6
ENDBRANCH   1   2
BRANCH   1  31
ATOM     31  C   UNL A   1      37.148  22.090  24.858  1.00  0.00     0.023 C 
BRANCH  31  32
ATOM     32  C   UNL A   1      37.268  23.595  25.068  1.00  0.00     0.023 C 
BRANCH  32  33
ATOM     33  C   UNL A   1      38.096  23.997  26.281  1.00  0.00     0.116 C 
BRANCH  33  34
ATOM     34  N   UNL A   1      39.516  23.707  26.126  1.00  0.00    -0.352 N 
ATOM     35  C   UNL A   1      40.619  24.359  26.621  1.00  0.00     0.251 C 
ATOM     36  H   UNL A   1      39.718  22.915  25.577  1.00  0.00     0.163 HD
ATOM     37  O   UNL A   1      41.740  24.001  26.263  1.00  0.00    -0.269 OA
BRANCH  35  38
ATOM     38  C   UNL A   1      40.472  25.511  27.539  1.00  0.00     0.039 A 
ATOM     39  C   UNL A   1      39.533  25.429  28.574  1.00  0.00     0.014 A 
ATOM     40  C   UNL A   1      41.242  26.666  27.393  1.00  0.00     0.014 A 
ATOM     41  C   UNL A   1      39.430  26.464  29.508  1.00  0.00     0.010 A 
ATOM     42  C   UNL A   1      41.199  27.656  28.370  1.00  0.00     0.010 A 
ATOM     43  C   UNL A   1      40.297  27.564  29.441  1.00  0.00    -0.014 A 
BRANCH  43  44
ATOM     44  C   UNL A   1      40.294  28.642  30.464  1.00  0.00     0.031 A 
ATOM     45  C   UNL A   1      41.222  28.548  31.644  1.00  0.00     0.074 A 
ATOM     46  C   UNL A   1      39.378  29.629  30.403  1.00  0.00     0.049 A 
ATOM     47  N   UNL A   1      41.202  29.217  32.767  1.00  0.00    -0.248 NA
ATOM     48  C   UNL A   1      42.282  27.529  31.570  1.00  0.00     0.031 C 
ATOM     49  C   UNL A   1      38.383  29.809  29.342  1.00  0.00     0.029 A 
ATOM     50  N   UNL A   1      39.121  30.658  31.274  1.00  0.00    -0.354 N 
ATOM     51  C   UNL A   1      42.180  28.640  33.567  1.00  0.00     0.074 A 
ATOM     52  C   UNL A   1      42.790  27.579  32.794  1.00  0.00     0.031 C 
ATOM     53  C   UNL A   1      37.639  30.894  29.614  1.00  0.00     0.029 A 
ATOM     54  C   UNL A   1      38.073  31.460  30.887  1.00  0.00     0.049 A 
ATOM     55  H   UNL A   1      39.638  30.808  32.098  1.00  0.00     0.167 HD
ATOM     56  C   UNL A   1      42.532  28.962  34.834  1.00  0.00     0.037 A 
ATOM     57  C   UNL A   1      37.515  32.521  31.499  1.00  0.00     0.037 A 
ATOM     58  C   UNL A   1      42.000  30.085  35.559  1.00  0.00     0.049 A 
ATOM     59  C   UNL A   1      38.041  32.964  32.834  1.00  0.00     0.074 A 
ATOM     60  C   UNL A   1      42.341  30.539  36.821  1.00  0.00     0.029 A 
ATOM     61  N   UNL A   1      41.036  30.952  35.068  1.00  0.00    -0.354 N 
ATOM     62  N   UNL A   1      38.962  32.403  33.579  1.00  0.00    -0.248 NA
ATOM     63  C   UNL A   1      37.453  34.181  33.411  1.00  0.00     0.031 C 
ATOM     64  C   UNL A   1      41.590  31.690  37.089  1.00  0.00     0.029 A 
ATOM     65  C   UNL A   1      40.789  31.953  35.990  1.00  0.00     0.049 A 
ATOM     66  H   UNL A   1      40.594  30.867  34.192  1.00  0.00     0.167 HD
ATOM     67  C   UNL A   1      39.072  33.203  34.709  1.00  0.00     0.074 A 
ATOM     68  C   UNL A   1      38.134  34.294  34.545  1.00  0.00     0.031 C 
ATOM     69  C   UNL A   1      39.872  33.044  35.791  1.00  0.00     0.037 A 
BRANCH  56  70
ATOM     70  C   UNL A   1      43.534  28.081  35.517  1.00  0.00     0.058 A 
ATOM     71  C   UNL A   1      44.914  28.300  35.401  1.00  0.00     0.135 A 
ATOM     72  C   UNL A   1      43.101  27.004  36.309  1.00  0.00     0.135 A 
ATOM     73  F   UNL A   1      45.376  29.303  34.639  1.00  0.00    -0.206 F 
ATOM     74  C   UNL A   1      45.835  27.464  36.024  1.00  0.00     0.059 A 
ATOM     75  C   UNL A   1      44.005  26.167  36.956  1.00  0.00     0.059 A 
ATOM     76  F   UNL A   1      41.790  26.752  36.449  1.00  0.00    -0.206 F 
ATOM     77  C   UNL A   1      45.370  26.394  36.792  1.00  0.00     0.060 A 
BRANCH  77  78
ATOM     78  S   UNL A   1      46.564  25.303  37.593  1.00  0.00     0.124 S 
ATOM     79  O   UNL A   1      47.573  25.162  36.547  1.00  0.00    -0.237 OA
ATOM     80  O   UNL A   1      46.973  26.073  38.763  1.00  0.00    -0.237 OA
ATOM     81  O   UNL A   1      45.782  24.105  37.879  1.00  0.00    -0.744 OA
ENDBRANCH  77  78
ENDBRANCH  56  70
BRANCH  57  82
ATOM     82  C   UNL A   1      36.407  33.258  30.843  1.00  0.00     0.058 A 
ATOM     83  C   UNL A   1      36.663  34.102  29.753  1.00  0.00     0.135 A 
ATOM     84  C   UNL A   1      35.082  33.131  31.283  1.00  0.00     0.135 A 
ATOM     85  F   UNL A   1      37.918  34.252  29.303  1.00  0.00    -0.206 F 
ATOM     86  C   UNL A   1      35.644  34.811  29.128  1.00  0.00     0.059 A 
ATOM     87  C   UNL A   1      34.044  33.820  30.665  1.00  0.00     0.059 A 
ATOM     88  F   UNL A   1      34.789  32.320  32.311  1.00  0.00    -0.206 F 
ATOM     89  C   UNL A   1      34.336  34.667  29.595  1.00  0.00     0.060 A 
BRANCH  89  90
ATOM     90  S   UNL A   1      33.002  35.549  28.756  1.00  0.00     0.124 S 
ATOM     91  O   UNL A   1      33.743  36.568  28.022  1.00  0.00    -0.237 OA
ATOM     92  O   UNL A   1      32.386  34.501  27.949  1.00  0.00    -0.237 OA
ATOM     93  O   UNL A   1      32.185  36.034  29.864  1.00  0.00    -0.744 OA
ENDBRANCH  89  90
ENDBRANCH  57  82
BRANCH  69  94
ATOM     94  C   UNL A   1      39.795  34.092  36.857  1.00  0.00     0.058 A 
ATOM     95  C   UNL A   1      38.970  33.930  37.978  1.00  0.00     0.135 A 
ATOM     96  C   UNL A   1      40.589  35.245  36.776  1.00  0.00     0.135 A 
ATOM     97  F   UNL A   1      38.190  32.844  38.092  1.00  0.00    -0.206 F 
ATOM     98  C   UNL A   1      38.928  34.885  38.988  1.00  0.00     0.059 A 
ATOM     99  C   UNL A   1      40.571  36.209  37.778  1.00  0.00     0.059 A 
ATOM    100  F   UNL A   1      41.395  35.439  35.720  1.00  0.00    -0.206 F 
ATOM    101  C   UNL A   1      39.730  36.024  38.877  1.00  0.00     0.060 A 
BRANCH 101 102
ATOM    102  S   UNL A   1      39.709  37.245  40.206  1.00  0.00     0.124 S 
ATOM    103  O   UNL A   1      41.101  37.226  40.643  1.00  0.00    -0.237 OA
ATOM    104  O   UNL A   1      39.276  38.459  39.521  1.00  0.00    -0.237 OA
ATOM    105  O   UNL A   1      38.744  36.691  41.152  1.00  0.00    -0.744 OA
ENDBRANCH 101 102
ENDBRANCH  69  94
ENDBRANCH  43  44
ENDBRANCH  35  38
ENDBRANCH  33  34
ENDBRANCH  32  33
ENDBRANCH  31  32
ENDBRANCH   1  31
TORSDOF 19
ENDMDL
MODEL 3
REMARK VINA RESULT:     -11.9      6.060      8.251
REMARK SMILES CCOC(=O)c1c(NC(=O)[C@H]2[C@@H]3CC[C@@H](C3)[C@@H]2C(=O)NCCCCNC(=O)c2ccc(-c3c4nc(c(-c5c(F)cc(S(=O)(=O)[O-])cc5F)c5ccc([nH]5)c(-c5c(F)cc(S(=O)(=O)[O-])cc5F)c5nc(c(-c6c(F)cc(S(=O)(=O)[O-])cc6F)c6ccc3[nH]6)C=C5)C=C4)cc2)sc2c1CCCC2
REMARK SMILES IDX 21 1 20 2 18 3 19 4 17 6 11 7 12 8 13 9 16 10 15 11 14 12
REMARK SMILES IDX 9 13 8 14 10 16 7 17 6 18 96 19 94 20 95 21 97 22 100 23
REMARK SMILES IDX 98 24 99 25 4 26 5 27 3 28 2 29 1 30 22 31 23 32 24 33 25 34
REMARK SMILES IDX 26 35 27 37 28 38 29 39 93 40 30 41 92 42 31 43 32 44 33 45
REMARK SMILES IDX 86 46 34 47 91 48 85 49 87 50 35 51 90 52 84 53 83 54 36 56
REMARK SMILES IDX 70 57 49 58 69 59 50 60 53 61 68 62 88 63 51 64 52 65 67 67
REMARK SMILES IDX 89 68 54 69 37 70 38 71 47 72 39 73 40 74 46 75 48 76 41 77
REMARK SMILES IDX 42 78 43 79 44 80 45 81 71 82 72 83 81 84 73 85 74 86 80 87
REMARK SMILES IDX 82 88 75 89 76 90 77 91 78 92 79 93 55 94 56 95 65 96 57 97
REMARK SMILES IDX 58 98 64 99 66 100 59 101 60 102 61 103 62 104 63 105
REMARK H PARENT 20 5 8 15 25 36 87 55 53 66
REMARK Flexibility Score: inf
ROOT
ATOM      1  C   UNL A   1      36.759  23.546  24.744  1.00  0.00     0.116 C 
ENDROOT
BRANCH   1   2
ATOM      2  N   UNL A   1      35.735  24.268  25.472  1.00  0.00    -0.356 N 
ATOM      3  C   UNL A   1      34.440  24.530  25.135  1.00  0.00     0.224 C 
ATOM      4  O   UNL A   1      33.756  25.118  25.973  1.00  0.00    -0.275 OA
ATOM      5  H   UNL A   1      36.019  24.625  26.345  1.00  0.00     0.163 HD
BRANCH   3   6
ATOM      6  C   UNL A   1      33.877  24.042  23.798  1.00  0.00     0.094 C 
ATOM      7  C   UNL A   1      32.655  24.824  23.238  1.00  0.00     0.094 C 
ATOM      8  C   UNL A   1      31.690  23.677  22.810  1.00  0.00     0.002 C 
ATOM      9  C   UNL A   1      30.978  23.149  24.054  1.00  0.00     0.005 C 
ATOM     10  C   UNL A   1      32.635  22.507  22.499  1.00  0.00     0.009 C 
ATOM     11  C   UNL A   1      33.324  22.588  23.860  1.00  0.00     0.002 C 
ATOM     12  C   UNL A   1      32.106  22.433  24.801  1.00  0.00     0.005 C 
BRANCH   7  13
ATOM     13  C   UNL A   1      32.930  25.624  21.982  1.00  0.00     0.229 C 
ATOM     14  N   UNL A   1      32.624  26.940  21.829  1.00  0.00    -0.317 N 
ATOM     15  H   UNL A   1      32.478  27.193  20.890  1.00  0.00     0.170 HD
ATOM     16  O   UNL A   1      33.404  25.064  20.984  1.00  0.00    -0.274 OA
BRANCH  14  17
ATOM     17  C   UNL A   1      32.474  27.999  22.700  1.00  0.00     0.110 A 
ATOM     18  C   UNL A   1      31.532  28.912  23.146  1.00  0.00     0.098 A 
ATOM     19  C   UNL A   1      31.931  29.462  24.432  1.00  0.00    -0.017 A 
ATOM     20  S   UNL A   1      33.934  28.116  23.615  1.00  0.00    -0.122 S 
ATOM     21  C   UNL A   1      33.187  29.044  24.813  1.00  0.00     0.011 A 
ATOM     22  C   UNL A   1      31.072  30.312  25.332  1.00  0.00     0.038 C 
ATOM     23  C   UNL A   1      33.847  29.368  26.117  1.00  0.00     0.047 C 
ATOM     24  C   UNL A   1      31.840  30.853  26.547  1.00  0.00     0.005 C 
ATOM     25  C   UNL A   1      32.788  29.804  27.143  1.00  0.00     0.006 C 
BRANCH  18  26
ATOM     26  C   UNL A   1      30.246  29.268  22.573  1.00  0.00     0.341 C 
ATOM     27  O   UNL A   1      30.147  29.898  21.528  1.00  0.00    -0.246 OA
BRANCH  26  28
ATOM     28  O   UNL A   1      29.206  28.663  23.216  1.00  0.00    -0.462 OA
BRANCH  28  29
ATOM     29  C   UNL A   1      27.996  29.435  23.173  1.00  0.00     0.230 C 
ATOM     30  C   UNL A   1      26.805  28.503  23.253  1.00  0.00     0.049 C 
ENDBRANCH  28  29
ENDBRANCH  26  28
ENDBRANCH  18  26
ENDBRANCH  14  17
ENDBRANCH   7  13
ENDBRANCH   3   6
ENDBRANCH   1   2
BRANCH   1  31
ATOM     31  C   UNL A   1      37.263  22.368  25.564  1.00  0.00     0.023 C 
BRANCH  31  32
ATOM     32  C   UNL A   1      38.635  22.552  26.203  1.00  0.00     0.023 C 
BRANCH  32  33
ATOM     33  C   UNL A   1      38.954  23.984  26.608  1.00  0.00     0.116 C 
BRANCH  33  34
ATOM     34  N   UNL A   1      40.085  24.547  25.879  1.00  0.00    -0.352 N 
ATOM     35  C   UNL A   1      40.812  25.690  26.106  1.00  0.00     0.251 C 
ATOM     36  H   UNL A   1      40.374  24.023  25.098  1.00  0.00     0.163 HD
ATOM     37  O   UNL A   1      41.661  26.035  25.286  1.00  0.00    -0.269 OA
BRANCH  35  38
ATOM     38  C   UNL A   1      40.555  26.530  27.297  1.00  0.00     0.039 A 
ATOM     39  C   UNL A   1      39.799  25.995  28.346  1.00  0.00     0.014 A 
ATOM     40  C   UNL A   1      41.045  27.833  27.393  1.00  0.00     0.014 A 
ATOM     41  C   UNL A   1      39.610  26.731  29.520  1.00  0.00     0.010 A 
ATOM     42  C   UNL A   1      40.930  28.531  28.591  1.00  0.00     0.010 A 
ATOM     43  C   UNL A   1      40.217  27.986  29.669  1.00  0.00    -0.014 A 
BRANCH  43  44
ATOM     44  C   UNL A   1      40.128  28.765  30.931  1.00  0.00     0.031 A 
ATOM     45  C   UNL A   1      39.070  29.825  31.077  1.00  0.00     0.074 A 
ATOM     46  C   UNL A   1      41.066  28.613  31.888  1.00  0.00     0.049 A 
ATOM     47  N   UNL A   1      38.978  30.785  31.959  1.00  0.00    -0.248 NA
ATOM     48  C   UNL A   1      38.004  29.836  30.062  1.00  0.00     0.031 C 
ATOM     49  C   UNL A   1      42.178  27.660  31.852  1.00  0.00     0.029 A 
ATOM     50  N   UNL A   1      41.245  29.283  33.072  1.00  0.00    -0.354 N 
ATOM     51  C   UNL A   1      37.902  31.567  31.554  1.00  0.00     0.074 A 
ATOM     52  C   UNL A   1      37.361  30.958  30.358  1.00  0.00     0.031 C 
ATOM     53  C   UNL A   1      42.910  27.792  32.970  1.00  0.00     0.029 A 
ATOM     54  C   UNL A   1      42.347  28.867  33.781  1.00  0.00     0.049 A 
ATOM     55  H   UNL A   1      40.641  29.995  33.385  1.00  0.00     0.167 HD
ATOM     56  C   UNL A   1      37.416  32.694  32.125  1.00  0.00     0.037 A 
ATOM     57  C   UNL A   1      42.855  29.313  34.945  1.00  0.00     0.037 A 
ATOM     58  C   UNL A   1      37.887  33.235  33.371  1.00  0.00     0.049 A 
ATOM     59  C   UNL A   1      42.190  30.462  35.647  1.00  0.00     0.074 A 
ATOM     60  C   UNL A   1      37.415  34.332  34.071  1.00  0.00     0.029 A 
ATOM     61  N   UNL A   1      38.919  32.694  34.123  1.00  0.00    -0.354 N 
ATOM     62  N   UNL A   1      41.179  31.193  35.247  1.00  0.00    -0.248 NA
ATOM     63  C   UNL A   1      42.735  30.847  36.957  1.00  0.00     0.031 C 
ATOM     64  C   UNL A   1      38.156  34.448  35.253  1.00  0.00     0.029 A 
ATOM     65  C   UNL A   1      39.081  33.418  35.290  1.00  0.00     0.049 A 
ATOM     66  H   UNL A   1      39.456  31.910  33.864  1.00  0.00     0.167 HD
ATOM     67  C   UNL A   1      40.959  32.119  36.259  1.00  0.00     0.074 A 
ATOM     68  C   UNL A   1      41.933  31.849  37.296  1.00  0.00     0.031 C 
ATOM     69  C   UNL A   1      40.038  33.111  36.320  1.00  0.00     0.037 A 
BRANCH  56  70
ATOM     70  C   UNL A   1      36.325  33.420  31.398  1.00  0.00     0.058 A 
ATOM     71  C   UNL A   1      35.008  33.454  31.881  1.00  0.00     0.135 A 
ATOM     72  C   UNL A   1      36.606  34.101  30.202  1.00  0.00     0.135 A 
ATOM     73  F   UNL A   1      34.686  32.802  33.008  1.00  0.00    -0.206 F 
ATOM     74  C   UNL A   1      34.000  34.115  31.187  1.00  0.00     0.059 A 
ATOM     75  C   UNL A   1      35.616  34.783  29.503  1.00  0.00     0.059 A 
ATOM     76  F   UNL A   1      37.850  34.095  29.698  1.00  0.00    -0.206 F 
ATOM     77  C   UNL A   1      34.312  34.769  29.994  1.00  0.00     0.060 A 
BRANCH  77  78
ATOM     78  S   UNL A   1      33.002  35.620  29.089  1.00  0.00     0.124 S 
ATOM     79  O   UNL A   1      32.153  36.087  30.181  1.00  0.00    -0.237 OA
ATOM     80  O   UNL A   1      33.729  36.659  28.367  1.00  0.00    -0.237 OA
ATOM     81  O   UNL A   1      32.433  34.565  28.255  1.00  0.00    -0.744 OA
ENDBRANCH  77  78
ENDBRANCH  56  70
BRANCH  57  82
ATOM     82  C   UNL A   1      44.046  28.655  35.536  1.00  0.00     0.058 A 
ATOM     83  C   UNL A   1      45.337  29.088  35.197  1.00  0.00     0.135 A 
ATOM     84  C   UNL A   1      43.922  27.596  36.445  1.00  0.00     0.135 A 
ATOM     85  F   UNL A   1      45.498  30.097  34.328  1.00  0.00    -0.206 F 
ATOM     86  C   UNL A   1      46.469  28.481  35.728  1.00  0.00     0.059 A 
ATOM     87  C   UNL A   1      45.040  26.983  37.000  1.00  0.00     0.059 A 
ATOM     88  F   UNL A   1      42.707  27.163  36.812  1.00  0.00    -0.206 F 
ATOM     89  C   UNL A   1      46.310  27.425  36.627  1.00  0.00     0.060 A 
BRANCH  89  90
ATOM     90  S   UNL A   1      47.778  26.665  37.357  1.00  0.00     0.124 S 
ATOM     91  O   UNL A   1      47.274  25.343  37.711  1.00  0.00    -0.237 OA
ATOM     92  O   UNL A   1      48.738  26.709  36.258  1.00  0.00    -0.237 OA
ATOM     93  O   UNL A   1      48.080  27.551  38.476  1.00  0.00    -0.744 OA
ENDBRANCH  89  90
ENDBRANCH  57  82
BRANCH  69  94
ATOM     94  C   UNL A   1      40.016  33.946  37.562  1.00  0.00     0.058 A 
ATOM     95  C   UNL A   1      40.779  35.118  37.665  1.00  0.00     0.135 A 
ATOM     96  C   UNL A   1      39.189  33.595  38.639  1.00  0.00     0.135 A 
ATOM     97  F   UNL A   1      41.589  35.487  36.660  1.00  0.00    -0.206 F 
ATOM     98  C   UNL A   1      40.730  35.914  38.803  1.00  0.00     0.059 A 
ATOM     99  C   UNL A   1      39.116  34.382  39.783  1.00  0.00     0.059 A 
ATOM    100  F   UNL A   1      38.440  32.482  38.581  1.00  0.00    -0.206 F 
ATOM    101  C   UNL A   1      39.897  35.536  39.859  1.00  0.00     0.060 A 
BRANCH 101 102
ATOM    102  S   UNL A   1      39.798  36.591  41.321  1.00  0.00     0.124 S 
ATOM    103  O   UNL A   1      39.191  35.687  42.293  1.00  0.00    -0.237 OA
ATOM    104  O   UNL A   1      41.195  36.937  41.563  1.00  0.00    -0.237 OA
ATOM    105  O   UNL A   1      38.955  37.698  40.876  1.00  0.00    -0.744 OA
ENDBRANCH 101 102
ENDBRANCH  69  94
ENDBRANCH  43  44
ENDBRANCH  35  38
ENDBRANCH  33  34
ENDBRANCH  32  33
ENDBRANCH  31  32
ENDBRANCH   1  31
TORSDOF 19
ENDMDL
