MODEL 1
REMARK VINA RESULT:     -11.5      0.000      0.000
REMARK SMILES CC[C@@]1(C)C[C@@H]([NH2+]C[C@H]2CC[C@@H](C(=O)NCCCCNC(=O)c3ccc(-c4c5nc(c(-c6c(F)cc(S(=O)(=O)[O-])cc6F)c6ccc([nH]6)c(-c6c(F)cc(S(=O)(=O)[O-])cc6F)c6nc(c(-c7c(F)cc(S(=O)(=O)[O-])cc7F)c7ccc4[nH]7)C=C6)C=C5)cc3)CC2)CCO1
REMARK SMILES IDX 17 1 16 2 15 3 13 4 14 5 12 7 9 8 10 9 90 10 11 11 89 12
REMARK SMILES IDX 8 13 7 14 6 17 3 18 4 19 5 20 93 21 92 22 91 23 2 24 1 25
REMARK SMILES IDX 18 26 19 27 20 28 21 29 22 31 23 32 24 33 88 34 25 35 87 36
REMARK SMILES IDX 26 37 27 38 28 39 81 40 29 41 86 42 80 43 82 44 30 45 85 46
REMARK SMILES IDX 79 47 78 48 31 50 65 51 44 52 64 53 45 54 48 55 63 56 83 57
REMARK SMILES IDX 46 58 47 59 62 61 84 62 49 63 32 64 33 65 42 66 34 67 35 68
REMARK SMILES IDX 41 69 43 70 36 71 37 72 38 73 39 74 40 75 66 76 67 77 76 78
REMARK SMILES IDX 68 79 69 80 75 81 77 82 70 83 71 84 72 85 73 86 74 87 50 88
REMARK SMILES IDX 51 89 60 90 52 91 53 92 59 93 61 94 54 95 55 96 56 97 57 98
REMARK SMILES IDX 58 99
REMARK H PARENT 15 6 7 15 7 16 20 30 82 49 48 60
REMARK Flexibility Score: inf
ROOT
ATOM      1  C   UNL A   1      35.047  22.273  24.255  1.00  0.00     0.023 C 
ENDROOT
BRANCH   1   2
ATOM      2  C   UNL A   1      33.897  22.940  25.006  1.00  0.00     0.116 C 
BRANCH   2   3
ATOM      3  N   UNL A   1      32.868  23.434  24.112  1.00  0.00    -0.356 N 
ATOM      4  C   UNL A   1      32.136  24.580  24.137  1.00  0.00     0.223 C 
ATOM      5  O   UNL A   1      31.315  24.751  23.231  1.00  0.00    -0.275 OA
ATOM      6  H   UNL A   1      32.663  22.836  23.357  1.00  0.00     0.163 HD
BRANCH   4   7
ATOM      7  C   UNL A   1      32.337  25.662  25.198  1.00  0.00     0.078 C 
ATOM      8  C   UNL A   1      32.323  28.580  25.919  1.00  0.00     0.044 C 
ATOM      9  C   UNL A   1      31.252  27.589  26.384  1.00  0.00     0.010 C 
ATOM     10  C   UNL A   1      33.648  27.786  25.880  1.00  0.00     0.010 C 
ATOM     11  C   UNL A   1      31.038  26.431  25.429  1.00  0.00     0.014 C 
ATOM     12  C   UNL A   1      33.578  26.540  24.983  1.00  0.00     0.014 C 
BRANCH   8  13
ATOM     13  C   UNL A   1      32.102  29.327  24.573  1.00  0.00     0.264 C 
BRANCH  13  14
ATOM     14  N   UNL A   1      30.747  29.656  24.114  1.00  0.00    -0.343 N 
ATOM     15  H   UNL A   1      30.093  29.367  24.842  1.00  0.00     0.346 HD
ATOM     16  H   UNL A   1      30.753  30.659  23.933  1.00  0.00     0.346 HD
BRANCH  14  17
ATOM     17  C   UNL A   1      30.322  29.028  22.854  1.00  0.00     0.187 C 
ATOM     18  C   UNL A   1      28.508  30.726  22.113  1.00  0.00     0.071 C 
ATOM     19  C   UNL A   1      28.159  31.580  20.879  1.00  0.00     0.042 C 
ATOM     20  C   UNL A   1      29.871  30.048  21.807  1.00  0.00     0.100 C 
ATOM     21  O   UNL A   1      27.528  29.676  22.205  1.00  0.00    -0.375 OA
ATOM     22  C   UNL A   1      27.798  28.736  23.248  1.00  0.00     0.167 C 
ATOM     23  C   UNL A   1      29.148  28.048  23.071  1.00  0.00     0.093 C 
BRANCH  18  24
ATOM     24  C   UNL A   1      28.443  31.642  23.368  1.00  0.00     0.032 C 
ATOM     25  C   UNL A   1      28.782  33.113  23.126  1.00  0.00     0.007 C 
ENDBRANCH  18  24
ENDBRANCH  14  17
ENDBRANCH  13  14
ENDBRANCH   8  13
ENDBRANCH   4   7
ENDBRANCH   2   3
ENDBRANCH   1   2
BRANCH   1  26
ATOM     26  C   UNL A   1      36.201  23.205  23.909  1.00  0.00     0.023 C 
BRANCH  26  27
ATOM     27  C   UNL A   1      37.047  23.643  25.096  1.00  0.00     0.116 C 
BRANCH  27  28
ATOM     28  N   UNL A   1      38.170  22.752  25.356  1.00  0.00    -0.352 N 
ATOM     29  C   UNL A   1      39.321  23.009  26.070  1.00  0.00     0.251 C 
ATOM     30  H   UNL A   1      38.099  21.849  24.970  1.00  0.00     0.163 HD
ATOM     31  O   UNL A   1      40.232  22.196  26.097  1.00  0.00    -0.269 OA
BRANCH  29  32
ATOM     32  C   UNL A   1      39.440  24.306  26.767  1.00  0.00     0.039 A 
ATOM     33  C   UNL A   1      38.862  24.455  28.028  1.00  0.00     0.014 A 
ATOM     34  C   UNL A   1      40.207  25.332  26.207  1.00  0.00     0.014 A 
ATOM     35  C   UNL A   1      39.133  25.603  28.774  1.00  0.00     0.010 A 
ATOM     36  C   UNL A   1      40.536  26.437  26.981  1.00  0.00     0.010 A 
ATOM     37  C   UNL A   1      40.014  26.577  28.277  1.00  0.00    -0.014 A 
BRANCH  37  38
ATOM     38  C   UNL A   1      40.431  27.741  29.099  1.00  0.00     0.031 A 
ATOM     39  C   UNL A   1      41.721  27.690  29.868  1.00  0.00     0.074 A 
ATOM     40  C   UNL A   1      39.603  28.798  29.229  1.00  0.00     0.049 A 
ATOM     41  N   UNL A   1      42.198  28.543  30.736  1.00  0.00    -0.248 NA
ATOM     42  C   UNL A   1      42.571  26.507  29.658  1.00  0.00     0.031 C 
ATOM     43  C   UNL A   1      38.301  28.940  28.573  1.00  0.00     0.029 A 
ATOM     44  N   UNL A   1      39.725  29.944  29.973  1.00  0.00    -0.354 N 
ATOM     45  C   UNL A   1      43.391  27.993  31.188  1.00  0.00     0.074 A 
ATOM     46  C   UNL A   1      43.542  26.712  30.535  1.00  0.00     0.031 C 
ATOM     47  C   UNL A   1      37.752  30.112  28.932  1.00  0.00     0.029 A 
ATOM     48  C   UNL A   1      38.640  30.786  29.874  1.00  0.00     0.049 A 
ATOM     49  H   UNL A   1      40.513  30.146  30.526  1.00  0.00     0.167 HD
ATOM     50  C   UNL A   1      44.290  28.520  32.052  1.00  0.00     0.037 A 
ATOM     51  C   UNL A   1      38.383  31.959  30.485  1.00  0.00     0.037 A 
ATOM     52  C   UNL A   1      44.150  29.811  32.672  1.00  0.00     0.049 A 
ATOM     53  C   UNL A   1      39.396  32.522  31.445  1.00  0.00     0.074 A 
ATOM     54  C   UNL A   1      45.039  30.466  33.505  1.00  0.00     0.029 A 
ATOM     55  N   UNL A   1      43.049  30.643  32.529  1.00  0.00    -0.354 N 
ATOM     56  N   UNL A   1      40.551  32.019  31.811  1.00  0.00    -0.248 NA
ATOM     57  C   UNL A   1      39.071  33.808  32.077  1.00  0.00     0.031 C 
ATOM     58  C   UNL A   1      44.460  31.677  33.897  1.00  0.00     0.029 A 
ATOM     59  C   UNL A   1      43.227  31.796  33.276  1.00  0.00     0.049 A 
ATOM     60  H   UNL A   1      42.258  30.444  31.977  1.00  0.00     0.167 HD
ATOM     61  C   UNL A   1      41.099  32.936  32.701  1.00  0.00     0.074 A 
ATOM     62  C   UNL A   1      40.156  34.030  32.809  1.00  0.00     0.031 C 
ATOM     63  C   UNL A   1      42.278  32.876  33.368  1.00  0.00     0.037 A 
BRANCH  50  64
ATOM     64  C   UNL A   1      45.509  27.702  32.370  1.00  0.00     0.058 A 
ATOM     65  C   UNL A   1      46.697  27.837  31.634  1.00  0.00     0.135 A 
ATOM     66  C   UNL A   1      45.501  26.792  33.440  1.00  0.00     0.135 A 
ATOM     67  F   UNL A   1      46.754  28.681  30.591  1.00  0.00    -0.206 F 
ATOM     68  C   UNL A   1      47.824  27.078  31.926  1.00  0.00     0.059 A 
ATOM     69  C   UNL A   1      46.626  26.041  33.767  1.00  0.00     0.059 A 
ATOM     70  F   UNL A   1      44.390  26.623  34.175  1.00  0.00    -0.206 F 
ATOM     71  C   UNL A   1      47.778  26.180  32.995  1.00  0.00     0.060 A 
BRANCH  71  72
ATOM     72  S   UNL A   1      49.249  25.202  33.362  1.00  0.00     0.124 S 
ATOM     73  O   UNL A   1      48.666  24.036  34.020  1.00  0.00    -0.237 OA
ATOM     74  O   UNL A   1      49.808  24.965  32.035  1.00  0.00    -0.237 OA
ATOM     75  O   UNL A   1      50.036  26.080  34.222  1.00  0.00    -0.744 OA
ENDBRANCH  71  72
ENDBRANCH  50  64
BRANCH  51  76
ATOM     76  C   UNL A   1      37.119  32.685  30.198  1.00  0.00     0.058 A 
ATOM     77  C   UNL A   1      35.978  32.482  30.987  1.00  0.00     0.135 A 
ATOM     78  C   UNL A   1      37.029  33.609  29.145  1.00  0.00     0.135 A 
ATOM     79  F   UNL A   1      36.013  31.604  32.001  1.00  0.00    -0.206 F 
ATOM     80  C   UNL A   1      34.788  33.156  30.736  1.00  0.00     0.059 A 
ATOM     81  C   UNL A   1      35.857  34.313  28.887  1.00  0.00     0.059 A 
ATOM     82  F   UNL A   1      38.098  33.852  28.370  1.00  0.00    -0.206 F 
ATOM     83  C   UNL A   1      34.739  34.073  29.685  1.00  0.00     0.060 A 
BRANCH  83  84
ATOM     84  S   UNL A   1      33.205  34.985  29.403  1.00  0.00     0.124 S 
ATOM     85  O   UNL A   1      33.710  36.285  28.979  1.00  0.00    -0.237 OA
ATOM     86  O   UNL A   1      32.556  34.184  28.370  1.00  0.00    -0.237 OA
ATOM     87  O   UNL A   1      32.553  34.953  30.709  1.00  0.00    -0.744 OA
ENDBRANCH  83  84
ENDBRANCH  51  76
BRANCH  63  88
ATOM     88  C   UNL A   1      42.629  34.032  34.261  1.00  0.00     0.058 A 
ATOM     89  C   UNL A   1      42.402  33.982  35.645  1.00  0.00     0.135 A 
ATOM     90  C   UNL A   1      43.271  35.166  33.738  1.00  0.00     0.135 A 
ATOM     91  F   UNL A   1      41.785  32.924  36.191  1.00  0.00    -0.206 F 
ATOM     92  C   UNL A   1      42.794  35.023  36.481  1.00  0.00     0.059 A 
ATOM     93  C   UNL A   1      43.691  36.208  34.559  1.00  0.00     0.059 A 
ATOM     94  F   UNL A   1      43.517  35.257  32.422  1.00  0.00    -0.206 F 
ATOM     95  C   UNL A   1      43.443  36.130  35.929  1.00  0.00     0.060 A 
BRANCH  95  96
ATOM     96  S   UNL A   1      44.001  37.445  37.033  1.00  0.00     0.124 S 
ATOM     97  O   UNL A   1      45.241  36.882  37.558  1.00  0.00    -0.237 OA
ATOM     98  O   UNL A   1      44.154  38.575  36.120  1.00  0.00    -0.237 OA
ATOM     99  O   UNL A   1      42.909  37.568  37.994  1.00  0.00    -0.744 OA
ENDBRANCH  95  96
ENDBRANCH  63  88
ENDBRANCH  37  38
ENDBRANCH  29  32
ENDBRANCH  27  28
ENDBRANCH  26  27
ENDBRANCH   1  26
TORSDOF 18
ENDMDL
MODEL 2
REMARK VINA RESULT:     -11.1      2.428      8.640
REMARK SMILES CC[C@@]1(C)C[C@@H]([NH2+]C[C@H]2CC[C@@H](C(=O)NCCCCNC(=O)c3ccc(-c4c5nc(c(-c6c(F)cc(S(=O)(=O)[O-])cc6F)c6ccc([nH]6)c(-c6c(F)cc(S(=O)(=O)[O-])cc6F)c6nc(c(-c7c(F)cc(S(=O)(=O)[O-])cc7F)c7ccc4[nH]7)C=C6)C=C5)cc3)CC2)CCO1
REMARK SMILES IDX 17 1 16 2 15 3 13 4 14 5 12 7 9 8 10 9 90 10 11 11 89 12
REMARK SMILES IDX 8 13 7 14 6 17 3 18 4 19 5 20 93 21 92 22 91 23 2 24 1 25
REMARK SMILES IDX 18 26 19 27 20 28 21 29 22 31 23 32 24 33 88 34 25 35 87 36
REMARK SMILES IDX 26 37 27 38 28 39 81 40 29 41 86 42 80 43 82 44 30 45 85 46
REMARK SMILES IDX 79 47 78 48 31 50 65 51 44 52 64 53 45 54 48 55 63 56 83 57
REMARK SMILES IDX 46 58 47 59 62 61 84 62 49 63 32 64 33 65 42 66 34 67 35 68
REMARK SMILES IDX 41 69 43 70 36 71 37 72 38 73 39 74 40 75 66 76 67 77 76 78
REMARK SMILES IDX 68 79 69 80 75 81 77 82 70 83 71 84 72 85 73 86 74 87 50 88
REMARK SMILES IDX 51 89 60 90 52 91 53 92 59 93 61 94 54 95 55 96 56 97 57 98
REMARK SMILES IDX 58 99
REMARK H PARENT 15 6 7 15 7 16 20 30 82 49 48 60
REMARK Flexibility Score: inf
ROOT
ATOM      1  C   UNL A   1      36.864  23.234  25.623  1.00  0.00     0.023 C 
ENDROOT
BRANCH   1   2
ATOM      2  C   UNL A   1      35.412  23.703  25.696  1.00  0.00     0.116 C 
BRANCH   2   3
ATOM      3  N   UNL A   1      34.927  24.195  24.423  1.00  0.00    -0.356 N 
ATOM      4  C   UNL A   1      33.973  25.119  24.125  1.00  0.00     0.223 C 
ATOM      5  O   UNL A   1      33.760  25.353  22.932  1.00  0.00    -0.275 OA
ATOM      6  H   UNL A   1      35.362  23.792  23.637  1.00  0.00     0.163 HD
BRANCH   4   7
ATOM      7  C   UNL A   1      33.217  25.897  25.201  1.00  0.00     0.078 C 
ATOM      8  C   UNL A   1      31.663  28.351  25.977  1.00  0.00     0.044 C 
ATOM      9  C   UNL A   1      31.026  26.971  25.789  1.00  0.00     0.010 C 
ATOM     10  C   UNL A   1      33.070  28.094  26.562  1.00  0.00     0.010 C 
ATOM     11  C   UNL A   1      31.758  26.093  24.793  1.00  0.00     0.014 C 
ATOM     12  C   UNL A   1      33.929  27.170  25.684  1.00  0.00     0.014 C 
BRANCH   8  13
ATOM     13  C   UNL A   1      31.757  29.294  24.743  1.00  0.00     0.264 C 
BRANCH  13  14
ATOM     14  N   UNL A   1      30.541  29.825  24.114  1.00  0.00    -0.343 N 
ATOM     15  H   UNL A   1      29.772  29.707  24.773  1.00  0.00     0.346 HD
ATOM     16  H   UNL A   1      30.751  30.796  23.887  1.00  0.00     0.346 HD
BRANCH  14  17
ATOM     17  C   UNL A   1      30.145  29.197  22.844  1.00  0.00     0.187 C 
ATOM     18  C   UNL A   1      28.425  30.950  22.011  1.00  0.00     0.071 C 
ATOM     19  C   UNL A   1      28.157  31.800  20.755  1.00  0.00     0.042 C 
ATOM     20  C   UNL A   1      29.774  30.219  21.769  1.00  0.00     0.100 C 
ATOM     21  O   UNL A   1      27.405  29.937  22.075  1.00  0.00    -0.375 OA
ATOM     22  C   UNL A   1      27.598  29.001  23.139  1.00  0.00     0.167 C 
ATOM     23  C   UNL A   1      28.928  28.263  23.025  1.00  0.00     0.093 C 
BRANCH  18  24
ATOM     24  C   UNL A   1      28.343  31.884  23.253  1.00  0.00     0.032 C 
ATOM     25  C   UNL A   1      28.908  33.290  23.055  1.00  0.00     0.007 C 
ENDBRANCH  18  24
ENDBRANCH  14  17
ENDBRANCH  13  14
ENDBRANCH   8  13
ENDBRANCH   4   7
ENDBRANCH   2   3
ENDBRANCH   1   2
BRANCH   1  26
ATOM     26  C   UNL A   1      37.886  24.266  26.080  1.00  0.00     0.023 C 
BRANCH  26  27
ATOM     27  C   UNL A   1      39.049  23.702  26.884  1.00  0.00     0.116 C 
BRANCH  27  28
ATOM     28  N   UNL A   1      40.345  23.963  26.272  1.00  0.00    -0.352 N 
ATOM     29  C   UNL A   1      41.183  25.040  26.466  1.00  0.00     0.251 C 
ATOM     30  H   UNL A   1      40.663  23.283  25.636  1.00  0.00     0.163 HD
ATOM     31  O   UNL A   1      42.187  25.179  25.785  1.00  0.00    -0.269 OA
BRANCH  29  32
ATOM     32  C   UNL A   1      40.815  26.041  27.489  1.00  0.00     0.039 A 
ATOM     33  C   UNL A   1      39.906  25.688  28.487  1.00  0.00     0.014 A 
ATOM     34  C   UNL A   1      41.449  27.287  27.507  1.00  0.00     0.014 A 
ATOM     35  C   UNL A   1      39.702  26.554  29.563  1.00  0.00     0.010 A 
ATOM     36  C   UNL A   1      41.301  28.111  28.615  1.00  0.00     0.010 A 
ATOM     37  C   UNL A   1      40.437  27.747  29.661  1.00  0.00    -0.014 A 
BRANCH  37  38
ATOM     38  C   UNL A   1      40.346  28.622  30.856  1.00  0.00     0.031 A 
ATOM     39  C   UNL A   1      39.351  29.748  30.884  1.00  0.00     0.074 A 
ATOM     40  C   UNL A   1      41.224  28.465  31.868  1.00  0.00     0.049 A 
ATOM     41  N   UNL A   1      39.202  30.695  31.772  1.00  0.00    -0.248 NA
ATOM     42  C   UNL A   1      38.422  29.839  29.745  1.00  0.00     0.031 C 
ATOM     43  C   UNL A   1      42.269  27.441  31.931  1.00  0.00     0.029 A 
ATOM     44  N   UNL A   1      41.389  29.178  33.028  1.00  0.00    -0.354 N 
ATOM     45  C   UNL A   1      38.178  31.504  31.293  1.00  0.00     0.074 A 
ATOM     46  C   UNL A   1      37.775  30.964  30.013  1.00  0.00     0.031 C 
ATOM     47  C   UNL A   1      42.956  27.583  33.076  1.00  0.00     0.029 A 
ATOM     48  C   UNL A   1      42.430  28.730  33.809  1.00  0.00     0.049 A 
ATOM     49  H   UNL A   1      40.817  29.938  33.279  1.00  0.00     0.167 HD
ATOM     50  C   UNL A   1      37.612  32.585  31.879  1.00  0.00     0.037 A 
ATOM     51  C   UNL A   1      42.916  29.201  34.974  1.00  0.00     0.037 A 
ATOM     52  C   UNL A   1      37.995  33.096  33.168  1.00  0.00     0.049 A 
ATOM     53  C   UNL A   1      42.273  30.406  35.603  1.00  0.00     0.074 A 
ATOM     54  C   UNL A   1      37.434  34.140  33.880  1.00  0.00     0.029 A 
ATOM     55  N   UNL A   1      39.038  32.601  33.938  1.00  0.00    -0.354 N 
ATOM     56  N   UNL A   1      41.261  31.120  35.168  1.00  0.00    -0.248 NA
ATOM     57  C   UNL A   1      42.835  30.874  36.877  1.00  0.00     0.031 C 
ATOM     58  C   UNL A   1      38.162  34.303  35.064  1.00  0.00     0.029 A 
ATOM     59  C   UNL A   1      39.152  33.334  35.107  1.00  0.00     0.049 A 
ATOM     60  H   UNL A   1      39.613  31.841  33.689  1.00  0.00     0.167 HD
ATOM     61  C   UNL A   1      41.054  32.108  36.124  1.00  0.00     0.074 A 
ATOM     62  C   UNL A   1      42.037  31.894  37.167  1.00  0.00     0.031 C 
ATOM     63  C   UNL A   1      40.133  33.103  36.137  1.00  0.00     0.037 A 
BRANCH  50  64
ATOM     64  C   UNL A   1      36.510  33.281  31.132  1.00  0.00     0.058 A 
ATOM     65  C   UNL A   1      35.169  33.174  31.533  1.00  0.00     0.135 A 
ATOM     66  C   UNL A   1      36.799  34.087  30.018  1.00  0.00     0.135 A 
ATOM     67  F   UNL A   1      34.836  32.403  32.580  1.00  0.00    -0.206 F 
ATOM     68  C   UNL A   1      34.149  33.816  30.839  1.00  0.00     0.059 A 
ATOM     69  C   UNL A   1      35.797  34.760  29.325  1.00  0.00     0.059 A 
ATOM     70  F   UNL A   1      38.065  34.221  29.592  1.00  0.00    -0.206 F 
ATOM     71  C   UNL A   1      34.474  34.605  29.735  1.00  0.00     0.060 A 
BRANCH  71  72
ATOM     72  S   UNL A   1      33.139  35.433  28.846  1.00  0.00     0.124 S 
ATOM     73  O   UNL A   1      32.341  35.963  29.948  1.00  0.00    -0.237 OA
ATOM     74  O   UNL A   1      33.857  36.423  28.051  1.00  0.00    -0.237 OA
ATOM     75  O   UNL A   1      32.517  34.354  28.084  1.00  0.00    -0.744 OA
ENDBRANCH  71  72
ENDBRANCH  50  64
BRANCH  51  76
ATOM     76  C   UNL A   1      44.066  28.523  35.627  1.00  0.00     0.058 A 
ATOM     77  C   UNL A   1      45.385  28.870  35.302  1.00  0.00     0.135 A 
ATOM     78  C   UNL A   1      43.873  27.530  36.601  1.00  0.00     0.135 A 
ATOM     79  F   UNL A   1      45.621  29.809  34.372  1.00  0.00    -0.206 F 
ATOM     80  C   UNL A   1      46.473  28.250  35.907  1.00  0.00     0.059 A 
ATOM     81  C   UNL A   1      44.945  26.911  37.237  1.00  0.00     0.059 A 
ATOM     82  F   UNL A   1      42.630  27.174  36.960  1.00  0.00    -0.206 F 
ATOM     83  C   UNL A   1      46.242  27.273  36.876  1.00  0.00     0.060 A 
BRANCH  83  84
ATOM     84  S   UNL A   1      47.661  26.514  37.696  1.00  0.00     0.124 S 
ATOM     85  O   UNL A   1      47.272  26.600  39.098  1.00  0.00    -0.237 OA
ATOM     86  O   UNL A   1      47.672  25.174  37.116  1.00  0.00    -0.237 OA
ATOM     87  O   UNL A   1      48.775  27.369  37.294  1.00  0.00    -0.744 OA
ENDBRANCH  83  84
ENDBRANCH  51  76
BRANCH  63  88
ATOM     88  C   UNL A   1      40.126  34.028  37.321  1.00  0.00     0.058 A 
ATOM     89  C   UNL A   1      40.889  35.205  37.334  1.00  0.00     0.135 A 
ATOM     90  C   UNL A   1      39.288  33.772  38.418  1.00  0.00     0.135 A 
ATOM     91  F   UNL A   1      41.711  35.489  36.313  1.00  0.00    -0.206 F 
ATOM     92  C   UNL A   1      40.826  36.096  38.400  1.00  0.00     0.059 A 
ATOM     93  C   UNL A   1      39.193  34.661  39.484  1.00  0.00     0.059 A 
ATOM     94  F   UNL A   1      38.534  32.662  38.448  1.00  0.00    -0.206 F 
ATOM     95  C   UNL A   1      39.970  35.819  39.468  1.00  0.00     0.060 A 
BRANCH  95  96
ATOM     96  S   UNL A   1      39.852  37.014  40.816  1.00  0.00     0.124 S 
ATOM     97  O   UNL A   1      38.606  37.700  40.492  1.00  0.00    -0.237 OA
ATOM     98  O   UNL A   1      39.813  36.153  41.995  1.00  0.00    -0.237 OA
ATOM     99  O   UNL A   1      41.066  37.811  40.670  1.00  0.00    -0.744 OA
ENDBRANCH  95  96
ENDBRANCH  63  88
ENDBRANCH  37  38
ENDBRANCH  29  32
ENDBRANCH  27  28
ENDBRANCH  26  27
ENDBRANCH   1  26
TORSDOF 18
ENDMDL
MODEL 3
REMARK VINA RESULT:     -10.9      4.983     10.697
REMARK SMILES CC[C@@]1(C)C[C@@H]([NH2+]C[C@H]2CC[C@@H](C(=O)NCCCCNC(=O)c3ccc(-c4c5nc(c(-c6c(F)cc(S(=O)(=O)[O-])cc6F)c6ccc([nH]6)c(-c6c(F)cc(S(=O)(=O)[O-])cc6F)c6nc(c(-c7c(F)cc(S(=O)(=O)[O-])cc7F)c7ccc4[nH]7)C=C6)C=C5)cc3)CC2)CCO1
REMARK SMILES IDX 17 1 16 2 15 3 13 4 14 5 12 7 9 8 10 9 90 10 11 11 89 12
REMARK SMILES IDX 8 13 7 14 6 17 3 18 4 19 5 20 93 21 92 22 91 23 2 24 1 25
REMARK SMILES IDX 18 26 19 27 20 28 21 29 22 31 23 32 24 33 88 34 25 35 87 36
REMARK SMILES IDX 26 37 27 38 28 39 81 40 29 41 86 42 80 43 82 44 30 45 85 46
REMARK SMILES IDX 79 47 78 48 31 50 65 51 44 52 64 53 45 54 48 55 63 56 83 57
REMARK SMILES IDX 46 58 47 59 62 61 84 62 49 63 32 64 33 65 42 66 34 67 35 68
REMARK SMILES IDX 41 69 43 70 36 71 37 72 38 73 39 74 40 75 66 76 67 77 76 78
REMARK SMILES IDX 68 79 69 80 75 81 77 82 70 83 71 84 72 85 73 86 74 87 50 88
REMARK SMILES IDX 51 89 60 90 52 91 53 92 59 93 61 94 54 95 55 96 56 97 57 98
REMARK SMILES IDX 58 99
REMARK H PARENT 15 6 7 15 7 16 20 30 82 49 48 60
REMARK Flexibility Score: inf
ROOT
ATOM      1  C   UNL A   1      33.437  30.106  26.949  1.00  0.00     0.023 C 
ENDROOT
BRANCH   1   2
ATOM      2  C   UNL A   1      32.178  29.772  26.150  1.00  0.00     0.116 C 
BRANCH   2   3
ATOM      3  N   UNL A   1      31.571  28.526  26.573  1.00  0.00    -0.356 N 
ATOM      4  C   UNL A   1      31.417  27.340  25.924  1.00  0.00     0.223 C 
ATOM      5  O   UNL A   1      30.856  26.426  26.535  1.00  0.00    -0.275 OA
ATOM      6  H   UNL A   1      31.206  28.540  27.487  1.00  0.00     0.163 HD
BRANCH   4   7
ATOM      7  C   UNL A   1      31.959  27.096  24.516  1.00  0.00     0.078 C 
ATOM      8  C   UNL A   1      32.565  25.154  22.302  1.00  0.00     0.044 C 
ATOM      9  C   UNL A   1      31.416  26.165  22.249  1.00  0.00     0.010 C 
ATOM     10  C   UNL A   1      33.709  25.851  23.072  1.00  0.00     0.010 C 
ATOM     11  C   UNL A   1      30.864  26.532  23.613  1.00  0.00     0.014 C 
ATOM     12  C   UNL A   1      33.290  26.331  24.471  1.00  0.00     0.014 C 
BRANCH   8  13
ATOM     13  C   UNL A   1      32.284  23.750  22.910  1.00  0.00     0.264 C 
BRANCH  13  14
ATOM     14  N   UNL A   1      33.362  22.761  23.037  1.00  0.00    -0.343 N 
ATOM     15  H   UNL A   1      33.054  21.903  22.580  1.00  0.00     0.346 HD
ATOM     16  H   UNL A   1      34.181  23.191  22.609  1.00  0.00     0.346 HD
BRANCH  14  17
ATOM     17  C   UNL A   1      33.766  22.419  24.409  1.00  0.00     0.187 C 
ATOM     18  C   UNL A   1      33.051  19.927  24.463  1.00  0.00     0.071 C 
ATOM     19  C   UNL A   1      33.668  18.554  24.789  1.00  0.00     0.042 C 
ATOM     20  C   UNL A   1      34.207  20.961  24.550  1.00  0.00     0.100 C 
ATOM     21  O   UNL A   1      32.122  20.246  25.514  1.00  0.00    -0.375 OA
ATOM     22  C   UNL A   1      31.555  21.554  25.396  1.00  0.00     0.167 C 
ATOM     23  C   UNL A   1      32.617  22.648  25.416  1.00  0.00     0.093 C 
BRANCH  18  24
ATOM     24  C   UNL A   1      32.310  19.812  23.099  1.00  0.00     0.032 C 
ATOM     25  C   UNL A   1      32.283  18.413  22.483  1.00  0.00     0.007 C 
ENDBRANCH  18  24
ENDBRANCH  14  17
ENDBRANCH  13  14
ENDBRANCH   8  13
ENDBRANCH   4   7
ENDBRANCH   2   3
ENDBRANCH   1   2
BRANCH   1  26
ATOM     26  C   UNL A   1      34.526  29.043  26.884  1.00  0.00     0.023 C 
BRANCH  26  27
ATOM     27  C   UNL A   1      35.766  29.347  27.713  1.00  0.00     0.116 C 
BRANCH  27  28
ATOM     28  N   UNL A   1      35.455  29.943  29.005  1.00  0.00    -0.352 N 
ATOM     29  C   UNL A   1      36.324  30.309  30.012  1.00  0.00     0.251 C 
ATOM     30  H   UNL A   1      34.501  30.106  29.184  1.00  0.00     0.163 HD
ATOM     31  O   UNL A   1      35.901  30.685  31.094  1.00  0.00    -0.269 OA
BRANCH  29  32
ATOM     32  C   UNL A   1      37.776  30.194  29.762  1.00  0.00     0.039 A 
ATOM     33  C   UNL A   1      38.626  29.898  30.829  1.00  0.00     0.014 A 
ATOM     34  C   UNL A   1      38.270  30.283  28.458  1.00  0.00     0.014 A 
ATOM     35  C   UNL A   1      39.965  29.597  30.573  1.00  0.00     0.010 A 
ATOM     36  C   UNL A   1      39.583  29.909  28.200  1.00  0.00     0.010 A 
ATOM     37  C   UNL A   1      40.439  29.548  29.252  1.00  0.00    -0.014 A 
BRANCH  37  38
ATOM     38  C   UNL A   1      41.818  29.099  28.936  1.00  0.00     0.031 A 
ATOM     39  C   UNL A   1      42.946  30.091  28.935  1.00  0.00     0.074 A 
ATOM     40  C   UNL A   1      42.034  27.824  28.554  1.00  0.00     0.049 A 
ATOM     41  N   UNL A   1      44.189  29.927  28.565  1.00  0.00    -0.248 NA
ATOM     42  C   UNL A   1      42.626  31.459  29.378  1.00  0.00     0.031 C 
ATOM     43  C   UNL A   1      41.009  26.780  28.465  1.00  0.00     0.029 A 
ATOM     44  N   UNL A   1      43.183  27.193  28.149  1.00  0.00    -0.354 N 
ATOM     45  C   UNL A   1      44.794  31.170  28.712  1.00  0.00     0.074 A 
ATOM     46  C   UNL A   1      43.770  32.089  29.159  1.00  0.00     0.031 C 
ATOM     47  C   UNL A   1      41.578  25.638  28.049  1.00  0.00     0.029 A 
ATOM     48  C   UNL A   1      42.997  25.875  27.800  1.00  0.00     0.049 A 
ATOM     49  H   UNL A   1      44.059  27.641  28.112  1.00  0.00     0.167 HD
ATOM     50  C   UNL A   1      46.089  31.507  28.513  1.00  0.00     0.037 A 
ATOM     51  C   UNL A   1      43.867  24.965  27.319  1.00  0.00     0.037 A 
ATOM     52  C   UNL A   1      47.109  30.580  28.101  1.00  0.00     0.049 A 
ATOM     53  C   UNL A   1      45.300  25.365  27.103  1.00  0.00     0.074 A 
ATOM     54  C   UNL A   1      48.464  30.806  27.943  1.00  0.00     0.029 A 
ATOM     55  N   UNL A   1      46.886  29.248  27.780  1.00  0.00    -0.354 N 
ATOM     56  N   UNL A   1      45.870  26.529  27.311  1.00  0.00    -0.248 NA
ATOM     57  C   UNL A   1      46.210  24.334  26.585  1.00  0.00     0.031 C 
ATOM     58  C   UNL A   1      49.056  29.623  27.489  1.00  0.00     0.029 A 
ATOM     59  C   UNL A   1      48.074  28.647  27.402  1.00  0.00     0.049 A 
ATOM     60  H   UNL A   1      46.011  28.798  27.815  1.00  0.00     0.167 HD
ATOM     61  C   UNL A   1      47.207  26.363  26.967  1.00  0.00     0.074 A 
ATOM     62  C   UNL A   1      47.365  24.985  26.550  1.00  0.00     0.031 C 
ATOM     63  C   UNL A   1      48.213  27.272  26.995  1.00  0.00     0.037 A 
BRANCH  50  64
ATOM     64  C   UNL A   1      46.477  32.939  28.749  1.00  0.00     0.058 A 
ATOM     65  C   UNL A   1      46.897  33.389  30.012  1.00  0.00     0.135 A 
ATOM     66  C   UNL A   1      46.458  33.868  27.696  1.00  0.00     0.135 A 
ATOM     67  F   UNL A   1      46.918  32.545  31.056  1.00  0.00    -0.206 F 
ATOM     68  C   UNL A   1      47.252  34.714  30.231  1.00  0.00     0.059 A 
ATOM     69  C   UNL A   1      46.835  35.194  27.886  1.00  0.00     0.059 A 
ATOM     70  F   UNL A   1      46.063  33.491  26.470  1.00  0.00    -0.206 F 
ATOM     71  C   UNL A   1      47.216  35.611  29.161  1.00  0.00     0.060 A 
BRANCH  71  72
ATOM     72  S   UNL A   1      47.682  37.328  29.461  1.00  0.00     0.124 S 
ATOM     73  O   UNL A   1      46.950  38.017  28.401  1.00  0.00    -0.237 OA
ATOM     74  O   UNL A   1      47.193  37.554  30.816  1.00  0.00    -0.237 OA
ATOM     75  O   UNL A   1      49.135  37.317  29.315  1.00  0.00    -0.744 OA
ENDBRANCH  71  72
ENDBRANCH  50  64
BRANCH  51  76
ATOM     76  C   UNL A   1      43.408  23.583  27.021  1.00  0.00     0.058 A 
ATOM     77  C   UNL A   1      43.194  22.658  28.053  1.00  0.00     0.135 A 
ATOM     78  C   UNL A   1      43.157  23.164  25.705  1.00  0.00     0.135 A 
ATOM     79  F   UNL A   1      43.426  23.011  29.327  1.00  0.00    -0.206 F 
ATOM     80  C   UNL A   1      42.760  21.363  27.793  1.00  0.00     0.059 A 
ATOM     81  C   UNL A   1      42.701  21.880  25.420  1.00  0.00     0.059 A 
ATOM     82  F   UNL A   1      43.331  24.016  24.683  1.00  0.00    -0.206 F 
ATOM     83  C   UNL A   1      42.513  20.984  26.472  1.00  0.00     0.060 A 
BRANCH  83  84
ATOM     84  S   UNL A   1      41.897  19.317  26.151  1.00  0.00     0.124 S 
ATOM     85  O   UNL A   1      42.670  18.939  24.974  1.00  0.00    -0.237 OA
ATOM     86  O   UNL A   1      42.233  18.620  27.388  1.00  0.00    -0.237 OA
ATOM     87  O   UNL A   1      40.468  19.526  25.929  1.00  0.00    -0.744 OA
ENDBRANCH  83  84
ENDBRANCH  51  76
BRANCH  63  88
ATOM     88  C   UNL A   1      49.581  26.806  26.582  1.00  0.00     0.058 A 
ATOM     89  C   UNL A   1      50.446  26.181  27.492  1.00  0.00     0.135 A 
ATOM     90  C   UNL A   1      49.997  26.918  25.246  1.00  0.00     0.135 A 
ATOM     91  F   UNL A   1      50.097  26.057  28.782  1.00  0.00    -0.206 F 
ATOM     92  C   UNL A   1      51.682  25.685  27.092  1.00  0.00     0.059 A 
ATOM     93  C   UNL A   1      51.220  26.409  24.819  1.00  0.00     0.059 A 
ATOM     94  F   UNL A   1      49.201  27.502  24.337  1.00  0.00    -0.206 F 
ATOM     95  C   UNL A   1      52.058  25.798  25.752  1.00  0.00     0.060 A 
BRANCH  95  96
ATOM     96  S   UNL A   1      53.639  25.097  25.233  1.00  0.00     0.124 S 
ATOM     97  O   UNL A   1      53.808  25.696  23.913  1.00  0.00    -0.237 OA
ATOM     98  O   UNL A   1      54.549  25.576  26.268  1.00  0.00    -0.237 OA
ATOM     99  O   UNL A   1      53.391  23.658  25.243  1.00  0.00    -0.744 OA
ENDBRANCH  95  96
ENDBRANCH  63  88
ENDBRANCH  37  38
ENDBRANCH  29  32
ENDBRANCH  27  28
ENDBRANCH  26  27
ENDBRANCH   1  26
TORSDOF 18
ENDMDL
