MODEL 1
REMARK VINA RESULT:     -11.1      0.000      0.000
REMARK SMILES CCCC[C@H](CC)C(=O)N1[C@H](C(=O)NCCCCNC(=O)c2ccc(-c3c4nc(c(-c5c(F)cc(S(=O)(=O)[O-])cc5F)c5ccc([nH]5)c(-c5c(F)cc(S(=O)(=O)[O-])cc5F)c5nc(c(-c6c(F)cc(S(=O)(=O)[O-])cc6F)c6ccc3[nH]6)C=C5)C=C4)cc2)COC12CCCCC2
REMARK SMILES IDX 15 1 14 2 12 3 13 4 11 6 10 7 90 8 88 9 89 10 91 11 95 12
REMARK SMILES IDX 92 13 94 14 93 15 8 16 9 17 5 18 4 19 3 20 2 21 1 22 6 23
REMARK SMILES IDX 7 24 16 25 17 26 18 27 19 28 20 29 21 31 22 32 23 33 87 34
REMARK SMILES IDX 24 35 86 36 25 37 26 38 27 39 80 40 28 41 85 42 79 43 81 44
REMARK SMILES IDX 29 45 84 46 78 47 77 48 30 50 64 51 43 52 63 53 44 54 47 55
REMARK SMILES IDX 62 56 82 57 45 58 46 59 61 61 83 62 48 63 31 64 32 65 41 66
REMARK SMILES IDX 33 67 34 68 40 69 42 70 35 71 36 72 37 73 38 74 39 75 65 76
REMARK SMILES IDX 66 77 75 78 67 79 68 80 74 81 76 82 69 83 70 84 71 85 72 86
REMARK SMILES IDX 73 87 49 88 50 89 59 90 51 91 52 92 58 93 60 94 53 95 54 96
REMARK SMILES IDX 55 97 56 98 57 99
REMARK H PARENT 14 5 19 30 81 49 47 60
REMARK Flexibility Score: inf
ROOT
ATOM      1  C   UNL A   1      31.708  29.822  25.535  1.00  0.00     0.116 C 
ENDROOT
BRANCH   1   2
ATOM      2  N   UNL A   1      32.854  29.662  24.658  1.00  0.00    -0.354 N 
ATOM      3  C   UNL A   1      33.434  28.507  24.196  1.00  0.00     0.245 C 
ATOM      4  O   UNL A   1      34.380  28.587  23.412  1.00  0.00    -0.273 OA
ATOM      5  H   UNL A   1      33.274  30.498  24.353  1.00  0.00     0.163 HD
BRANCH   3   6
ATOM      6  C   UNL A   1      32.846  27.163  24.654  1.00  0.00     0.203 C 
ATOM      7  N   UNL A   1      32.318  26.211  23.671  1.00  0.00    -0.299 N 
ATOM      8  C   UNL A   1      32.721  24.859  24.067  1.00  0.00     0.144 C 
ATOM      9  C   UNL A   1      33.943  26.371  25.330  1.00  0.00     0.198 C 
ATOM     10  O   UNL A   1      33.432  25.031  25.330  1.00  0.00    -0.353 OA
ATOM     11  C   UNL A   1      31.556  23.934  24.422  1.00  0.00     0.059 C 
ATOM     12  C   UNL A   1      33.761  24.258  23.100  1.00  0.00     0.059 C 
ATOM     13  C   UNL A   1      31.990  22.507  24.733  1.00  0.00     0.005 C 
ATOM     14  C   UNL A   1      34.070  22.781  23.359  1.00  0.00     0.005 C 
ATOM     15  C   UNL A   1      32.824  21.938  23.596  1.00  0.00     0.000 C 
BRANCH   7  16
ATOM     16  C   UNL A   1      31.560  26.688  22.626  1.00  0.00     0.228 C 
ATOM     17  O   UNL A   1      32.052  26.697  21.488  1.00  0.00    -0.274 OA
BRANCH  16  18
ATOM     18  C   UNL A   1      30.217  27.444  22.756  1.00  0.00     0.078 C 
BRANCH  18  19
ATOM     19  C   UNL A   1      30.360  28.893  22.232  1.00  0.00     0.013 C 
BRANCH  19  20
ATOM     20  C   UNL A   1      29.060  29.714  22.255  1.00  0.00     0.001 C 
BRANCH  20  21
ATOM     21  C   UNL A   1      28.987  30.848  23.283  1.00  0.00    -0.003 C 
ATOM     22  C   UNL A   1      27.579  31.359  23.539  1.00  0.00     0.004 C 
ENDBRANCH  20  21
ENDBRANCH  19  20
ENDBRANCH  18  19
BRANCH  18  23
ATOM     23  C   UNL A   1      29.290  27.382  23.982  1.00  0.00     0.010 C 
ATOM     24  C   UNL A   1      28.265  26.272  24.034  1.00  0.00     0.005 C 
ENDBRANCH  18  23
ENDBRANCH  16  18
ENDBRANCH   7  16
ENDBRANCH   3   6
ENDBRANCH   1   2
BRANCH   1  25
ATOM     25  C   UNL A   1      32.099  30.477  26.854  1.00  0.00     0.023 C 
BRANCH  25  26
ATOM     26  C   UNL A   1      31.850  31.985  26.894  1.00  0.00     0.023 C 
BRANCH  26  27
ATOM     27  C   UNL A   1      32.992  32.809  27.481  1.00  0.00     0.116 C 
BRANCH  27  28
ATOM     28  N   UNL A   1      32.609  34.184  27.769  1.00  0.00    -0.352 N 
ATOM     29  C   UNL A   1      33.111  35.032  28.729  1.00  0.00     0.251 C 
ATOM     30  H   UNL A   1      31.896  34.557  27.202  1.00  0.00     0.163 HD
ATOM     31  O   UNL A   1      32.576  36.119  28.932  1.00  0.00    -0.269 OA
BRANCH  29  32
ATOM     32  C   UNL A   1      34.275  34.608  29.533  1.00  0.00     0.039 A 
ATOM     33  C   UNL A   1      34.064  34.125  30.827  1.00  0.00     0.014 A 
ATOM     34  C   UNL A   1      35.565  34.648  28.996  1.00  0.00     0.014 A 
ATOM     35  C   UNL A   1      35.140  33.614  31.554  1.00  0.00     0.010 A 
ATOM     36  C   UNL A   1      36.621  34.069  29.693  1.00  0.00     0.010 A 
ATOM     37  C   UNL A   1      36.419  33.543  30.979  1.00  0.00    -0.014 A 
BRANCH  37  38
ATOM     38  C   UNL A   1      37.553  32.903  31.695  1.00  0.00     0.031 A 
ATOM     39  C   UNL A   1      38.222  31.684  31.124  1.00  0.00     0.074 A 
ATOM     40  C   UNL A   1      37.930  33.378  32.899  1.00  0.00     0.049 A 
ATOM     41  N   UNL A   1      39.187  30.959  31.629  1.00  0.00    -0.248 NA
ATOM     42  C   UNL A   1      37.722  31.199  29.829  1.00  0.00     0.031 C 
ATOM     43  C   UNL A   1      37.316  34.516  33.587  1.00  0.00     0.029 A 
ATOM     44  N   UNL A   1      38.908  32.955  33.764  1.00  0.00    -0.354 N 
ATOM     45  C   UNL A   1      39.400  29.927  30.724  1.00  0.00     0.074 A 
ATOM     46  C   UNL A   1      38.425  30.088  29.667  1.00  0.00     0.031 C 
ATOM     47  C   UNL A   1      37.944  34.713  34.757  1.00  0.00     0.029 A 
ATOM     48  C   UNL A   1      38.978  33.695  34.921  1.00  0.00     0.049 A 
ATOM     49  H   UNL A   1      39.503  32.195  33.573  1.00  0.00     0.167 HD
ATOM     50  C   UNL A   1      40.336  28.948  30.757  1.00  0.00     0.037 A 
ATOM     51  C   UNL A   1      39.776  33.564  35.998  1.00  0.00     0.037 A 
ATOM     52  C   UNL A   1      41.311  28.802  31.808  1.00  0.00     0.049 A 
ATOM     53  C   UNL A   1      40.811  32.474  36.016  1.00  0.00     0.074 A 
ATOM     54  C   UNL A   1      42.345  27.886  31.903  1.00  0.00     0.029 A 
ATOM     55  N   UNL A   1      41.365  29.583  32.954  1.00  0.00    -0.354 N 
ATOM     56  N   UNL A   1      41.054  31.555  35.112  1.00  0.00    -0.248 NA
ATOM     57  C   UNL A   1      41.685  32.407  37.195  1.00  0.00     0.031 C 
ATOM     58  C   UNL A   1      42.991  28.082  33.128  1.00  0.00     0.029 A 
ATOM     59  C   UNL A   1      42.396  29.154  33.775  1.00  0.00     0.049 A 
ATOM     60  H   UNL A   1      40.759  30.333  33.155  1.00  0.00     0.167 HD
ATOM     61  C   UNL A   1      42.122  30.811  35.604  1.00  0.00     0.074 A 
ATOM     62  C   UNL A   1      42.486  31.397  36.878  1.00  0.00     0.031 C 
ATOM     63  C   UNL A   1      42.743  29.741  35.047  1.00  0.00     0.037 A 
BRANCH  50  64
ATOM     64  C   UNL A   1      40.339  27.956  29.624  1.00  0.00     0.058 A 
ATOM     65  C   UNL A   1      39.489  26.838  29.617  1.00  0.00     0.135 A 
ATOM     66  C   UNL A   1      41.206  28.121  28.532  1.00  0.00     0.135 A 
ATOM     67  F   UNL A   1      38.647  26.622  30.641  1.00  0.00    -0.206 F 
ATOM     68  C   UNL A   1      39.534  25.894  28.597  1.00  0.00     0.059 A 
ATOM     69  C   UNL A   1      41.244  27.207  27.483  1.00  0.00     0.059 A 
ATOM     70  F   UNL A   1      42.038  29.174  28.481  1.00  0.00    -0.206 F 
ATOM     71  C   UNL A   1      40.422  26.083  27.537  1.00  0.00     0.060 A 
BRANCH  71  72
ATOM     72  S   UNL A   1      40.491  24.833  26.238  1.00  0.00     0.124 S 
ATOM     73  O   UNL A   1      41.354  23.825  26.849  1.00  0.00    -0.237 OA
ATOM     74  O   UNL A   1      39.089  24.458  26.087  1.00  0.00    -0.237 OA
ATOM     75  O   UNL A   1      41.070  25.550  25.106  1.00  0.00    -0.744 OA
ENDBRANCH  71  72
ENDBRANCH  50  64
BRANCH  51  76
ATOM     76  C   UNL A   1      39.633  34.515  37.132  1.00  0.00     0.058 A 
ATOM     77  C   UNL A   1      38.805  34.217  38.224  1.00  0.00     0.135 A 
ATOM     78  C   UNL A   1      40.367  35.711  37.175  1.00  0.00     0.135 A 
ATOM     79  F   UNL A   1      38.077  33.090  38.225  1.00  0.00    -0.206 F 
ATOM     80  C   UNL A   1      38.711  35.068  39.320  1.00  0.00     0.059 A 
ATOM     81  C   UNL A   1      40.309  36.566  38.271  1.00  0.00     0.059 A 
ATOM     82  F   UNL A   1      41.186  36.034  36.161  1.00  0.00    -0.206 F 
ATOM     83  C   UNL A   1      39.477  36.236  39.340  1.00  0.00     0.060 A 
BRANCH  83  84
ATOM     84  S   UNL A   1      39.419  37.284  40.810  1.00  0.00     0.124 S 
ATOM     85  O   UNL A   1      38.504  38.337  40.385  1.00  0.00    -0.237 OA
ATOM     86  O   UNL A   1      38.908  36.363  41.821  1.00  0.00    -0.237 OA
ATOM     87  O   UNL A   1      40.810  37.689  40.988  1.00  0.00    -0.744 OA
ENDBRANCH  83  84
ENDBRANCH  51  76
BRANCH  63  88
ATOM     88  C   UNL A   1      43.897  29.140  35.804  1.00  0.00     0.058 A 
ATOM     89  C   UNL A   1      45.197  29.660  35.704  1.00  0.00     0.135 A 
ATOM     90  C   UNL A   1      43.689  28.061  36.679  1.00  0.00     0.135 A 
ATOM     91  F   UNL A   1      45.453  30.685  34.877  1.00  0.00    -0.206 F 
ATOM     92  C   UNL A   1      46.254  29.118  36.429  1.00  0.00     0.059 A 
ATOM     93  C   UNL A   1      44.725  27.522  37.436  1.00  0.00     0.059 A 
ATOM     94  F   UNL A   1      42.463  27.530  36.819  1.00  0.00    -0.206 F 
ATOM     95  C   UNL A   1      46.007  28.050  37.295  1.00  0.00     0.060 A 
BRANCH  95  96
ATOM     96  S   UNL A   1      47.381  27.379  38.254  1.00  0.00     0.124 S 
ATOM     97  O   UNL A   1      48.490  27.516  37.316  1.00  0.00    -0.237 OA
ATOM     98  O   UNL A   1      47.417  28.267  39.412  1.00  0.00    -0.237 OA
ATOM     99  O   UNL A   1      46.962  26.008  38.535  1.00  0.00    -0.744 OA
ENDBRANCH  95  96
ENDBRANCH  63  88
ENDBRANCH  37  38
ENDBRANCH  29  32
ENDBRANCH  27  28
ENDBRANCH  26  27
ENDBRANCH  25  26
ENDBRANCH   1  25
TORSDOF 20
ENDMDL
MODEL 2
REMARK VINA RESULT:     -10.9      5.112      8.247
REMARK SMILES CCCC[C@H](CC)C(=O)N1[C@H](C(=O)NCCCCNC(=O)c2ccc(-c3c4nc(c(-c5c(F)cc(S(=O)(=O)[O-])cc5F)c5ccc([nH]5)c(-c5c(F)cc(S(=O)(=O)[O-])cc5F)c5nc(c(-c6c(F)cc(S(=O)(=O)[O-])cc6F)c6ccc3[nH]6)C=C5)C=C4)cc2)COC12CCCCC2
REMARK SMILES IDX 15 1 14 2 12 3 13 4 11 6 10 7 90 8 88 9 89 10 91 11 95 12
REMARK SMILES IDX 92 13 94 14 93 15 8 16 9 17 5 18 4 19 3 20 2 21 1 22 6 23
REMARK SMILES IDX 7 24 16 25 17 26 18 27 19 28 20 29 21 31 22 32 23 33 87 34
REMARK SMILES IDX 24 35 86 36 25 37 26 38 27 39 80 40 28 41 85 42 79 43 81 44
REMARK SMILES IDX 29 45 84 46 78 47 77 48 30 50 64 51 43 52 63 53 44 54 47 55
REMARK SMILES IDX 62 56 82 57 45 58 46 59 61 61 83 62 48 63 31 64 32 65 41 66
REMARK SMILES IDX 33 67 34 68 40 69 42 70 35 71 36 72 37 73 38 74 39 75 65 76
REMARK SMILES IDX 66 77 75 78 67 79 68 80 74 81 76 82 69 83 70 84 71 85 72 86
REMARK SMILES IDX 73 87 49 88 50 89 59 90 51 91 52 92 58 93 60 94 53 95 54 96
REMARK SMILES IDX 55 97 56 98 57 99
REMARK H PARENT 14 5 19 30 81 49 47 60
REMARK Flexibility Score: inf
ROOT
ATOM      1  C   UNL A   1      34.396  23.088  22.773  1.00  0.00     0.116 C 
ENDROOT
BRANCH   1   2
ATOM      2  N   UNL A   1      33.014  23.022  23.213  1.00  0.00    -0.354 N 
ATOM      3  C   UNL A   1      32.280  23.956  23.901  1.00  0.00     0.245 C 
ATOM      4  O   UNL A   1      31.094  23.725  24.138  1.00  0.00    -0.273 OA
ATOM      5  H   UNL A   1      32.536  22.191  22.986  1.00  0.00     0.163 HD
BRANCH   3   6
ATOM      6  C   UNL A   1      32.970  25.266  24.311  1.00  0.00     0.203 C 
ATOM      7  N   UNL A   1      32.236  26.535  24.270  1.00  0.00    -0.299 N 
ATOM      8  C   UNL A   1      32.594  27.320  25.455  1.00  0.00     0.144 C 
ATOM      9  C   UNL A   1      33.369  25.157  25.766  1.00  0.00     0.198 C 
ATOM     10  O   UNL A   1      33.597  26.519  26.149  1.00  0.00    -0.353 OA
ATOM     11  C   UNL A   1      33.317  28.632  25.145  1.00  0.00     0.059 C 
ATOM     12  C   UNL A   1      31.419  27.439  26.448  1.00  0.00     0.059 C 
ATOM     13  C   UNL A   1      33.590  29.478  26.383  1.00  0.00     0.005 C 
ATOM     14  C   UNL A   1      31.681  28.406  27.606  1.00  0.00     0.005 C 
ATOM     15  C   UNL A   1      32.307  29.722  27.162  1.00  0.00     0.000 C 
BRANCH   7  16
ATOM     16  C   UNL A   1      31.411  26.791  23.199  1.00  0.00     0.228 C 
ATOM     17  O   UNL A   1      31.921  26.956  22.080  1.00  0.00    -0.274 OA
BRANCH  16  18
ATOM     18  C   UNL A   1      29.905  27.131  23.279  1.00  0.00     0.078 C 
BRANCH  18  19
ATOM     19  C   UNL A   1      29.704  28.651  23.487  1.00  0.00     0.013 C 
BRANCH  19  20
ATOM     20  C   UNL A   1      28.993  29.368  22.329  1.00  0.00     0.001 C 
BRANCH  20  21
ATOM     21  C   UNL A   1      27.829  30.291  22.709  1.00  0.00    -0.003 C 
ATOM     22  C   UNL A   1      28.250  31.523  23.492  1.00  0.00     0.004 C 
ENDBRANCH  20  21
ENDBRANCH  19  20
ENDBRANCH  18  19
BRANCH  18  23
ATOM     23  C   UNL A   1      28.862  26.318  24.065  1.00  0.00     0.010 C 
ATOM     24  C   UNL A   1      27.418  26.755  23.980  1.00  0.00     0.005 C 
ENDBRANCH  18  23
ENDBRANCH  16  18
ENDBRANCH   7  16
ENDBRANCH   3   6
ENDBRANCH   1   2
BRANCH   1  25
ATOM     25  C   UNL A   1      35.340  22.470  23.798  1.00  0.00     0.023 C 
BRANCH  25  26
ATOM     26  C   UNL A   1      36.571  23.326  24.098  1.00  0.00     0.023 C 
BRANCH  26  27
ATOM     27  C   UNL A   1      36.932  23.437  25.576  1.00  0.00     0.116 C 
BRANCH  27  28
ATOM     28  N   UNL A   1      37.931  22.463  25.992  1.00  0.00    -0.352 N 
ATOM     29  C   UNL A   1      39.163  22.686  26.559  1.00  0.00     0.251 C 
ATOM     30  H   UNL A   1      37.693  21.518  25.847  1.00  0.00     0.163 HD
ATOM     31  O   UNL A   1      39.946  21.753  26.720  1.00  0.00    -0.269 OA
BRANCH  29  32
ATOM     32  C   UNL A   1      39.548  24.061  26.940  1.00  0.00     0.039 A 
ATOM     33  C   UNL A   1      39.402  24.461  28.270  1.00  0.00     0.014 A 
ATOM     34  C   UNL A   1      40.091  24.937  25.996  1.00  0.00     0.014 A 
ATOM     35  C   UNL A   1      39.869  25.715  28.668  1.00  0.00     0.010 A 
ATOM     36  C   UNL A   1      40.623  26.154  26.409  1.00  0.00     0.010 A 
ATOM     37  C   UNL A   1      40.521  26.555  27.750  1.00  0.00    -0.014 A 
BRANCH  37  38
ATOM     38  C   UNL A   1      41.121  27.845  28.178  1.00  0.00     0.031 A 
ATOM     39  C   UNL A   1      42.609  28.048  28.119  1.00  0.00     0.074 A 
ATOM     40  C   UNL A   1      40.328  28.807  28.691  1.00  0.00     0.049 A 
ATOM     41  N   UNL A   1      43.317  29.081  28.498  1.00  0.00    -0.248 NA
ATOM     42  C   UNL A   1      43.409  26.933  27.590  1.00  0.00     0.031 C 
ATOM     43  C   UNL A   1      38.877  28.705  28.859  1.00  0.00     0.029 A 
ATOM     44  N   UNL A   1      40.632  30.053  29.179  1.00  0.00    -0.354 N 
ATOM     45  C   UNL A   1      44.643  28.737  28.268  1.00  0.00     0.074 A 
ATOM     46  C   UNL A   1      44.644  27.378  27.770  1.00  0.00     0.031 C 
ATOM     47  C   UNL A   1      38.414  29.846  29.393  1.00  0.00     0.029 A 
ATOM     48  C   UNL A   1      39.538  30.747  29.640  1.00  0.00     0.049 A 
ATOM     49  H   UNL A   1      41.546  30.416  29.197  1.00  0.00     0.167 HD
ATOM     50  C   UNL A   1      45.757  29.490  28.434  1.00  0.00     0.037 A 
ATOM     51  C   UNL A   1      39.447  31.966  30.207  1.00  0.00     0.037 A 
ATOM     52  C   UNL A   1      45.746  30.846  28.920  1.00  0.00     0.049 A 
ATOM     53  C   UNL A   1      40.693  32.788  30.381  1.00  0.00     0.074 A 
ATOM     54  C   UNL A   1      46.811  31.720  29.061  1.00  0.00     0.029 A 
ATOM     55  N   UNL A   1      44.616  31.524  29.357  1.00  0.00    -0.354 N 
ATOM     56  N   UNL A   1      41.932  32.479  30.082  1.00  0.00    -0.248 NA
ATOM     57  C   UNL A   1      40.529  34.128  30.962  1.00  0.00     0.031 C 
ATOM     58  C   UNL A   1      46.333  32.904  29.630  1.00  0.00     0.029 A 
ATOM     59  C   UNL A   1      44.960  32.793  29.794  1.00  0.00     0.049 A 
ATOM     60  H   UNL A   1      43.702  31.156  29.356  1.00  0.00     0.167 HD
ATOM     61  C   UNL A   1      42.694  33.592  30.419  1.00  0.00     0.074 A 
ATOM     62  C   UNL A   1      41.774  34.587  30.933  1.00  0.00     0.031 C 
ATOM     63  C   UNL A   1      44.035  33.772  30.312  1.00  0.00     0.037 A 
BRANCH  50  64
ATOM     64  C   UNL A   1      47.079  28.854  28.095  1.00  0.00     0.058 A 
ATOM     65  C   UNL A   1      47.613  28.905  26.797  1.00  0.00     0.135 A 
ATOM     66  C   UNL A   1      47.821  28.179  29.078  1.00  0.00     0.135 A 
ATOM     67  F   UNL A   1      46.943  29.528  25.813  1.00  0.00    -0.206 F 
ATOM     68  C   UNL A   1      48.807  28.270  26.473  1.00  0.00     0.059 A 
ATOM     69  C   UNL A   1      49.035  27.564  28.785  1.00  0.00     0.059 A 
ATOM     70  F   UNL A   1      47.362  28.103  30.337  1.00  0.00    -0.206 F 
ATOM     71  C   UNL A   1      49.508  27.594  27.474  1.00  0.00     0.060 A 
BRANCH  71  72
ATOM     72  S   UNL A   1      51.038  26.746  27.032  1.00  0.00     0.124 S 
ATOM     73  O   UNL A   1      51.627  26.504  28.346  1.00  0.00    -0.237 OA
ATOM     74  O   UNL A   1      50.550  25.563  26.330  1.00  0.00    -0.237 OA
ATOM     75  O   UNL A   1      51.738  27.720  26.201  1.00  0.00    -0.744 OA
ENDBRANCH  71  72
ENDBRANCH  50  64
BRANCH  51  76
ATOM     76  C   UNL A   1      38.115  32.479  30.624  1.00  0.00     0.058 A 
ATOM     77  C   UNL A   1      37.631  32.258  31.922  1.00  0.00     0.135 A 
ATOM     78  C   UNL A   1      37.329  33.250  29.755  1.00  0.00     0.135 A 
ATOM     79  F   UNL A   1      38.343  31.519  32.786  1.00  0.00    -0.206 F 
ATOM     80  C   UNL A   1      36.416  32.787  32.345  1.00  0.00     0.059 A 
ATOM     81  C   UNL A   1      36.122  33.810  30.163  1.00  0.00     0.059 A 
ATOM     82  F   UNL A   1      37.756  33.503  28.507  1.00  0.00    -0.206 F 
ATOM     83  C   UNL A   1      35.673  33.572  31.460  1.00  0.00     0.060 A 
BRANCH  83  84
ATOM     84  S   UNL A   1      34.144  34.331  32.052  1.00  0.00     0.124 S 
ATOM     85  O   UNL A   1      33.427  34.560  30.804  1.00  0.00    -0.237 OA
ATOM     86  O   UNL A   1      33.602  33.289  32.919  1.00  0.00    -0.237 OA
ATOM     87  O   UNL A   1      34.610  35.530  32.743  1.00  0.00    -0.744 OA
ENDBRANCH  83  84
ENDBRANCH  51  76
BRANCH  63  88
ATOM     88  C   UNL A   1      44.591  35.103  30.742  1.00  0.00     0.058 A 
ATOM     89  C   UNL A   1      45.064  35.320  32.045  1.00  0.00     0.135 A 
ATOM     90  C   UNL A   1      44.699  36.159  29.822  1.00  0.00     0.135 A 
ATOM     91  F   UNL A   1      44.978  34.346  32.966  1.00  0.00    -0.206 F 
ATOM     92  C   UNL A   1      45.605  36.543  32.429  1.00  0.00     0.059 A 
ATOM     93  C   UNL A   1      45.262  37.381  30.175  1.00  0.00     0.059 A 
ATOM     94  F   UNL A   1      44.270  36.003  28.559  1.00  0.00    -0.206 F 
ATOM     95  C   UNL A   1      45.701  37.568  31.485  1.00  0.00     0.060 A 
BRANCH  95  96
ATOM     96  S   UNL A   1      46.435  39.140  31.986  1.00  0.00     0.124 S 
ATOM     97  O   UNL A   1      46.965  39.634  30.720  1.00  0.00    -0.237 OA
ATOM     98  O   UNL A   1      45.286  39.864  32.520  1.00  0.00    -0.237 OA
ATOM     99  O   UNL A   1      47.436  38.747  32.975  1.00  0.00    -0.744 OA
ENDBRANCH  95  96
ENDBRANCH  63  88
ENDBRANCH  37  38
ENDBRANCH  29  32
ENDBRANCH  27  28
ENDBRANCH  26  27
ENDBRANCH  25  26
ENDBRANCH   1  25
TORSDOF 20
ENDMDL
MODEL 3
REMARK VINA RESULT:     -10.9      0.434      8.093
REMARK SMILES CCCC[C@H](CC)C(=O)N1[C@H](C(=O)NCCCCNC(=O)c2ccc(-c3c4nc(c(-c5c(F)cc(S(=O)(=O)[O-])cc5F)c5ccc([nH]5)c(-c5c(F)cc(S(=O)(=O)[O-])cc5F)c5nc(c(-c6c(F)cc(S(=O)(=O)[O-])cc6F)c6ccc3[nH]6)C=C5)C=C4)cc2)COC12CCCCC2
REMARK SMILES IDX 15 1 14 2 12 3 13 4 11 6 10 7 90 8 88 9 89 10 91 11 95 12
REMARK SMILES IDX 92 13 94 14 93 15 8 16 9 17 5 18 4 19 3 20 2 21 1 22 6 23
REMARK SMILES IDX 7 24 16 25 17 26 18 27 19 28 20 29 21 31 22 32 23 33 87 34
REMARK SMILES IDX 24 35 86 36 25 37 26 38 27 39 80 40 28 41 85 42 79 43 81 44
REMARK SMILES IDX 29 45 84 46 78 47 77 48 30 50 64 51 43 52 63 53 44 54 47 55
REMARK SMILES IDX 62 56 82 57 45 58 46 59 61 61 83 62 48 63 31 64 32 65 41 66
REMARK SMILES IDX 33 67 34 68 40 69 42 70 35 71 36 72 37 73 38 74 39 75 65 76
REMARK SMILES IDX 66 77 75 78 67 79 68 80 74 81 76 82 69 83 70 84 71 85 72 86
REMARK SMILES IDX 73 87 49 88 50 89 59 90 51 91 52 92 58 93 60 94 53 95 54 96
REMARK SMILES IDX 55 97 56 98 57 99
REMARK H PARENT 14 5 19 30 81 49 47 60
REMARK Flexibility Score: inf
ROOT
ATOM      1  C   UNL A   1      31.884  29.812  25.682  1.00  0.00     0.116 C 
ENDROOT
BRANCH   1   2
ATOM      2  N   UNL A   1      32.975  29.647  24.739  1.00  0.00    -0.354 N 
ATOM      3  C   UNL A   1      33.514  28.491  24.234  1.00  0.00     0.245 C 
ATOM      4  O   UNL A   1      34.414  28.568  23.397  1.00  0.00    -0.273 OA
ATOM      5  H   UNL A   1      33.387  30.482  24.417  1.00  0.00     0.163 HD
BRANCH   3   6
ATOM      6  C   UNL A   1      32.938  27.149  24.713  1.00  0.00     0.203 C 
ATOM      7  N   UNL A   1      32.392  26.190  23.748  1.00  0.00    -0.299 N 
ATOM      8  C   UNL A   1      32.805  24.841  24.145  1.00  0.00     0.144 C 
ATOM      9  C   UNL A   1      34.050  26.364  25.372  1.00  0.00     0.198 C 
ATOM     10  O   UNL A   1      33.542  25.023  25.392  1.00  0.00    -0.353 OA
ATOM     11  C   UNL A   1      31.649  23.916  24.531  1.00  0.00     0.059 C 
ATOM     12  C   UNL A   1      33.827  24.235  23.161  1.00  0.00     0.059 C 
ATOM     13  C   UNL A   1      32.093  22.492  24.844  1.00  0.00     0.005 C 
ATOM     14  C   UNL A   1      34.143  22.760  23.425  1.00  0.00     0.005 C 
ATOM     15  C   UNL A   1      32.904  21.917  23.693  1.00  0.00     0.000 C 
BRANCH   7  16
ATOM     16  C   UNL A   1      31.611  26.657  22.716  1.00  0.00     0.228 C 
ATOM     17  O   UNL A   1      32.119  26.775  21.590  1.00  0.00    -0.274 OA
BRANCH  16  18
ATOM     18  C   UNL A   1      30.205  27.284  22.859  1.00  0.00     0.078 C 
BRANCH  18  19
ATOM     19  C   UNL A   1      30.208  28.742  22.339  1.00  0.00     0.013 C 
BRANCH  19  20
ATOM     20  C   UNL A   1      28.947  29.549  22.688  1.00  0.00     0.001 C 
BRANCH  20  21
ATOM     21  C   UNL A   1      29.152  30.789  23.565  1.00  0.00    -0.003 C 
ATOM     22  C   UNL A   1      28.537  32.057  22.994  1.00  0.00     0.004 C 
ENDBRANCH  20  21
ENDBRANCH  19  20
ENDBRANCH  18  19
BRANCH  18  23
ATOM     23  C   UNL A   1      29.298  27.133  24.092  1.00  0.00     0.010 C 
ATOM     24  C   UNL A   1      27.883  26.651  23.870  1.00  0.00     0.005 C 
ENDBRANCH  18  23
ENDBRANCH  16  18
ENDBRANCH   7  16
ENDBRANCH   3   6
ENDBRANCH   1   2
BRANCH   1  25
ATOM     25  C   UNL A   1      32.343  30.518  26.952  1.00  0.00     0.023 C 
BRANCH  25  26
ATOM     26  C   UNL A   1      32.011  32.010  26.984  1.00  0.00     0.023 C 
BRANCH  26  27
ATOM     27  C   UNL A   1      33.172  32.919  27.378  1.00  0.00     0.116 C 
BRANCH  27  28
ATOM     28  N   UNL A   1      32.739  34.244  27.798  1.00  0.00    -0.352 N 
ATOM     29  C   UNL A   1      33.165  34.984  28.876  1.00  0.00     0.251 C 
ATOM     30  H   UNL A   1      32.048  34.666  27.237  1.00  0.00     0.163 HD
ATOM     31  O   UNL A   1      32.591  36.030  29.170  1.00  0.00    -0.269 OA
BRANCH  29  32
ATOM     32  C   UNL A   1      34.293  34.493  29.693  1.00  0.00     0.039 A 
ATOM     33  C   UNL A   1      34.027  33.911  30.935  1.00  0.00     0.014 A 
ATOM     34  C   UNL A   1      35.605  34.570  29.216  1.00  0.00     0.014 A 
ATOM     35  C   UNL A   1      35.070  33.339  31.664  1.00  0.00     0.010 A 
ATOM     36  C   UNL A   1      36.629  33.932  29.908  1.00  0.00     0.010 A 
ATOM     37  C   UNL A   1      36.373  33.308  31.139  1.00  0.00    -0.014 A 
BRANCH  37  38
ATOM     38  C   UNL A   1      37.474  32.608  31.850  1.00  0.00     0.031 A 
ATOM     39  C   UNL A   1      37.990  33.135  33.159  1.00  0.00     0.074 A 
ATOM     40  C   UNL A   1      38.059  31.538  31.275  1.00  0.00     0.049 A 
ATOM     41  N   UNL A   1      38.977  32.693  33.896  1.00  0.00    -0.248 NA
ATOM     42  C   UNL A   1      37.330  34.334  33.697  1.00  0.00     0.031 C 
ATOM     43  C   UNL A   1      37.690  30.969  29.977  1.00  0.00     0.029 A 
ATOM     44  N   UNL A   1      39.098  30.748  31.701  1.00  0.00    -0.354 N 
ATOM     45  C   UNL A   1      39.065  33.565  34.975  1.00  0.00     0.074 A 
ATOM     46  C   UNL A   1      38.069  34.593  34.765  1.00  0.00     0.031 C 
ATOM     47  C   UNL A   1      38.475  29.911  29.721  1.00  0.00     0.029 A 
ATOM     48  C   UNL A   1      39.428  29.748  30.816  1.00  0.00     0.049 A 
ATOM     49  H   UNL A   1      39.561  30.884  32.558  1.00  0.00     0.167 HD
ATOM     50  C   UNL A   1      39.884  33.502  36.052  1.00  0.00     0.037 A 
ATOM     51  C   UNL A   1      40.394  28.811  30.873  1.00  0.00     0.037 A 
ATOM     52  C   UNL A   1      40.865  32.467  36.258  1.00  0.00     0.049 A 
ATOM     53  C   UNL A   1      41.292  28.755  32.078  1.00  0.00     0.074 A 
ATOM     54  C   UNL A   1      41.697  32.274  37.347  1.00  0.00     0.029 A 
ATOM     55  N   UNL A   1      41.156  31.458  35.351  1.00  0.00    -0.354 N 
ATOM     56  N   UNL A   1      41.308  29.538  33.130  1.00  0.00    -0.248 NA
ATOM     57  C   UNL A   1      42.297  27.684  32.108  1.00  0.00     0.031 C 
ATOM     58  C   UNL A   1      42.526  31.180  37.076  1.00  0.00     0.029 A 
ATOM     59  C   UNL A   1      42.174  30.656  35.841  1.00  0.00     0.049 A 
ATOM     60  H   UNL A   1      40.705  31.331  34.485  1.00  0.00     0.167 HD
ATOM     61  C   UNL A   1      42.310  29.045  33.957  1.00  0.00     0.074 A 
ATOM     62  C   UNL A   1      42.869  27.886  33.289  1.00  0.00     0.031 C 
ATOM     63  C   UNL A   1      42.728  29.510  35.162  1.00  0.00     0.037 A 
BRANCH  50  64
ATOM     64  C   UNL A   1      39.754  34.592  37.083  1.00  0.00     0.058 A 
ATOM     65  C   UNL A   1      40.486  35.787  36.993  1.00  0.00     0.135 A 
ATOM     66  C   UNL A   1      38.890  34.439  38.180  1.00  0.00     0.135 A 
ATOM     67  F   UNL A   1      41.336  35.984  35.971  1.00  0.00    -0.206 F 
ATOM     68  C   UNL A   1      40.405  36.768  37.975  1.00  0.00     0.059 A 
ATOM     69  C   UNL A   1      38.768  35.422  39.158  1.00  0.00     0.059 A 
ATOM     70  F   UNL A   1      38.161  33.319  38.316  1.00  0.00    -0.206 F 
ATOM     71  C   UNL A   1      39.549  36.572  39.060  1.00  0.00     0.060 A 
BRANCH  71  72
ATOM     72  S   UNL A   1      39.481  37.838  40.343  1.00  0.00     0.124 S 
ATOM     73  O   UNL A   1      40.660  38.639  40.025  1.00  0.00    -0.237 OA
ATOM     74  O   UNL A   1      38.194  38.478  40.087  1.00  0.00    -0.237 OA
ATOM     75  O   UNL A   1      39.560  37.071  41.583  1.00  0.00    -0.744 OA
ENDBRANCH  71  72
ENDBRANCH  50  64
BRANCH  51  76
ATOM     76  C   UNL A   1      40.534  27.838  29.757  1.00  0.00     0.058 A 
ATOM     77  C   UNL A   1      39.628  26.779  29.606  1.00  0.00     0.135 A 
ATOM     78  C   UNL A   1      41.538  27.984  28.787  1.00  0.00     0.135 A 
ATOM     79  F   UNL A   1      38.656  26.593  30.512  1.00  0.00    -0.206 F 
ATOM     80  C   UNL A   1      39.708  25.900  28.530  1.00  0.00     0.059 A 
ATOM     81  C   UNL A   1      41.624  27.133  27.689  1.00  0.00     0.059 A 
ATOM     82  F   UNL A   1      42.420  28.992  28.879  1.00  0.00    -0.206 F 
ATOM     83  C   UNL A   1      40.704  26.093  27.570  1.00  0.00     0.060 A 
BRANCH  83  84
ATOM     84  S   UNL A   1      40.739  25.003  26.130  1.00  0.00     0.124 S 
ATOM     85  O   UNL A   1      41.174  25.917  25.080  1.00  0.00    -0.237 OA
ATOM     86  O   UNL A   1      41.707  23.990  26.537  1.00  0.00    -0.237 OA
ATOM     87  O   UNL A   1      39.360  24.536  26.029  1.00  0.00    -0.744 OA
ENDBRANCH  83  84
ENDBRANCH  51  76
BRANCH  63  88
ATOM     88  C   UNL A   1      43.835  28.755  35.848  1.00  0.00     0.058 A 
ATOM     89  C   UNL A   1      45.180  29.127  35.708  1.00  0.00     0.135 A 
ATOM     90  C   UNL A   1      43.539  27.676  36.698  1.00  0.00     0.135 A 
ATOM     91  F   UNL A   1      45.520  30.146  34.902  1.00  0.00    -0.206 F 
ATOM     92  C   UNL A   1      46.197  28.444  36.370  1.00  0.00     0.059 A 
ATOM     93  C   UNL A   1      44.535  26.997  37.392  1.00  0.00     0.059 A 
ATOM     94  F   UNL A   1      42.267  27.283  36.876  1.00  0.00    -0.206 F 
ATOM     95  C   UNL A   1      45.863  27.381  37.212  1.00  0.00     0.060 A 
BRANCH  95  96
ATOM     96  S   UNL A   1      47.188  26.524  38.089  1.00  0.00     0.124 S 
ATOM     97  O   UNL A   1      46.967  25.141  37.679  1.00  0.00    -0.237 OA
ATOM     98  O   UNL A   1      48.384  27.162  37.549  1.00  0.00    -0.237 OA
ATOM     99  O   UNL A   1      46.909  26.815  39.493  1.00  0.00    -0.744 OA
ENDBRANCH  95  96
ENDBRANCH  63  88
ENDBRANCH  37  38
ENDBRANCH  29  32
ENDBRANCH  27  28
ENDBRANCH  26  27
ENDBRANCH  25  26
ENDBRANCH   1  25
TORSDOF 20
ENDMDL
