MODEL 1
REMARK VINA RESULT:     -11.5      0.000      0.000
REMARK SMILES CCN(C(=O)c1ccccc1C(=O)NCCCCNC(=O)c1ccc(-c2c3nc(c(-c4c(F)cc(S(=O)(=O)[O-])cc4F)c4ccc([nH]4)c(-c4c(F)cc(S(=O)(=O)[O-])cc4F)c4nc(c(-c5c(F)cc(S(=O)(=O)[O-])cc5F)c5ccc2[nH]5)C=C4)C=C3)cc1)[C@H](CCO)c1ccccc1
REMARK SMILES IDX 15 1 14 2 12 3 13 4 11 6 6 7 7 8 8 9 10 10 9 11 4 12 5 13
REMARK SMILES IDX 3 14 2 15 1 16 88 17 92 18 93 19 97 20 94 21 96 22 95 23
REMARK SMILES IDX 89 24 90 25 91 26 16 28 17 29 18 30 19 31 20 32 21 34 22 35
REMARK SMILES IDX 23 36 87 37 24 38 86 39 25 40 26 41 27 42 80 43 28 44 85 45
REMARK SMILES IDX 79 46 81 47 29 48 84 49 78 50 77 51 30 53 64 54 43 55 63 56
REMARK SMILES IDX 44 57 47 58 62 59 82 60 45 61 46 62 61 64 83 65 48 66 31 67
REMARK SMILES IDX 32 68 41 69 33 70 34 71 40 72 42 73 35 74 36 75 37 76 38 77
REMARK SMILES IDX 39 78 65 79 66 80 75 81 67 82 68 83 74 84 76 85 69 86 70 87
REMARK SMILES IDX 71 88 72 89 73 90 49 91 50 92 59 93 51 94 52 95 58 96 60 97
REMARK SMILES IDX 53 98 54 99 55 100 56 101 57 102
REMARK H PARENT 14 5 91 27 19 33 81 52 47 63
REMARK Flexibility Score: inf
ROOT
ATOM      1  C   UNL A   1      32.348  30.046  26.000  1.00  0.00     0.116 C 
ENDROOT
BRANCH   1   2
ATOM      2  N   UNL A   1      32.818  29.694  24.684  1.00  0.00    -0.352 N 
ATOM      3  C   UNL A   1      32.233  28.958  23.683  1.00  0.00     0.252 C 
ATOM      4  O   UNL A   1      32.793  28.995  22.581  1.00  0.00    -0.269 OA
ATOM      5  H   UNL A   1      33.712  30.042  24.463  1.00  0.00     0.163 HD
BRANCH   3   6
ATOM      6  C   UNL A   1      31.033  28.072  23.798  1.00  0.00     0.052 A 
ATOM      7  C   UNL A   1      30.893  26.816  24.408  1.00  0.00     0.052 A 
ATOM      8  C   UNL A   1      29.625  26.179  24.426  1.00  0.00     0.014 A 
ATOM      9  C   UNL A   1      28.494  26.777  23.876  1.00  0.00     0.001 A 
ATOM     10  C   UNL A   1      29.856  28.668  23.272  1.00  0.00     0.014 A 
ATOM     11  C   UNL A   1      28.610  28.032  23.301  1.00  0.00     0.001 A 
BRANCH   7  12
ATOM     12  C   UNL A   1      31.970  25.931  24.886  1.00  0.00     0.255 C 
ATOM     13  O   UNL A   1      32.443  26.340  25.947  1.00  0.00    -0.269 OA
BRANCH  12  14
ATOM     14  N   UNL A   1      32.411  24.780  24.191  1.00  0.00    -0.332 N 
BRANCH  14  15
ATOM     15  C   UNL A   1      32.249  24.739  22.720  1.00  0.00     0.117 C 
ATOM     16  C   UNL A   1      33.158  25.578  21.844  1.00  0.00     0.027 C 
ENDBRANCH  14  15
BRANCH  14  17
ATOM     17  C   UNL A   1      32.606  23.481  24.967  1.00  0.00     0.118 C 
BRANCH  17  18
ATOM     18  C   UNL A   1      34.046  23.044  25.155  1.00  0.00    -0.025 A 
ATOM     19  C   UNL A   1      34.951  23.940  25.764  1.00  0.00     0.006 A 
ATOM     20  C   UNL A   1      34.530  21.836  24.645  1.00  0.00     0.006 A 
ATOM     21  C   UNL A   1      36.306  23.641  25.848  1.00  0.00     0.000 A 
ATOM     22  C   UNL A   1      35.889  21.535  24.741  1.00  0.00     0.000 A 
ATOM     23  C   UNL A   1      36.774  22.437  25.335  1.00  0.00     0.000 A 
ENDBRANCH  17  18
BRANCH  17  24
ATOM     24  C   UNL A   1      31.830  23.348  26.320  1.00  0.00     0.058 C 
BRANCH  24  25
ATOM     25  C   UNL A   1      30.386  22.845  26.291  1.00  0.00     0.158 C 
BRANCH  25  26
ATOM     26  O   UNL A   1      29.602  23.531  27.264  1.00  0.00    -0.396 OA
ATOM     27  H   UNL A   1      28.997  24.144  26.818  1.00  0.00     0.210 HD
ENDBRANCH  25  26
ENDBRANCH  24  25
ENDBRANCH  17  24
ENDBRANCH  14  17
ENDBRANCH  12  14
ENDBRANCH   7  12
ENDBRANCH   3   6
ENDBRANCH   1   2
BRANCH   1  28
ATOM     28  C   UNL A   1      33.196  29.579  27.176  1.00  0.00     0.023 C 
BRANCH  28  29
ATOM     29  C   UNL A   1      34.552  28.931  26.864  1.00  0.00     0.023 C 
BRANCH  29  30
ATOM     30  C   UNL A   1      35.773  29.329  27.702  1.00  0.00     0.116 C 
BRANCH  30  31
ATOM     31  N   UNL A   1      35.526  29.460  29.131  1.00  0.00    -0.352 N 
ATOM     32  C   UNL A   1      36.405  29.709  30.165  1.00  0.00     0.251 C 
ATOM     33  H   UNL A   1      34.586  29.355  29.402  1.00  0.00     0.163 HD
ATOM     34  O   UNL A   1      35.979  29.741  31.319  1.00  0.00    -0.269 OA
BRANCH  32  35
ATOM     35  C   UNL A   1      37.860  29.857  29.935  1.00  0.00     0.039 A 
ATOM     36  C   UNL A   1      38.720  29.310  30.895  1.00  0.00     0.014 A 
ATOM     37  C   UNL A   1      38.387  30.442  28.782  1.00  0.00     0.014 A 
ATOM     38  C   UNL A   1      40.083  29.195  30.625  1.00  0.00     0.010 A 
ATOM     39  C   UNL A   1      39.738  30.270  28.481  1.00  0.00     0.010 A 
ATOM     40  C   UNL A   1      40.579  29.590  29.375  1.00  0.00    -0.014 A 
BRANCH  40  41
ATOM     41  C   UNL A   1      41.931  29.165  28.938  1.00  0.00     0.031 A 
ATOM     42  C   UNL A   1      43.057  30.149  28.855  1.00  0.00     0.074 A 
ATOM     43  C   UNL A   1      42.096  27.888  28.536  1.00  0.00     0.049 A 
ATOM     44  N   UNL A   1      44.284  29.960  28.448  1.00  0.00    -0.248 NA
ATOM     45  C   UNL A   1      42.758  31.532  29.256  1.00  0.00     0.031 C 
ATOM     46  C   UNL A   1      41.043  26.867  28.517  1.00  0.00     0.029 A 
ATOM     47  N   UNL A   1      43.199  27.227  28.059  1.00  0.00    -0.354 N 
ATOM     48  C   UNL A   1      44.908  31.198  28.539  1.00  0.00     0.074 A 
ATOM     49  C   UNL A   1      43.907  32.140  28.994  1.00  0.00     0.031 C 
ATOM     50  C   UNL A   1      41.555  25.709  28.075  1.00  0.00     0.029 A 
ATOM     51  C   UNL A   1      42.961  25.908  27.747  1.00  0.00     0.049 A 
ATOM     52  H   UNL A   1      44.079  27.656  27.950  1.00  0.00     0.167 HD
ATOM     53  C   UNL A   1      46.200  31.510  28.282  1.00  0.00     0.037 A 
ATOM     54  C   UNL A   1      43.784  24.965  27.250  1.00  0.00     0.037 A 
ATOM     55  C   UNL A   1      47.180  30.553  27.833  1.00  0.00     0.049 A 
ATOM     56  C   UNL A   1      45.217  25.333  26.988  1.00  0.00     0.074 A 
ATOM     57  C   UNL A   1      48.526  30.747  27.584  1.00  0.00     0.029 A 
ATOM     58  N   UNL A   1      46.911  29.217  27.558  1.00  0.00    -0.354 N 
ATOM     59  N   UNL A   1      45.809  26.494  27.147  1.00  0.00    -0.248 NA
ATOM     60  C   UNL A   1      46.097  24.269  26.489  1.00  0.00     0.031 C 
ATOM     61  C   UNL A   1      49.064  29.539  27.124  1.00  0.00     0.029 A 
ATOM     62  C   UNL A   1      48.062  28.580  27.127  1.00  0.00     0.049 A 
ATOM     63  H   UNL A   1      46.031  28.788  27.655  1.00  0.00     0.167 HD
ATOM     64  C   UNL A   1      47.136  26.296  26.787  1.00  0.00     0.074 A 
ATOM     65  C   UNL A   1      47.261  24.899  26.417  1.00  0.00     0.031 C 
ATOM     66  C   UNL A   1      48.158  27.186  26.765  1.00  0.00     0.037 A 
BRANCH  53  67
ATOM     67  C   UNL A   1      46.620  32.941  28.479  1.00  0.00     0.058 A 
ATOM     68  C   UNL A   1      47.079  33.409  29.722  1.00  0.00     0.135 A 
ATOM     69  C   UNL A   1      46.571  33.858  27.416  1.00  0.00     0.135 A 
ATOM     70  F   UNL A   1      47.134  32.581  30.777  1.00  0.00    -0.206 F 
ATOM     71  C   UNL A   1      47.433  34.740  29.915  1.00  0.00     0.059 A 
ATOM     72  C   UNL A   1      46.947  35.189  27.579  1.00  0.00     0.059 A 
ATOM     73  F   UNL A   1      46.141  33.467  26.206  1.00  0.00    -0.206 F 
ATOM     74  C   UNL A   1      47.358  35.624  28.838  1.00  0.00     0.060 A 
BRANCH  74  75
ATOM     75  S   UNL A   1      47.801  37.353  29.110  1.00  0.00     0.124 S 
ATOM     76  O   UNL A   1      46.953  37.694  30.248  1.00  0.00    -0.237 OA
ATOM     77  O   UNL A   1      49.231  37.271  29.388  1.00  0.00    -0.237 OA
ATOM     78  O   UNL A   1      47.446  37.997  27.849  1.00  0.00    -0.744 OA
ENDBRANCH  74  75
ENDBRANCH  53  67
BRANCH  54  79
ATOM     79  C   UNL A   1      43.277  23.588  27.006  1.00  0.00     0.058 A 
ATOM     80  C   UNL A   1      43.045  23.126  25.702  1.00  0.00     0.135 A 
ATOM     81  C   UNL A   1      43.053  22.693  28.064  1.00  0.00     0.135 A 
ATOM     82  F   UNL A   1      43.243  23.943  24.656  1.00  0.00    -0.206 F 
ATOM     83  C   UNL A   1      42.599  21.831  25.455  1.00  0.00     0.059 A 
ATOM     84  C   UNL A   1      42.627  21.386  27.840  1.00  0.00     0.059 A 
ATOM     85  F   UNL A   1      43.279  23.077  29.330  1.00  0.00    -0.206 F 
ATOM     86  C   UNL A   1      42.395  20.967  26.531  1.00  0.00     0.060 A 
BRANCH  86  87
ATOM     87  S   UNL A   1      41.874  19.270  26.194  1.00  0.00     0.124 S 
ATOM     88  O   UNL A   1      42.283  18.589  27.417  1.00  0.00    -0.237 OA
ATOM     89  O   UNL A   1      40.436  19.423  25.999  1.00  0.00    -0.237 OA
ATOM     90  O   UNL A   1      42.628  18.921  24.994  1.00  0.00    -0.744 OA
ENDBRANCH  86  87
ENDBRANCH  54  79
BRANCH  66  91
ATOM     91  C   UNL A   1      49.505  26.668  26.347  1.00  0.00     0.058 A 
ATOM     92  C   UNL A   1      49.995  26.861  25.047  1.00  0.00     0.135 A 
ATOM     93  C   UNL A   1      50.334  26.016  27.274  1.00  0.00     0.135 A 
ATOM     94  F   UNL A   1      49.237  27.471  24.122  1.00  0.00    -0.206 F 
ATOM     95  C   UNL A   1      51.255  26.406  24.673  1.00  0.00     0.059 A 
ATOM     96  C   UNL A   1      51.606  25.576  26.930  1.00  0.00     0.059 A 
ATOM     97  F   UNL A   1      49.913  25.816  28.534  1.00  0.00    -0.206 F 
ATOM     98  C   UNL A   1      52.054  25.767  25.623  1.00  0.00     0.060 A 
BRANCH  98  99
ATOM     99  S   UNL A   1      53.702  25.216  25.137  1.00  0.00     0.124 S 
ATOM    100  O   UNL A   1      54.536  25.850  26.153  1.00  0.00    -0.237 OA
ATOM    101  O   UNL A   1      53.586  23.764  25.228  1.00  0.00    -0.237 OA
ATOM    102  O   UNL A   1      53.850  25.742  23.784  1.00  0.00    -0.744 OA
ENDBRANCH  98  99
ENDBRANCH  66  91
ENDBRANCH  40  41
ENDBRANCH  32  35
ENDBRANCH  30  31
ENDBRANCH  29  30
ENDBRANCH  28  29
ENDBRANCH   1  28
TORSDOF 22
ENDMDL
MODEL 2
REMARK VINA RESULT:     -11.1      0.841      8.131
REMARK SMILES CCN(C(=O)c1ccccc1C(=O)NCCCCNC(=O)c1ccc(-c2c3nc(c(-c4c(F)cc(S(=O)(=O)[O-])cc4F)c4ccc([nH]4)c(-c4c(F)cc(S(=O)(=O)[O-])cc4F)c4nc(c(-c5c(F)cc(S(=O)(=O)[O-])cc5F)c5ccc2[nH]5)C=C4)C=C3)cc1)[C@H](CCO)c1ccccc1
REMARK SMILES IDX 15 1 14 2 12 3 13 4 11 6 6 7 7 8 8 9 10 10 9 11 4 12 5 13
REMARK SMILES IDX 3 14 2 15 1 16 88 17 92 18 93 19 97 20 94 21 96 22 95 23
REMARK SMILES IDX 89 24 90 25 91 26 16 28 17 29 18 30 19 31 20 32 21 34 22 35
REMARK SMILES IDX 23 36 87 37 24 38 86 39 25 40 26 41 27 42 80 43 28 44 85 45
REMARK SMILES IDX 79 46 81 47 29 48 84 49 78 50 77 51 30 53 64 54 43 55 63 56
REMARK SMILES IDX 44 57 47 58 62 59 82 60 45 61 46 62 61 64 83 65 48 66 31 67
REMARK SMILES IDX 32 68 41 69 33 70 34 71 40 72 42 73 35 74 36 75 37 76 38 77
REMARK SMILES IDX 39 78 65 79 66 80 75 81 67 82 68 83 74 84 76 85 69 86 70 87
REMARK SMILES IDX 71 88 72 89 73 90 49 91 50 92 59 93 51 94 52 95 58 96 60 97
REMARK SMILES IDX 53 98 54 99 55 100 56 101 57 102
REMARK H PARENT 14 5 91 27 19 33 81 52 47 63
REMARK Flexibility Score: inf
ROOT
ATOM      1  C   UNL A   1      32.559  30.251  25.930  1.00  0.00     0.116 C 
ENDROOT
BRANCH   1   2
ATOM      2  N   UNL A   1      33.148  29.682  24.744  1.00  0.00    -0.352 N 
ATOM      3  C   UNL A   1      32.650  28.789  23.827  1.00  0.00     0.252 C 
ATOM      4  O   UNL A   1      33.315  28.639  22.796  1.00  0.00    -0.269 OA
ATOM      5  H   UNL A   1      34.066  29.986  24.559  1.00  0.00     0.163 HD
BRANCH   3   6
ATOM      6  C   UNL A   1      31.428  27.937  23.969  1.00  0.00     0.052 A 
ATOM      7  C   UNL A   1      31.191  26.830  24.796  1.00  0.00     0.052 A 
ATOM      8  C   UNL A   1      29.918  26.202  24.785  1.00  0.00     0.014 A 
ATOM      9  C   UNL A   1      28.875  26.670  23.991  1.00  0.00     0.001 A 
ATOM     10  C   UNL A   1      30.336  28.408  23.193  1.00  0.00     0.014 A 
ATOM     11  C   UNL A   1      29.083  27.784  23.195  1.00  0.00     0.001 A 
BRANCH   7  12
ATOM     12  C   UNL A   1      32.184  26.065  25.571  1.00  0.00     0.255 C 
ATOM     13  O   UNL A   1      32.407  26.600  26.658  1.00  0.00    -0.269 OA
BRANCH  12  14
ATOM     14  N   UNL A   1      32.812  24.887  25.103  1.00  0.00    -0.332 N 
BRANCH  14  15
ATOM     15  C   UNL A   1      32.506  23.606  25.781  1.00  0.00     0.117 C 
ATOM     16  C   UNL A   1      31.591  22.604  25.106  1.00  0.00     0.027 C 
ENDBRANCH  14  15
BRANCH  14  17
ATOM     17  C   UNL A   1      34.077  25.012  24.260  1.00  0.00     0.118 C 
BRANCH  17  18
ATOM     18  C   UNL A   1      35.170  24.008  24.571  1.00  0.00    -0.025 A 
ATOM     19  C   UNL A   1      35.149  22.760  23.913  1.00  0.00     0.006 A 
ATOM     20  C   UNL A   1      36.126  24.233  25.566  1.00  0.00     0.006 A 
ATOM     21  C   UNL A   1      36.052  21.758  24.251  1.00  0.00     0.000 A 
ATOM     22  C   UNL A   1      37.037  23.229  25.895  1.00  0.00     0.000 A 
ATOM     23  C   UNL A   1      36.996  21.994  25.244  1.00  0.00     0.000 A 
ENDBRANCH  17  18
BRANCH  17  24
ATOM     24  C   UNL A   1      33.881  25.121  22.711  1.00  0.00     0.058 C 
BRANCH  24  25
ATOM     25  C   UNL A   1      32.535  24.713  22.112  1.00  0.00     0.158 C 
BRANCH  25  26
ATOM     26  O   UNL A   1      32.590  23.371  21.634  1.00  0.00    -0.396 OA
ATOM     27  H   UNL A   1      33.276  23.298  20.952  1.00  0.00     0.210 HD
ENDBRANCH  25  26
ENDBRANCH  24  25
ENDBRANCH  17  24
ENDBRANCH  14  17
ENDBRANCH  12  14
ENDBRANCH   7  12
ENDBRANCH   3   6
ENDBRANCH   1   2
BRANCH   1  28
ATOM     28  C   UNL A   1      33.136  29.800  27.265  1.00  0.00     0.023 C 
BRANCH  28  29
ATOM     29  C   UNL A   1      34.644  29.516  27.330  1.00  0.00     0.023 C 
BRANCH  29  30
ATOM     30  C   UNL A   1      35.519  30.369  28.255  1.00  0.00     0.116 C 
BRANCH  30  31
ATOM     31  N   UNL A   1      35.627  29.885  29.624  1.00  0.00    -0.352 N 
ATOM     32  C   UNL A   1      36.744  29.650  30.399  1.00  0.00     0.251 C 
ATOM     33  H   UNL A   1      34.769  29.696  30.067  1.00  0.00     0.163 HD
ATOM     34  O   UNL A   1      36.602  29.199  31.534  1.00  0.00    -0.269 OA
BRANCH  32  35
ATOM     35  C   UNL A   1      38.114  29.850  29.873  1.00  0.00     0.039 A 
ATOM     36  C   UNL A   1      39.163  29.851  30.801  1.00  0.00     0.014 A 
ATOM     37  C   UNL A   1      38.392  29.958  28.509  1.00  0.00     0.014 A 
ATOM     38  C   UNL A   1      40.483  29.787  30.360  1.00  0.00     0.010 A 
ATOM     39  C   UNL A   1      39.708  29.828  28.065  1.00  0.00     0.010 A 
ATOM     40  C   UNL A   1      40.753  29.680  28.989  1.00  0.00    -0.014 A 
BRANCH  40  41
ATOM     41  C   UNL A   1      42.098  29.265  28.521  1.00  0.00     0.031 A 
ATOM     42  C   UNL A   1      42.372  27.845  28.132  1.00  0.00     0.074 A 
ATOM     43  C   UNL A   1      43.087  30.182  28.536  1.00  0.00     0.049 A 
ATOM     44  N   UNL A   1      43.497  27.301  27.749  1.00  0.00    -0.248 NA
ATOM     45  C   UNL A   1      41.242  26.908  28.209  1.00  0.00     0.031 C 
ATOM     46  C   UNL A   1      42.936  31.578  28.962  1.00  0.00     0.029 A 
ATOM     47  N   UNL A   1      44.412  30.086  28.199  1.00  0.00    -0.354 N 
ATOM     48  C   UNL A   1      43.216  25.957  27.541  1.00  0.00     0.074 A 
ATOM     49  C   UNL A   1      41.824  25.760  27.888  1.00  0.00     0.031 C 
ATOM     50  C   UNL A   1      44.112  32.210  28.838  1.00  0.00     0.029 A 
ATOM     51  C   UNL A   1      45.110  31.262  28.358  1.00  0.00     0.049 A 
ATOM     52  H   UNL A   1      44.827  29.254  27.872  1.00  0.00     0.167 HD
ATOM     53  C   UNL A   1      44.042  24.985  27.085  1.00  0.00     0.037 A 
ATOM     54  C   UNL A   1      46.409  31.544  28.143  1.00  0.00     0.037 A 
ATOM     55  C   UNL A   1      45.424  25.206  26.743  1.00  0.00     0.049 A 
ATOM     56  C   UNL A   1      47.301  30.452  27.624  1.00  0.00     0.074 A 
ATOM     57  C   UNL A   1      46.342  24.307  26.230  1.00  0.00     0.029 A 
ATOM     58  N   UNL A   1      46.089  26.418  26.886  1.00  0.00    -0.354 N 
ATOM     59  N   UNL A   1      47.001  29.200  27.365  1.00  0.00    -0.248 NA
ATOM     60  C   UNL A   1      48.701  30.805  27.358  1.00  0.00     0.031 C 
ATOM     61  C   UNL A   1      47.571  24.965  26.099  1.00  0.00     0.029 A 
ATOM     62  C   UNL A   1      47.409  26.286  26.488  1.00  0.00     0.049 A 
ATOM     63  H   UNL A   1      45.682  27.248  27.222  1.00  0.00     0.167 HD
ATOM     64  C   UNL A   1      48.170  28.621  26.886  1.00  0.00     0.074 A 
ATOM     65  C   UNL A   1      49.177  29.664  26.878  1.00  0.00     0.031 C 
ATOM     66  C   UNL A   1      48.391  27.343  26.490  1.00  0.00     0.037 A 
BRANCH  53  67
ATOM     67  C   UNL A   1      43.469  23.601  26.938  1.00  0.00     0.058 A 
ATOM     68  C   UNL A   1      42.981  23.135  25.706  1.00  0.00     0.135 A 
ATOM     69  C   UNL A   1      43.411  22.726  28.035  1.00  0.00     0.135 A 
ATOM     70  F   UNL A   1      42.998  23.933  24.626  1.00  0.00    -0.206 F 
ATOM     71  C   UNL A   1      42.418  21.870  25.576  1.00  0.00     0.059 A 
ATOM     72  C   UNL A   1      42.878  21.445  27.922  1.00  0.00     0.059 A 
ATOM     73  F   UNL A   1      43.864  23.119  29.237  1.00  0.00    -0.206 F 
ATOM     74  C   UNL A   1      42.365  21.034  26.692  1.00  0.00     0.060 A 
BRANCH  74  75
ATOM     75  S   UNL A   1      41.613  19.402  26.513  1.00  0.00     0.124 S 
ATOM     76  O   UNL A   1      40.233  19.754  26.192  1.00  0.00    -0.237 OA
ATOM     77  O   UNL A   1      42.387  18.818  25.423  1.00  0.00    -0.237 OA
ATOM     78  O   UNL A   1      41.815  18.789  27.822  1.00  0.00    -0.744 OA
ENDBRANCH  74  75
ENDBRANCH  53  67
BRANCH  54  79
ATOM     79  C   UNL A   1      46.924  32.918  28.386  1.00  0.00     0.058 A 
ATOM     80  C   UNL A   1      46.908  33.884  27.368  1.00  0.00     0.135 A 
ATOM     81  C   UNL A   1      47.404  33.307  29.646  1.00  0.00     0.135 A 
ATOM     82  F   UNL A   1      46.460  33.562  26.145  1.00  0.00    -0.206 F 
ATOM     83  C   UNL A   1      47.360  35.182  27.586  1.00  0.00     0.059 A 
ATOM     84  C   UNL A   1      47.841  34.606  29.895  1.00  0.00     0.059 A 
ATOM     85  F   UNL A   1      47.421  32.428  30.660  1.00  0.00    -0.206 F 
ATOM     86  C   UNL A   1      47.822  35.535  28.855  1.00  0.00     0.060 A 
BRANCH  86  87
ATOM     87  S   UNL A   1      48.348  37.239  29.144  1.00  0.00     0.124 S 
ATOM     88  O   UNL A   1      48.034  37.864  27.865  1.00  0.00    -0.237 OA
ATOM     89  O   UNL A   1      47.511  37.633  30.271  1.00  0.00    -0.237 OA
ATOM     90  O   UNL A   1      49.770  37.103  29.447  1.00  0.00    -0.744 OA
ENDBRANCH  86  87
ENDBRANCH  54  79
BRANCH  66  91
ATOM     91  C   UNL A   1      49.769  27.012  25.992  1.00  0.00     0.058 A 
ATOM     92  C   UNL A   1      50.124  27.184  24.646  1.00  0.00     0.135 A 
ATOM     93  C   UNL A   1      50.757  26.567  26.884  1.00  0.00     0.135 A 
ATOM     94  F   UNL A   1      49.213  27.600  23.753  1.00  0.00    -0.206 F 
ATOM     95  C   UNL A   1      51.411  26.905  24.195  1.00  0.00     0.059 A 
ATOM     96  C   UNL A   1      52.055  26.306  26.461  1.00  0.00     0.059 A 
ATOM     97  F   UNL A   1      50.468  26.395  28.184  1.00  0.00    -0.206 F 
ATOM     98  C   UNL A   1      52.370  26.469  25.112  1.00  0.00     0.060 A 
BRANCH  98  99
ATOM     99  S   UNL A   1      54.045  26.147  24.523  1.00  0.00     0.124 S 
ATOM    100  O   UNL A   1      54.828  27.056  25.355  1.00  0.00    -0.237 OA
ATOM    101  O   UNL A   1      54.210  24.725  24.809  1.00  0.00    -0.237 OA
ATOM    102  O   UNL A   1      53.978  26.492  23.107  1.00  0.00    -0.744 OA
ENDBRANCH  98  99
ENDBRANCH  66  91
ENDBRANCH  40  41
ENDBRANCH  32  35
ENDBRANCH  30  31
ENDBRANCH  29  30
ENDBRANCH  28  29
ENDBRANCH   1  28
TORSDOF 22
ENDMDL
MODEL 3
REMARK VINA RESULT:     -11.1      6.212      8.256
REMARK SMILES CCN(C(=O)c1ccccc1C(=O)NCCCCNC(=O)c1ccc(-c2c3nc(c(-c4c(F)cc(S(=O)(=O)[O-])cc4F)c4ccc([nH]4)c(-c4c(F)cc(S(=O)(=O)[O-])cc4F)c4nc(c(-c5c(F)cc(S(=O)(=O)[O-])cc5F)c5ccc2[nH]5)C=C4)C=C3)cc1)[C@H](CCO)c1ccccc1
REMARK SMILES IDX 15 1 14 2 12 3 13 4 11 6 6 7 7 8 8 9 10 10 9 11 4 12 5 13
REMARK SMILES IDX 3 14 2 15 1 16 88 17 92 18 93 19 97 20 94 21 96 22 95 23
REMARK SMILES IDX 89 24 90 25 91 26 16 28 17 29 18 30 19 31 20 32 21 34 22 35
REMARK SMILES IDX 23 36 87 37 24 38 86 39 25 40 26 41 27 42 80 43 28 44 85 45
REMARK SMILES IDX 79 46 81 47 29 48 84 49 78 50 77 51 30 53 64 54 43 55 63 56
REMARK SMILES IDX 44 57 47 58 62 59 82 60 45 61 46 62 61 64 83 65 48 66 31 67
REMARK SMILES IDX 32 68 41 69 33 70 34 71 40 72 42 73 35 74 36 75 37 76 38 77
REMARK SMILES IDX 39 78 65 79 66 80 75 81 67 82 68 83 74 84 76 85 69 86 70 87
REMARK SMILES IDX 71 88 72 89 73 90 49 91 50 92 59 93 51 94 52 95 58 96 60 97
REMARK SMILES IDX 53 98 54 99 55 100 56 101 57 102
REMARK H PARENT 14 5 91 27 19 33 81 52 47 63
REMARK Flexibility Score: inf
ROOT
ATOM      1  C   UNL A   1      33.715  28.172  26.376  1.00  0.00     0.116 C 
ENDROOT
BRANCH   1   2
ATOM      2  N   UNL A   1      34.028  28.629  25.046  1.00  0.00    -0.352 N 
ATOM      3  C   UNL A   1      33.261  28.696  23.908  1.00  0.00     0.252 C 
ATOM      4  O   UNL A   1      33.744  29.326  22.962  1.00  0.00    -0.269 OA
ATOM      5  H   UNL A   1      34.952  28.950  24.932  1.00  0.00     0.163 HD
BRANCH   3   6
ATOM      6  C   UNL A   1      31.938  28.038  23.674  1.00  0.00     0.052 A 
ATOM      7  C   UNL A   1      31.624  26.684  23.483  1.00  0.00     0.052 A 
ATOM      8  C   UNL A   1      30.270  26.291  23.318  1.00  0.00     0.014 A 
ATOM      9  C   UNL A   1      29.227  27.212  23.367  1.00  0.00     0.001 A 
ATOM     10  C   UNL A   1      30.850  28.948  23.748  1.00  0.00     0.014 A 
ATOM     11  C   UNL A   1      29.518  28.547  23.590  1.00  0.00     0.001 A 
BRANCH   7  12
ATOM     12  C   UNL A   1      32.562  25.578  23.220  1.00  0.00     0.255 C 
ATOM     13  O   UNL A   1      33.179  25.760  22.169  1.00  0.00    -0.269 OA
BRANCH  12  14
ATOM     14  N   UNL A   1      32.704  24.449  24.059  1.00  0.00    -0.332 N 
BRANCH  14  15
ATOM     15  C   UNL A   1      32.923  24.668  25.507  1.00  0.00     0.117 C 
ATOM     16  C   UNL A   1      31.905  24.151  26.504  1.00  0.00     0.027 C 
ENDBRANCH  14  15
BRANCH  14  17
ATOM     17  C   UNL A   1      33.077  23.108  23.433  1.00  0.00     0.118 C 
BRANCH  17  18
ATOM     18  C   UNL A   1      34.363  22.486  23.941  1.00  0.00    -0.025 A 
ATOM     19  C   UNL A   1      35.592  22.980  23.455  1.00  0.00     0.006 A 
ATOM     20  C   UNL A   1      34.367  21.371  24.784  1.00  0.00     0.006 A 
ATOM     21  C   UNL A   1      36.793  22.367  23.791  1.00  0.00     0.000 A 
ATOM     22  C   UNL A   1      35.576  20.764  25.128  1.00  0.00     0.000 A 
ATOM     23  C   UNL A   1      36.784  21.256  24.628  1.00  0.00     0.000 A 
ENDBRANCH  17  18
BRANCH  17  24
ATOM     24  C   UNL A   1      31.949  22.024  23.373  1.00  0.00     0.058 C 
BRANCH  24  25
ATOM     25  C   UNL A   1      31.857  21.128  22.138  1.00  0.00     0.158 C 
BRANCH  25  26
ATOM     26  O   UNL A   1      32.152  19.777  22.482  1.00  0.00    -0.396 OA
ATOM     27  H   UNL A   1      31.883  19.192  21.757  1.00  0.00     0.210 HD
ENDBRANCH  25  26
ENDBRANCH  24  25
ENDBRANCH  17  24
ENDBRANCH  14  17
ENDBRANCH  12  14
ENDBRANCH   7  12
ENDBRANCH   3   6
ENDBRANCH   1   2
BRANCH   1  28
ATOM     28  C   UNL A   1      33.763  29.213  27.487  1.00  0.00     0.023 C 
BRANCH  28  29
ATOM     29  C   UNL A   1      33.031  30.541  27.250  1.00  0.00     0.023 C 
BRANCH  29  30
ATOM     30  C   UNL A   1      33.844  31.840  27.222  1.00  0.00     0.116 C 
BRANCH  30  31
ATOM     31  N   UNL A   1      33.095  33.047  27.539  1.00  0.00    -0.352 N 
ATOM     32  C   UNL A   1      33.327  34.012  28.498  1.00  0.00     0.251 C 
ATOM     33  H   UNL A   1      32.297  33.200  26.983  1.00  0.00     0.163 HD
ATOM     34  O   UNL A   1      32.531  34.941  28.618  1.00  0.00    -0.269 OA
BRANCH  32  35
ATOM     35  C   UNL A   1      34.464  33.916  29.442  1.00  0.00     0.039 A 
ATOM     36  C   UNL A   1      34.196  33.411  30.720  1.00  0.00     0.014 A 
ATOM     37  C   UNL A   1      35.775  34.234  29.081  1.00  0.00     0.014 A 
ATOM     38  C   UNL A   1      35.247  33.065  31.567  1.00  0.00     0.010 A 
ATOM     39  C   UNL A   1      36.829  33.828  29.899  1.00  0.00     0.010 A 
ATOM     40  C   UNL A   1      36.569  33.186  31.119  1.00  0.00    -0.014 A 
BRANCH  40  41
ATOM     41  C   UNL A   1      37.671  32.512  31.847  1.00  0.00     0.031 A 
ATOM     42  C   UNL A   1      38.138  33.019  33.176  1.00  0.00     0.074 A 
ATOM     43  C   UNL A   1      38.298  31.483  31.240  1.00  0.00     0.049 A 
ATOM     44  N   UNL A   1      39.116  32.583  33.925  1.00  0.00    -0.248 NA
ATOM     45  C   UNL A   1      37.430  34.186  33.724  1.00  0.00     0.031 C 
ATOM     46  C   UNL A   1      37.961  30.955  29.914  1.00  0.00     0.029 A 
ATOM     47  N   UNL A   1      39.350  30.702  31.644  1.00  0.00    -0.354 N 
ATOM     48  C   UNL A   1      39.147  33.421  35.032  1.00  0.00     0.074 A 
ATOM     49  C   UNL A   1      38.120  34.421  34.832  1.00  0.00     0.031 C 
ATOM     50  C   UNL A   1      38.772  29.926  29.625  1.00  0.00     0.029 A 
ATOM     51  C   UNL A   1      39.709  29.741  30.727  1.00  0.00     0.049 A 
ATOM     52  H   UNL A   1      39.806  30.817  32.510  1.00  0.00     0.167 HD
ATOM     53  C   UNL A   1      39.950  33.347  36.121  1.00  0.00     0.037 A 
ATOM     54  C   UNL A   1      40.685  28.814  30.768  1.00  0.00     0.037 A 
ATOM     55  C   UNL A   1      40.965  32.339  36.299  1.00  0.00     0.049 A 
ATOM     56  C   UNL A   1      41.552  28.743  31.993  1.00  0.00     0.074 A 
ATOM     57  C   UNL A   1      41.805  32.140  37.380  1.00  0.00     0.029 A 
ATOM     58  N   UNL A   1      41.279  31.360  35.364  1.00  0.00    -0.354 N 
ATOM     59  N   UNL A   1      41.522  29.500  33.065  1.00  0.00    -0.248 NA
ATOM     60  C   UNL A   1      42.578  27.693  32.023  1.00  0.00     0.031 C 
ATOM     61  C   UNL A   1      42.652  31.066  37.082  1.00  0.00     0.029 A 
ATOM     62  C   UNL A   1      42.311  30.567  35.835  1.00  0.00     0.049 A 
ATOM     63  H   UNL A   1      40.834  31.249  34.494  1.00  0.00     0.167 HD
ATOM     64  C   UNL A   1      42.510  29.006  33.907  1.00  0.00     0.074 A 
ATOM     65  C   UNL A   1      43.109  27.875  33.225  1.00  0.00     0.031 C 
ATOM     66  C   UNL A   1      42.888  29.445  35.133  1.00  0.00     0.037 A 
BRANCH  53  67
ATOM     67  C   UNL A   1      39.761  34.385  37.194  1.00  0.00     0.058 A 
ATOM     68  C   UNL A   1      40.367  35.650  37.108  1.00  0.00     0.135 A 
ATOM     69  C   UNL A   1      38.961  34.121  38.318  1.00  0.00     0.135 A 
ATOM     70  F   UNL A   1      41.154  35.952  36.063  1.00  0.00    -0.206 F 
ATOM     71  C   UNL A   1      40.223  36.597  38.116  1.00  0.00     0.059 A 
ATOM     72  C   UNL A   1      38.779  35.065  39.325  1.00  0.00     0.059 A 
ATOM     73  F   UNL A   1      38.357  32.929  38.452  1.00  0.00    -0.206 F 
ATOM     74  C   UNL A   1      39.431  36.293  39.224  1.00  0.00     0.060 A 
BRANCH  74  75
ATOM     75  S   UNL A   1      39.270  37.526  40.533  1.00  0.00     0.124 S 
ATOM     76  O   UNL A   1      38.217  38.382  39.996  1.00  0.00    -0.237 OA
ATOM     77  O   UNL A   1      38.898  36.712  41.686  1.00  0.00    -0.237 OA
ATOM     78  O   UNL A   1      40.597  38.130  40.597  1.00  0.00    -0.744 OA
ENDBRANCH  74  75
ENDBRANCH  53  67
BRANCH  54  79
ATOM     79  C   UNL A   1      40.864  27.869  29.633  1.00  0.00     0.058 A 
ATOM     80  C   UNL A   1      41.957  27.988  28.761  1.00  0.00     0.135 A 
ATOM     81  C   UNL A   1      39.973  26.806  29.419  1.00  0.00     0.135 A 
ATOM     82  F   UNL A   1      42.837  28.989  28.922  1.00  0.00    -0.206 F 
ATOM     83  C   UNL A   1      42.154  27.096  27.712  1.00  0.00     0.059 A 
ATOM     84  C   UNL A   1      40.162  25.887  28.390  1.00  0.00     0.059 A 
ATOM     85  F   UNL A   1      38.922  26.634  30.237  1.00  0.00    -0.206 F 
ATOM     86  C   UNL A   1      41.252  26.046  27.536  1.00  0.00     0.060 A 
BRANCH  86  87
ATOM     87  S   UNL A   1      41.552  24.858  26.208  1.00  0.00     0.124 S 
ATOM     88  O   UNL A   1      42.944  24.496  26.447  1.00  0.00    -0.237 OA
ATOM     89  O   UNL A   1      40.564  23.823  26.492  1.00  0.00    -0.237 OA
ATOM     90  O   UNL A   1      41.301  25.637  24.999  1.00  0.00    -0.744 OA
ENDBRANCH  86  87
ENDBRANCH  54  79
BRANCH  66  91
ATOM     91  C   UNL A   1      43.986  28.685  35.822  1.00  0.00     0.058 A 
ATOM     92  C   UNL A   1      45.333  29.046  35.673  1.00  0.00     0.135 A 
ATOM     93  C   UNL A   1      43.679  27.616  36.678  1.00  0.00     0.135 A 
ATOM     94  F   UNL A   1      45.678  30.055  34.858  1.00  0.00    -0.206 F 
ATOM     95  C   UNL A   1      46.344  28.358  36.336  1.00  0.00     0.059 A 
ATOM     96  C   UNL A   1      44.670  26.932  37.371  1.00  0.00     0.059 A 
ATOM     97  F   UNL A   1      42.403  27.239  36.860  1.00  0.00    -0.206 F 
ATOM     98  C   UNL A   1      46.002  27.303  37.185  1.00  0.00     0.060 A 
BRANCH  98  99
ATOM     99  S   UNL A   1      47.319  26.443  38.070  1.00  0.00     0.124 S 
ATOM    100  O   UNL A   1      46.561  25.695  39.069  1.00  0.00    -0.237 OA
ATOM    101  O   UNL A   1      47.936  25.646  37.015  1.00  0.00    -0.237 OA
ATOM    102  O   UNL A   1      48.142  27.529  38.591  1.00  0.00    -0.744 OA
ENDBRANCH  98  99
ENDBRANCH  66  91
ENDBRANCH  40  41
ENDBRANCH  32  35
ENDBRANCH  30  31
ENDBRANCH  29  30
ENDBRANCH  28  29
ENDBRANCH   1  28
TORSDOF 22
ENDMDL
