MODEL 1
REMARK VINA RESULT:     -10.9      0.000      0.000
REMARK SMILES C[NH2+]CC(=O)NC[C@H]1CC[C@H](C(=O)NCCCCNC(=O)c2ccc(-c3c4nc(c(-c5c(F)cc(S(=O)(=O)[O-])cc5F)c5ccc([nH]5)c(-c5c(F)cc(S(=O)(=O)[O-])cc5F)c5nc(c(-c6c(F)cc(S(=O)(=O)[O-])cc6F)c6ccc3[nH]6)C=C5)C=C4)cc2)O1
REMARK SMILES IDX 16 1 15 2 14 3 12 4 13 5 11 7 8 8 9 9 88 10 10 11 7 12 6 13
REMARK SMILES IDX 4 14 5 15 3 17 2 18 1 19 17 22 18 23 19 24 20 25 21 27 22 28
REMARK SMILES IDX 23 29 87 30 24 31 86 32 25 33 26 34 27 35 80 36 28 37 85 38
REMARK SMILES IDX 79 39 81 40 29 41 84 42 78 43 77 44 30 46 64 47 43 48 63 49
REMARK SMILES IDX 44 50 47 51 62 52 82 53 45 54 46 55 61 57 83 58 48 59 31 60
REMARK SMILES IDX 32 61 41 62 33 63 34 64 40 65 42 66 35 67 36 68 37 69 38 70
REMARK SMILES IDX 39 71 65 72 66 73 75 74 67 75 68 76 74 77 76 78 69 79 70 80
REMARK SMILES IDX 71 81 72 82 73 83 49 84 50 85 59 86 51 87 52 88 58 89 60 90
REMARK SMILES IDX 53 91 54 92 55 93 56 94 57 95
REMARK H PARENT 14 6 6 16 2 20 2 21 19 26 81 45 47 56
REMARK Flexibility Score: inf
ROOT
ATOM      1  C   UNL A   1      32.515  26.518  26.470  1.00  0.00     0.023 C 
ENDROOT
BRANCH   1   2
ATOM      2  C   UNL A   1      31.286  25.929  25.781  1.00  0.00     0.116 C 
BRANCH   2   3
ATOM      3  N   UNL A   1      30.660  24.904  26.585  1.00  0.00    -0.354 N 
ATOM      4  C   UNL A   1      31.021  23.607  26.795  1.00  0.00     0.249 C 
ATOM      5  O   UNL A   1      30.297  22.928  27.533  1.00  0.00    -0.272 OA
ATOM      6  H   UNL A   1      29.842  25.187  27.056  1.00  0.00     0.163 HD
BRANCH   4   7
ATOM      7  C   UNL A   1      32.243  22.959  26.098  1.00  0.00     0.207 C 
ATOM      8  C   UNL A   1      32.992  20.738  25.941  1.00  0.00     0.138 C 
ATOM      9  C   UNL A   1      33.741  21.366  27.101  1.00  0.00     0.037 C 
ATOM     10  O   UNL A   1      32.047  21.704  25.456  1.00  0.00    -0.363 OA
ATOM     11  C   UNL A   1      33.449  22.841  27.013  1.00  0.00     0.045 C 
BRANCH   8  12
ATOM     12  C   UNL A   1      33.890  20.239  24.791  1.00  0.00     0.148 C 
BRANCH  12  13
ATOM     13  N   UNL A   1      33.149  19.308  23.944  1.00  0.00    -0.349 N 
ATOM     14  C   UNL A   1      33.345  17.979  23.715  1.00  0.00     0.275 C 
ATOM     15  O   UNL A   1      32.741  17.461  22.772  1.00  0.00    -0.269 OA
ATOM     16  H   UNL A   1      32.386  19.702  23.463  1.00  0.00     0.163 HD
BRANCH  14  17
ATOM     17  C   UNL A   1      34.279  17.159  24.605  1.00  0.00     0.361 C 
BRANCH  17  18
ATOM     18  N   UNL A   1      33.653  16.799  25.885  1.00  0.00    -0.341 N 
ATOM     19  C   UNL A   1      32.610  15.795  25.735  1.00  0.00     0.331 C 
ATOM     20  H   UNL A   1      34.372  16.432  26.509  1.00  0.00     0.346 HD
ATOM     21  H   UNL A   1      33.220  17.641  26.265  1.00  0.00     0.346 HD
ENDBRANCH  17  18
ENDBRANCH  14  17
ENDBRANCH  12  13
ENDBRANCH   8  12
ENDBRANCH   4   7
ENDBRANCH   2   3
ENDBRANCH   1   2
BRANCH   1  22
ATOM     22  C   UNL A   1      32.432  28.019  26.746  1.00  0.00     0.023 C 
BRANCH  22  23
ATOM     23  C   UNL A   1      33.772  28.710  26.975  1.00  0.00     0.116 C 
BRANCH  23  24
ATOM     24  N   UNL A   1      33.653  30.041  27.552  1.00  0.00    -0.352 N 
ATOM     25  C   UNL A   1      34.603  30.746  28.258  1.00  0.00     0.251 C 
ATOM     26  H   UNL A   1      32.789  30.493  27.419  1.00  0.00     0.163 HD
ATOM     27  O   UNL A   1      34.327  31.824  28.765  1.00  0.00    -0.269 OA
BRANCH  25  28
ATOM     28  C   UNL A   1      35.944  30.150  28.432  1.00  0.00     0.039 A 
ATOM     29  C   UNL A   1      36.845  30.188  27.365  1.00  0.00     0.014 A 
ATOM     30  C   UNL A   1      36.327  29.626  29.669  1.00  0.00     0.014 A 
ATOM     31  C   UNL A   1      38.162  29.770  27.565  1.00  0.00     0.010 A 
ATOM     32  C   UNL A   1      37.656  29.275  29.883  1.00  0.00     0.010 A 
ATOM     33  C   UNL A   1      38.587  29.351  28.836  1.00  0.00    -0.014 A 
BRANCH  33  34
ATOM     34  C   UNL A   1      40.001  28.989  29.103  1.00  0.00     0.031 A 
ATOM     35  C   UNL A   1      40.943  30.022  29.656  1.00  0.00     0.074 A 
ATOM     36  C   UNL A   1      40.456  27.767  28.763  1.00  0.00     0.049 A 
ATOM     37  N   UNL A   1      42.235  29.949  29.837  1.00  0.00    -0.248 NA
ATOM     38  C   UNL A   1      40.356  31.321  30.022  1.00  0.00     0.031 C 
ATOM     39  C   UNL A   1      39.651  26.695  28.171  1.00  0.00     0.029 A 
ATOM     40  N   UNL A   1      41.715  27.225  28.845  1.00  0.00    -0.354 N 
ATOM     41  C   UNL A   1      42.621  31.197  30.311  1.00  0.00     0.074 A 
ATOM     42  C   UNL A   1      41.432  32.021  30.349  1.00  0.00     0.031 C 
ATOM     43  C   UNL A   1      40.430  25.623  27.959  1.00  0.00     0.029 A 
ATOM     44  C   UNL A   1      41.797  25.940  28.363  1.00  0.00     0.049 A 
ATOM     45  H   UNL A   1      42.486  27.712  29.215  1.00  0.00     0.167 HD
ATOM     46  C   UNL A   1      43.850  31.611  30.701  1.00  0.00     0.037 A 
ATOM     47  C   UNL A   1      42.856  25.115  28.251  1.00  0.00     0.037 A 
ATOM     48  C   UNL A   1      45.019  30.773  30.699  1.00  0.00     0.049 A 
ATOM     49  C   UNL A   1      44.207  25.588  28.715  1.00  0.00     0.074 A 
ATOM     50  C   UNL A   1      46.298  31.079  31.129  1.00  0.00     0.029 A 
ATOM     51  N   UNL A   1      45.051  29.460  30.249  1.00  0.00    -0.354 N 
ATOM     52  N   UNL A   1      44.544  26.755  29.209  1.00  0.00    -0.248 NA
ATOM     53  C   UNL A   1      45.320  24.634  28.611  1.00  0.00     0.031 C 
ATOM     54  C   UNL A   1      47.110  29.960  30.916  1.00  0.00     0.029 A 
ATOM     55  C   UNL A   1      46.328  28.946  30.386  1.00  0.00     0.049 A 
ATOM     56  H   UNL A   1      44.278  28.969  29.888  1.00  0.00     0.167 HD
ATOM     57  C   UNL A   1      45.900  26.666  29.502  1.00  0.00     0.074 A 
ATOM     58  C   UNL A   1      46.321  25.329  29.133  1.00  0.00     0.031 C 
ATOM     59  C   UNL A   1      46.722  27.605  30.030  1.00  0.00     0.037 A 
BRANCH  46  60
ATOM     60  C   UNL A   1      43.986  33.033  31.168  1.00  0.00     0.058 A 
ATOM     61  C   UNL A   1      44.308  34.069  30.279  1.00  0.00     0.135 A 
ATOM     62  C   UNL A   1      43.775  33.365  32.516  1.00  0.00     0.135 A 
ATOM     63  F   UNL A   1      44.537  33.803  28.983  1.00  0.00    -0.206 F 
ATOM     64  C   UNL A   1      44.450  35.383  30.714  1.00  0.00     0.059 A 
ATOM     65  C   UNL A   1      43.885  34.677  32.970  1.00  0.00     0.059 A 
ATOM     66  F   UNL A   1      43.465  32.411  33.407  1.00  0.00    -0.206 F 
ATOM     67  C   UNL A   1      44.240  35.675  32.063  1.00  0.00     0.060 A 
BRANCH  67  68
ATOM     68  S   UNL A   1      44.433  37.384  32.616  1.00  0.00     0.124 S 
ATOM     69  O   UNL A   1      44.175  38.118  31.381  1.00  0.00    -0.237 OA
ATOM     70  O   UNL A   1      43.406  37.498  33.647  1.00  0.00    -0.237 OA
ATOM     71  O   UNL A   1      45.809  37.430  33.098  1.00  0.00    -0.744 OA
ENDBRANCH  67  68
ENDBRANCH  46  60
BRANCH  47  72
ATOM     72  C   UNL A   1      42.675  23.746  27.701  1.00  0.00     0.058 A 
ATOM     73  C   UNL A   1      42.526  22.644  28.556  1.00  0.00     0.135 A 
ATOM     74  C   UNL A   1      42.629  23.513  26.318  1.00  0.00     0.135 A 
ATOM     75  F   UNL A   1      42.569  22.816  29.885  1.00  0.00    -0.206 F 
ATOM     76  C   UNL A   1      42.352  21.356  28.060  1.00  0.00     0.059 A 
ATOM     77  C   UNL A   1      42.435  22.237  25.799  1.00  0.00     0.059 A 
ATOM     78  F   UNL A   1      42.749  24.537  25.459  1.00  0.00    -0.206 F 
ATOM     79  C   UNL A   1      42.307  21.162  26.679  1.00  0.00     0.060 A 
BRANCH  79  80
ATOM     80  S   UNL A   1      42.026  19.494  26.045  1.00  0.00     0.124 S 
ATOM     81  O   UNL A   1      42.459  18.677  27.173  1.00  0.00    -0.237 OA
ATOM     82  O   UNL A   1      40.592  19.504  25.776  1.00  0.00    -0.237 OA
ATOM     83  O   UNL A   1      42.877  19.439  24.860  1.00  0.00    -0.744 OA
ENDBRANCH  79  80
ENDBRANCH  47  72
BRANCH  59  84
ATOM     84  C   UNL A   1      48.150  27.215  30.283  1.00  0.00     0.058 A 
ATOM     85  C   UNL A   1      49.157  27.453  29.337  1.00  0.00     0.135 A 
ATOM     86  C   UNL A   1      48.523  26.662  31.519  1.00  0.00     0.135 A 
ATOM     87  F   UNL A   1      48.849  27.973  28.138  1.00  0.00    -0.206 F 
ATOM     88  C   UNL A   1      50.488  27.148  29.603  1.00  0.00     0.059 A 
ATOM     89  C   UNL A   1      49.851  26.369  31.815  1.00  0.00     0.059 A 
ATOM     90  F   UNL A   1      47.597  26.423  32.461  1.00  0.00    -0.206 F 
ATOM     91  C   UNL A   1      50.825  26.610  30.846  1.00  0.00     0.060 A 
BRANCH  91  92
ATOM     92  S   UNL A   1      52.562  26.269  31.202  1.00  0.00     0.124 S 
ATOM     93  O   UNL A   1      52.933  27.431  32.001  1.00  0.00    -0.237 OA
ATOM     94  O   UNL A   1      52.492  25.001  31.921  1.00  0.00    -0.237 OA
ATOM     95  O   UNL A   1      53.171  26.197  29.877  1.00  0.00    -0.744 OA
ENDBRANCH  91  92
ENDBRANCH  59  84
ENDBRANCH  33  34
ENDBRANCH  25  28
ENDBRANCH  23  24
ENDBRANCH  22  23
ENDBRANCH   1  22
TORSDOF 18
ENDMDL
MODEL 2
REMARK VINA RESULT:     -10.3      5.262     10.095
REMARK SMILES C[NH2+]CC(=O)NC[C@H]1CC[C@H](C(=O)NCCCCNC(=O)c2ccc(-c3c4nc(c(-c5c(F)cc(S(=O)(=O)[O-])cc5F)c5ccc([nH]5)c(-c5c(F)cc(S(=O)(=O)[O-])cc5F)c5nc(c(-c6c(F)cc(S(=O)(=O)[O-])cc6F)c6ccc3[nH]6)C=C5)C=C4)cc2)O1
REMARK SMILES IDX 16 1 15 2 14 3 12 4 13 5 11 7 8 8 9 9 88 10 10 11 7 12 6 13
REMARK SMILES IDX 4 14 5 15 3 17 2 18 1 19 17 22 18 23 19 24 20 25 21 27 22 28
REMARK SMILES IDX 23 29 87 30 24 31 86 32 25 33 26 34 27 35 80 36 28 37 85 38
REMARK SMILES IDX 79 39 81 40 29 41 84 42 78 43 77 44 30 46 64 47 43 48 63 49
REMARK SMILES IDX 44 50 47 51 62 52 82 53 45 54 46 55 61 57 83 58 48 59 31 60
REMARK SMILES IDX 32 61 41 62 33 63 34 64 40 65 42 66 35 67 36 68 37 69 38 70
REMARK SMILES IDX 39 71 65 72 66 73 75 74 67 75 68 76 74 77 76 78 69 79 70 80
REMARK SMILES IDX 71 81 72 82 73 83 49 84 50 85 59 86 51 87 52 88 58 89 60 90
REMARK SMILES IDX 53 91 54 92 55 93 56 94 57 95
REMARK H PARENT 14 6 6 16 2 20 2 21 19 26 81 45 47 56
REMARK Flexibility Score: inf
ROOT
ATOM      1  C   UNL A   1      40.089  22.326  27.275  1.00  0.00     0.023 C 
ENDROOT
BRANCH   1   2
ATOM      2  C   UNL A   1      39.273  21.727  26.132  1.00  0.00     0.116 C 
BRANCH   2   3
ATOM      3  N   UNL A   1      38.518  22.738  25.425  1.00  0.00    -0.354 N 
ATOM      4  C   UNL A   1      37.176  22.852  25.220  1.00  0.00     0.249 C 
ATOM      5  O   UNL A   1      36.782  23.822  24.563  1.00  0.00    -0.272 OA
ATOM      6  H   UNL A   1      39.060  23.458  25.028  1.00  0.00     0.163 HD
BRANCH   4   7
ATOM      7  C   UNL A   1      36.165  21.788  25.716  1.00  0.00     0.207 C 
ATOM      8  C   UNL A   1      34.341  20.726  24.684  1.00  0.00     0.138 C 
ATOM      9  C   UNL A   1      33.776  21.905  25.454  1.00  0.00     0.037 C 
ATOM     10  O   UNL A   1      35.770  20.775  24.798  1.00  0.00    -0.363 OA
ATOM     11  C   UNL A   1      34.910  22.402  26.312  1.00  0.00     0.045 C 
BRANCH   8  12
ATOM     12  C   UNL A   1      33.810  19.351  25.136  1.00  0.00     0.148 C 
BRANCH  12  13
ATOM     13  N   UNL A   1      33.649  18.471  23.981  1.00  0.00    -0.349 N 
ATOM     14  C   UNL A   1      34.064  17.188  23.787  1.00  0.00     0.275 C 
ATOM     15  O   UNL A   1      34.025  16.737  22.639  1.00  0.00    -0.269 OA
ATOM     16  H   UNL A   1      33.162  18.868  23.223  1.00  0.00     0.163 HD
BRANCH  14  17
ATOM     17  C   UNL A   1      34.554  16.336  24.957  1.00  0.00     0.361 C 
BRANCH  17  18
ATOM     18  N   UNL A   1      33.545  16.216  26.019  1.00  0.00    -0.341 N 
ATOM     19  C   UNL A   1      32.443  15.341  25.646  1.00  0.00     0.331 C 
ATOM     20  H   UNL A   1      33.992  15.840  26.855  1.00  0.00     0.346 HD
ATOM     21  H   UNL A   1      33.159  17.146  26.186  1.00  0.00     0.346 HD
ENDBRANCH  17  18
ENDBRANCH  14  17
ENDBRANCH  12  13
ENDBRANCH   8  12
ENDBRANCH   4   7
ENDBRANCH   2   3
ENDBRANCH   1   2
BRANCH   1  22
ATOM     22  C   UNL A   1      41.602  22.151  27.137  1.00  0.00     0.023 C 
BRANCH  22  23
ATOM     23  C   UNL A   1      42.406  23.447  27.148  1.00  0.00     0.116 C 
BRANCH  23  24
ATOM     24  N   UNL A   1      42.101  24.334  26.035  1.00  0.00    -0.352 N 
ATOM     25  C   UNL A   1      41.702  25.652  26.087  1.00  0.00     0.251 C 
ATOM     26  H   UNL A   1      42.192  23.945  25.135  1.00  0.00     0.163 HD
ATOM     27  O   UNL A   1      41.389  26.247  25.067  1.00  0.00    -0.269 OA
BRANCH  25  28
ATOM     28  C   UNL A   1      41.613  26.313  27.406  1.00  0.00     0.039 A 
ATOM     29  C   UNL A   1      42.582  27.256  27.757  1.00  0.00     0.014 A 
ATOM     30  C   UNL A   1      40.534  26.053  28.254  1.00  0.00     0.014 A 
ATOM     31  C   UNL A   1      42.424  27.999  28.928  1.00  0.00     0.010 A 
ATOM     32  C   UNL A   1      40.344  26.842  29.383  1.00  0.00     0.010 A 
ATOM     33  C   UNL A   1      41.282  27.826  29.727  1.00  0.00    -0.014 A 
BRANCH  33  34
ATOM     34  C   UNL A   1      41.039  28.665  30.928  1.00  0.00     0.031 A 
ATOM     35  C   UNL A   1      39.948  29.697  30.907  1.00  0.00     0.074 A 
ATOM     36  C   UNL A   1      41.856  28.561  31.994  1.00  0.00     0.049 A 
ATOM     37  N   UNL A   1      39.658  30.612  31.794  1.00  0.00    -0.248 NA
ATOM     38  C   UNL A   1      39.089  29.725  29.711  1.00  0.00     0.031 C 
ATOM     39  C   UNL A   1      42.982  27.631  32.114  1.00  0.00     0.029 A 
ATOM     40  N   UNL A   1      41.879  29.259  33.176  1.00  0.00    -0.354 N 
ATOM     41  C   UNL A   1      38.604  31.341  31.256  1.00  0.00     0.074 A 
ATOM     42  C   UNL A   1      38.334  30.788  29.946  1.00  0.00     0.031 C 
ATOM     43  C   UNL A   1      43.575  27.807  33.306  1.00  0.00     0.029 A 
ATOM     44  C   UNL A   1      42.897  28.884  34.021  1.00  0.00     0.049 A 
ATOM     45  H   UNL A   1      41.228  29.962  33.398  1.00  0.00     0.167 HD
ATOM     46  C   UNL A   1      37.911  32.362  31.812  1.00  0.00     0.037 A 
ATOM     47  C   UNL A   1      43.250  29.362  35.231  1.00  0.00     0.037 A 
ATOM     48  C   UNL A   1      38.159  32.879  33.131  1.00  0.00     0.049 A 
ATOM     49  C   UNL A   1      42.448  30.479  35.840  1.00  0.00     0.074 A 
ATOM     50  C   UNL A   1      37.475  33.872  33.810  1.00  0.00     0.029 A 
ATOM     51  N   UNL A   1      39.168  32.438  33.976  1.00  0.00    -0.354 N 
ATOM     52  N   UNL A   1      41.421  31.123  35.338  1.00  0.00    -0.248 NA
ATOM     53  C   UNL A   1      42.847  30.934  37.179  1.00  0.00     0.031 C 
ATOM     54  C   UNL A   1      38.086  34.051  35.055  1.00  0.00     0.029 A 
ATOM     55  C   UNL A   1      39.129  33.144  35.166  1.00  0.00     0.049 A 
ATOM     56  H   UNL A   1      39.815  31.728  33.760  1.00  0.00     0.167 HD
ATOM     57  C   UNL A   1      41.033  32.037  36.310  1.00  0.00     0.074 A 
ATOM     58  C   UNL A   1      41.934  31.862  37.432  1.00  0.00     0.031 C 
ATOM     59  C   UNL A   1      40.023  32.940  36.279  1.00  0.00     0.037 A 
BRANCH  46  60
ATOM     60  C   UNL A   1      36.813  32.980  30.993  1.00  0.00     0.058 A 
ATOM     61  C   UNL A   1      35.461  32.728  31.271  1.00  0.00     0.135 A 
ATOM     62  C   UNL A   1      37.114  33.847  29.931  1.00  0.00     0.135 A 
ATOM     63  F   UNL A   1      35.118  31.893  32.266  1.00  0.00    -0.206 F 
ATOM     64  C   UNL A   1      34.444  33.288  30.505  1.00  0.00     0.059 A 
ATOM     65  C   UNL A   1      36.113  34.440  29.166  1.00  0.00     0.059 A 
ATOM     66  F   UNL A   1      38.391  34.121  29.623  1.00  0.00    -0.206 F 
ATOM     67  C   UNL A   1      34.781  34.139  29.451  1.00  0.00     0.060 A 
BRANCH  67  68
ATOM     68  S   UNL A   1      33.452  34.854  28.460  1.00  0.00     0.124 S 
ATOM     69  O   UNL A   1      34.162  35.909  27.743  1.00  0.00    -0.237 OA
ATOM     70  O   UNL A   1      33.017  33.720  27.651  1.00  0.00    -0.237 OA
ATOM     71  O   UNL A   1      32.492  35.311  29.460  1.00  0.00    -0.744 OA
ENDBRANCH  67  68
ENDBRANCH  46  60
BRANCH  47  72
ATOM     72  C   UNL A   1      44.400  28.764  35.958  1.00  0.00     0.058 A 
ATOM     73  C   UNL A   1      45.691  29.294  35.816  1.00  0.00     0.135 A 
ATOM     74  C   UNL A   1      44.232  27.668  36.817  1.00  0.00     0.135 A 
ATOM     75  F   UNL A   1      45.901  30.338  35.002  1.00  0.00    -0.206 F 
ATOM     76  C   UNL A   1      46.779  28.750  36.491  1.00  0.00     0.059 A 
ATOM     77  C   UNL A   1      45.302  27.120  37.519  1.00  0.00     0.059 A 
ATOM     78  F   UNL A   1      43.014  27.136  36.999  1.00  0.00    -0.206 F 
ATOM     79  C   UNL A   1      46.575  27.663  37.341  1.00  0.00     0.060 A 
BRANCH  79  80
ATOM     80  S   UNL A   1      47.984  26.998  38.255  1.00  0.00     0.124 S 
ATOM     81  O   UNL A   1      49.057  27.137  37.277  1.00  0.00    -0.237 OA
ATOM     82  O   UNL A   1      48.051  27.888  39.409  1.00  0.00    -0.237 OA
ATOM     83  O   UNL A   1      47.573  25.629  38.554  1.00  0.00    -0.744 OA
ENDBRANCH  79  80
ENDBRANCH  47  72
BRANCH  59  84
ATOM     84  C   UNL A   1      39.804  33.780  37.504  1.00  0.00     0.058 A 
ATOM     85  C   UNL A   1      38.906  33.396  38.509  1.00  0.00     0.135 A 
ATOM     86  C   UNL A   1      40.557  34.948  37.704  1.00  0.00     0.135 A 
ATOM     87  F   UNL A   1      38.158  32.291  38.362  1.00  0.00    -0.206 F 
ATOM     88  C   UNL A   1      38.756  34.145  39.672  1.00  0.00     0.059 A 
ATOM     89  C   UNL A   1      40.439  35.701  38.867  1.00  0.00     0.059 A 
ATOM     90  F   UNL A   1      41.436  35.354  36.773  1.00  0.00    -0.206 F 
ATOM     91  C   UNL A   1      39.529  35.294  39.843  1.00  0.00     0.060 A 
BRANCH  91  92
ATOM     92  S   UNL A   1      39.365  36.230  41.378  1.00  0.00     0.124 S 
ATOM     93  O   UNL A   1      40.710  36.122  41.933  1.00  0.00    -0.237 OA
ATOM     94  O   UNL A   1      38.982  37.554  40.899  1.00  0.00    -0.237 OA
ATOM     95  O   UNL A   1      38.325  35.509  42.105  1.00  0.00    -0.744 OA
ENDBRANCH  91  92
ENDBRANCH  59  84
ENDBRANCH  33  34
ENDBRANCH  25  28
ENDBRANCH  23  24
ENDBRANCH  22  23
ENDBRANCH   1  22
TORSDOF 18
ENDMDL
MODEL 3
REMARK VINA RESULT:     -10.2      5.048     10.466
REMARK SMILES C[NH2+]CC(=O)NC[C@H]1CC[C@H](C(=O)NCCCCNC(=O)c2ccc(-c3c4nc(c(-c5c(F)cc(S(=O)(=O)[O-])cc5F)c5ccc([nH]5)c(-c5c(F)cc(S(=O)(=O)[O-])cc5F)c5nc(c(-c6c(F)cc(S(=O)(=O)[O-])cc6F)c6ccc3[nH]6)C=C5)C=C4)cc2)O1
REMARK SMILES IDX 16 1 15 2 14 3 12 4 13 5 11 7 8 8 9 9 88 10 10 11 7 12 6 13
REMARK SMILES IDX 4 14 5 15 3 17 2 18 1 19 17 22 18 23 19 24 20 25 21 27 22 28
REMARK SMILES IDX 23 29 87 30 24 31 86 32 25 33 26 34 27 35 80 36 28 37 85 38
REMARK SMILES IDX 79 39 81 40 29 41 84 42 78 43 77 44 30 46 64 47 43 48 63 49
REMARK SMILES IDX 44 50 47 51 62 52 82 53 45 54 46 55 61 57 83 58 48 59 31 60
REMARK SMILES IDX 32 61 41 62 33 63 34 64 40 65 42 66 35 67 36 68 37 69 38 70
REMARK SMILES IDX 39 71 65 72 66 73 75 74 67 75 68 76 74 77 76 78 69 79 70 80
REMARK SMILES IDX 71 81 72 82 73 83 49 84 50 85 59 86 51 87 52 88 58 89 60 90
REMARK SMILES IDX 53 91 54 92 55 93 56 94 57 95
REMARK H PARENT 14 6 6 16 2 20 2 21 19 26 81 45 47 56
REMARK Flexibility Score: inf
ROOT
ATOM      1  C   UNL A   1      40.408  21.244  27.258  1.00  0.00     0.023 C 
ENDROOT
BRANCH   1   2
ATOM      2  C   UNL A   1      39.417  21.059  26.111  1.00  0.00     0.116 C 
BRANCH   2   3
ATOM      3  N   UNL A   1      38.916  22.326  25.627  1.00  0.00    -0.354 N 
ATOM      4  C   UNL A   1      37.637  22.790  25.536  1.00  0.00     0.249 C 
ATOM      5  O   UNL A   1      37.477  23.924  25.070  1.00  0.00    -0.272 OA
ATOM      6  H   UNL A   1      39.607  22.954  25.313  1.00  0.00     0.163 HD
BRANCH   4   7
ATOM      7  C   UNL A   1      36.410  21.930  25.925  1.00  0.00     0.207 C 
ATOM      8  C   UNL A   1      34.523  21.215  24.721  1.00  0.00     0.138 C 
ATOM      9  C   UNL A   1      34.115  22.479  25.454  1.00  0.00     0.037 C 
ATOM     10  O   UNL A   1      35.922  21.003  24.962  1.00  0.00    -0.363 OA
ATOM     11  C   UNL A   1      35.239  22.763  26.415  1.00  0.00     0.045 C 
BRANCH   8  12
ATOM     12  C   UNL A   1      33.714  19.960  25.105  1.00  0.00     0.148 C 
BRANCH  12  13
ATOM     13  N   UNL A   1      33.566  19.084  23.945  1.00  0.00    -0.349 N 
ATOM     14  C   UNL A   1      33.175  17.782  23.871  1.00  0.00     0.275 C 
ATOM     15  O   UNL A   1      33.362  17.183  22.807  1.00  0.00    -0.269 OA
ATOM     16  H   UNL A   1      33.783  19.502  23.081  1.00  0.00     0.163 HD
BRANCH  14  17
ATOM     17  C   UNL A   1      32.519  17.089  25.065  1.00  0.00     0.361 C 
BRANCH  17  18
ATOM     18  N   UNL A   1      33.510  16.512  25.986  1.00  0.00    -0.341 N 
ATOM     19  C   UNL A   1      34.707  16.050  25.301  1.00  0.00     0.331 C 
ATOM     20  H   UNL A   1      33.777  17.224  26.666  1.00  0.00     0.346 HD
ATOM     21  H   UNL A   1      33.079  15.705  26.436  1.00  0.00     0.346 HD
ENDBRANCH  17  18
ENDBRANCH  14  17
ENDBRANCH  12  13
ENDBRANCH   8  12
ENDBRANCH   4   7
ENDBRANCH   2   3
ENDBRANCH   1   2
BRANCH   1  22
ATOM     22  C   UNL A   1      41.797  21.719  26.830  1.00  0.00     0.023 C 
BRANCH  22  23
ATOM     23  C   UNL A   1      42.089  23.190  27.102  1.00  0.00     0.116 C 
BRANCH  23  24
ATOM     24  N   UNL A   1      41.975  24.037  25.923  1.00  0.00    -0.352 N 
ATOM     25  C   UNL A   1      41.776  25.399  25.875  1.00  0.00     0.251 C 
ATOM     26  H   UNL A   1      42.052  23.580  25.055  1.00  0.00     0.163 HD
ATOM     27  O   UNL A   1      41.606  25.965  24.805  1.00  0.00    -0.269 OA
BRANCH  25  28
ATOM     28  C   UNL A   1      41.722  26.153  27.145  1.00  0.00     0.039 A 
ATOM     29  C   UNL A   1      42.725  27.085  27.422  1.00  0.00     0.014 A 
ATOM     30  C   UNL A   1      40.644  25.989  28.018  1.00  0.00     0.014 A 
ATOM     31  C   UNL A   1      42.604  27.912  28.540  1.00  0.00     0.010 A 
ATOM     32  C   UNL A   1      40.491  26.859  29.091  1.00  0.00     0.010 A 
ATOM     33  C   UNL A   1      41.465  27.833  29.359  1.00  0.00    -0.014 A 
BRANCH  33  34
ATOM     34  C   UNL A   1      41.261  28.760  30.500  1.00  0.00     0.031 A 
ATOM     35  C   UNL A   1      42.112  28.622  31.732  1.00  0.00     0.074 A 
ATOM     36  C   UNL A   1      40.256  29.656  30.464  1.00  0.00     0.049 A 
ATOM     37  N   UNL A   1      42.009  29.240  32.879  1.00  0.00    -0.248 NA
ATOM     38  C   UNL A   1      43.201  27.634  31.675  1.00  0.00     0.031 C 
ATOM     39  C   UNL A   1      39.330  29.850  29.345  1.00  0.00     0.029 A 
ATOM     40  N   UNL A   1      39.829  30.561  31.405  1.00  0.00    -0.354 N 
ATOM     41  C   UNL A   1      43.001  28.698  33.689  1.00  0.00     0.074 A 
ATOM     42  C   UNL A   1      43.665  27.672  32.915  1.00  0.00     0.031 C 
ATOM     43  C   UNL A   1      38.457  30.821  29.658  1.00  0.00     0.029 A 
ATOM     44  C   UNL A   1      38.735  31.294  31.011  1.00  0.00     0.049 A 
ATOM     45  H   UNL A   1      40.266  30.674  32.279  1.00  0.00     0.167 HD
ATOM     46  C   UNL A   1      43.340  29.040  34.954  1.00  0.00     0.037 A 
ATOM     47  C   UNL A   1      38.029  32.234  31.670  1.00  0.00     0.037 A 
ATOM     48  C   UNL A   1      42.701  30.089  35.703  1.00  0.00     0.049 A 
ATOM     49  C   UNL A   1      38.441  32.616  33.066  1.00  0.00     0.074 A 
ATOM     50  C   UNL A   1      43.010  30.554  36.969  1.00  0.00     0.029 A 
ATOM     51  N   UNL A   1      41.628  30.843  35.249  1.00  0.00    -0.354 N 
ATOM     52  N   UNL A   1      39.415  32.129  33.798  1.00  0.00    -0.248 NA
ATOM     53  C   UNL A   1      37.666  33.676  33.724  1.00  0.00     0.031 C 
ATOM     54  C   UNL A   1      42.105  31.571  37.294  1.00  0.00     0.029 A 
ATOM     55  C   UNL A   1      41.257  31.764  36.214  1.00  0.00     0.049 A 
ATOM     56  H   UNL A   1      41.195  30.738  34.372  1.00  0.00     0.167 HD
ATOM     57  C   UNL A   1      39.387  32.843  34.990  1.00  0.00     0.074 A 
ATOM     58  C   UNL A   1      38.303  33.799  34.881  1.00  0.00     0.031 C 
ATOM     59  C   UNL A   1      40.187  32.720  36.077  1.00  0.00     0.037 A 
BRANCH  46  60
ATOM     60  C   UNL A   1      44.459  28.275  35.602  1.00  0.00     0.058 A 
ATOM     61  C   UNL A   1      45.800  28.651  35.432  1.00  0.00     0.135 A 
ATOM     62  C   UNL A   1      44.188  27.163  36.415  1.00  0.00     0.135 A 
ATOM     63  F   UNL A   1      46.115  29.697  34.649  1.00  0.00    -0.206 F 
ATOM     64  C   UNL A   1      46.837  27.934  36.018  1.00  0.00     0.059 A 
ATOM     65  C   UNL A   1      45.208  26.446  37.035  1.00  0.00     0.059 A 
ATOM     66  F   UNL A   1      42.923  26.761  36.611  1.00  0.00    -0.206 F 
ATOM     67  C   UNL A   1      46.531  26.830  36.815  1.00  0.00     0.060 A 
BRANCH  67  68
ATOM     68  S   UNL A   1      47.887  25.904  37.566  1.00  0.00     0.124 S 
ATOM     69  O   UNL A   1      47.291  25.498  38.836  1.00  0.00    -0.237 OA
ATOM     70  O   UNL A   1      48.109  24.832  36.601  1.00  0.00    -0.237 OA
ATOM     71  O   UNL A   1      48.958  26.890  37.662  1.00  0.00    -0.744 OA
ENDBRANCH  67  68
ENDBRANCH  46  60
BRANCH  47  72
ATOM     72  C   UNL A   1      36.877  32.899  31.006  1.00  0.00     0.058 A 
ATOM     73  C   UNL A   1      37.083  33.877  30.022  1.00  0.00     0.135 A 
ATOM     74  C   UNL A   1      35.554  32.560  31.326  1.00  0.00     0.135 A 
ATOM     75  F   UNL A   1      38.331  34.237  29.687  1.00  0.00    -0.206 F 
ATOM     76  C   UNL A   1      36.018  34.507  29.388  1.00  0.00     0.059 A 
ATOM     77  C   UNL A   1      34.472  33.161  30.690  1.00  0.00     0.059 A 
ATOM     78  F   UNL A   1      35.304  31.618  32.249  1.00  0.00    -0.206 F 
ATOM     79  C   UNL A   1      34.715  34.142  29.728  1.00  0.00     0.060 A 
BRANCH  79  80
ATOM     80  S   UNL A   1      33.339  34.927  28.859  1.00  0.00     0.124 S 
ATOM     81  O   UNL A   1      32.905  33.854  27.971  1.00  0.00    -0.237 OA
ATOM     82  O   UNL A   1      32.432  35.258  29.953  1.00  0.00    -0.237 OA
ATOM     83  O   UNL A   1      33.966  36.073  28.208  1.00  0.00    -0.744 OA
ENDBRANCH  79  80
ENDBRANCH  47  72
BRANCH  59  84
ATOM     84  C   UNL A   1      39.954  33.665  37.221  1.00  0.00     0.058 A 
ATOM     85  C   UNL A   1      40.656  34.874  37.332  1.00  0.00     0.135 A 
ATOM     86  C   UNL A   1      38.964  33.387  38.177  1.00  0.00     0.135 A 
ATOM     87  F   UNL A   1      41.617  35.181  36.446  1.00  0.00    -0.206 F 
ATOM     88  C   UNL A   1      40.390  35.774  38.358  1.00  0.00     0.059 A 
ATOM     89  C   UNL A   1      38.666  34.282  39.199  1.00  0.00     0.059 A 
ATOM     90  F   UNL A   1      38.259  32.246  38.109  1.00  0.00    -0.206 F 
ATOM     91  C   UNL A   1      39.390  35.471  39.284  1.00  0.00     0.060 A 
BRANCH  91  92
ATOM     92  S   UNL A   1      39.016  36.671  40.580  1.00  0.00     0.124 S 
ATOM     93  O   UNL A   1      38.089  35.919  41.419  1.00  0.00    -0.237 OA
ATOM     94  O   UNL A   1      40.330  36.928  41.160  1.00  0.00    -0.237 OA
ATOM     95  O   UNL A   1      38.433  37.791  39.847  1.00  0.00    -0.744 OA
ENDBRANCH  91  92
ENDBRANCH  59  84
ENDBRANCH  33  34
ENDBRANCH  25  28
ENDBRANCH  23  24
ENDBRANCH  22  23
ENDBRANCH   1  22
TORSDOF 18
ENDMDL
