MODEL 1
REMARK VINA RESULT:     -10.5      0.000      0.000
REMARK SMILES O=C(CC[P@TB4](=O)(O)C[NH+]1CCCCC1)NCCCCNC(=O)c1ccc(-c2c3nc(c(-c4c(F)cc(S(=O)(=O)[O-])cc4F)c4ccc([nH]4)c(-c4c(F)cc(S(=O)(=O)[O-])cc4F)c4nc(c(-c5c(F)cc(S(=O)(=O)[O-])cc5F)c5ccc2[nH]5)C=C4)C=C3)cc1
REMARK SMILES IDX 17 1 16 2 15 3 1 4 2 5 3 7 4 8 5 9 6 10 7 11 8 13 9 14 10 15
REMARK SMILES IDX 14 16 11 18 13 19 12 20 18 21 19 22 20 23 21 24 22 26 23 27
REMARK SMILES IDX 24 28 88 29 25 30 87 31 26 32 27 33 28 34 81 35 29 36 86 37
REMARK SMILES IDX 80 38 82 39 30 40 85 41 79 42 78 43 31 45 65 46 44 47 64 48
REMARK SMILES IDX 45 49 48 50 63 51 83 52 46 53 47 54 62 56 84 57 49 58 32 59
REMARK SMILES IDX 33 60 42 61 34 62 35 63 41 64 43 65 36 66 37 67 38 68 39 69
REMARK SMILES IDX 40 70 66 71 67 72 76 73 68 74 69 75 75 76 77 77 70 78 71 79
REMARK SMILES IDX 72 80 73 81 74 82 50 83 51 84 60 85 52 86 53 87 59 88 61 89
REMARK SMILES IDX 54 90 55 91 56 92 57 93 58 94
REMARK H PARENT 15 6 7 12 9 17 20 25 82 44 48 55
REMARK Flexibility Score: inf
ROOT
ATOM      1  C   UNL A   1      40.558  22.221  27.643  1.00  0.00       nan C 
ENDROOT
BRANCH   1   2
ATOM      2  C   UNL A   1      39.768  21.746  26.422  1.00  0.00       nan C 
BRANCH   2   3
ATOM      3  N   UNL A   1      38.473  22.392  26.285  1.00  0.00       nan N 
ATOM      4  O   UNL A   1      37.714  20.945  24.668  1.00  0.00       nan OA
ATOM      5  C   UNL A   1      37.515  21.887  25.429  1.00  0.00       nan C 
ATOM      6  H   UNL A   1      38.275  23.200  26.811  1.00  0.00       nan HD
BRANCH   5   7
ATOM      7  C   UNL A   1      36.158  22.550  25.534  1.00  0.00       nan C 
BRANCH   7   8
ATOM      8  C   UNL A   1      35.338  22.275  24.271  1.00  0.00       nan C 
BRANCH   8   9
ATOM      9  P   UNL A   1      33.941  21.179  24.711  1.00  0.00       nan P 
ATOM     10  O   UNL A   1      34.074  21.656  26.166  1.00  0.00       nan OA
BRANCH   9  11
ATOM     11  O   UNL A   1      32.880  22.266  24.061  1.00  0.00       nan OA
ATOM     12  H   UNL A   1      32.425  22.740  24.775  1.00  0.00       nan HD
ENDBRANCH   9  11
BRANCH   9  13
ATOM     13  C   UNL A   1      32.544  20.081  25.150  1.00  0.00       nan C 
BRANCH  13  14
ATOM     14  N   UNL A   1      32.910  18.666  24.850  1.00  0.00       nan N 
ATOM     15  C   UNL A   1      34.309  18.581  24.406  1.00  0.00       nan C 
ATOM     16  C   UNL A   1      32.595  17.677  25.882  1.00  0.00       nan C 
ATOM     17  H   UNL A   1      32.289  18.395  24.087  1.00  0.00       nan HD
ATOM     18  C   UNL A   1      34.733  17.170  23.994  1.00  0.00       nan C 
ATOM     19  C   UNL A   1      32.973  16.249  25.484  1.00  0.00       nan C 
ATOM     20  C   UNL A   1      34.437  16.157  25.092  1.00  0.00       nan C 
ENDBRANCH  13  14
ENDBRANCH   9  13
ENDBRANCH   8   9
ENDBRANCH   7   8
ENDBRANCH   5   7
ENDBRANCH   2   3
ENDBRANCH   1   2
BRANCH   1  21
ATOM     21  C   UNL A   1      42.064  21.958  27.606  1.00  0.00       nan C 
BRANCH  21  22
ATOM     22  C   UNL A   1      42.952  23.193  27.495  1.00  0.00       nan C 
BRANCH  22  23
ATOM     23  N   UNL A   1      42.687  23.980  26.307  1.00  0.00       nan N 
ATOM     24  C   UNL A   1      42.178  25.253  26.202  1.00  0.00       nan C 
ATOM     25  H   UNL A   1      42.902  23.540  25.453  1.00  0.00       nan HD
ATOM     26  O   UNL A   1      41.875  25.688  25.091  1.00  0.00       nan OA
BRANCH  24  27
ATOM     27  C   UNL A   1      41.958  26.094  27.406  1.00  0.00       nan A 
ATOM     28  C   UNL A   1      42.858  27.133  27.669  1.00  0.00       inf A 
ATOM     29  C   UNL A   1      40.901  25.860  28.292  1.00  0.00       inf A 
ATOM     30  C   UNL A   1      42.666  27.965  28.778  1.00  0.00     0.010 A 
ATOM     31  C   UNL A   1      40.670  26.736  29.358  1.00  0.00     0.010 A 
ATOM     32  C   UNL A   1      41.549  27.798  29.615  1.00  0.00    -0.014 A 
BRANCH  32  33
ATOM     33  C   UNL A   1      41.296  28.730  30.752  1.00  0.00     0.031 A 
ATOM     34  C   UNL A   1      42.120  28.647  32.012  1.00  0.00     0.074 A 
ATOM     35  C   UNL A   1      40.294  29.629  30.672  1.00  0.00     0.049 A 
ATOM     36  N   UNL A   1      42.016  29.344  33.116  1.00  0.00    -0.248 NA
ATOM     37  C   UNL A   1      43.188  27.635  32.044  1.00  0.00     0.031 C 
ATOM     38  C   UNL A   1      39.397  29.795  29.527  1.00  0.00     0.029 A 
ATOM     39  N   UNL A   1      39.855  30.572  31.570  1.00  0.00    -0.354 N 
ATOM     40  C   UNL A   1      42.993  28.850  33.974  1.00  0.00     0.074 A 
ATOM     41  C   UNL A   1      43.645  27.759  33.281  1.00  0.00     0.031 C 
ATOM     42  C   UNL A   1      38.534  30.791  29.782  1.00  0.00     0.029 A 
ATOM     43  C   UNL A   1      38.784  31.310  31.124  1.00  0.00     0.049 A 
ATOM     44  H   UNL A   1      40.269  30.707  32.454  1.00  0.00     0.167 HD
ATOM     45  C   UNL A   1      43.331  29.277  35.215  1.00  0.00     0.037 A 
ATOM     46  C   UNL A   1      38.074  32.287  31.724  1.00  0.00     0.037 A 
ATOM     47  C   UNL A   1      42.693  30.375  35.897  1.00  0.00     0.049 A 
ATOM     48  C   UNL A   1      38.456  32.731  33.112  1.00  0.00     0.074 A 
ATOM     49  C   UNL A   1      43.004  30.916  37.133  1.00  0.00     0.029 A 
ATOM     50  N   UNL A   1      41.614  31.097  35.408  1.00  0.00    -0.354 N 
ATOM     51  N   UNL A   1      39.425  32.294  33.881  1.00  0.00    -0.248 NA
ATOM     52  C   UNL A   1      37.651  33.804  33.712  1.00  0.00     0.031 C 
ATOM     53  C   UNL A   1      42.078  31.925  37.417  1.00  0.00     0.029 A 
ATOM     54  C   UNL A   1      41.229  32.058  36.330  1.00  0.00     0.049 A 
ATOM     55  H   UNL A   1      41.184  30.947  34.535  1.00  0.00     0.167 HD
ATOM     56  C   UNL A   1      39.365  33.058  35.041  1.00  0.00     0.074 A 
ATOM     57  C   UNL A   1      38.273  33.994  34.868  1.00  0.00     0.031 C 
ATOM     58  C   UNL A   1      40.145  32.992  36.148  1.00  0.00     0.037 A 
BRANCH  45  59
ATOM     59  C   UNL A   1      44.444  28.553  35.928  1.00  0.00     0.058 A 
ATOM     60  C   UNL A   1      45.788  28.939  35.785  1.00  0.00     0.135 A 
ATOM     61  C   UNL A   1      44.161  27.491  36.802  1.00  0.00     0.135 A 
ATOM     62  F   UNL A   1      46.119  29.940  34.953  1.00  0.00    -0.206 F 
ATOM     63  C   UNL A   1      46.811  28.277  36.455  1.00  0.00     0.059 A 
ATOM     64  C   UNL A   1      45.167  26.834  37.508  1.00  0.00     0.059 A 
ATOM     65  F   UNL A   1      42.896  27.082  36.982  1.00  0.00    -0.206 F 
ATOM     66  C   UNL A   1      46.491  27.226  37.315  1.00  0.00     0.060 A 
BRANCH  66  67
ATOM     67  S   UNL A   1      47.832  26.381  38.180  1.00  0.00     0.124 S 
ATOM     68  O   UNL A   1      47.144  25.883  39.367  1.00  0.00    -0.237 OA
ATOM     69  O   UNL A   1      48.237  25.368  37.211  1.00  0.00    -0.237 OA
ATOM     70  O   UNL A   1      48.806  27.441  38.418  1.00  0.00    -0.744 OA
ENDBRANCH  66  67
ENDBRANCH  45  59
BRANCH  46  71
ATOM     71  C   UNL A   1      36.935  32.926  31.010  1.00  0.00     0.058 A 
ATOM     72  C   UNL A   1      37.152  33.863  29.990  1.00  0.00     0.135 A 
ATOM     73  C   UNL A   1      35.604  32.607  31.329  1.00  0.00     0.135 A 
ATOM     74  F   UNL A   1      38.405  34.208  29.653  1.00  0.00    -0.206 F 
ATOM     75  C   UNL A   1      36.097  34.477  29.323  1.00  0.00     0.059 A 
ATOM     76  C   UNL A   1      34.532  33.186  30.657  1.00  0.00     0.059 A 
ATOM     77  F   UNL A   1      35.340  31.704  32.286  1.00  0.00    -0.206 F 
ATOM     78  C   UNL A   1      34.788  34.127  29.662  1.00  0.00     0.060 A 
BRANCH  78  79
ATOM     79  S   UNL A   1      33.425  34.890  28.756  1.00  0.00     0.124 S 
ATOM     80  O   UNL A   1      33.107  33.857  27.777  1.00  0.00    -0.237 OA
ATOM     81  O   UNL A   1      32.437  35.098  29.809  1.00  0.00    -0.237 OA
ATOM     82  O   UNL A   1      34.022  36.109  28.218  1.00  0.00    -0.744 OA
ENDBRANCH  78  79
ENDBRANCH  46  71
BRANCH  58  83
ATOM     83  C   UNL A   1      39.881  33.983  37.250  1.00  0.00     0.058 A 
ATOM     84  C   UNL A   1      38.984  33.709  38.296  1.00  0.00     0.135 A 
ATOM     85  C   UNL A   1      40.573  35.205  37.288  1.00  0.00     0.135 A 
ATOM     86  F   UNL A   1      38.289  32.560  38.307  1.00  0.00    -0.206 F 
ATOM     87  C   UNL A   1      38.767  34.619  39.326  1.00  0.00     0.059 A 
ATOM     88  C   UNL A   1      40.394  36.117  38.324  1.00  0.00     0.059 A 
ATOM     89  F   UNL A   1      41.449  35.516  36.320  1.00  0.00    -0.206 F 
ATOM     90  C   UNL A   1      39.479  35.820  39.333  1.00  0.00     0.060 A 
BRANCH  90  91
ATOM     91  S   UNL A   1      39.213  36.977  40.693  1.00  0.00     0.124 S 
ATOM     92  O   UNL A   1      40.563  37.483  40.917  1.00  0.00    -0.237 OA
ATOM     93  O   UNL A   1      38.268  37.927  40.114  1.00  0.00    -0.237 OA
ATOM     94  O   UNL A   1      38.674  36.135  41.757  1.00  0.00    -0.744 OA
ENDBRANCH  90  91
ENDBRANCH  58  83
ENDBRANCH  32  33
ENDBRANCH  24  27
ENDBRANCH  22  23
ENDBRANCH  21  22
ENDBRANCH   1  21
TORSDOF 19
ENDMDL
MODEL 2
REMARK VINA RESULT:     -10.4      5.102     10.626
REMARK SMILES O=C(CC[P@TB4](=O)(O)C[NH+]1CCCCC1)NCCCCNC(=O)c1ccc(-c2c3nc(c(-c4c(F)cc(S(=O)(=O)[O-])cc4F)c4ccc([nH]4)c(-c4c(F)cc(S(=O)(=O)[O-])cc4F)c4nc(c(-c5c(F)cc(S(=O)(=O)[O-])cc5F)c5ccc2[nH]5)C=C4)C=C3)cc1
REMARK SMILES IDX 17 1 16 2 15 3 1 4 2 5 3 7 4 8 5 9 6 10 7 11 8 13 9 14 10 15
REMARK SMILES IDX 14 16 11 18 13 19 12 20 18 21 19 22 20 23 21 24 22 26 23 27
REMARK SMILES IDX 24 28 88 29 25 30 87 31 26 32 27 33 28 34 81 35 29 36 86 37
REMARK SMILES IDX 80 38 82 39 30 40 85 41 79 42 78 43 31 45 65 46 44 47 64 48
REMARK SMILES IDX 45 49 48 50 63 51 83 52 46 53 47 54 62 56 84 57 49 58 32 59
REMARK SMILES IDX 33 60 42 61 34 62 35 63 41 64 43 65 36 66 37 67 38 68 39 69
REMARK SMILES IDX 40 70 66 71 67 72 76 73 68 74 69 75 75 76 77 77 70 78 71 79
REMARK SMILES IDX 72 80 73 81 74 82 50 83 51 84 60 85 52 86 53 87 59 88 61 89
REMARK SMILES IDX 54 90 55 91 56 92 57 93 58 94
REMARK H PARENT 15 6 7 12 9 17 20 25 82 44 48 55
REMARK Flexibility Score: inf
ROOT
ATOM      1  C   UNL A   1      31.931  28.268  25.220  1.00  0.00       nan C 
ENDROOT
BRANCH   1   2
ATOM      2  C   UNL A   1      30.983  27.418  24.372  1.00  0.00       nan C 
BRANCH   2   3
ATOM      3  N   UNL A   1      31.148  25.989  24.579  1.00  0.00       nan N 
ATOM      4  O   UNL A   1      31.344  25.497  22.342  1.00  0.00       nan OA
ATOM      5  C   UNL A   1      31.369  25.138  23.514  1.00  0.00       nan C 
ATOM      6  H   UNL A   1      31.101  25.622  25.491  1.00  0.00       nan HD
BRANCH   5   7
ATOM      7  C   UNL A   1      31.709  23.714  23.901  1.00  0.00       nan C 
BRANCH   7   8
ATOM      8  C   UNL A   1      31.177  23.408  25.304  1.00  0.00       nan C 
BRANCH   8   9
ATOM      9  P   UNL A   1      32.483  22.538  26.244  1.00  0.00       nan P 
ATOM     10  O   UNL A   1      31.819  23.024  27.543  1.00  0.00       nan OA
BRANCH   9  11
ATOM     11  O   UNL A   1      31.730  21.095  25.961  1.00  0.00       nan OA
ATOM     12  H   UNL A   1      31.188  20.856  26.731  1.00  0.00       nan HD
ENDBRANCH   9  11
BRANCH   9  13
ATOM     13  C   UNL A   1      33.790  21.668  27.184  1.00  0.00       nan C 
BRANCH  13  14
ATOM     14  N   UNL A   1      35.122  21.976  26.587  1.00  0.00       nan N 
ATOM     15  C   UNL A   1      35.444  21.011  25.525  1.00  0.00       nan C 
ATOM     16  C   UNL A   1      35.343  23.360  26.162  1.00  0.00       nan C 
ATOM     17  H   UNL A   1      35.782  21.874  27.359  1.00  0.00       nan HD
ATOM     18  C   UNL A   1      36.837  21.209  24.924  1.00  0.00       nan C 
ATOM     19  C   UNL A   1      36.742  23.599  25.590  1.00  0.00       nan C 
ATOM     20  C   UNL A   1      37.040  22.642  24.450  1.00  0.00       nan C 
ENDBRANCH  13  14
ENDBRANCH   9  13
ENDBRANCH   8   9
ENDBRANCH   7   8
ENDBRANCH   5   7
ENDBRANCH   2   3
ENDBRANCH   1   2
BRANCH   1  21
ATOM     21  C   UNL A   1      32.309  27.686  26.583  1.00  0.00       nan C 
BRANCH  21  22
ATOM     22  C   UNL A   1      33.563  28.265  27.227  1.00  0.00       nan C 
BRANCH  22  23
ATOM     23  N   UNL A   1      33.466  29.689  27.483  1.00  0.00       nan N 
ATOM     24  C   UNL A   1      34.400  30.541  28.025  1.00  0.00       nan C 
ATOM     25  H   UNL A   1      32.610  30.105  27.234  1.00  0.00       nan HD
ATOM     26  O   UNL A   1      34.067  31.692  28.311  1.00  0.00       nan OA
BRANCH  24  27
ATOM     27  C   UNL A   1      35.787  30.088  28.300  1.00  0.00       nan A 
ATOM     28  C   UNL A   1      36.719  30.114  27.256  1.00  0.00       inf A 
ATOM     29  C   UNL A   1      36.176  29.610  29.556  1.00  0.00       inf A 
ATOM     30  C   UNL A   1      38.043  29.723  27.486  1.00  0.00     0.010 A 
ATOM     31  C   UNL A   1      37.515  29.287  29.801  1.00  0.00     0.010 A 
ATOM     32  C   UNL A   1      38.464  29.338  28.770  1.00  0.00    -0.014 A 
BRANCH  32  33
ATOM     33  C   UNL A   1      39.891  28.995  29.038  1.00  0.00     0.031 A 
ATOM     34  C   UNL A   1      40.829  30.016  29.628  1.00  0.00     0.074 A 
ATOM     35  C   UNL A   1      40.359  27.772  28.714  1.00  0.00     0.049 A 
ATOM     36  N   UNL A   1      42.108  29.911  29.891  1.00  0.00    -0.248 NA
ATOM     37  C   UNL A   1      40.262  31.336  29.947  1.00  0.00     0.031 C 
ATOM     38  C   UNL A   1      39.570  26.699  28.106  1.00  0.00     0.029 A 
ATOM     39  N   UNL A   1      41.612  27.223  28.844  1.00  0.00    -0.354 N 
ATOM     40  C   UNL A   1      42.499  31.148  30.393  1.00  0.00     0.074 A 
ATOM     41  C   UNL A   1      41.333  32.005  30.349  1.00  0.00     0.031 C 
ATOM     42  C   UNL A   1      40.349  25.618  27.938  1.00  0.00     0.029 A 
ATOM     43  C   UNL A   1      41.704  25.930  28.385  1.00  0.00     0.049 A 
ATOM     44  H   UNL A   1      42.376  27.712  29.230  1.00  0.00     0.167 HD
ATOM     45  C   UNL A   1      43.710  31.531  30.865  1.00  0.00     0.037 A 
ATOM     46  C   UNL A   1      42.756  25.089  28.321  1.00  0.00     0.037 A 
ATOM     47  C   UNL A   1      44.866  30.672  30.926  1.00  0.00     0.049 A 
ATOM     48  C   UNL A   1      44.097  25.544  28.834  1.00  0.00     0.074 A 
ATOM     49  C   UNL A   1      46.121  30.954  31.440  1.00  0.00     0.029 A 
ATOM     50  N   UNL A   1      44.915  29.369  30.453  1.00  0.00    -0.354 N 
ATOM     51  N   UNL A   1      44.430  26.697  29.364  1.00  0.00    -0.248 NA
ATOM     52  C   UNL A   1      45.205  24.582  28.745  1.00  0.00     0.031 C 
ATOM     53  C   UNL A   1      46.943  29.842  31.226  1.00  0.00     0.029 A 
ATOM     54  C   UNL A   1      46.185  28.844  30.637  1.00  0.00     0.049 A 
ATOM     55  H   UNL A   1      44.159  28.887  30.045  1.00  0.00     0.167 HD
ATOM     56  C   UNL A   1      45.775  26.588  29.699  1.00  0.00     0.074 A 
ATOM     57  C   UNL A   1      46.193  25.253  29.324  1.00  0.00     0.031 C 
ATOM     58  C   UNL A   1      46.591  27.510  30.268  1.00  0.00     0.037 A 
BRANCH  45  59
ATOM     59  C   UNL A   1      43.856  32.948  31.358  1.00  0.00     0.058 A 
ATOM     60  C   UNL A   1      43.630  33.291  32.701  1.00  0.00     0.135 A 
ATOM     61  C   UNL A   1      44.273  33.967  30.486  1.00  0.00     0.135 A 
ATOM     62  F   UNL A   1      43.218  32.361  33.577  1.00  0.00    -0.206 F 
ATOM     63  C   UNL A   1      43.779  34.598  33.154  1.00  0.00     0.059 A 
ATOM     64  C   UNL A   1      44.460  35.276  30.924  1.00  0.00     0.059 A 
ATOM     65  F   UNL A   1      44.509  33.697  29.193  1.00  0.00    -0.206 F 
ATOM     66  C   UNL A   1      44.195  35.584  32.258  1.00  0.00     0.060 A 
BRANCH  66  67
ATOM     67  S   UNL A   1      44.387  37.273  32.865  1.00  0.00     0.124 S 
ATOM     68  O   UNL A   1      43.388  37.315  33.928  1.00  0.00    -0.237 OA
ATOM     69  O   UNL A   1      45.779  37.290  33.302  1.00  0.00    -0.237 OA
ATOM     70  O   UNL A   1      44.091  38.093  31.694  1.00  0.00    -0.744 OA
ENDBRANCH  66  67
ENDBRANCH  45  59
BRANCH  46  71
ATOM     71  C   UNL A   1      42.583  23.721  27.760  1.00  0.00     0.058 A 
ATOM     72  C   UNL A   1      42.614  23.495  26.376  1.00  0.00     0.135 A 
ATOM     73  C   UNL A   1      42.387  22.610  28.597  1.00  0.00     0.135 A 
ATOM     74  F   UNL A   1      42.789  24.525  25.533  1.00  0.00    -0.206 F 
ATOM     75  C   UNL A   1      42.440  22.224  25.839  1.00  0.00     0.059 A 
ATOM     76  C   UNL A   1      42.239  21.325  28.085  1.00  0.00     0.059 A 
ATOM     77  F   UNL A   1      42.365  22.768  29.930  1.00  0.00    -0.206 F 
ATOM     78  C   UNL A   1      42.258  21.143  26.704  1.00  0.00     0.060 A 
BRANCH  78  79
ATOM     79  S   UNL A   1      42.085  19.489  25.999  1.00  0.00     0.124 S 
ATOM     80  O   UNL A   1      40.653  19.430  25.732  1.00  0.00    -0.237 OA
ATOM     81  O   UNL A   1      42.950  19.566  24.826  1.00  0.00    -0.237 OA
ATOM     82  O   UNL A   1      42.565  18.618  27.066  1.00  0.00    -0.744 OA
ENDBRANCH  78  79
ENDBRANCH  46  71
BRANCH  58  83
ATOM     83  C   UNL A   1      48.010  27.102  30.561  1.00  0.00     0.058 A 
ATOM     84  C   UNL A   1      49.028  27.209  29.600  1.00  0.00     0.135 A 
ATOM     85  C   UNL A   1      48.368  26.645  31.841  1.00  0.00     0.135 A 
ATOM     86  F   UNL A   1      48.743  27.633  28.358  1.00  0.00    -0.206 F 
ATOM     87  C   UNL A   1      50.343  26.856  29.888  1.00  0.00     0.059 A 
ATOM     88  C   UNL A   1      49.681  26.316  32.161  1.00  0.00     0.059 A 
ATOM     89  F   UNL A   1      47.438  26.532  32.802  1.00  0.00    -0.206 F 
ATOM     90  C   UNL A   1      50.661  26.413  31.174  1.00  0.00     0.060 A 
BRANCH  90  91
ATOM     91  S   UNL A   1      52.376  25.991  31.545  1.00  0.00     0.124 S 
ATOM     92  O   UNL A   1      53.016  26.199  30.251  1.00  0.00    -0.237 OA
ATOM     93  O   UNL A   1      52.717  26.958  32.584  1.00  0.00    -0.237 OA
ATOM     94  O   UNL A   1      52.297  24.603  31.990  1.00  0.00    -0.744 OA
ENDBRANCH  90  91
ENDBRANCH  58  83
ENDBRANCH  32  33
ENDBRANCH  24  27
ENDBRANCH  22  23
ENDBRANCH  21  22
ENDBRANCH   1  21
TORSDOF 19
ENDMDL
MODEL 3
REMARK VINA RESULT:     -10.4      1.787      2.689
REMARK SMILES O=C(CC[P@TB4](=O)(O)C[NH+]1CCCCC1)NCCCCNC(=O)c1ccc(-c2c3nc(c(-c4c(F)cc(S(=O)(=O)[O-])cc4F)c4ccc([nH]4)c(-c4c(F)cc(S(=O)(=O)[O-])cc4F)c4nc(c(-c5c(F)cc(S(=O)(=O)[O-])cc5F)c5ccc2[nH]5)C=C4)C=C3)cc1
REMARK SMILES IDX 17 1 16 2 15 3 1 4 2 5 3 7 4 8 5 9 6 10 7 11 8 13 9 14 10 15
REMARK SMILES IDX 14 16 11 18 13 19 12 20 18 21 19 22 20 23 21 24 22 26 23 27
REMARK SMILES IDX 24 28 88 29 25 30 87 31 26 32 27 33 28 34 81 35 29 36 86 37
REMARK SMILES IDX 80 38 82 39 30 40 85 41 79 42 78 43 31 45 65 46 44 47 64 48
REMARK SMILES IDX 45 49 48 50 63 51 83 52 46 53 47 54 62 56 84 57 49 58 32 59
REMARK SMILES IDX 33 60 42 61 34 62 35 63 41 64 43 65 36 66 37 67 38 68 39 69
REMARK SMILES IDX 40 70 66 71 67 72 76 73 68 74 69 75 75 76 77 77 70 78 71 79
REMARK SMILES IDX 72 80 73 81 74 82 50 83 51 84 60 85 52 86 53 87 59 88 61 89
REMARK SMILES IDX 54 90 55 91 56 92 57 93 58 94
REMARK H PARENT 15 6 7 12 9 17 20 25 82 44 48 55
REMARK Flexibility Score: inf
ROOT
ATOM      1  C   UNL A   1      37.045  23.223  24.362  1.00  0.00       nan C 
ENDROOT
BRANCH   1   2
ATOM      2  C   UNL A   1      35.549  23.368  24.078  1.00  0.00       nan C 
BRANCH   2   3
ATOM      3  N   UNL A   1      34.958  24.548  24.687  1.00  0.00       nan N 
ATOM      4  O   UNL A   1      33.653  25.062  22.866  1.00  0.00       nan OA
ATOM      5  C   UNL A   1      33.996  25.283  24.022  1.00  0.00       nan C 
ATOM      6  H   UNL A   1      35.245  24.827  25.586  1.00  0.00       nan HD
BRANCH   5   7
ATOM      7  C   UNL A   1      33.339  26.365  24.853  1.00  0.00       nan C 
BRANCH   7   8
ATOM      8  C   UNL A   1      31.820  26.315  24.677  1.00  0.00       nan C 
BRANCH   8   9
ATOM      9  P   UNL A   1      31.170  24.894  25.627  1.00  0.00       nan P 
ATOM     10  O   UNL A   1      30.489  25.891  26.580  1.00  0.00       nan OA
BRANCH   9  11
ATOM     11  O   UNL A   1      30.018  24.643  24.471  1.00  0.00       nan OA
ATOM     12  H   UNL A   1      29.143  24.592  24.890  1.00  0.00       nan HD
ENDBRANCH   9  11
BRANCH   9  13
ATOM     13  C   UNL A   1      30.521  23.471  26.579  1.00  0.00       nan C 
BRANCH  13  14
ATOM     14  N   UNL A   1      31.583  22.432  26.707  1.00  0.00       nan N 
ATOM     15  C   UNL A   1      31.808  21.766  25.415  1.00  0.00       nan C 
ATOM     16  C   UNL A   1      32.836  22.853  27.338  1.00  0.00       nan C 
ATOM     17  H   UNL A   1      31.210  21.763  27.381  1.00  0.00       nan HD
ATOM     18  C   UNL A   1      32.823  20.623  25.488  1.00  0.00       nan C 
ATOM     19  C   UNL A   1      33.859  21.722  27.459  1.00  0.00       nan C 
ATOM     20  C   UNL A   1      34.136  21.084  26.109  1.00  0.00       nan C 
ENDBRANCH  13  14
ENDBRANCH   9  13
ENDBRANCH   8   9
ENDBRANCH   7   8
ENDBRANCH   5   7
ENDBRANCH   2   3
ENDBRANCH   1   2
BRANCH   1  21
ATOM     21  C   UNL A   1      37.432  23.071  25.834  1.00  0.00       nan C 
BRANCH  21  22
ATOM     22  C   UNL A   1      38.339  24.159  26.398  1.00  0.00       nan C 
BRANCH  22  23
ATOM     23  N   UNL A   1      39.745  23.920  26.138  1.00  0.00       nan N 
ATOM     24  C   UNL A   1      40.844  24.613  26.590  1.00  0.00       nan C 
ATOM     25  H   UNL A   1      39.942  23.152  25.554  1.00  0.00       nan HD
ATOM     26  O   UNL A   1      41.953  24.349  26.124  1.00  0.00       nan OA
BRANCH  24  27
ATOM     27  C   UNL A   1      40.710  25.692  27.601  1.00  0.00       nan A 
ATOM     28  C   UNL A   1      39.689  25.593  28.553  1.00  0.00       inf A 
ATOM     29  C   UNL A   1      41.551  26.809  27.610  1.00  0.00       inf A 
ATOM     30  C   UNL A   1      39.550  26.575  29.540  1.00  0.00     0.010 A 
ATOM     31  C   UNL A   1      41.456  27.752  28.638  1.00  0.00     0.010 A 
ATOM     32  C   UNL A   1      40.455  27.648  29.615  1.00  0.00    -0.014 A 
BRANCH  32  33
ATOM     33  C   UNL A   1      40.361  28.656  30.711  1.00  0.00     0.031 A 
ATOM     34  C   UNL A   1      41.240  28.550  31.931  1.00  0.00     0.074 A 
ATOM     35  C   UNL A   1      39.452  29.651  30.632  1.00  0.00     0.049 A 
ATOM     36  N   UNL A   1      41.269  29.307  32.999  1.00  0.00    -0.248 NA
ATOM     37  C   UNL A   1      42.200  27.435  31.965  1.00  0.00     0.031 C 
ATOM     38  C   UNL A   1      38.515  29.853  29.525  1.00  0.00     0.029 A 
ATOM     39  N   UNL A   1      39.162  30.677  31.498  1.00  0.00    -0.354 N 
ATOM     40  C   UNL A   1      42.236  28.757  33.833  1.00  0.00     0.074 A 
ATOM     41  C   UNL A   1      42.735  27.571  33.169  1.00  0.00     0.031 C 
ATOM     42  C   UNL A   1      37.772  30.945  29.769  1.00  0.00     0.029 A 
ATOM     43  C   UNL A   1      38.148  31.500  31.067  1.00  0.00     0.049 A 
ATOM     44  H   UNL A   1      39.636  30.811  32.352  1.00  0.00     0.167 HD
ATOM     45  C   UNL A   1      42.684  29.207  35.031  1.00  0.00     0.037 A 
ATOM     46  C   UNL A   1      37.575  32.574  31.647  1.00  0.00     0.037 A 
ATOM     47  C   UNL A   1      42.200  30.398  35.682  1.00  0.00     0.049 A 
ATOM     48  C   UNL A   1      38.077  33.043  32.988  1.00  0.00     0.074 A 
ATOM     49  C   UNL A   1      42.632  30.963  36.870  1.00  0.00     0.029 A 
ATOM     50  N   UNL A   1      41.175  31.203  35.209  1.00  0.00    -0.354 N 
ATOM     51  N   UNL A   1      39.037  32.545  33.730  1.00  0.00    -0.248 NA
ATOM     52  C   UNL A   1      37.419  34.222  33.568  1.00  0.00     0.031 C 
ATOM     53  C   UNL A   1      41.830  32.077  37.144  1.00  0.00     0.029 A 
ATOM     54  C   UNL A   1      40.940  32.243  36.096  1.00  0.00     0.049 A 
ATOM     55  H   UNL A   1      40.684  31.057  34.368  1.00  0.00     0.167 HD
ATOM     56  C   UNL A   1      39.119  33.368  34.848  1.00  0.00     0.074 A 
ATOM     57  C   UNL A   1      38.121  34.403  34.680  1.00  0.00     0.031 C 
ATOM     58  C   UNL A   1      39.949  33.275  35.917  1.00  0.00     0.037 A 
BRANCH  45  59
ATOM     59  C   UNL A   1      43.756  28.407  35.725  1.00  0.00     0.058 A 
ATOM     60  C   UNL A   1      45.122  28.664  35.518  1.00  0.00     0.135 A 
ATOM     61  C   UNL A   1      43.414  27.402  36.645  1.00  0.00     0.135 A 
ATOM     62  F   UNL A   1      45.508  29.605  34.642  1.00  0.00    -0.206 F 
ATOM     63  C   UNL A   1      46.108  27.933  36.172  1.00  0.00     0.059 A 
ATOM     64  C   UNL A   1      44.385  26.678  37.334  1.00  0.00     0.059 A 
ATOM     65  F   UNL A   1      42.126  27.116  36.886  1.00  0.00    -0.206 F 
ATOM     66  C   UNL A   1      45.729  26.941  37.079  1.00  0.00     0.060 A 
BRANCH  66  67
ATOM     67  S   UNL A   1      47.023  26.005  37.921  1.00  0.00     0.124 S 
ATOM     68  O   UNL A   1      46.242  24.971  38.594  1.00  0.00    -0.237 OA
ATOM     69  O   UNL A   1      47.851  25.550  36.809  1.00  0.00    -0.237 OA
ATOM     70  O   UNL A   1      47.644  26.992  38.798  1.00  0.00    -0.744 OA
ENDBRANCH  66  67
ENDBRANCH  45  59
BRANCH  46  71
ATOM     71  C   UNL A   1      36.469  33.292  30.957  1.00  0.00     0.058 A 
ATOM     72  C   UNL A   1      35.143  33.176  31.398  1.00  0.00     0.135 A 
ATOM     73  C   UNL A   1      36.716  34.112  29.844  1.00  0.00     0.135 A 
ATOM     74  F   UNL A   1      34.853  32.397  32.452  1.00  0.00    -0.206 F 
ATOM     75  C   UNL A   1      34.098  33.832  30.754  1.00  0.00     0.059 A 
ATOM     76  C   UNL A   1      35.692  34.801  29.201  1.00  0.00     0.059 A 
ATOM     77  F   UNL A   1      37.970  34.271  29.390  1.00  0.00    -0.206 F 
ATOM     78  C   UNL A   1      34.385  34.647  29.657  1.00  0.00     0.060 A 
BRANCH  78  79
ATOM     79  S   UNL A   1      33.029  35.534  28.860  1.00  0.00     0.124 S 
ATOM     80  O   UNL A   1      33.749  36.537  28.084  1.00  0.00    -0.237 OA
ATOM     81  O   UNL A   1      32.382  34.476  28.092  1.00  0.00    -0.237 OA
ATOM     82  O   UNL A   1      32.255  36.044  29.987  1.00  0.00    -0.744 OA
ENDBRANCH  78  79
ENDBRANCH  46  71
BRANCH  58  83
ATOM     83  C   UNL A   1      39.847  34.342  36.975  1.00  0.00     0.058 A 
ATOM     84  C   UNL A   1      39.077  34.166  38.136  1.00  0.00     0.135 A 
ATOM     85  C   UNL A   1      40.574  35.538  36.851  1.00  0.00     0.135 A 
ATOM     86  F   UNL A   1      38.355  33.045  38.305  1.00  0.00    -0.206 F 
ATOM     87  C   UNL A   1      39.011  35.145  39.122  1.00  0.00     0.059 A 
ATOM     88  C   UNL A   1      40.548  36.517  37.838  1.00  0.00     0.059 A 
ATOM     89  F   UNL A   1      41.336  35.756  35.767  1.00  0.00    -0.206 F 
ATOM     90  C   UNL A   1      39.753  36.317  38.966  1.00  0.00     0.060 A 
BRANCH  90  91
ATOM     91  S   UNL A   1      39.686  37.565  40.269  1.00  0.00     0.124 S 
ATOM     92  O   UNL A   1      39.863  36.749  41.466  1.00  0.00    -0.237 OA
ATOM     93  O   UNL A   1      40.805  38.436  39.924  1.00  0.00    -0.237 OA
ATOM     94  O   UNL A   1      38.363  38.159  40.104  1.00  0.00    -0.744 OA
ENDBRANCH  90  91
ENDBRANCH  58  83
ENDBRANCH  32  33
ENDBRANCH  24  27
ENDBRANCH  22  23
ENDBRANCH  21  22
ENDBRANCH   1  21
TORSDOF 19
ENDMDL
