MODEL 1
REMARK VINA RESULT:     -10.1      0.000      0.000
REMARK SMILES C=CCN(CC(=O)NCCCCNC(=O)c1ccc(-c2c3nc(c(-c4c(F)cc(S(=O)(=O)[O-])cc4F)c4ccc([nH]4)c(-c4c(F)cc(S(=O)(=O)[O-])cc4F)c4nc(c(-c5c(F)cc(S(=O)(=O)[O-])cc5F)c5ccc2[nH]5)C=C4)C=C3)cc1)C(=O)c1cc(OC)ccc1Br
REMARK SMILES IDX 10 1 9 2 8 3 6 4 7 5 5 7 4 8 3 9 2 10 1 11 82 12 83 13 84 14
REMARK SMILES IDX 85 15 91 16 86 17 90 18 92 19 89 20 87 21 88 22 11 23 12 24
REMARK SMILES IDX 13 25 14 26 15 28 16 29 17 30 81 31 18 32 80 33 19 34 20 35
REMARK SMILES IDX 21 36 74 37 22 38 79 39 73 40 75 41 23 42 78 43 72 44 71 45
REMARK SMILES IDX 24 47 58 48 37 49 57 50 38 51 41 52 56 53 76 54 39 55 40 56
REMARK SMILES IDX 55 58 77 59 42 60 25 61 26 62 35 63 27 64 28 65 34 66 36 67
REMARK SMILES IDX 29 68 30 69 31 70 32 71 33 72 59 73 60 74 69 75 61 76 62 77
REMARK SMILES IDX 68 78 70 79 63 80 64 81 65 82 66 83 67 84 43 85 44 86 53 87
REMARK SMILES IDX 45 88 46 89 52 90 54 91 47 92 48 93 49 94 50 95 51 96
REMARK H PARENT 8 6 13 27 75 46 41 57
REMARK Flexibility Score: inf
ROOT
ATOM      1  C   UNL A   1      32.687  26.085  26.277  1.00  0.00     0.023 C 
ENDROOT
BRANCH   1   2
ATOM      2  C   UNL A   1      31.236  25.816  25.874  1.00  0.00     0.116 C 
BRANCH   2   3
ATOM      3  N   UNL A   1      30.558  24.819  26.675  1.00  0.00    -0.355 N 
ATOM      4  C   UNL A   1      30.552  23.457  26.610  1.00  0.00     0.239 C 
ATOM      5  O   UNL A   1      30.122  22.856  27.602  1.00  0.00    -0.273 OA
ATOM      6  H   UNL A   1      29.999  25.191  27.396  1.00  0.00     0.163 HD
BRANCH   4   7
ATOM      7  C   UNL A   1      31.171  22.654  25.451  1.00  0.00     0.220 C 
BRANCH   7   8
ATOM      8  N   UNL A   1      32.419  21.926  25.709  1.00  0.00    -0.326 N 
BRANCH   8   9
ATOM      9  C   UNL A   1      32.417  20.484  25.466  1.00  0.00     0.147 C 
BRANCH   9  10
ATOM     10  C   UNL A   1      32.246  20.157  24.014  1.00  0.00    -0.014 C 
ATOM     11  C   UNL A   1      32.618  18.977  23.495  1.00  0.00     0.006 C 
ENDBRANCH   9  10
ENDBRANCH   8   9
BRANCH   8  12
ATOM     12  C   UNL A   1      33.619  22.534  26.125  1.00  0.00     0.255 C 
ATOM     13  O   UNL A   1      33.740  23.090  27.215  1.00  0.00    -0.269 OA
BRANCH  12  14
ATOM     14  C   UNL A   1      34.837  22.451  25.274  1.00  0.00     0.057 A 
ATOM     15  C   UNL A   1      36.014  21.966  25.862  1.00  0.00     0.061 A 
ATOM     16  C   UNL A   1      34.924  22.978  23.982  1.00  0.00     0.031 A 
ATOM     17  C   UNL A   1      37.204  21.932  25.122  1.00  0.00     0.119 A 
ATOM     18  C   UNL A   1      36.048  22.750  23.188  1.00  0.00     0.020 A 
ATOM     19  Br  UNL A   1      33.757  24.294  23.317  1.00  0.00    -0.050 Br
ATOM     20  C   UNL A   1      37.188  22.206  23.756  1.00  0.00     0.047 A 
BRANCH  17  21
ATOM     21  O   UNL A   1      38.365  21.672  25.802  1.00  0.00    -0.497 OA
ATOM     22  C   UNL A   1      38.909  22.844  26.425  1.00  0.00     0.278 C 
ENDBRANCH  17  21
ENDBRANCH  12  14
ENDBRANCH   8  12
ENDBRANCH   7   8
ENDBRANCH   4   7
ENDBRANCH   2   3
ENDBRANCH   1   2
BRANCH   1  23
ATOM     23  C   UNL A   1      33.330  27.344  25.697  1.00  0.00     0.023 C 
BRANCH  23  24
ATOM     24  C   UNL A   1      34.340  28.052  26.574  1.00  0.00     0.116 C 
BRANCH  24  25
ATOM     25  N   UNL A   1      33.863  29.322  27.081  1.00  0.00    -0.352 N 
ATOM     26  C   UNL A   1      34.536  30.231  27.862  1.00  0.00     0.251 C 
ATOM     27  H   UNL A   1      32.940  29.565  26.837  1.00  0.00     0.163 HD
ATOM     28  O   UNL A   1      33.940  31.203  28.320  1.00  0.00    -0.269 OA
BRANCH  26  29
ATOM     29  C   UNL A   1      35.967  30.011  28.178  1.00  0.00     0.039 A 
ATOM     30  C   UNL A   1      36.308  29.514  29.437  1.00  0.00     0.014 A 
ATOM     31  C   UNL A   1      36.964  30.261  27.230  1.00  0.00     0.014 A 
ATOM     32  C   UNL A   1      37.642  29.214  29.724  1.00  0.00     0.010 A 
ATOM     33  C   UNL A   1      38.277  29.876  27.486  1.00  0.00     0.010 A 
ATOM     34  C   UNL A   1      38.634  29.359  28.740  1.00  0.00    -0.014 A 
BRANCH  34  35
ATOM     35  C   UNL A   1      40.050  28.997  29.010  1.00  0.00     0.031 A 
ATOM     36  C   UNL A   1      40.985  30.015  29.609  1.00  0.00     0.074 A 
ATOM     37  C   UNL A   1      40.507  27.773  28.676  1.00  0.00     0.049 A 
ATOM     38  N   UNL A   1      42.265  29.915  29.861  1.00  0.00    -0.248 NA
ATOM     39  C   UNL A   1      40.411  31.328  29.946  1.00  0.00     0.031 C 
ATOM     40  C   UNL A   1      39.711  26.712  28.055  1.00  0.00     0.029 A 
ATOM     41  N   UNL A   1      41.754  27.214  28.808  1.00  0.00    -0.354 N 
ATOM     42  C   UNL A   1      42.646  31.146  30.382  1.00  0.00     0.074 A 
ATOM     43  C   UNL A   1      41.481  32.000  30.344  1.00  0.00     0.031 C 
ATOM     44  C   UNL A   1      40.480  25.623  27.889  1.00  0.00     0.029 A 
ATOM     45  C   UNL A   1      41.834  25.920  28.348  1.00  0.00     0.049 A 
ATOM     46  H   UNL A   1      42.521  27.695  29.197  1.00  0.00     0.167 HD
ATOM     47  C   UNL A   1      43.850  31.522  30.878  1.00  0.00     0.037 A 
ATOM     48  C   UNL A   1      42.880  25.071  28.298  1.00  0.00     0.037 A 
ATOM     49  C   UNL A   1      45.004  30.662  30.928  1.00  0.00     0.049 A 
ATOM     50  C   UNL A   1      44.217  25.527  28.822  1.00  0.00     0.074 A 
ATOM     51  C   UNL A   1      46.261  30.940  31.435  1.00  0.00     0.029 A 
ATOM     52  N   UNL A   1      45.041  29.358  30.456  1.00  0.00    -0.354 N 
ATOM     53  N   UNL A   1      44.546  26.680  29.355  1.00  0.00    -0.248 NA
ATOM     54  C   UNL A   1      45.324  24.564  28.742  1.00  0.00     0.031 C 
ATOM     55  C   UNL A   1      47.072  29.818  31.230  1.00  0.00     0.029 A 
ATOM     56  C   UNL A   1      46.305  28.823  30.646  1.00  0.00     0.049 A 
ATOM     57  H   UNL A   1      44.283  28.883  30.045  1.00  0.00     0.167 HD
ATOM     58  C   UNL A   1      45.886  26.565  29.709  1.00  0.00     0.074 A 
ATOM     59  C   UNL A   1      46.303  25.229  29.338  1.00  0.00     0.031 C 
ATOM     60  C   UNL A   1      46.700  27.483  30.289  1.00  0.00     0.037 A 
BRANCH  47  61
ATOM     61  C   UNL A   1      43.974  32.919  31.421  1.00  0.00     0.058 A 
ATOM     62  C   UNL A   1      44.427  33.981  30.620  1.00  0.00     0.135 A 
ATOM     63  C   UNL A   1      43.600  33.214  32.743  1.00  0.00     0.135 A 
ATOM     64  F   UNL A   1      44.814  33.755  29.354  1.00  0.00    -0.206 F 
ATOM     65  C   UNL A   1      44.532  35.276  31.116  1.00  0.00     0.059 A 
ATOM     66  C   UNL A   1      43.668  34.508  33.251  1.00  0.00     0.059 A 
ATOM     67  F   UNL A   1      43.162  32.239  33.554  1.00  0.00    -0.206 F 
ATOM     68  C   UNL A   1      44.148  35.530  32.434  1.00  0.00     0.060 A 
BRANCH  68  69
ATOM     69  S   UNL A   1      44.280  37.220  33.055  1.00  0.00     0.124 S 
ATOM     70  O   UNL A   1      45.709  37.312  33.343  1.00  0.00    -0.237 OA
ATOM     71  O   UNL A   1      43.811  38.006  31.920  1.00  0.00    -0.237 OA
ATOM     72  O   UNL A   1      43.405  37.222  34.223  1.00  0.00    -0.744 OA
ENDBRANCH  68  69
ENDBRANCH  47  61
BRANCH  48  73
ATOM     73  C   UNL A   1      42.709  23.698  27.748  1.00  0.00     0.058 A 
ATOM     74  C   UNL A   1      42.771  23.462  26.366  1.00  0.00     0.135 A 
ATOM     75  C   UNL A   1      42.458  22.600  28.586  1.00  0.00     0.135 A 
ATOM     76  F   UNL A   1      43.003  24.478  25.522  1.00  0.00    -0.206 F 
ATOM     77  C   UNL A   1      42.559  22.195  25.831  1.00  0.00     0.059 A 
ATOM     78  C   UNL A   1      42.273  21.319  28.077  1.00  0.00     0.059 A 
ATOM     79  F   UNL A   1      42.405  22.767  29.916  1.00  0.00    -0.206 F 
ATOM     80  C   UNL A   1      42.309  21.129  26.695  1.00  0.00     0.060 A 
BRANCH  80  81
ATOM     81  S   UNL A   1      42.050  19.486  25.993  1.00  0.00     0.124 S 
ATOM     82  O   UNL A   1      40.609  19.488  25.767  1.00  0.00    -0.237 OA
ATOM     83  O   UNL A   1      42.883  19.531  24.795  1.00  0.00    -0.237 OA
ATOM     84  O   UNL A   1      42.523  18.592  27.045  1.00  0.00    -0.744 OA
ENDBRANCH  80  81
ENDBRANCH  48  73
BRANCH  60  85
ATOM     85  C   UNL A   1      48.108  27.060  30.609  1.00  0.00     0.058 A 
ATOM     86  C   UNL A   1      49.171  27.289  29.723  1.00  0.00     0.135 A 
ATOM     87  C   UNL A   1      48.403  26.465  31.847  1.00  0.00     0.135 A 
ATOM     88  F   UNL A   1      48.944  27.850  28.525  1.00  0.00    -0.206 F 
ATOM     89  C   UNL A   1      50.474  26.919  30.041  1.00  0.00     0.059 A 
ATOM     90  C   UNL A   1      49.702  26.114  32.199  1.00  0.00     0.059 A 
ATOM     91  F   UNL A   1      47.424  26.233  32.737  1.00  0.00    -0.206 F 
ATOM     92  C   UNL A   1      50.730  26.335  31.284  1.00  0.00     0.060 A 
BRANCH  92  93
ATOM     93  S   UNL A   1      52.431  25.892  31.697  1.00  0.00     0.124 S 
ATOM     94  O   UNL A   1      53.087  25.996  30.397  1.00  0.00    -0.237 OA
ATOM     95  O   UNL A   1      52.791  26.915  32.673  1.00  0.00    -0.237 OA
ATOM     96  O   UNL A   1      52.310  24.539  32.232  1.00  0.00    -0.744 OA
ENDBRANCH  92  93
ENDBRANCH  60  85
ENDBRANCH  34  35
ENDBRANCH  26  29
ENDBRANCH  24  25
ENDBRANCH  23  24
ENDBRANCH   1  23
TORSDOF 20
ENDMDL
MODEL 2
REMARK VINA RESULT:     -10.1      1.204      2.356
REMARK SMILES C=CCN(CC(=O)NCCCCNC(=O)c1ccc(-c2c3nc(c(-c4c(F)cc(S(=O)(=O)[O-])cc4F)c4ccc([nH]4)c(-c4c(F)cc(S(=O)(=O)[O-])cc4F)c4nc(c(-c5c(F)cc(S(=O)(=O)[O-])cc5F)c5ccc2[nH]5)C=C4)C=C3)cc1)C(=O)c1cc(OC)ccc1Br
REMARK SMILES IDX 10 1 9 2 8 3 6 4 7 5 5 7 4 8 3 9 2 10 1 11 82 12 83 13 84 14
REMARK SMILES IDX 85 15 91 16 86 17 90 18 92 19 89 20 87 21 88 22 11 23 12 24
REMARK SMILES IDX 13 25 14 26 15 28 16 29 17 30 81 31 18 32 80 33 19 34 20 35
REMARK SMILES IDX 21 36 74 37 22 38 79 39 73 40 75 41 23 42 78 43 72 44 71 45
REMARK SMILES IDX 24 47 58 48 37 49 57 50 38 51 41 52 56 53 76 54 39 55 40 56
REMARK SMILES IDX 55 58 77 59 42 60 25 61 26 62 35 63 27 64 28 65 34 66 36 67
REMARK SMILES IDX 29 68 30 69 31 70 32 71 33 72 59 73 60 74 69 75 61 76 62 77
REMARK SMILES IDX 68 78 70 79 63 80 64 81 65 82 66 83 67 84 43 85 44 86 53 87
REMARK SMILES IDX 45 88 46 89 52 90 54 91 47 92 48 93 49 94 50 95 51 96
REMARK H PARENT 8 6 13 27 75 46 41 57
REMARK Flexibility Score: inf
ROOT
ATOM      1  C   UNL A   1      31.988  26.486  26.646  1.00  0.00     0.023 C 
ENDROOT
BRANCH   1   2
ATOM      2  C   UNL A   1      30.632  26.053  26.086  1.00  0.00     0.116 C 
BRANCH   2   3
ATOM      3  N   UNL A   1      30.127  24.802  26.611  1.00  0.00    -0.355 N 
ATOM      4  C   UNL A   1      30.349  23.510  26.238  1.00  0.00     0.239 C 
ATOM      5  O   UNL A   1      30.023  22.635  27.050  1.00  0.00    -0.273 OA
ATOM      6  H   UNL A   1      29.514  24.903  27.375  1.00  0.00     0.163 HD
BRANCH   4   7
ATOM      7  C   UNL A   1      31.094  23.106  24.953  1.00  0.00     0.220 C 
BRANCH   7   8
ATOM      8  N   UNL A   1      32.561  23.149  24.967  1.00  0.00    -0.326 N 
BRANCH   8   9
ATOM      9  C   UNL A   1      33.211  24.136  24.107  1.00  0.00     0.147 C 
BRANCH   9  10
ATOM     10  C   UNL A   1      33.916  23.499  22.948  1.00  0.00    -0.014 C 
ATOM     11  C   UNL A   1      33.255  22.983  21.901  1.00  0.00     0.006 C 
ENDBRANCH   9  10
ENDBRANCH   8   9
BRANCH   8  12
ATOM     12  C   UNL A   1      33.369  22.340  25.788  1.00  0.00     0.255 C 
ATOM     13  O   UNL A   1      33.766  22.700  26.895  1.00  0.00    -0.269 OA
BRANCH  12  14
ATOM     14  C   UNL A   1      33.713  20.953  25.370  1.00  0.00     0.057 A 
ATOM     15  C   UNL A   1      32.715  19.973  25.471  1.00  0.00     0.061 A 
ATOM     16  C   UNL A   1      35.006  20.535  25.043  1.00  0.00     0.031 A 
ATOM     17  C   UNL A   1      33.009  18.640  25.155  1.00  0.00     0.119 A 
ATOM     18  C   UNL A   1      35.239  19.258  24.532  1.00  0.00     0.020 A 
ATOM     19  Br  UNL A   1      36.559  21.460  25.563  1.00  0.00    -0.050 Br
ATOM     20  C   UNL A   1      34.230  18.311  24.569  1.00  0.00     0.047 A 
BRANCH  17  21
ATOM     21  O   UNL A   1      32.080  17.690  25.488  1.00  0.00    -0.497 OA
ATOM     22  C   UNL A   1      32.636  16.369  25.532  1.00  0.00     0.278 C 
ENDBRANCH  17  21
ENDBRANCH  12  14
ENDBRANCH   8  12
ENDBRANCH   7   8
ENDBRANCH   4   7
ENDBRANCH   2   3
ENDBRANCH   1   2
BRANCH   1  23
ATOM     23  C   UNL A   1      32.050  27.875  27.278  1.00  0.00     0.023 C 
BRANCH  23  24
ATOM     24  C   UNL A   1      33.403  28.553  27.288  1.00  0.00     0.116 C 
BRANCH  24  25
ATOM     25  N   UNL A   1      33.323  29.980  27.528  1.00  0.00    -0.352 N 
ATOM     26  C   UNL A   1      34.290  30.809  28.044  1.00  0.00     0.251 C 
ATOM     27  H   UNL A   1      32.469  30.410  27.293  1.00  0.00     0.163 HD
ATOM     28  O   UNL A   1      34.014  31.976  28.311  1.00  0.00    -0.269 OA
BRANCH  26  29
ATOM     29  C   UNL A   1      35.646  30.277  28.313  1.00  0.00     0.039 A 
ATOM     30  C   UNL A   1      36.597  30.313  27.292  1.00  0.00     0.014 A 
ATOM     31  C   UNL A   1      35.992  29.778  29.573  1.00  0.00     0.014 A 
ATOM     32  C   UNL A   1      37.907  29.902  27.550  1.00  0.00     0.010 A 
ATOM     33  C   UNL A   1      37.316  29.455  29.853  1.00  0.00     0.010 A 
ATOM     34  C   UNL A   1      38.287  29.502  28.842  1.00  0.00    -0.014 A 
BRANCH  34  35
ATOM     35  C   UNL A   1      39.688  29.110  29.149  1.00  0.00     0.031 A 
ATOM     36  C   UNL A   1      40.618  30.096  29.805  1.00  0.00     0.074 A 
ATOM     37  C   UNL A   1      40.136  27.888  28.798  1.00  0.00     0.049 A 
ATOM     38  N   UNL A   1      41.887  29.969  30.097  1.00  0.00    -0.248 NA
ATOM     39  C   UNL A   1      40.054  31.410  30.158  1.00  0.00     0.031 C 
ATOM     40  C   UNL A   1      39.345  26.856  28.124  1.00  0.00     0.029 A 
ATOM     41  N   UNL A   1      41.369  27.305  28.957  1.00  0.00    -0.354 N 
ATOM     42  C   UNL A   1      42.270  31.179  30.663  1.00  0.00     0.074 A 
ATOM     43  C   UNL A   1      41.120  32.054  30.609  1.00  0.00     0.031 C 
ATOM     44  C   UNL A   1      40.102  25.760  27.954  1.00  0.00     0.029 A 
ATOM     45  C   UNL A   1      41.444  26.022  28.466  1.00  0.00     0.049 A 
ATOM     46  H   UNL A   1      42.130  27.763  29.383  1.00  0.00     0.167 HD
ATOM     47  C   UNL A   1      43.462  31.523  31.208  1.00  0.00     0.037 A 
ATOM     48  C   UNL A   1      42.478  25.158  28.428  1.00  0.00     0.037 A 
ATOM     49  C   UNL A   1      44.601  30.643  31.273  1.00  0.00     0.049 A 
ATOM     50  C   UNL A   1      43.804  25.578  29.008  1.00  0.00     0.074 A 
ATOM     51  C   UNL A   1      45.844  30.887  31.828  1.00  0.00     0.029 A 
ATOM     52  N   UNL A   1      44.633  29.351  30.768  1.00  0.00    -0.354 N 
ATOM     53  N   UNL A   1      44.132  26.711  29.582  1.00  0.00    -0.248 NA
ATOM     54  C   UNL A   1      44.898  24.599  28.939  1.00  0.00     0.031 C 
ATOM     55  C   UNL A   1      46.643  29.757  31.621  1.00  0.00     0.029 A 
ATOM     56  C   UNL A   1      45.881  28.791  30.986  1.00  0.00     0.049 A 
ATOM     57  H   UNL A   1      43.882  28.900  30.320  1.00  0.00     0.167 HD
ATOM     58  C   UNL A   1      45.459  26.565  29.976  1.00  0.00     0.074 A 
ATOM     59  C   UNL A   1      45.867  25.232  29.585  1.00  0.00     0.031 C 
ATOM     60  C   UNL A   1      46.267  27.454  30.607  1.00  0.00     0.037 A 
BRANCH  47  61
ATOM     61  C   UNL A   1      43.590  32.904  31.792  1.00  0.00     0.058 A 
ATOM     62  C   UNL A   1      44.009  33.995  31.011  1.00  0.00     0.135 A 
ATOM     63  C   UNL A   1      43.254  33.152  33.132  1.00  0.00     0.135 A 
ATOM     64  F   UNL A   1      44.359  33.813  29.728  1.00  0.00    -0.206 F 
ATOM     65  C   UNL A   1      44.117  35.275  31.545  1.00  0.00     0.059 A 
ATOM     66  C   UNL A   1      43.325  34.430  33.680  1.00  0.00     0.059 A 
ATOM     67  F   UNL A   1      42.849  32.148  33.925  1.00  0.00    -0.206 F 
ATOM     68  C   UNL A   1      43.770  35.483  32.881  1.00  0.00     0.060 A 
BRANCH  68  69
ATOM     69  S   UNL A   1      43.907  37.153  33.552  1.00  0.00     0.124 S 
ATOM     70  O   UNL A   1      45.160  37.066  34.296  1.00  0.00    -0.237 OA
ATOM     71  O   UNL A   1      43.942  37.971  32.344  1.00  0.00    -0.237 OA
ATOM     72  O   UNL A   1      42.703  37.291  34.366  1.00  0.00    -0.744 OA
ENDBRANCH  68  69
ENDBRANCH  47  61
BRANCH  48  73
ATOM     73  C   UNL A   1      42.304  23.803  27.837  1.00  0.00     0.058 A 
ATOM     74  C   UNL A   1      42.219  22.665  28.654  1.00  0.00     0.135 A 
ATOM     75  C   UNL A   1      42.241  23.612  26.447  1.00  0.00     0.135 A 
ATOM     76  F   UNL A   1      42.280  22.792  29.988  1.00  0.00    -0.206 F 
ATOM     77  C   UNL A   1      42.112  21.386  28.118  1.00  0.00     0.059 A 
ATOM     78  C   UNL A   1      42.102  22.346  25.888  1.00  0.00     0.059 A 
ATOM     79  F   UNL A   1      42.300  24.667  25.620  1.00  0.00    -0.206 F 
ATOM     80  C   UNL A   1      42.056  21.236  26.732  1.00  0.00     0.060 A 
BRANCH  80  81
ATOM     81  S   UNL A   1      41.901  19.573  26.045  1.00  0.00     0.124 S 
ATOM     82  O   UNL A   1      42.316  18.750  27.175  1.00  0.00    -0.237 OA
ATOM     83  O   UNL A   1      40.485  19.516  25.700  1.00  0.00    -0.237 OA
ATOM     84  O   UNL A   1      42.817  19.592  24.909  1.00  0.00    -0.744 OA
ENDBRANCH  80  81
ENDBRANCH  48  73
BRANCH  60  85
ATOM     85  C   UNL A   1      47.657  27.000  30.962  1.00  0.00     0.058 A 
ATOM     86  C   UNL A   1      47.955  26.435  32.211  1.00  0.00     0.135 A 
ATOM     87  C   UNL A   1      48.692  27.085  30.017  1.00  0.00     0.135 A 
ATOM     88  F   UNL A   1      47.004  26.335  33.153  1.00  0.00    -0.206 F 
ATOM     89  C   UNL A   1      49.238  25.994  32.520  1.00  0.00     0.059 A 
ATOM     90  C   UNL A   1      49.974  26.623  30.292  1.00  0.00     0.059 A 
ATOM     91  F   UNL A   1      48.458  27.607  28.802  1.00  0.00    -0.206 F 
ATOM     92  C   UNL A   1      50.241  26.089  31.552  1.00  0.00     0.060 A 
BRANCH  92  93
ATOM     93  S   UNL A   1      51.892  25.480  31.955  1.00  0.00     0.124 S 
ATOM     94  O   UNL A   1      52.674  25.979  30.829  1.00  0.00    -0.237 OA
ATOM     95  O   UNL A   1      52.153  26.116  33.242  1.00  0.00    -0.237 OA
ATOM     96  O   UNL A   1      51.716  24.031  32.004  1.00  0.00    -0.744 OA
ENDBRANCH  92  93
ENDBRANCH  60  85
ENDBRANCH  34  35
ENDBRANCH  26  29
ENDBRANCH  24  25
ENDBRANCH  23  24
ENDBRANCH   1  23
TORSDOF 20
ENDMDL
MODEL 3
REMARK VINA RESULT:      -9.9      3.006      4.157
REMARK SMILES C=CCN(CC(=O)NCCCCNC(=O)c1ccc(-c2c3nc(c(-c4c(F)cc(S(=O)(=O)[O-])cc4F)c4ccc([nH]4)c(-c4c(F)cc(S(=O)(=O)[O-])cc4F)c4nc(c(-c5c(F)cc(S(=O)(=O)[O-])cc5F)c5ccc2[nH]5)C=C4)C=C3)cc1)C(=O)c1cc(OC)ccc1Br
REMARK SMILES IDX 10 1 9 2 8 3 6 4 7 5 5 7 4 8 3 9 2 10 1 11 82 12 83 13 84 14
REMARK SMILES IDX 85 15 91 16 86 17 90 18 92 19 89 20 87 21 88 22 11 23 12 24
REMARK SMILES IDX 13 25 14 26 15 28 16 29 17 30 81 31 18 32 80 33 19 34 20 35
REMARK SMILES IDX 21 36 74 37 22 38 79 39 73 40 75 41 23 42 78 43 72 44 71 45
REMARK SMILES IDX 24 47 58 48 37 49 57 50 38 51 41 52 56 53 76 54 39 55 40 56
REMARK SMILES IDX 55 58 77 59 42 60 25 61 26 62 35 63 27 64 28 65 34 66 36 67
REMARK SMILES IDX 29 68 30 69 31 70 32 71 33 72 59 73 60 74 69 75 61 76 62 77
REMARK SMILES IDX 68 78 70 79 63 80 64 81 65 82 66 83 67 84 43 85 44 86 53 87
REMARK SMILES IDX 45 88 46 89 52 90 54 91 47 92 48 93 49 94 50 95 51 96
REMARK H PARENT 8 6 13 27 75 46 41 57
REMARK Flexibility Score: inf
ROOT
ATOM      1  C   UNL A   1      34.102  28.684  23.868  1.00  0.00     0.023 C 
ENDROOT
BRANCH   1   2
ATOM      2  C   UNL A   1      33.376  28.602  22.524  1.00  0.00     0.116 C 
BRANCH   2   3
ATOM      3  N   UNL A   1      33.613  27.385  21.778  1.00  0.00    -0.355 N 
ATOM      4  C   UNL A   1      32.769  26.396  21.367  1.00  0.00     0.239 C 
ATOM      5  O   UNL A   1      33.195  25.630  20.494  1.00  0.00    -0.273 OA
ATOM      6  H   UNL A   1      34.554  27.245  21.521  1.00  0.00     0.163 HD
BRANCH   4   7
ATOM      7  C   UNL A   1      31.303  26.280  21.822  1.00  0.00     0.220 C 
BRANCH   7   8
ATOM      8  N   UNL A   1      31.036  25.688  23.138  1.00  0.00    -0.326 N 
BRANCH   8   9
ATOM      9  C   UNL A   1      30.302  26.504  24.104  1.00  0.00     0.147 C 
BRANCH   9  10
ATOM     10  C   UNL A   1      29.853  27.807  23.517  1.00  0.00    -0.014 C 
ATOM     11  C   UNL A   1      30.222  28.991  24.029  1.00  0.00     0.006 C 
ENDBRANCH   9  10
ENDBRANCH   8   9
BRANCH   8  12
ATOM     12  C   UNL A   1      31.398  24.378  23.505  1.00  0.00     0.255 C 
ATOM     13  O   UNL A   1      30.726  23.393  23.204  1.00  0.00    -0.269 OA
BRANCH  12  14
ATOM     14  C   UNL A   1      32.680  24.124  24.216  1.00  0.00     0.057 A 
ATOM     15  C   UNL A   1      33.794  23.756  23.447  1.00  0.00     0.061 A 
ATOM     16  C   UNL A   1      32.802  24.068  25.608  1.00  0.00     0.031 A 
ATOM     17  C   UNL A   1      35.005  23.440  24.077  1.00  0.00     0.119 A 
ATOM     18  C   UNL A   1      34.054  23.958  26.214  1.00  0.00     0.020 A 
ATOM     19  Br  UNL A   1      31.349  23.780  26.766  1.00  0.00    -0.050 Br
ATOM     20  C   UNL A   1      35.165  23.663  25.442  1.00  0.00     0.047 A 
BRANCH  17  21
ATOM     21  O   UNL A   1      35.986  22.868  23.310  1.00  0.00    -0.497 OA
ATOM     22  C   UNL A   1      36.998  22.230  24.102  1.00  0.00     0.278 C 
ENDBRANCH  17  21
ENDBRANCH  12  14
ENDBRANCH   8  12
ENDBRANCH   7   8
ENDBRANCH   4   7
ENDBRANCH   2   3
ENDBRANCH   1   2
BRANCH   1  23
ATOM     23  C   UNL A   1      33.708  27.646  24.917  1.00  0.00     0.023 C 
BRANCH  23  24
ATOM     24  C   UNL A   1      33.797  28.080  26.364  1.00  0.00     0.116 C 
BRANCH  24  25
ATOM     25  N   UNL A   1      33.568  29.499  26.548  1.00  0.00    -0.352 N 
ATOM     26  C   UNL A   1      34.315  30.391  27.280  1.00  0.00     0.251 C 
ATOM     27  H   UNL A   1      32.779  29.871  26.092  1.00  0.00     0.163 HD
ATOM     28  O   UNL A   1      33.908  31.539  27.443  1.00  0.00    -0.269 OA
BRANCH  26  29
ATOM     29  C   UNL A   1      35.586  29.950  27.900  1.00  0.00     0.039 A 
ATOM     30  C   UNL A   1      36.771  30.082  27.172  1.00  0.00     0.014 A 
ATOM     31  C   UNL A   1      35.618  29.442  29.202  1.00  0.00     0.014 A 
ATOM     32  C   UNL A   1      37.990  29.758  27.770  1.00  0.00     0.010 A 
ATOM     33  C   UNL A   1      36.840  29.206  29.826  1.00  0.00     0.010 A 
ATOM     34  C   UNL A   1      38.040  29.350  29.115  1.00  0.00    -0.014 A 
BRANCH  34  35
ATOM     35  C   UNL A   1      39.333  29.050  29.784  1.00  0.00     0.031 A 
ATOM     36  C   UNL A   1      39.757  29.847  30.990  1.00  0.00     0.074 A 
ATOM     37  C   UNL A   1      40.144  28.097  29.284  1.00  0.00     0.049 A 
ATOM     38  N   UNL A   1      40.870  29.781  31.675  1.00  0.00    -0.248 NA
ATOM     39  C   UNL A   1      38.816  30.870  31.477  1.00  0.00     0.031 C 
ATOM     40  C   UNL A   1      39.865  27.283  28.099  1.00  0.00     0.029 A 
ATOM     41  N   UNL A   1      41.373  27.653  29.706  1.00  0.00    -0.354 N 
ATOM     42  C   UNL A   1      40.763  30.750  32.667  1.00  0.00     0.074 A 
ATOM     43  C   UNL A   1      39.510  31.438  32.452  1.00  0.00     0.031 C 
ATOM     44  C   UNL A   1      40.876  26.420  27.908  1.00  0.00     0.029 A 
ATOM     45  C   UNL A   1      41.897  26.646  28.927  1.00  0.00     0.049 A 
ATOM     46  H   UNL A   1      41.836  28.020  30.494  1.00  0.00     0.167 HD
ATOM     47  C   UNL A   1      41.615  31.022  33.684  1.00  0.00     0.037 A 
ATOM     48  C   UNL A   1      43.068  25.987  29.021  1.00  0.00     0.037 A 
ATOM     49  C   UNL A   1      42.856  30.324  33.903  1.00  0.00     0.049 A 
ATOM     50  C   UNL A   1      44.016  26.333  30.140  1.00  0.00     0.074 A 
ATOM     51  C   UNL A   1      43.777  30.505  34.919  1.00  0.00     0.029 A 
ATOM     52  N   UNL A   1      43.347  29.309  33.094  1.00  0.00    -0.354 N 
ATOM     53  N   UNL A   1      43.874  27.220  31.096  1.00  0.00    -0.248 NA
ATOM     54  C   UNL A   1      45.279  25.585  30.195  1.00  0.00     0.031 C 
ATOM     55  C   UNL A   1      44.846  29.631  34.700  1.00  0.00     0.029 A 
ATOM     56  C   UNL A   1      44.566  28.866  33.580  1.00  0.00     0.049 A 
ATOM     57  H   UNL A   1      42.897  28.957  32.292  1.00  0.00     0.167 HD
ATOM     58  C   UNL A   1      45.013  27.108  31.888  1.00  0.00     0.074 A 
ATOM     59  C   UNL A   1      45.826  26.063  31.304  1.00  0.00     0.031 C 
ATOM     60  C   UNL A   1      45.356  27.809  32.998  1.00  0.00     0.037 A 
BRANCH  47  61
ATOM     61  C   UNL A   1      41.227  32.110  34.647  1.00  0.00     0.058 A 
ATOM     62  C   UNL A   1      40.437  31.842  35.778  1.00  0.00     0.135 A 
ATOM     63  C   UNL A   1      41.679  33.427  34.466  1.00  0.00     0.135 A 
ATOM     64  F   UNL A   1      39.962  30.605  35.993  1.00  0.00    -0.206 F 
ATOM     65  C   UNL A   1      40.086  32.844  36.677  1.00  0.00     0.059 A 
ATOM     66  C   UNL A   1      41.366  34.440  35.369  1.00  0.00     0.059 A 
ATOM     67  F   UNL A   1      42.436  33.742  33.403  1.00  0.00    -0.206 F 
ATOM     68  C   UNL A   1      40.558  34.140  36.465  1.00  0.00     0.060 A 
BRANCH  68  69
ATOM     69  S   UNL A   1      40.101  35.424  37.649  1.00  0.00     0.124 S 
ATOM     70  O   UNL A   1      41.299  35.491  38.482  1.00  0.00    -0.237 OA
ATOM     71  O   UNL A   1      39.866  36.575  36.784  1.00  0.00    -0.237 OA
ATOM     72  O   UNL A   1      38.915  34.878  38.300  1.00  0.00    -0.744 OA
ENDBRANCH  68  69
ENDBRANCH  47  61
BRANCH  48  73
ATOM     73  C   UNL A   1      43.410  24.919  28.042  1.00  0.00     0.058 A 
ATOM     74  C   UNL A   1      43.099  23.575  28.302  1.00  0.00     0.135 A 
ATOM     75  C   UNL A   1      44.073  25.212  26.839  1.00  0.00     0.135 A 
ATOM     76  F   UNL A   1      42.471  23.241  29.439  1.00  0.00    -0.206 F 
ATOM     77  C   UNL A   1      43.460  22.558  27.424  1.00  0.00     0.059 A 
ATOM     78  C   UNL A   1      44.416  24.216  25.931  1.00  0.00     0.059 A 
ATOM     79  F   UNL A   1      44.379  26.482  26.532  1.00  0.00    -0.206 F 
ATOM     80  C   UNL A   1      44.120  22.888  26.241  1.00  0.00     0.060 A 
BRANCH  80  81
ATOM     81  S   UNL A   1      44.571  21.563  25.100  1.00  0.00     0.124 S 
ATOM     82  O   UNL A   1      45.909  21.218  25.566  1.00  0.00    -0.237 OA
ATOM     83  O   UNL A   1      43.531  20.572  25.357  1.00  0.00    -0.237 OA
ATOM     84  O   UNL A   1      44.505  22.207  23.793  1.00  0.00    -0.744 OA
ENDBRANCH  80  81
ENDBRANCH  48  73
BRANCH  60  85
ATOM     85  C   UNL A   1      46.638  27.433  33.689  1.00  0.00     0.058 A 
ATOM     86  C   UNL A   1      47.855  28.063  33.389  1.00  0.00     0.135 A 
ATOM     87  C   UNL A   1      46.636  26.463  34.706  1.00  0.00     0.135 A 
ATOM     88  F   UNL A   1      47.915  28.992  32.422  1.00  0.00    -0.206 F 
ATOM     89  C   UNL A   1      49.030  27.726  34.052  1.00  0.00     0.059 A 
ATOM     90  C   UNL A   1      47.792  26.133  35.404  1.00  0.00     0.059 A 
ATOM     91  F   UNL A   1      45.496  25.837  35.042  1.00  0.00    -0.206 F 
ATOM     92  C   UNL A   1      48.988  26.762  35.062  1.00  0.00     0.060 A 
BRANCH  92  93
ATOM     93  S   UNL A   1      50.514  26.362  35.940  1.00  0.00     0.124 S 
ATOM     94  O   UNL A   1      50.157  26.687  37.317  1.00  0.00    -0.237 OA
ATOM     95  O   UNL A   1      50.680  24.943  35.646  1.00  0.00    -0.237 OA
ATOM     96  O   UNL A   1      51.501  27.244  35.323  1.00  0.00    -0.744 OA
ENDBRANCH  92  93
ENDBRANCH  60  85
ENDBRANCH  34  35
ENDBRANCH  26  29
ENDBRANCH  24  25
ENDBRANCH  23  24
ENDBRANCH   1  23
TORSDOF 20
ENDMDL
