MODEL 1
REMARK VINA RESULT:     -14.0      0.000      0.000
REMARK SMILES O=C(NCCCCNC(=O)c1ccc(N2C(=O)[C@@H]3N=NC(c4ccccc4)=C3[C@H]2c2cccc(Br)c2)cc1)c1ccc(-c2c3nc(c(-c4c(F)cc(S(=O)(=O)[O-])cc4F)c4ccc([nH]4)c(-c4c(F)cc(S(=O)(=O)[O-])cc4F)c4nc(c(-c5c(F)cc(S(=O)(=O)[O-])cc5F)c5ccc2[nH]5)C=C4)C=C3)cc1
REMARK SMILES IDX 5 1 4 2 3 3 1 4 2 5 39 7 40 8 104 9 41 10 103 11 42 12 43 13
REMARK SMILES IDX 44 14 97 15 45 16 102 17 96 18 98 19 46 20 101 21 95 22
REMARK SMILES IDX 94 23 47 25 81 26 60 27 80 28 61 29 64 30 79 31 99 32 62 33
REMARK SMILES IDX 63 34 78 36 100 37 65 38 48 39 49 40 58 41 50 42 51 43 57 44
REMARK SMILES IDX 59 45 52 46 53 47 54 48 55 49 56 50 82 51 83 52 92 53 84 54
REMARK SMILES IDX 85 55 91 56 93 57 86 58 87 59 88 60 89 61 90 62 66 63 67 64
REMARK SMILES IDX 76 65 68 66 69 67 75 68 77 69 70 70 71 71 72 72 73 73 74 74
REMARK SMILES IDX 6 75 7 76 8 77 9 78 10 80 11 81 12 82 38 83 13 84 37 85
REMARK SMILES IDX 14 86 15 87 16 88 29 89 18 90 17 91 28 92 19 93 21 94 20 95
REMARK SMILES IDX 30 96 31 97 36 98 32 99 34 100 33 101 35 102 22 103 23 104
REMARK SMILES IDX 27 105 24 106 26 107 25 108
REMARK H PARENT 3 6 98 24 64 35 8 79
REMARK Flexibility Score: inf
ROOT
ATOM      1  C   UNL A   1      35.868  21.499  25.592  1.00  0.00     0.023 C 
ENDROOT
BRANCH   1   2
ATOM      2  C   UNL A   1      37.072  22.325  25.137  1.00  0.00     0.116 C 
BRANCH   2   3
ATOM      3  N   UNL A   1      38.364  21.704  25.339  1.00  0.00    -0.352 N 
ATOM      4  O   UNL A   1      40.260  21.036  26.243  1.00  0.00    -0.269 OA
ATOM      5  C   UNL A   1      39.427  21.945  26.165  1.00  0.00     0.251 C 
ATOM      6  H   UNL A   1      38.512  20.932  24.745  1.00  0.00     0.163 HD
BRANCH   5   7
ATOM      7  C   UNL A   1      39.683  23.218  26.893  1.00  0.00     0.039 A 
ATOM      8  C   UNL A   1      38.887  24.363  26.838  1.00  0.00     0.014 A 
ATOM      9  C   UNL A   1      40.871  23.262  27.650  1.00  0.00     0.014 A 
ATOM     10  C   UNL A   1      39.316  25.549  27.432  1.00  0.00     0.010 A 
ATOM     11  C   UNL A   1      41.296  24.437  28.257  1.00  0.00     0.010 A 
ATOM     12  C   UNL A   1      40.535  25.593  28.111  1.00  0.00    -0.014 A 
BRANCH  12  13
ATOM     13  C   UNL A   1      40.901  26.828  28.800  1.00  0.00     0.031 A 
ATOM     14  C   UNL A   1      42.035  27.563  28.170  1.00  0.00     0.074 A 
ATOM     15  C   UNL A   1      40.181  27.358  29.810  1.00  0.00     0.049 A 
ATOM     16  N   UNL A   1      43.193  27.848  28.672  1.00  0.00    -0.248 NA
ATOM     17  C   UNL A   1      41.907  27.912  26.745  1.00  0.00     0.031 C 
ATOM     18  C   UNL A   1      38.884  26.899  30.311  1.00  0.00     0.029 A 
ATOM     19  N   UNL A   1      40.398  28.498  30.528  1.00  0.00    -0.354 N 
ATOM     20  C   UNL A   1      43.850  28.612  27.707  1.00  0.00     0.074 A 
ATOM     21  C   UNL A   1      43.099  28.450  26.492  1.00  0.00     0.031 C 
ATOM     22  C   UNL A   1      38.332  27.869  31.073  1.00  0.00     0.029 A 
ATOM     23  C   UNL A   1      39.278  28.965  31.209  1.00  0.00     0.049 A 
ATOM     24  H   UNL A   1      41.272  28.952  30.560  1.00  0.00     0.167 HD
ATOM     25  C   UNL A   1      44.804  29.523  28.048  1.00  0.00     0.037 A 
ATOM     26  C   UNL A   1      39.113  30.193  31.770  1.00  0.00     0.037 A 
ATOM     27  C   UNL A   1      45.334  29.251  29.362  1.00  0.00     0.049 A 
ATOM     28  C   UNL A   1      40.464  30.777  31.966  1.00  0.00     0.074 A 
ATOM     29  C   UNL A   1      45.954  28.175  29.965  1.00  0.00     0.029 A 
ATOM     30  N   UNL A   1      44.952  30.081  30.389  1.00  0.00    -0.354 N 
ATOM     31  N   UNL A   1      41.348  30.314  32.807  1.00  0.00    -0.248 NA
ATOM     32  C   UNL A   1      40.995  31.627  30.912  1.00  0.00     0.031 C 
ATOM     33  C   UNL A   1      45.480  28.180  31.311  1.00  0.00     0.029 A 
ATOM     34  C   UNL A   1      44.647  29.288  31.462  1.00  0.00     0.049 A 
ATOM     35  H   UNL A   1      44.907  31.064  30.358  1.00  0.00     0.167 HD
ATOM     36  C   UNL A   1      42.563  30.447  32.151  1.00  0.00     0.074 A 
ATOM     37  C   UNL A   1      42.295  31.348  31.033  1.00  0.00     0.031 C 
ATOM     38  C   UNL A   1      43.600  29.596  32.409  1.00  0.00     0.037 A 
BRANCH  25  39
ATOM     39  C   UNL A   1      44.950  30.890  27.395  1.00  0.00     0.058 A 
ATOM     40  C   UNL A   1      46.190  31.232  26.810  1.00  0.00     0.135 A 
ATOM     41  C   UNL A   1      44.069  31.975  27.607  1.00  0.00     0.135 A 
ATOM     42  F   UNL A   1      47.097  30.283  26.524  1.00  0.00    -0.206 F 
ATOM     43  C   UNL A   1      46.582  32.554  26.602  1.00  0.00     0.059 A 
ATOM     44  C   UNL A   1      44.420  33.296  27.355  1.00  0.00     0.059 A 
ATOM     45  F   UNL A   1      42.858  31.831  28.152  1.00  0.00    -0.206 F 
ATOM     46  C   UNL A   1      45.699  33.582  26.911  1.00  0.00     0.060 A 
BRANCH  46  47
ATOM     47  S   UNL A   1      46.251  35.290  26.799  1.00  0.00     0.124 S 
ATOM     48  O   UNL A   1      47.110  35.391  27.972  1.00  0.00    -0.237 OA
ATOM     49  O   UNL A   1      46.926  35.305  25.505  1.00  0.00    -0.237 OA
ATOM     50  O   UNL A   1      45.004  36.048  26.858  1.00  0.00    -0.744 OA
ENDBRANCH  46  47
ENDBRANCH  25  39
BRANCH  26  51
ATOM     51  C   UNL A   1      37.874  31.019  31.829  1.00  0.00     0.058 A 
ATOM     52  C   UNL A   1      37.306  31.407  33.059  1.00  0.00     0.135 A 
ATOM     53  C   UNL A   1      37.375  31.681  30.688  1.00  0.00     0.135 A 
ATOM     54  F   UNL A   1      37.732  30.850  34.203  1.00  0.00    -0.206 F 
ATOM     55  C   UNL A   1      36.342  32.419  33.155  1.00  0.00     0.059 A 
ATOM     56  C   UNL A   1      36.406  32.680  30.757  1.00  0.00     0.059 A 
ATOM     57  F   UNL A   1      37.884  31.444  29.471  1.00  0.00    -0.206 F 
ATOM     58  C   UNL A   1      35.911  33.065  31.996  1.00  0.00     0.060 A 
BRANCH  58  59
ATOM     59  S   UNL A   1      34.797  34.485  32.121  1.00  0.00     0.124 S 
ATOM     60  O   UNL A   1      33.658  33.914  32.830  1.00  0.00    -0.237 OA
ATOM     61  O   UNL A   1      35.600  35.445  32.871  1.00  0.00    -0.237 OA
ATOM     62  O   UNL A   1      34.546  34.842  30.727  1.00  0.00    -0.744 OA
ENDBRANCH  58  59
ENDBRANCH  26  51
BRANCH  38  63
ATOM     63  C   UNL A   1      43.543  28.748  33.648  1.00  0.00     0.058 A 
ATOM     64  C   UNL A   1      43.991  29.154  34.917  1.00  0.00     0.135 A 
ATOM     65  C   UNL A   1      42.857  27.525  33.569  1.00  0.00     0.135 A 
ATOM     66  F   UNL A   1      44.563  30.354  35.097  1.00  0.00    -0.206 F 
ATOM     67  C   UNL A   1      43.801  28.360  36.049  1.00  0.00     0.059 A 
ATOM     68  C   UNL A   1      42.627  26.733  34.690  1.00  0.00     0.059 A 
ATOM     69  F   UNL A   1      42.351  27.112  32.396  1.00  0.00    -0.206 F 
ATOM     70  C   UNL A   1      43.113  27.152  35.926  1.00  0.00     0.060 A 
BRANCH  70  71
ATOM     71  S   UNL A   1      42.789  26.168  37.405  1.00  0.00     0.124 S 
ATOM     72  O   UNL A   1      41.359  26.377  37.606  1.00  0.00    -0.237 OA
ATOM     73  O   UNL A   1      43.183  24.826  36.985  1.00  0.00    -0.237 OA
ATOM     74  O   UNL A   1      43.655  26.773  38.414  1.00  0.00    -0.744 OA
ENDBRANCH  70  71
ENDBRANCH  38  63
ENDBRANCH  12  13
ENDBRANCH   5   7
ENDBRANCH   2   3
ENDBRANCH   1   2
BRANCH   1  75
ATOM     75  C   UNL A   1      34.779  21.258  24.542  1.00  0.00     0.023 C 
BRANCH  75  76
ATOM     76  C   UNL A   1      33.454  20.694  25.049  1.00  0.00     0.116 C 
BRANCH  76  77
ATOM     77  N   UNL A   1      33.257  20.879  26.476  1.00  0.00    -0.352 N 
ATOM     78  C   UNL A   1      32.724  21.960  27.142  1.00  0.00     0.251 C 
ATOM     79  H   UNL A   1      33.543  20.129  27.046  1.00  0.00     0.163 HD
ATOM     80  O   UNL A   1      32.692  21.986  28.362  1.00  0.00    -0.269 OA
BRANCH  78  81
ATOM     81  C   UNL A   1      32.227  23.131  26.377  1.00  0.00     0.039 A 
ATOM     82  C   UNL A   1      32.918  24.331  26.518  1.00  0.00     0.016 A 
ATOM     83  C   UNL A   1      31.102  23.067  25.542  1.00  0.00     0.016 A 
ATOM     84  C   UNL A   1      32.535  25.438  25.759  1.00  0.00     0.027 A 
ATOM     85  C   UNL A   1      30.709  24.192  24.787  1.00  0.00     0.027 A 
ATOM     86  C   UNL A   1      31.445  25.375  24.867  1.00  0.00     0.045 A 
BRANCH  86  87
ATOM     87  N   UNL A   1      31.194  26.477  23.980  1.00  0.00    -0.299 N 
ATOM     88  C   UNL A   1      32.095  26.551  22.861  1.00  0.00     0.259 C 
ATOM     89  C   UNL A   1      30.945  27.830  24.533  1.00  0.00     0.152 C 
ATOM     90  C   UNL A   1      32.536  27.974  22.711  1.00  0.00     0.248 C 
ATOM     91  O   UNL A   1      32.491  25.610  22.183  1.00  0.00    -0.271 OA
ATOM     92  C   UNL A   1      32.210  28.437  24.076  1.00  0.00     0.021 C 
ATOM     93  N   UNL A   1      33.985  28.218  22.655  1.00  0.00    -0.170 NA
ATOM     94  C   UNL A   1      33.281  29.077  24.531  1.00  0.00     0.097 C 
ATOM     95  N   UNL A   1      34.321  28.959  23.630  1.00  0.00    -0.154 NA
BRANCH  89  96
ATOM     96  C   UNL A   1      29.749  28.605  23.932  1.00  0.00    -0.020 A 
ATOM     97  C   UNL A   1      28.624  27.916  23.403  1.00  0.00     0.006 A 
ATOM     98  C   UNL A   1      29.756  30.000  23.791  1.00  0.00     0.022 A 
ATOM     99  C   UNL A   1      27.553  28.571  22.793  1.00  0.00     0.002 A 
ATOM    100  C   UNL A   1      28.688  30.654  23.149  1.00  0.00     0.018 A 
ATOM    101  C   UNL A   1      27.589  29.948  22.656  1.00  0.00     0.016 A 
ATOM    102  Br  UNL A   1      28.734  32.530  22.901  1.00  0.00    -0.051 Br
ENDBRANCH  89  96
BRANCH  94 103
ATOM    103  C   UNL A   1      33.511  29.704  25.828  1.00  0.00     0.002 A 
ATOM    104  C   UNL A   1      32.652  30.712  26.288  1.00  0.00     0.010 A 
ATOM    105  C   UNL A   1      34.702  29.452  26.518  1.00  0.00     0.010 A 
ATOM    106  C   UNL A   1      33.026  31.515  27.370  1.00  0.00     0.001 A 
ATOM    107  C   UNL A   1      35.070  30.250  27.602  1.00  0.00     0.001 A 
ATOM    108  C   UNL A   1      34.246  31.298  28.010  1.00  0.00     0.000 A 
ENDBRANCH  94 103
ENDBRANCH  86  87
ENDBRANCH  78  81
ENDBRANCH  76  77
ENDBRANCH  75  76
ENDBRANCH   1  75
TORSDOF 17
ENDMDL
MODEL 2
REMARK VINA RESULT:     -12.2      4.970     11.067
REMARK SMILES O=C(NCCCCNC(=O)c1ccc(N2C(=O)[C@@H]3N=NC(c4ccccc4)=C3[C@H]2c2cccc(Br)c2)cc1)c1ccc(-c2c3nc(c(-c4c(F)cc(S(=O)(=O)[O-])cc4F)c4ccc([nH]4)c(-c4c(F)cc(S(=O)(=O)[O-])cc4F)c4nc(c(-c5c(F)cc(S(=O)(=O)[O-])cc5F)c5ccc2[nH]5)C=C4)C=C3)cc1
REMARK SMILES IDX 5 1 4 2 3 3 1 4 2 5 39 7 40 8 104 9 41 10 103 11 42 12 43 13
REMARK SMILES IDX 44 14 97 15 45 16 102 17 96 18 98 19 46 20 101 21 95 22
REMARK SMILES IDX 94 23 47 25 81 26 60 27 80 28 61 29 64 30 79 31 99 32 62 33
REMARK SMILES IDX 63 34 78 36 100 37 65 38 48 39 49 40 58 41 50 42 51 43 57 44
REMARK SMILES IDX 59 45 52 46 53 47 54 48 55 49 56 50 82 51 83 52 92 53 84 54
REMARK SMILES IDX 85 55 91 56 93 57 86 58 87 59 88 60 89 61 90 62 66 63 67 64
REMARK SMILES IDX 76 65 68 66 69 67 75 68 77 69 70 70 71 71 72 72 73 73 74 74
REMARK SMILES IDX 6 75 7 76 8 77 9 78 10 80 11 81 12 82 38 83 13 84 37 85
REMARK SMILES IDX 14 86 15 87 16 88 29 89 18 90 17 91 28 92 19 93 21 94 20 95
REMARK SMILES IDX 30 96 31 97 36 98 32 99 34 100 33 101 35 102 22 103 23 104
REMARK SMILES IDX 27 105 24 106 26 107 25 108
REMARK H PARENT 3 6 98 24 64 35 8 79
REMARK Flexibility Score: inf
ROOT
ATOM      1  C   UNL A   1      40.041  35.196  34.757  1.00  0.00     0.023 C 
ENDROOT
BRANCH   1   2
ATOM      2  C   UNL A   1      39.078  34.379  33.897  1.00  0.00     0.116 C 
BRANCH   2   3
ATOM      3  N   UNL A   1      38.206  33.480  34.623  1.00  0.00    -0.352 N 
ATOM      4  O   UNL A   1      37.459  31.910  35.979  1.00  0.00    -0.269 OA
ATOM      5  C   UNL A   1      38.365  32.256  35.214  1.00  0.00     0.251 C 
ATOM      6  H   UNL A   1      37.288  33.827  34.710  1.00  0.00     0.163 HD
BRANCH   5   7
ATOM      7  C   UNL A   1      39.482  31.309  34.949  1.00  0.00     0.039 A 
ATOM      8  C   UNL A   1      40.814  31.491  35.323  1.00  0.00     0.014 A 
ATOM      9  C   UNL A   1      39.146  30.163  34.201  1.00  0.00     0.014 A 
ATOM     10  C   UNL A   1      41.799  30.614  34.875  1.00  0.00     0.010 A 
ATOM     11  C   UNL A   1      40.123  29.275  33.763  1.00  0.00     0.010 A 
ATOM     12  C   UNL A   1      41.457  29.527  34.069  1.00  0.00    -0.014 A 
BRANCH  12  13
ATOM     13  C   UNL A   1      42.506  28.579  33.700  1.00  0.00     0.031 A 
ATOM     14  C   UNL A   1      42.978  27.724  34.828  1.00  0.00     0.074 A 
ATOM     15  C   UNL A   1      42.901  28.364  32.429  1.00  0.00     0.049 A 
ATOM     16  N   UNL A   1      44.160  27.649  35.346  1.00  0.00    -0.248 NA
ATOM     17  C   UNL A   1      41.961  26.947  35.558  1.00  0.00     0.031 C 
ATOM     18  C   UNL A   1      42.303  28.911  31.210  1.00  0.00     0.029 A 
ATOM     19  N   UNL A   1      43.849  27.510  31.946  1.00  0.00    -0.354 N 
ATOM     20  C   UNL A   1      44.090  26.646  36.314  1.00  0.00     0.074 A 
ATOM     21  C   UNL A   1      42.690  26.399  36.529  1.00  0.00     0.031 C 
ATOM     22  C   UNL A   1      42.741  28.205  30.143  1.00  0.00     0.029 A 
ATOM     23  C   UNL A   1      43.733  27.239  30.586  1.00  0.00     0.049 A 
ATOM     24  H   UNL A   1      44.555  27.119  32.511  1.00  0.00     0.167 HD
ATOM     25  C   UNL A   1      45.186  25.919  36.668  1.00  0.00     0.037 A 
ATOM     26  C   UNL A   1      44.344  26.241  29.894  1.00  0.00     0.037 A 
ATOM     27  C   UNL A   1      46.402  26.602  36.298  1.00  0.00     0.049 A 
ATOM     28  C   UNL A   1      45.510  25.792  30.697  1.00  0.00     0.074 A 
ATOM     29  C   UNL A   1      46.960  27.833  36.583  1.00  0.00     0.029 A 
ATOM     30  N   UNL A   1      47.105  26.119  35.221  1.00  0.00    -0.354 N 
ATOM     31  N   UNL A   1      46.567  26.523  30.927  1.00  0.00    -0.248 NA
ATOM     32  C   UNL A   1      45.315  24.676  31.610  1.00  0.00     0.031 C 
ATOM     33  C   UNL A   1      47.620  28.229  35.382  1.00  0.00     0.029 A 
ATOM     34  C   UNL A   1      47.473  27.194  34.458  1.00  0.00     0.049 A 
ATOM     35  H   UNL A   1      47.307  25.174  35.033  1.00  0.00     0.167 HD
ATOM     36  C   UNL A   1      46.916  26.235  32.238  1.00  0.00     0.074 A 
ATOM     37  C   UNL A   1      46.172  25.023  32.573  1.00  0.00     0.031 C 
ATOM     38  C   UNL A   1      47.554  27.159  33.016  1.00  0.00     0.037 A 
BRANCH  25  39
ATOM     39  C   UNL A   1      45.164  24.423  36.945  1.00  0.00     0.058 A 
ATOM     40  C   UNL A   1      45.805  23.941  38.109  1.00  0.00     0.135 A 
ATOM     41  C   UNL A   1      44.848  23.436  35.984  1.00  0.00     0.135 A 
ATOM     42  F   UNL A   1      46.121  24.776  39.112  1.00  0.00    -0.206 F 
ATOM     43  C   UNL A   1      46.236  22.620  38.236  1.00  0.00     0.059 A 
ATOM     44  C   UNL A   1      45.222  22.103  36.115  1.00  0.00     0.059 A 
ATOM     45  F   UNL A   1      44.244  23.718  34.826  1.00  0.00    -0.206 F 
ATOM     46  C   UNL A   1      45.968  21.717  37.214  1.00  0.00     0.060 A 
BRANCH  46  47
ATOM     47  S   UNL A   1      46.658  20.057  37.293  1.00  0.00     0.124 S 
ATOM     48  O   UNL A   1      46.400  19.576  35.941  1.00  0.00    -0.237 OA
ATOM     49  O   UNL A   1      48.054  20.326  37.622  1.00  0.00    -0.237 OA
ATOM     50  O   UNL A   1      45.881  19.423  38.353  1.00  0.00    -0.744 OA
ENDBRANCH  46  47
ENDBRANCH  25  39
BRANCH  26  51
ATOM     51  C   UNL A   1      43.797  25.431  28.768  1.00  0.00     0.058 A 
ATOM     52  C   UNL A   1      44.143  25.703  27.430  1.00  0.00     0.135 A 
ATOM     53  C   UNL A   1      43.144  24.202  28.995  1.00  0.00     0.135 A 
ATOM     54  F   UNL A   1      44.788  26.838  27.118  1.00  0.00    -0.206 F 
ATOM     55  C   UNL A   1      43.902  24.793  26.392  1.00  0.00     0.059 A 
ATOM     56  C   UNL A   1      42.880  23.287  27.977  1.00  0.00     0.059 A 
ATOM     57  F   UNL A   1      42.825  23.804  30.234  1.00  0.00    -0.206 F 
ATOM     58  C   UNL A   1      43.285  23.575  26.680  1.00  0.00     0.060 A 
BRANCH  58  59
ATOM     59  S   UNL A   1      43.122  22.323  25.384  1.00  0.00     0.124 S 
ATOM     60  O   UNL A   1      43.295  23.117  24.173  1.00  0.00    -0.237 OA
ATOM     61  O   UNL A   1      44.207  21.402  25.703  1.00  0.00    -0.237 OA
ATOM     62  O   UNL A   1      41.777  21.793  25.594  1.00  0.00    -0.744 OA
ENDBRANCH  58  59
ENDBRANCH  26  51
BRANCH  38  63
ATOM     63  C   UNL A   1      48.188  28.346  32.349  1.00  0.00     0.058 A 
ATOM     64  C   UNL A   1      49.486  28.363  31.809  1.00  0.00     0.135 A 
ATOM     65  C   UNL A   1      47.379  29.469  32.110  1.00  0.00     0.135 A 
ATOM     66  F   UNL A   1      50.287  27.291  31.902  1.00  0.00    -0.206 F 
ATOM     67  C   UNL A   1      49.970  29.463  31.099  1.00  0.00     0.059 A 
ATOM     68  C   UNL A   1      47.828  30.562  31.377  1.00  0.00     0.059 A 
ATOM     69  F   UNL A   1      46.108  29.487  32.548  1.00  0.00    -0.206 F 
ATOM     70  C   UNL A   1      49.130  30.557  30.884  1.00  0.00     0.060 A 
BRANCH  70  71
ATOM     71  S   UNL A   1      49.726  31.941  29.890  1.00  0.00     0.124 S 
ATOM     72  O   UNL A   1      48.588  32.854  29.922  1.00  0.00    -0.237 OA
ATOM     73  O   UNL A   1      50.909  32.375  30.627  1.00  0.00    -0.237 OA
ATOM     74  O   UNL A   1      50.002  31.335  28.590  1.00  0.00    -0.744 OA
ENDBRANCH  70  71
ENDBRANCH  38  63
ENDBRANCH  12  13
ENDBRANCH   5   7
ENDBRANCH   2   3
ENDBRANCH   1   2
BRANCH   1  75
ATOM     75  C   UNL A   1      41.459  35.372  34.204  1.00  0.00     0.023 C 
BRANCH  75  76
ATOM     76  C   UNL A   1      41.911  34.365  33.150  1.00  0.00     0.116 C 
BRANCH  76  77
ATOM     77  N   UNL A   1      42.464  34.986  31.958  1.00  0.00    -0.352 N 
ATOM     78  C   UNL A   1      42.034  34.887  30.654  1.00  0.00     0.251 C 
ATOM     79  H   UNL A   1      43.253  35.556  32.103  1.00  0.00     0.163 HD
ATOM     80  O   UNL A   1      42.657  35.423  29.751  1.00  0.00    -0.269 OA
BRANCH  78  81
ATOM     81  C   UNL A   1      40.830  34.084  30.328  1.00  0.00     0.039 A 
ATOM     82  C   UNL A   1      40.942  32.698  30.407  1.00  0.00     0.016 A 
ATOM     83  C   UNL A   1      39.613  34.664  29.944  1.00  0.00     0.016 A 
ATOM     84  C   UNL A   1      39.816  31.903  30.186  1.00  0.00     0.027 A 
ATOM     85  C   UNL A   1      38.480  33.858  29.708  1.00  0.00     0.027 A 
ATOM     86  C   UNL A   1      38.568  32.474  29.860  1.00  0.00     0.045 A 
BRANCH  86  87
ATOM     87  N   UNL A   1      37.401  31.637  29.814  1.00  0.00    -0.299 N 
ATOM     88  C   UNL A   1      36.977  31.142  31.096  1.00  0.00     0.259 C 
ATOM     89  C   UNL A   1      37.294  30.572  28.788  1.00  0.00     0.152 C 
ATOM     90  C   UNL A   1      36.664  29.685  30.954  1.00  0.00     0.248 C 
ATOM     91  O   UNL A   1      36.939  31.777  32.144  1.00  0.00    -0.271 OA
ATOM     92  C   UNL A   1      37.427  29.430  29.713  1.00  0.00     0.021 C 
ATOM     93  N   UNL A   1      37.322  28.769  31.898  1.00  0.00    -0.170 NA
ATOM     94  C   UNL A   1      38.165  28.348  29.932  1.00  0.00     0.097 C 
ATOM     95  N   UNL A   1      38.046  27.952  31.250  1.00  0.00    -0.154 NA
BRANCH  89  96
ATOM     96  C   UNL A   1      35.946  30.478  28.037  1.00  0.00    -0.020 A 
ATOM     97  C   UNL A   1      35.039  31.572  28.025  1.00  0.00     0.006 A 
ATOM     98  C   UNL A   1      35.512  29.296  27.421  1.00  0.00     0.022 A 
ATOM     99  C   UNL A   1      33.785  31.510  27.416  1.00  0.00     0.002 A 
ATOM    100  C   UNL A   1      34.235  29.228  26.833  1.00  0.00     0.018 A 
ATOM    101  C   UNL A   1      33.375  30.327  26.824  1.00  0.00     0.016 A 
ATOM    102  Br  UNL A   1      33.629  27.608  26.063  1.00  0.00    -0.051 Br
ENDBRANCH  89  96
BRANCH  94 103
ATOM    103  C   UNL A   1      39.122  27.679  29.056  1.00  0.00     0.002 A 
ATOM    104  C   UNL A   1      39.733  28.384  28.009  1.00  0.00     0.010 A 
ATOM    105  C   UNL A   1      39.272  26.290  29.127  1.00  0.00     0.010 A 
ATOM    106  C   UNL A   1      40.408  27.693  26.998  1.00  0.00     0.001 A 
ATOM    107  C   UNL A   1      39.952  25.604  28.119  1.00  0.00     0.001 A 
ATOM    108  C   UNL A   1      40.495  26.302  27.042  1.00  0.00     0.000 A 
ENDBRANCH  94 103
ENDBRANCH  86  87
ENDBRANCH  78  81
ENDBRANCH  76  77
ENDBRANCH  75  76
ENDBRANCH   1  75
TORSDOF 17
ENDMDL
MODEL 3
REMARK VINA RESULT:     -12.1      5.053     10.113
REMARK SMILES O=C(NCCCCNC(=O)c1ccc(N2C(=O)[C@@H]3N=NC(c4ccccc4)=C3[C@H]2c2cccc(Br)c2)cc1)c1ccc(-c2c3nc(c(-c4c(F)cc(S(=O)(=O)[O-])cc4F)c4ccc([nH]4)c(-c4c(F)cc(S(=O)(=O)[O-])cc4F)c4nc(c(-c5c(F)cc(S(=O)(=O)[O-])cc5F)c5ccc2[nH]5)C=C4)C=C3)cc1
REMARK SMILES IDX 5 1 4 2 3 3 1 4 2 5 39 7 40 8 104 9 41 10 103 11 42 12 43 13
REMARK SMILES IDX 44 14 97 15 45 16 102 17 96 18 98 19 46 20 101 21 95 22
REMARK SMILES IDX 94 23 47 25 81 26 60 27 80 28 61 29 64 30 79 31 99 32 62 33
REMARK SMILES IDX 63 34 78 36 100 37 65 38 48 39 49 40 58 41 50 42 51 43 57 44
REMARK SMILES IDX 59 45 52 46 53 47 54 48 55 49 56 50 82 51 83 52 92 53 84 54
REMARK SMILES IDX 85 55 91 56 93 57 86 58 87 59 88 60 89 61 90 62 66 63 67 64
REMARK SMILES IDX 76 65 68 66 69 67 75 68 77 69 70 70 71 71 72 72 73 73 74 74
REMARK SMILES IDX 6 75 7 76 8 77 9 78 10 80 11 81 12 82 38 83 13 84 37 85
REMARK SMILES IDX 14 86 15 87 16 88 29 89 18 90 17 91 28 92 19 93 21 94 20 95
REMARK SMILES IDX 30 96 31 97 36 98 32 99 34 100 33 101 35 102 22 103 23 104
REMARK SMILES IDX 27 105 24 106 26 107 25 108
REMARK H PARENT 3 6 98 24 64 35 8 79
REMARK Flexibility Score: inf
ROOT
ATOM      1  C   UNL A   1      46.802  26.594  27.623  1.00  0.00     0.023 C 
ENDROOT
BRANCH   1   2
ATOM      2  C   UNL A   1      47.742  27.214  26.589  1.00  0.00     0.116 C 
BRANCH   2   3
ATOM      3  N   UNL A   1      47.159  28.247  25.760  1.00  0.00    -0.352 N 
ATOM      4  O   UNL A   1      46.306  30.158  25.067  1.00  0.00    -0.269 OA
ATOM      5  C   UNL A   1      46.394  29.356  26.001  1.00  0.00     0.251 C 
ATOM      6  H   UNL A   1      47.358  28.124  24.803  1.00  0.00     0.163 HD
BRANCH   5   7
ATOM      7  C   UNL A   1      45.621  29.615  27.246  1.00  0.00     0.039 A 
ATOM      8  C   UNL A   1      44.298  29.238  27.479  1.00  0.00     0.014 A 
ATOM      9  C   UNL A   1      46.290  30.360  28.238  1.00  0.00     0.014 A 
ATOM     10  C   UNL A   1      43.628  29.680  28.618  1.00  0.00     0.010 A 
ATOM     11  C   UNL A   1      45.632  30.792  29.383  1.00  0.00     0.010 A 
ATOM     12  C   UNL A   1      44.285  30.484  29.551  1.00  0.00    -0.014 A 
BRANCH  12  13
ATOM     13  C   UNL A   1      43.577  30.846  30.776  1.00  0.00     0.031 A 
ATOM     14  C   UNL A   1      43.384  29.713  31.726  1.00  0.00     0.074 A 
ATOM     15  C   UNL A   1      43.271  32.116  31.110  1.00  0.00     0.049 A 
ATOM     16  N   UNL A   1      42.278  29.196  32.154  1.00  0.00    -0.248 NA
ATOM     17  C   UNL A   1      44.586  28.976  32.151  1.00  0.00     0.031 C 
ATOM     18  C   UNL A   1      43.678  33.339  30.415  1.00  0.00     0.029 A 
ATOM     19  N   UNL A   1      42.629  32.594  32.216  1.00  0.00    -0.354 N 
ATOM     20  C   UNL A   1      42.648  28.220  33.082  1.00  0.00     0.074 A 
ATOM     21  C   UNL A   1      44.055  28.001  32.889  1.00  0.00     0.031 C 
ATOM     22  C   UNL A   1      43.479  34.400  31.228  1.00  0.00     0.029 A 
ATOM     23  C   UNL A   1      42.827  33.952  32.448  1.00  0.00     0.049 A 
ATOM     24  H   UNL A   1      42.074  32.027  32.799  1.00  0.00     0.167 HD
ATOM     25  C   UNL A   1      41.824  27.862  34.106  1.00  0.00     0.037 A 
ATOM     26  C   UNL A   1      42.552  34.637  33.590  1.00  0.00     0.037 A 
ATOM     27  C   UNL A   1      40.459  28.238  33.829  1.00  0.00     0.049 A 
ATOM     28  C   UNL A   1      41.575  33.832  34.367  1.00  0.00     0.074 A 
ATOM     29  C   UNL A   1      39.552  27.963  32.824  1.00  0.00     0.029 A 
ATOM     30  N   UNL A   1      39.941  29.312  34.510  1.00  0.00    -0.354 N 
ATOM     31  N   UNL A   1      40.345  33.608  33.991  1.00  0.00    -0.248 NA
ATOM     32  C   UNL A   1      42.098  32.910  35.364  1.00  0.00     0.031 C 
ATOM     33  C   UNL A   1      38.807  29.168  32.657  1.00  0.00     0.029 A 
ATOM     34  C   UNL A   1      39.265  30.084  33.604  1.00  0.00     0.049 A 
ATOM     35  H   UNL A   1      40.037  29.494  35.473  1.00  0.00     0.167 HD
ATOM     36  C   UNL A   1      40.096  32.296  34.363  1.00  0.00     0.074 A 
ATOM     37  C   UNL A   1      41.172  31.951  35.288  1.00  0.00     0.031 C 
ATOM     38  C   UNL A   1      39.204  31.525  33.672  1.00  0.00     0.037 A 
BRANCH  25  39
ATOM     39  C   UNL A   1      42.301  27.573  35.522  1.00  0.00     0.058 A 
ATOM     40  C   UNL A   1      43.224  28.461  36.119  1.00  0.00     0.135 A 
ATOM     41  C   UNL A   1      42.162  26.327  36.174  1.00  0.00     0.135 A 
ATOM     42  F   UNL A   1      43.416  29.690  35.615  1.00  0.00    -0.206 F 
ATOM     43  C   UNL A   1      44.052  28.083  37.177  1.00  0.00     0.059 A 
ATOM     44  C   UNL A   1      42.940  25.950  37.263  1.00  0.00     0.059 A 
ATOM     45  F   UNL A   1      41.335  25.370  35.742  1.00  0.00    -0.206 F 
ATOM     46  C   UNL A   1      43.923  26.810  37.719  1.00  0.00     0.060 A 
BRANCH  46  47
ATOM     47  S   UNL A   1      45.090  26.256  38.971  1.00  0.00     0.124 S 
ATOM     48  O   UNL A   1      46.357  26.680  38.388  1.00  0.00    -0.237 OA
ATOM     49  O   UNL A   1      44.645  26.996  40.147  1.00  0.00    -0.237 OA
ATOM     50  O   UNL A   1      44.866  24.814  39.022  1.00  0.00    -0.744 OA
ENDBRANCH  46  47
ENDBRANCH  25  39
BRANCH  26  51
ATOM     51  C   UNL A   1      43.324  35.756  34.201  1.00  0.00     0.058 A 
ATOM     52  C   UNL A   1      42.682  36.799  34.897  1.00  0.00     0.135 A 
ATOM     53  C   UNL A   1      44.723  35.684  34.359  1.00  0.00     0.135 A 
ATOM     54  F   UNL A   1      41.348  36.935  34.827  1.00  0.00    -0.206 F 
ATOM     55  C   UNL A   1      43.376  37.683  35.733  1.00  0.00     0.059 A 
ATOM     56  C   UNL A   1      45.438  36.561  35.174  1.00  0.00     0.059 A 
ATOM     57  F   UNL A   1      45.435  34.696  33.800  1.00  0.00    -0.206 F 
ATOM     58  C   UNL A   1      44.756  37.544  35.880  1.00  0.00     0.060 A 
BRANCH  58  59
ATOM     59  S   UNL A   1      45.638  38.566  37.084  1.00  0.00     0.124 S 
ATOM     60  O   UNL A   1      46.247  39.580  36.231  1.00  0.00    -0.237 OA
ATOM     61  O   UNL A   1      44.560  39.025  37.952  1.00  0.00    -0.237 OA
ATOM     62  O   UNL A   1      46.574  37.630  37.702  1.00  0.00    -0.744 OA
ENDBRANCH  58  59
ENDBRANCH  26  51
BRANCH  38  63
ATOM     63  C   UNL A   1      38.240  32.203  32.739  1.00  0.00     0.058 A 
ATOM     64  C   UNL A   1      38.459  32.393  31.363  1.00  0.00     0.135 A 
ATOM     65  C   UNL A   1      36.971  32.534  33.240  1.00  0.00     0.135 A 
ATOM     66  F   UNL A   1      39.606  32.007  30.786  1.00  0.00    -0.206 F 
ATOM     67  C   UNL A   1      37.472  32.925  30.532  1.00  0.00     0.059 A 
ATOM     68  C   UNL A   1      35.962  33.034  32.424  1.00  0.00     0.059 A 
ATOM     69  F   UNL A   1      36.681  32.318  34.534  1.00  0.00    -0.206 F 
ATOM     70  C   UNL A   1      36.224  33.239  31.072  1.00  0.00     0.060 A 
BRANCH  70  71
ATOM     71  S   UNL A   1      34.919  33.844  29.980  1.00  0.00     0.124 S 
ATOM     72  O   UNL A   1      34.130  32.639  29.746  1.00  0.00    -0.237 OA
ATOM     73  O   UNL A   1      34.279  34.875  30.792  1.00  0.00    -0.237 OA
ATOM     74  O   UNL A   1      35.650  34.345  28.819  1.00  0.00    -0.744 OA
ENDBRANCH  70  71
ENDBRANCH  38  63
ENDBRANCH  12  13
ENDBRANCH   5   7
ENDBRANCH   2   3
ENDBRANCH   1   2
BRANCH   1  75
ATOM     75  C   UNL A   1      47.141  26.862  29.092  1.00  0.00     0.023 C 
BRANCH  75  76
ATOM     76  C   UNL A   1      47.768  25.708  29.871  1.00  0.00     0.116 C 
BRANCH  76  77
ATOM     77  N   UNL A   1      47.234  25.561  31.214  1.00  0.00    -0.352 N 
ATOM     78  C   UNL A   1      45.956  25.228  31.603  1.00  0.00     0.251 C 
ATOM     79  H   UNL A   1      47.873  25.720  31.945  1.00  0.00     0.163 HD
ATOM     80  O   UNL A   1      45.650  25.214  32.785  1.00  0.00    -0.269 OA
BRANCH  78  81
ATOM     81  C   UNL A   1      44.922  24.931  30.581  1.00  0.00     0.039 A 
ATOM     82  C   UNL A   1      44.072  25.967  30.208  1.00  0.00     0.016 A 
ATOM     83  C   UNL A   1      44.775  23.663  29.999  1.00  0.00     0.016 A 
ATOM     84  C   UNL A   1      43.134  25.757  29.195  1.00  0.00     0.027 A 
ATOM     85  C   UNL A   1      43.819  23.450  28.985  1.00  0.00     0.027 A 
ATOM     86  C   UNL A   1      43.015  24.506  28.555  1.00  0.00     0.045 A 
BRANCH  86  87
ATOM     87  N   UNL A   1      42.165  24.382  27.403  1.00  0.00    -0.299 N 
ATOM     88  C   UNL A   1      42.742  24.885  26.185  1.00  0.00     0.259 C 
ATOM     89  C   UNL A   1      40.735  24.764  27.493  1.00  0.00     0.152 C 
ATOM     90  C   UNL A   1      41.705  25.703  25.481  1.00  0.00     0.248 C 
ATOM     91  O   UNL A   1      43.899  24.732  25.812  1.00  0.00    -0.271 OA
ATOM     92  C   UNL A   1      40.825  25.965  26.640  1.00  0.00     0.021 C 
ATOM     93  N   UNL A   1      42.089  27.068  25.089  1.00  0.00    -0.170 NA
ATOM     94  C   UNL A   1      40.581  27.270  26.650  1.00  0.00     0.097 C 
ATOM     95  N   UNL A   1      41.329  27.899  25.675  1.00  0.00    -0.154 NA
BRANCH  89  96
ATOM     96  C   UNL A   1      39.720  23.768  26.885  1.00  0.00    -0.020 A 
ATOM     97  C   UNL A   1      40.081  22.416  26.643  1.00  0.00     0.006 A 
ATOM     98  C   UNL A   1      38.445  24.166  26.459  1.00  0.00     0.022 A 
ATOM     99  C   UNL A   1      39.220  21.499  26.037  1.00  0.00     0.002 A 
ATOM    100  C   UNL A   1      37.591  23.246  25.821  1.00  0.00     0.018 A 
ATOM    101  C   UNL A   1      37.970  21.919  25.614  1.00  0.00     0.016 A 
ATOM    102  Br  UNL A   1      35.898  23.806  25.187  1.00  0.00    -0.051 Br
ENDBRANCH  89  96
BRANCH  94 103
ATOM    103  C   UNL A   1      39.798  28.065  27.591  1.00  0.00     0.002 A 
ATOM    104  C   UNL A   1      39.235  27.463  28.726  1.00  0.00     0.010 A 
ATOM    105  C   UNL A   1      39.434  29.373  27.257  1.00  0.00     0.010 A 
ATOM    106  C   UNL A   1      38.252  28.134  29.460  1.00  0.00     0.001 A 
ATOM    107  C   UNL A   1      38.457  30.043  27.996  1.00  0.00     0.001 A 
ATOM    108  C   UNL A   1      37.847  29.413  29.079  1.00  0.00     0.000 A 
ENDBRANCH  94 103
ENDBRANCH  86  87
ENDBRANCH  78  81
ENDBRANCH  76  77
ENDBRANCH  75  76
ENDBRANCH   1  75
TORSDOF 17
ENDMDL
