MODEL 1
REMARK VINA RESULT:     -12.1      0.000      0.000
REMARK SMILES CCc1ccc2c(c1)C=C(C(=O)NCCCCNC(=O)c1ccc(-c3c4nc(c(-c5c(F)cc(S(=O)(=O)[O-])cc5F)c5ccc([nH]5)c(-c5c(F)cc(S(=O)(=O)[O-])cc5F)c5nc(c(-c6c(F)cc(S(=O)(=O)[O-])cc6F)c6ccc3[nH]6)C=C5)C=C4)cc1)[C@H](C(F)(F)F)O2
REMARK SMILES IDX 16 1 15 2 14 3 13 4 11 5 12 6 10 8 3 9 4 10 8 11 5 12 7 13
REMARK SMILES IDX 6 14 9 15 92 16 87 17 2 18 1 19 88 20 89 21 90 22 91 23
REMARK SMILES IDX 17 24 18 25 19 26 20 28 21 29 22 30 86 31 23 32 85 33 24 34
REMARK SMILES IDX 25 35 26 36 79 37 27 38 84 39 78 40 80 41 28 42 83 43 77 44
REMARK SMILES IDX 76 45 29 47 63 48 42 49 62 50 43 51 46 52 61 53 81 54 44 55
REMARK SMILES IDX 45 56 60 58 82 59 47 60 30 61 31 62 40 63 32 64 33 65 39 66
REMARK SMILES IDX 41 67 34 68 35 69 36 70 37 71 38 72 64 73 65 74 74 75 66 76
REMARK SMILES IDX 67 77 73 78 75 79 68 80 69 81 70 82 71 83 72 84 48 85 49 86
REMARK SMILES IDX 58 87 50 88 51 89 57 90 59 91 52 92 53 93 54 94 55 95 56 96
REMARK H PARENT 13 7 18 27 80 46 46 57
REMARK Flexibility Score: inf
ROOT
ATOM      1  C   UNL A   1      40.286  22.348  27.592  1.00  0.00     0.023 C 
ENDROOT
BRANCH   1   2
ATOM      2  C   UNL A   1      39.639  22.077  26.231  1.00  0.00     0.023 C 
BRANCH   2   3
ATOM      3  C   UNL A   1      38.207  22.611  26.093  1.00  0.00     0.116 C 
BRANCH   3   4
ATOM      4  N   UNL A   1      37.821  22.653  24.692  1.00  0.00    -0.352 N 
ATOM      5  C   UNL A   1      36.634  22.898  24.074  1.00  0.00     0.251 C 
ATOM      6  O   UNL A   1      36.565  22.710  22.862  1.00  0.00    -0.270 OA
ATOM      7  H   UNL A   1      38.561  22.468  24.071  1.00  0.00     0.163 HD
BRANCH   5   8
ATOM      8  C   UNL A   1      35.448  23.444  24.787  1.00  0.00     0.067 C 
ATOM      9  C   UNL A   1      32.353  26.986  25.930  1.00  0.00    -0.047 A 
ATOM     10  C   UNL A   1      31.493  26.041  26.501  1.00  0.00     0.007 A 
ATOM     11  C   UNL A   1      33.582  26.557  25.414  1.00  0.00     0.015 A 
ATOM     12  C   UNL A   1      31.854  24.690  26.542  1.00  0.00     0.047 A 
ATOM     13  C   UNL A   1      33.938  25.203  25.447  1.00  0.00     0.017 A 
ATOM     14  C   UNL A   1      33.072  24.273  26.010  1.00  0.00     0.128 A 
ATOM     15  C   UNL A   1      35.153  24.751  24.798  1.00  0.00     0.025 C 
ATOM     16  O   UNL A   1      33.316  22.932  26.008  1.00  0.00    -0.475 OA
ATOM     17  C   UNL A   1      34.656  22.468  25.656  1.00  0.00     0.314 C 
BRANCH   9  18
ATOM     18  C   UNL A   1      31.949  28.433  25.808  1.00  0.00     0.032 C 
ATOM     19  C   UNL A   1      33.135  29.322  25.456  1.00  0.00     0.009 C 
ENDBRANCH   9  18
BRANCH  17  20
ATOM     20  C   UNL A   1      34.506  21.024  25.124  1.00  0.00     0.429 C 
ATOM     21  F   UNL A   1      35.673  20.342  25.115  1.00  0.00    -0.167 F 
ATOM     22  F   UNL A   1      33.676  20.300  25.926  1.00  0.00    -0.167 F 
ATOM     23  F   UNL A   1      33.976  20.982  23.881  1.00  0.00    -0.167 F 
ENDBRANCH  17  20
ENDBRANCH   5   8
ENDBRANCH   3   4
ENDBRANCH   2   3
ENDBRANCH   1   2
BRANCH   1  24
ATOM     24  C   UNL A   1      41.522  23.235  27.541  1.00  0.00     0.116 C 
BRANCH  24  25
ATOM     25  N   UNL A   1      41.619  24.005  26.311  1.00  0.00    -0.352 N 
ATOM     26  C   UNL A   1      41.454  25.357  26.132  1.00  0.00     0.251 C 
ATOM     27  H   UNL A   1      41.831  23.489  25.500  1.00  0.00     0.163 HD
ATOM     28  O   UNL A   1      41.454  25.825  25.001  1.00  0.00    -0.269 OA
BRANCH  26  29
ATOM     29  C   UNL A   1      41.240  26.228  27.308  1.00  0.00     0.039 A 
ATOM     30  C   UNL A   1      42.149  27.261  27.550  1.00  0.00     0.014 A 
ATOM     31  C   UNL A   1      40.154  26.032  28.165  1.00  0.00     0.014 A 
ATOM     32  C   UNL A   1      41.946  28.120  28.631  1.00  0.00     0.010 A 
ATOM     33  C   UNL A   1      39.911  26.934  29.195  1.00  0.00     0.010 A 
ATOM     34  C   UNL A   1      40.816  27.974  29.452  1.00  0.00    -0.014 A 
BRANCH  34  35
ATOM     35  C   UNL A   1      40.593  28.873  30.610  1.00  0.00     0.031 A 
ATOM     36  C   UNL A   1      41.426  28.713  31.855  1.00  0.00     0.074 A 
ATOM     37  C   UNL A   1      39.621  29.804  30.557  1.00  0.00     0.049 A 
ATOM     38  N   UNL A   1      41.373  29.384  32.976  1.00  0.00    -0.248 NA
ATOM     39  C   UNL A   1      42.429  27.637  31.849  1.00  0.00     0.031 C 
ATOM     40  C   UNL A   1      38.709  30.013  29.430  1.00  0.00     0.029 A 
ATOM     41  N   UNL A   1      39.235  30.748  31.474  1.00  0.00    -0.354 N 
ATOM     42  C   UNL A   1      42.322  28.804  33.810  1.00  0.00     0.074 A 
ATOM     43  C   UNL A   1      42.891  27.688  33.089  1.00  0.00     0.031 C 
ATOM     44  C   UNL A   1      37.889  31.040  29.712  1.00  0.00     0.029 A 
ATOM     45  C   UNL A   1      38.201  31.545  31.045  1.00  0.00     0.049 A 
ATOM     46  H   UNL A   1      39.659  30.844  32.357  1.00  0.00     0.167 HD
ATOM     47  C   UNL A   1      42.707  29.184  35.052  1.00  0.00     0.037 A 
ATOM     48  C   UNL A   1      37.583  32.574  31.655  1.00  0.00     0.037 A 
ATOM     49  C   UNL A   1      42.159  30.317  35.750  1.00  0.00     0.049 A 
ATOM     50  C   UNL A   1      38.057  33.007  33.017  1.00  0.00     0.074 A 
ATOM     51  C   UNL A   1      42.511  30.820  36.990  1.00  0.00     0.029 A 
ATOM     52  N   UNL A   1      41.144  31.130  35.263  1.00  0.00    -0.354 N 
ATOM     53  N   UNL A   1      38.998  32.483  33.767  1.00  0.00    -0.248 NA
ATOM     54  C   UNL A   1      37.400  34.181  33.605  1.00  0.00     0.031 C 
ATOM     55  C   UNL A   1      41.688  31.919  37.266  1.00  0.00     0.029 A 
ATOM     56  C   UNL A   1      40.855  32.128  36.178  1.00  0.00     0.049 A 
ATOM     57  H   UNL A   1      40.696  31.014  34.394  1.00  0.00     0.167 HD
ATOM     58  C   UNL A   1      39.068  33.285  34.902  1.00  0.00     0.074 A 
ATOM     59  C   UNL A   1      38.083  34.333  34.731  1.00  0.00     0.031 C 
ATOM     60  C   UNL A   1      39.876  33.168  35.984  1.00  0.00     0.037 A 
BRANCH  47  61
ATOM     61  C   UNL A   1      43.780  28.371  35.724  1.00  0.00     0.058 A 
ATOM     62  C   UNL A   1      45.144  28.636  35.514  1.00  0.00     0.135 A 
ATOM     63  C   UNL A   1      43.445  27.325  36.598  1.00  0.00     0.135 A 
ATOM     64  F   UNL A   1      45.522  29.613  34.675  1.00  0.00    -0.206 F 
ATOM     65  C   UNL A   1      46.136  27.869  36.116  1.00  0.00     0.059 A 
ATOM     66  C   UNL A   1      44.421  26.563  37.234  1.00  0.00     0.059 A 
ATOM     67  F   UNL A   1      42.158  27.028  36.835  1.00  0.00    -0.206 F 
ATOM     68  C   UNL A   1      45.765  26.832  36.972  1.00  0.00     0.060 A 
BRANCH  68  69
ATOM     69  S   UNL A   1      47.063  25.842  37.743  1.00  0.00     0.124 S 
ATOM     70  O   UNL A   1      46.652  24.490  37.377  1.00  0.00    -0.237 OA
ATOM     71  O   UNL A   1      48.267  26.338  37.084  1.00  0.00    -0.237 OA
ATOM     72  O   UNL A   1      46.945  26.172  39.160  1.00  0.00    -0.744 OA
ENDBRANCH  68  69
ENDBRANCH  47  61
BRANCH  48  73
ATOM     73  C   UNL A   1      36.486  33.300  30.962  1.00  0.00     0.058 A 
ATOM     74  C   UNL A   1      36.756  34.151  29.880  1.00  0.00     0.135 A 
ATOM     75  C   UNL A   1      35.148  33.149  31.358  1.00  0.00     0.135 A 
ATOM     76  F   UNL A   1      38.020  34.329  29.466  1.00  0.00    -0.206 F 
ATOM     77  C   UNL A   1      35.742  34.845  29.228  1.00  0.00     0.059 A 
ATOM     78  C   UNL A   1      34.114  33.813  30.706  1.00  0.00     0.059 A 
ATOM     79  F   UNL A   1      34.835  32.330  32.374  1.00  0.00    -0.206 F 
ATOM     80  C   UNL A   1      34.423  34.670  29.648  1.00  0.00     0.060 A 
BRANCH  80  81
ATOM     81  S   UNL A   1      33.109  35.539  28.765  1.00  0.00     0.124 S 
ATOM     82  O   UNL A   1      33.870  36.522  28.002  1.00  0.00    -0.237 OA
ATOM     83  O   UNL A   1      32.495  34.464  27.992  1.00  0.00    -0.237 OA
ATOM     84  O   UNL A   1      32.282  36.077  29.842  1.00  0.00    -0.744 OA
ENDBRANCH  80  81
ENDBRANCH  48  73
BRANCH  60  85
ATOM     85  C   UNL A   1      39.760  34.229  37.044  1.00  0.00     0.058 A 
ATOM     86  C   UNL A   1      38.968  34.049  38.189  1.00  0.00     0.135 A 
ATOM     87  C   UNL A   1      40.464  35.437  36.915  1.00  0.00     0.135 A 
ATOM     88  F   UNL A   1      38.274  32.913  38.360  1.00  0.00    -0.206 F 
ATOM     89  C   UNL A   1      38.844  35.049  39.149  1.00  0.00     0.059 A 
ATOM     90  C   UNL A   1      40.376  36.439  37.876  1.00  0.00     0.059 A 
ATOM     91  F   UNL A   1      41.247  35.653  35.846  1.00  0.00    -0.206 F 
ATOM     92  C   UNL A   1      39.546  36.243  38.979  1.00  0.00     0.060 A 
BRANCH  92  93
ATOM     93  S   UNL A   1      39.373  37.537  40.226  1.00  0.00     0.124 S 
ATOM     94  O   UNL A   1      40.734  38.061  40.294  1.00  0.00    -0.237 OA
ATOM     95  O   UNL A   1      38.382  38.423  39.626  1.00  0.00    -0.237 OA
ATOM     96  O   UNL A   1      38.921  36.808  41.407  1.00  0.00    -0.744 OA
ENDBRANCH  92  93
ENDBRANCH  60  85
ENDBRANCH  34  35
ENDBRANCH  26  29
ENDBRANCH  24  25
ENDBRANCH   1  24
TORSDOF 16
ENDMDL
MODEL 2
REMARK VINA RESULT:     -12.1      3.262      9.400
REMARK SMILES CCc1ccc2c(c1)C=C(C(=O)NCCCCNC(=O)c1ccc(-c3c4nc(c(-c5c(F)cc(S(=O)(=O)[O-])cc5F)c5ccc([nH]5)c(-c5c(F)cc(S(=O)(=O)[O-])cc5F)c5nc(c(-c6c(F)cc(S(=O)(=O)[O-])cc6F)c6ccc3[nH]6)C=C5)C=C4)cc1)[C@H](C(F)(F)F)O2
REMARK SMILES IDX 16 1 15 2 14 3 13 4 11 5 12 6 10 8 3 9 4 10 8 11 5 12 7 13
REMARK SMILES IDX 6 14 9 15 92 16 87 17 2 18 1 19 88 20 89 21 90 22 91 23
REMARK SMILES IDX 17 24 18 25 19 26 20 28 21 29 22 30 86 31 23 32 85 33 24 34
REMARK SMILES IDX 25 35 26 36 79 37 27 38 84 39 78 40 80 41 28 42 83 43 77 44
REMARK SMILES IDX 76 45 29 47 63 48 42 49 62 50 43 51 46 52 61 53 81 54 44 55
REMARK SMILES IDX 45 56 60 58 82 59 47 60 30 61 31 62 40 63 32 64 33 65 39 66
REMARK SMILES IDX 41 67 34 68 35 69 36 70 37 71 38 72 64 73 65 74 74 75 66 76
REMARK SMILES IDX 67 77 73 78 75 79 68 80 69 81 70 82 71 83 72 84 48 85 49 86
REMARK SMILES IDX 58 87 50 88 51 89 57 90 59 91 52 92 53 93 54 94 55 95 56 96
REMARK H PARENT 13 7 18 27 80 46 46 57
REMARK Flexibility Score: inf
ROOT
ATOM      1  C   UNL A   1      33.174  27.658  25.139  1.00  0.00     0.023 C 
ENDROOT
BRANCH   1   2
ATOM      2  C   UNL A   1      31.786  27.684  25.783  1.00  0.00     0.023 C 
BRANCH   2   3
ATOM      3  C   UNL A   1      30.839  26.580  25.293  1.00  0.00     0.116 C 
BRANCH   3   4
ATOM      4  N   UNL A   1      30.732  25.530  26.292  1.00  0.00    -0.352 N 
ATOM      5  C   UNL A   1      31.436  24.385  26.499  1.00  0.00     0.251 C 
ATOM      6  O   UNL A   1      31.018  23.594  27.341  1.00  0.00    -0.270 OA
ATOM      7  H   UNL A   1      30.010  25.675  26.944  1.00  0.00     0.163 HD
BRANCH   5   8
ATOM      8  C   UNL A   1      32.718  24.086  25.805  1.00  0.00     0.067 C 
ATOM      9  C   UNL A   1      37.516  23.457  25.681  1.00  0.00    -0.047 A 
ATOM     10  C   UNL A   1      37.403  22.902  24.401  1.00  0.00     0.007 A 
ATOM     11  C   UNL A   1      36.362  23.940  26.312  1.00  0.00     0.015 A 
ATOM     12  C   UNL A   1      36.156  22.821  23.773  1.00  0.00     0.047 A 
ATOM     13  C   UNL A   1      35.114  23.850  25.686  1.00  0.00     0.017 A 
ATOM     14  C   UNL A   1      35.013  23.289  24.418  1.00  0.00     0.128 A 
ATOM     15  C   UNL A   1      33.910  24.235  26.397  1.00  0.00     0.025 C 
ATOM     16  O   UNL A   1      33.825  23.097  23.781  1.00  0.00    -0.475 OA
ATOM     17  C   UNL A   1      32.633  23.754  24.316  1.00  0.00     0.314 C 
BRANCH   9  18
ATOM     18  C   UNL A   1      38.838  23.483  26.405  1.00  0.00     0.032 C 
ATOM     19  C   UNL A   1      39.528  22.126  26.369  1.00  0.00     0.009 C 
ENDBRANCH   9  18
BRANCH  17  20
ATOM     20  C   UNL A   1      31.416  22.918  23.855  1.00  0.00     0.429 C 
ATOM     21  F   UNL A   1      30.323  23.673  23.606  1.00  0.00    -0.167 F 
ATOM     22  F   UNL A   1      31.686  22.282  22.681  1.00  0.00    -0.167 F 
ATOM     23  F   UNL A   1      31.079  21.958  24.746  1.00  0.00    -0.167 F 
ENDBRANCH  17  20
ENDBRANCH   5   8
ENDBRANCH   3   4
ENDBRANCH   2   3
ENDBRANCH   1   2
BRANCH   1  24
ATOM     24  C   UNL A   1      34.243  28.422  25.907  1.00  0.00     0.116 C 
BRANCH  24  25
ATOM     25  N   UNL A   1      33.811  29.747  26.318  1.00  0.00    -0.352 N 
ATOM     26  C   UNL A   1      34.362  30.572  27.269  1.00  0.00     0.251 C 
ATOM     27  H   UNL A   1      33.018  30.101  25.854  1.00  0.00     0.163 HD
ATOM     28  O   UNL A   1      33.796  31.612  27.575  1.00  0.00    -0.269 OA
BRANCH  26  29
ATOM     29  C   UNL A   1      35.617  30.171  27.943  1.00  0.00     0.039 A 
ATOM     30  C   UNL A   1      36.833  30.457  27.316  1.00  0.00     0.014 A 
ATOM     31  C   UNL A   1      35.598  29.521  29.179  1.00  0.00     0.014 A 
ATOM     32  C   UNL A   1      38.031  30.123  27.950  1.00  0.00     0.010 A 
ATOM     33  C   UNL A   1      36.792  29.259  29.843  1.00  0.00     0.010 A 
ATOM     34  C   UNL A   1      38.020  29.538  29.226  1.00  0.00    -0.014 A 
BRANCH  34  35
ATOM     35  C   UNL A   1      39.285  29.169  29.907  1.00  0.00     0.031 A 
ATOM     36  C   UNL A   1      39.710  29.904  31.151  1.00  0.00     0.074 A 
ATOM     37  C   UNL A   1      40.068  28.204  29.386  1.00  0.00     0.049 A 
ATOM     38  N   UNL A   1      40.784  29.745  31.878  1.00  0.00    -0.248 NA
ATOM     39  C   UNL A   1      38.823  30.981  31.621  1.00  0.00     0.031 C 
ATOM     40  C   UNL A   1      39.793  27.464  28.152  1.00  0.00     0.029 A 
ATOM     41  N   UNL A   1      41.256  27.681  29.829  1.00  0.00    -0.354 N 
ATOM     42  C   UNL A   1      40.710  30.707  32.880  1.00  0.00     0.074 A 
ATOM     43  C   UNL A   1      39.518  31.485  32.630  1.00  0.00     0.031 C 
ATOM     44  C   UNL A   1      40.770  26.563  27.953  1.00  0.00     0.029 A 
ATOM     45  C   UNL A   1      41.750  26.677  29.029  1.00  0.00     0.049 A 
ATOM     46  H   UNL A   1      41.712  27.995  30.642  1.00  0.00     0.167 HD
ATOM     47  C   UNL A   1      41.542  30.905  33.930  1.00  0.00     0.037 A 
ATOM     48  C   UNL A   1      42.861  25.929  29.157  1.00  0.00     0.037 A 
ATOM     49  C   UNL A   1      42.710  30.105  34.191  1.00  0.00     0.049 A 
ATOM     50  C   UNL A   1      43.748  26.137  30.355  1.00  0.00     0.074 A 
ATOM     51  C   UNL A   1      43.594  30.188  35.252  1.00  0.00     0.029 A 
ATOM     52  N   UNL A   1      43.152  29.066  33.383  1.00  0.00    -0.354 N 
ATOM     53  N   UNL A   1      43.630  27.013  31.326  1.00  0.00    -0.248 NA
ATOM     54  C   UNL A   1      44.906  25.244  30.486  1.00  0.00     0.031 C 
ATOM     55  C   UNL A   1      44.588  29.218  35.069  1.00  0.00     0.029 A 
ATOM     56  C   UNL A   1      44.298  28.503  33.919  1.00  0.00     0.049 A 
ATOM     57  H   UNL A   1      42.715  28.773  32.550  1.00  0.00     0.167 HD
ATOM     58  C   UNL A   1      44.681  26.753  32.201  1.00  0.00     0.074 A 
ATOM     59  C   UNL A   1      45.413  25.631  31.648  1.00  0.00     0.031 C 
ATOM     60  C   UNL A   1      45.007  27.381  33.357  1.00  0.00     0.037 A 
BRANCH  47  61
ATOM     61  C   UNL A   1      41.208  32.025  34.877  1.00  0.00     0.058 A 
ATOM     62  C   UNL A   1      41.759  33.308  34.723  1.00  0.00     0.135 A 
ATOM     63  C   UNL A   1      40.317  31.822  35.942  1.00  0.00     0.135 A 
ATOM     64  F   UNL A   1      42.630  33.556  33.732  1.00  0.00    -0.206 F 
ATOM     65  C   UNL A   1      41.469  34.338  35.612  1.00  0.00     0.059 A 
ATOM     66  C   UNL A   1      39.990  32.845  36.827  1.00  0.00     0.059 A 
ATOM     67  F   UNL A   1      39.761  30.616  36.138  1.00  0.00    -0.206 F 
ATOM     68  C   UNL A   1      40.585  34.096  36.664  1.00  0.00     0.060 A 
BRANCH  68  69
ATOM     69  S   UNL A   1      40.222  35.440  37.813  1.00  0.00     0.124 S 
ATOM     70  O   UNL A   1      41.477  35.537  38.552  1.00  0.00    -0.237 OA
ATOM     71  O   UNL A   1      39.930  36.551  36.913  1.00  0.00    -0.237 OA
ATOM     72  O   UNL A   1      39.083  34.937  38.574  1.00  0.00    -0.744 OA
ENDBRANCH  68  69
ENDBRANCH  47  61
BRANCH  48  73
ATOM     73  C   UNL A   1      43.170  24.877  28.152  1.00  0.00     0.058 A 
ATOM     74  C   UNL A   1      43.877  25.184  26.981  1.00  0.00     0.135 A 
ATOM     75  C   UNL A   1      42.776  23.544  28.348  1.00  0.00     0.135 A 
ATOM     76  F   UNL A   1      44.273  26.445  26.748  1.00  0.00    -0.206 F 
ATOM     77  C   UNL A   1      44.165  24.214  26.027  1.00  0.00     0.059 A 
ATOM     78  C   UNL A   1      43.074  22.551  27.420  1.00  0.00     0.059 A 
ATOM     79  F   UNL A   1      42.116  23.194  29.463  1.00  0.00    -0.206 F 
ATOM     80  C   UNL A   1      43.758  22.899  26.256  1.00  0.00     0.060 A 
BRANCH  80  81
ATOM     81  S   UNL A   1      44.178  21.637  25.033  1.00  0.00     0.124 S 
ATOM     82  O   UNL A   1      45.532  21.276  25.437  1.00  0.00    -0.237 OA
ATOM     83  O   UNL A   1      43.150  20.628  25.268  1.00  0.00    -0.237 OA
ATOM     84  O   UNL A   1      44.066  22.351  23.764  1.00  0.00    -0.744 OA
ENDBRANCH  80  81
ENDBRANCH  48  73
BRANCH  60  85
ATOM     85  C   UNL A   1      46.180  26.836  34.125  1.00  0.00     0.058 A 
ATOM     86  C   UNL A   1      46.028  25.840  35.103  1.00  0.00     0.135 A 
ATOM     87  C   UNL A   1      47.476  27.311  33.866  1.00  0.00     0.135 A 
ATOM     88  F   UNL A   1      44.810  25.354  35.390  1.00  0.00    -0.206 F 
ATOM     89  C   UNL A   1      47.116  25.365  35.828  1.00  0.00     0.059 A 
ATOM     90  C   UNL A   1      48.581  26.830  34.560  1.00  0.00     0.059 A 
ATOM     91  F   UNL A   1      47.677  28.252  32.930  1.00  0.00    -0.206 F 
ATOM     92  C   UNL A   1      48.388  25.872  35.554  1.00  0.00     0.060 A 
BRANCH  92  93
ATOM     93  S   UNL A   1      49.793  25.253  36.505  1.00  0.00     0.124 S 
ATOM     94  O   UNL A   1      50.869  25.335  35.523  1.00  0.00    -0.237 OA
ATOM     95  O   UNL A   1      49.868  26.203  37.610  1.00  0.00    -0.237 OA
ATOM     96  O   UNL A   1      49.381  23.902  36.874  1.00  0.00    -0.744 OA
ENDBRANCH  92  93
ENDBRANCH  60  85
ENDBRANCH  34  35
ENDBRANCH  26  29
ENDBRANCH  24  25
ENDBRANCH   1  24
TORSDOF 16
ENDMDL
MODEL 3
REMARK VINA RESULT:     -12.0      4.708     10.456
REMARK SMILES CCc1ccc2c(c1)C=C(C(=O)NCCCCNC(=O)c1ccc(-c3c4nc(c(-c5c(F)cc(S(=O)(=O)[O-])cc5F)c5ccc([nH]5)c(-c5c(F)cc(S(=O)(=O)[O-])cc5F)c5nc(c(-c6c(F)cc(S(=O)(=O)[O-])cc6F)c6ccc3[nH]6)C=C5)C=C4)cc1)[C@H](C(F)(F)F)O2
REMARK SMILES IDX 16 1 15 2 14 3 13 4 11 5 12 6 10 8 3 9 4 10 8 11 5 12 7 13
REMARK SMILES IDX 6 14 9 15 92 16 87 17 2 18 1 19 88 20 89 21 90 22 91 23
REMARK SMILES IDX 17 24 18 25 19 26 20 28 21 29 22 30 86 31 23 32 85 33 24 34
REMARK SMILES IDX 25 35 26 36 79 37 27 38 84 39 78 40 80 41 28 42 83 43 77 44
REMARK SMILES IDX 76 45 29 47 63 48 42 49 62 50 43 51 46 52 61 53 81 54 44 55
REMARK SMILES IDX 45 56 60 58 82 59 47 60 30 61 31 62 40 63 32 64 33 65 39 66
REMARK SMILES IDX 41 67 34 68 35 69 36 70 37 71 38 72 64 73 65 74 74 75 66 76
REMARK SMILES IDX 67 77 73 78 75 79 68 80 69 81 70 82 71 83 72 84 48 85 49 86
REMARK SMILES IDX 58 87 50 88 51 89 57 90 59 91 52 92 53 93 54 94 55 95 56 96
REMARK H PARENT 13 7 18 27 80 46 46 57
REMARK Flexibility Score: inf
ROOT
ATOM      1  C   UNL A   1      33.327  28.035  25.218  1.00  0.00     0.023 C 
ENDROOT
BRANCH   1   2
ATOM      2  C   UNL A   1      31.837  28.339  25.390  1.00  0.00     0.023 C 
BRANCH   2   3
ATOM      3  C   UNL A   1      30.902  27.226  24.900  1.00  0.00     0.116 C 
BRANCH   3   4
ATOM      4  N   UNL A   1      30.691  26.247  25.954  1.00  0.00    -0.352 N 
ATOM      5  C   UNL A   1      31.264  25.042  26.215  1.00  0.00     0.251 C 
ATOM      6  O   UNL A   1      30.771  24.348  27.101  1.00  0.00    -0.270 OA
ATOM      7  H   UNL A   1      29.999  26.507  26.604  1.00  0.00     0.163 HD
BRANCH   5   8
ATOM      8  C   UNL A   1      32.494  24.563  25.527  1.00  0.00     0.067 C 
ATOM      9  C   UNL A   1      37.205  23.466  25.374  1.00  0.00    -0.047 A 
ATOM     10  C   UNL A   1      37.008  22.820  24.148  1.00  0.00     0.007 A 
ATOM     11  C   UNL A   1      36.119  24.109  25.981  1.00  0.00     0.015 A 
ATOM     12  C   UNL A   1      35.744  22.807  23.551  1.00  0.00     0.047 A 
ATOM     13  C   UNL A   1      34.852  24.088  25.387  1.00  0.00     0.017 A 
ATOM     14  C   UNL A   1      34.667  23.436  24.174  1.00  0.00     0.128 A 
ATOM     15  C   UNL A   1      33.709  24.646  26.083  1.00  0.00     0.025 C 
ATOM     16  O   UNL A   1      33.449  23.307  23.575  1.00  0.00    -0.475 OA
ATOM     17  C   UNL A   1      32.340  24.118  24.073  1.00  0.00     0.314 C 
BRANCH   9  18
ATOM     18  C   UNL A   1      38.542  23.425  26.070  1.00  0.00     0.032 C 
ATOM     19  C   UNL A   1      39.069  22.001  26.196  1.00  0.00     0.009 C 
ENDBRANCH   9  18
BRANCH  17  20
ATOM     20  C   UNL A   1      31.038  23.369  23.707  1.00  0.00     0.429 C 
ATOM     21  F   UNL A   1      30.056  24.195  23.283  1.00  0.00    -0.167 F 
ATOM     22  F   UNL A   1      31.252  22.509  22.671  1.00  0.00    -0.167 F 
ATOM     23  F   UNL A   1      30.560  22.627  24.732  1.00  0.00    -0.167 F 
ENDBRANCH  17  20
ENDBRANCH   5   8
ENDBRANCH   3   4
ENDBRANCH   2   3
ENDBRANCH   1   2
BRANCH   1  24
ATOM     24  C   UNL A   1      34.181  28.334  26.443  1.00  0.00     0.116 C 
BRANCH  24  25
ATOM     25  N   UNL A   1      33.836  29.592  27.083  1.00  0.00    -0.352 N 
ATOM     26  C   UNL A   1      34.597  30.358  27.933  1.00  0.00     0.251 C 
ATOM     27  H   UNL A   1      32.938  29.942  26.882  1.00  0.00     0.163 HD
ATOM     28  O   UNL A   1      34.103  31.335  28.480  1.00  0.00    -0.269 OA
BRANCH  26  29
ATOM     29  C   UNL A   1      35.997  29.968  28.210  1.00  0.00     0.039 A 
ATOM     30  C   UNL A   1      36.950  30.141  27.203  1.00  0.00     0.014 A 
ATOM     31  C   UNL A   1      36.368  29.437  29.448  1.00  0.00     0.014 A 
ATOM     32  C   UNL A   1      38.284  29.816  27.454  1.00  0.00     0.010 A 
ATOM     33  C   UNL A   1      37.709  29.187  29.721  1.00  0.00     0.010 A 
ATOM     34  C   UNL A   1      38.677  29.354  28.721  1.00  0.00    -0.014 A 
BRANCH  34  35
ATOM     35  C   UNL A   1      40.090  28.995  28.997  1.00  0.00     0.031 A 
ATOM     36  C   UNL A   1      41.003  29.998  29.651  1.00  0.00     0.074 A 
ATOM     37  C   UNL A   1      40.558  27.788  28.627  1.00  0.00     0.049 A 
ATOM     38  N   UNL A   1      42.269  29.886  29.959  1.00  0.00    -0.248 NA
ATOM     39  C   UNL A   1      40.425  31.313  29.974  1.00  0.00     0.031 C 
ATOM     40  C   UNL A   1      39.786  26.756  27.931  1.00  0.00     0.029 A 
ATOM     41  N   UNL A   1      41.799  27.225  28.782  1.00  0.00    -0.354 N 
ATOM     42  C   UNL A   1      42.640  31.113  30.495  1.00  0.00     0.074 A 
ATOM     43  C   UNL A   1      41.483  31.976  30.414  1.00  0.00     0.031 C 
ATOM     44  C   UNL A   1      40.562  25.676  27.746  1.00  0.00     0.029 A 
ATOM     45  C   UNL A   1      41.891  25.945  28.288  1.00  0.00     0.049 A 
ATOM     46  H   UNL A   1      42.553  27.692  29.208  1.00  0.00     0.167 HD
ATOM     47  C   UNL A   1      43.827  31.480  31.035  1.00  0.00     0.037 A 
ATOM     48  C   UNL A   1      42.927  25.085  28.281  1.00  0.00     0.037 A 
ATOM     49  C   UNL A   1      44.964  30.604  31.143  1.00  0.00     0.049 A 
ATOM     50  C   UNL A   1      44.223  25.499  28.926  1.00  0.00     0.074 A 
ATOM     51  C   UNL A   1      46.198  30.858  31.717  1.00  0.00     0.029 A 
ATOM     52  N   UNL A   1      45.004  29.299  30.672  1.00  0.00    -0.354 N 
ATOM     53  N   UNL A   1      44.537  26.645  29.483  1.00  0.00    -0.248 NA
ATOM     54  C   UNL A   1      45.296  24.498  28.959  1.00  0.00     0.031 C 
ATOM     55  C   UNL A   1      46.993  29.716  31.565  1.00  0.00     0.029 A 
ATOM     56  C   UNL A   1      46.241  28.736  30.937  1.00  0.00     0.049 A 
ATOM     57  H   UNL A   1      44.261  28.841  30.215  1.00  0.00     0.167 HD
ATOM     58  C   UNL A   1      45.834  26.490  29.963  1.00  0.00     0.074 A 
ATOM     59  C   UNL A   1      46.237  25.136  29.639  1.00  0.00     0.031 C 
ATOM     60  C   UNL A   1      46.618  27.383  30.615  1.00  0.00     0.037 A 
BRANCH  47  61
ATOM     61  C   UNL A   1      43.945  32.885  31.559  1.00  0.00     0.058 A 
ATOM     62  C   UNL A   1      43.605  33.208  32.884  1.00  0.00     0.135 A 
ATOM     63  C   UNL A   1      44.415  33.920  30.736  1.00  0.00     0.135 A 
ATOM     64  F   UNL A   1      43.134  32.261  33.711  1.00  0.00    -0.206 F 
ATOM     65  C   UNL A   1      43.691  34.511  33.362  1.00  0.00     0.059 A 
ATOM     66  C   UNL A   1      44.537  35.227  31.201  1.00  0.00     0.059 A 
ATOM     67  F   UNL A   1      44.753  33.670  29.461  1.00  0.00    -0.206 F 
ATOM     68  C   UNL A   1      44.155  35.516  32.511  1.00  0.00     0.060 A 
BRANCH  68  69
ATOM     69  S   UNL A   1      44.257  37.203  33.144  1.00  0.00     0.124 S 
ATOM     70  O   UNL A   1      45.568  37.193  33.787  1.00  0.00    -0.237 OA
ATOM     71  O   UNL A   1      44.155  38.001  31.926  1.00  0.00    -0.237 OA
ATOM     72  O   UNL A   1      43.115  37.296  34.049  1.00  0.00    -0.744 OA
ENDBRANCH  68  69
ENDBRANCH  47  61
BRANCH  48  73
ATOM     73  C   UNL A   1      42.765  23.730  27.692  1.00  0.00     0.058 A 
ATOM     74  C   UNL A   1      42.946  23.515  26.318  1.00  0.00     0.135 A 
ATOM     75  C   UNL A   1      42.440  22.623  28.490  1.00  0.00     0.135 A 
ATOM     76  F   UNL A   1      43.256  24.543  25.513  1.00  0.00    -0.206 F 
ATOM     77  C   UNL A   1      42.789  22.255  25.750  1.00  0.00     0.059 A 
ATOM     78  C   UNL A   1      42.302  21.348  27.950  1.00  0.00     0.059 A 
ATOM     79  F   UNL A   1      42.278  22.772  29.814  1.00  0.00    -0.206 F 
ATOM     80  C   UNL A   1      42.467  21.176  26.575  1.00  0.00     0.060 A 
BRANCH  80  81
ATOM     81  S   UNL A   1      42.311  19.536  25.835  1.00  0.00     0.124 S 
ATOM     82  O   UNL A   1      42.658  18.674  26.960  1.00  0.00    -0.237 OA
ATOM     83  O   UNL A   1      40.911  19.516  25.422  1.00  0.00    -0.237 OA
ATOM     84  O   UNL A   1      43.279  19.569  24.742  1.00  0.00    -0.744 OA
ENDBRANCH  80  81
ENDBRANCH  48  73
BRANCH  60  85
ATOM     85  C   UNL A   1      47.972  26.906  31.064  1.00  0.00     0.058 A 
ATOM     86  C   UNL A   1      49.098  26.977  30.228  1.00  0.00     0.135 A 
ATOM     87  C   UNL A   1      48.145  26.384  32.355  1.00  0.00     0.135 A 
ATOM     88  F   UNL A   1      48.985  27.466  28.982  1.00  0.00    -0.206 F 
ATOM     89  C   UNL A   1      50.339  26.505  30.642  1.00  0.00     0.059 A 
ATOM     90  C   UNL A   1      49.384  25.933  32.800  1.00  0.00     0.059 A 
ATOM     91  F   UNL A   1      47.105  26.308  33.200  1.00  0.00    -0.206 F 
ATOM     92  C   UNL A   1      50.470  25.978  31.928  1.00  0.00     0.060 A 
BRANCH  92  93
ATOM     93  S   UNL A   1      52.084  25.363  32.454  1.00  0.00     0.124 S 
ATOM     94  O   UNL A   1      51.928  23.926  32.254  1.00  0.00    -0.237 OA
ATOM     95  O   UNL A   1      52.993  26.036  31.533  1.00  0.00    -0.237 OA
ATOM     96  O   UNL A   1      52.174  25.798  33.845  1.00  0.00    -0.744 OA
ENDBRANCH  92  93
ENDBRANCH  60  85
ENDBRANCH  34  35
ENDBRANCH  26  29
ENDBRANCH  24  25
ENDBRANCH   1  24
TORSDOF 16
ENDMDL
