MODEL 1
REMARK VINA RESULT:     -11.5      0.000      0.000
REMARK SMILES [NH3+][C@H](C(=O)NCCCCNC(=O)c1ccc(-c2c3nc(c(-c4c(F)cc(S(=O)(=O)[O-])cc4F)c4ccc([nH]4)c(-c4c(F)cc(S(=O)(=O)[O-])cc4F)c4nc(c(-c5c(F)cc(S(=O)(=O)[O-])cc5F)c5ccc2[nH]5)C=C4)C=C3)cc1)c1c(F)cc(I)cc1F
REMARK SMILES IDX 8 1 7 2 6 3 5 4 3 5 4 6 2 8 1 9 79 13 80 14 86 15 81 16
REMARK SMILES IDX 82 17 85 18 87 19 83 20 84 21 9 22 10 23 11 24 12 26 13 27
REMARK SMILES IDX 14 28 78 29 15 30 77 31 16 32 17 33 18 34 71 35 19 36 76 37
REMARK SMILES IDX 70 38 72 39 20 40 75 41 69 42 68 43 21 45 55 46 34 47 54 48
REMARK SMILES IDX 35 49 38 50 53 51 73 52 36 53 37 54 52 56 74 57 39 58 22 59
REMARK SMILES IDX 23 60 32 61 24 62 25 63 31 64 33 65 26 66 27 67 28 68 29 69
REMARK SMILES IDX 30 70 56 71 57 72 66 73 58 74 59 75 65 76 67 77 60 78 61 79
REMARK SMILES IDX 62 80 63 81 64 82 40 83 41 84 50 85 42 86 43 87 49 88 51 89
REMARK SMILES IDX 44 90 45 91 46 92 47 93 48 94
REMARK H PARENT 5 7 1 10 1 11 1 12 10 25 72 44 38 55
REMARK Flexibility Score: inf
ROOT
ATOM      1  C   UNL A   1      33.786  28.913  27.211  1.00  0.00     0.023 C 
ENDROOT
BRANCH   1   2
ATOM      2  C   UNL A   1      33.673  28.177  25.878  1.00  0.00     0.023 C 
BRANCH   2   3
ATOM      3  C   UNL A   1      33.412  26.671  25.981  1.00  0.00     0.116 C 
BRANCH   3   4
ATOM      4  N   UNL A   1      32.085  26.345  26.472  1.00  0.00    -0.351 N 
ATOM      5  C   UNL A   1      30.929  26.068  25.797  1.00  0.00     0.283 C 
ATOM      6  O   UNL A   1      29.918  25.833  26.471  1.00  0.00    -0.268 OA
ATOM      7  H   UNL A   1      32.004  26.320  27.453  1.00  0.00     0.163 HD
BRANCH   5   8
ATOM      8  C   UNL A   1      30.899  25.954  24.243  1.00  0.00     0.308 C 
BRANCH   8   9
ATOM      9  N   UNL A   1      30.280  24.649  23.896  1.00  0.00    -0.343 N 
ATOM     10  H   UNL A   1      30.346  24.500  22.890  1.00  0.00     0.345 HD
ATOM     11  H   UNL A   1      29.300  24.654  24.177  1.00  0.00     0.345 HD
ATOM     12  H   UNL A   1      30.770  23.900  24.385  1.00  0.00     0.345 HD
ENDBRANCH   8   9
BRANCH   8  13
ATOM     13  C   UNL A   1      30.249  27.099  23.490  1.00  0.00     0.090 A 
ATOM     14  C   UNL A   1      31.043  28.071  22.864  1.00  0.00     0.136 A 
ATOM     15  C   UNL A   1      28.877  27.343  23.501  1.00  0.00     0.136 A 
ATOM     16  F   UNL A   1      32.365  27.890  22.736  1.00  0.00    -0.206 F 
ATOM     17  C   UNL A   1      30.514  29.274  22.393  1.00  0.00     0.054 A 
ATOM     18  C   UNL A   1      28.336  28.572  23.120  1.00  0.00     0.054 A 
ATOM     19  F   UNL A   1      28.021  26.408  23.937  1.00  0.00    -0.206 F 
ATOM     20  C   UNL A   1      29.167  29.547  22.586  1.00  0.00     0.019 A 
ATOM     21  I   UNL A   1      28.406  31.420  22.121  1.00  0.00    -0.044 I 
ENDBRANCH   8  13
ENDBRANCH   5   8
ENDBRANCH   3   4
ENDBRANCH   2   3
ENDBRANCH   1   2
BRANCH   1  22
ATOM     22  C   UNL A   1      35.182  29.440  27.496  1.00  0.00     0.116 C 
BRANCH  22  23
ATOM     23  N   UNL A   1      35.250  30.141  28.775  1.00  0.00    -0.352 N 
ATOM     24  C   UNL A   1      36.269  30.184  29.693  1.00  0.00     0.251 C 
ATOM     25  H   UNL A   1      34.448  30.660  29.014  1.00  0.00     0.163 HD
ATOM     26  O   UNL A   1      36.068  30.635  30.819  1.00  0.00    -0.269 OA
BRANCH  24  27
ATOM     27  C   UNL A   1      37.599  29.676  29.312  1.00  0.00     0.039 A 
ATOM     28  C   UNL A   1      38.001  29.713  27.976  1.00  0.00     0.014 A 
ATOM     29  C   UNL A   1      38.460  29.194  30.299  1.00  0.00     0.014 A 
ATOM     30  C   UNL A   1      39.300  29.326  27.643  1.00  0.00     0.010 A 
ATOM     31  C   UNL A   1      39.781  28.926  29.985  1.00  0.00     0.010 A 
ATOM     32  C   UNL A   1      40.209  28.965  28.651  1.00  0.00    -0.014 A 
BRANCH  32  33
ATOM     33  C   UNL A   1      41.606  28.573  28.349  1.00  0.00     0.031 A 
ATOM     34  C   UNL A   1      42.673  29.635  28.313  1.00  0.00     0.074 A 
ATOM     35  C   UNL A   1      41.891  27.299  28.016  1.00  0.00     0.049 A 
ATOM     36  N   UNL A   1      43.921  29.542  27.935  1.00  0.00    -0.248 NA
ATOM     37  C   UNL A   1      42.268  30.996  28.708  1.00  0.00     0.031 C 
ATOM     38  C   UNL A   1      40.925  26.199  27.959  1.00  0.00     0.029 A 
ATOM     39  N   UNL A   1      43.076  26.717  27.646  1.00  0.00    -0.354 N 
ATOM     40  C   UNL A   1      44.434  30.831  28.017  1.00  0.00     0.074 A 
ATOM     41  C   UNL A   1      43.348  31.700  28.409  1.00  0.00     0.031 C 
ATOM     42  C   UNL A   1      41.562  25.071  27.604  1.00  0.00     0.029 A 
ATOM     43  C   UNL A   1      42.968  25.375  27.364  1.00  0.00     0.049 A 
ATOM     44  H   UNL A   1      43.924  27.213  27.588  1.00  0.00     0.167 HD
ATOM     45  C   UNL A   1      45.706  31.249  27.817  1.00  0.00     0.037 A 
ATOM     46  C   UNL A   1      43.901  24.495  26.953  1.00  0.00     0.037 A 
ATOM     47  C   UNL A   1      46.786  30.364  27.475  1.00  0.00     0.049 A 
ATOM     48  C   UNL A   1      45.314  24.977  26.758  1.00  0.00     0.074 A 
ATOM     49  C   UNL A   1      48.127  30.663  27.316  1.00  0.00     0.029 A 
ATOM     50  N   UNL A   1      46.646  29.002  27.242  1.00  0.00    -0.354 N 
ATOM     51  N   UNL A   1      45.800  26.187  26.900  1.00  0.00    -0.248 NA
ATOM     52  C   UNL A   1      46.307  23.973  26.355  1.00  0.00     0.031 C 
ATOM     53  C   UNL A   1      48.791  29.490  26.946  1.00  0.00     0.029 A 
ATOM     54  C   UNL A   1      47.874  28.450  26.926  1.00  0.00     0.049 A 
ATOM     55  H   UNL A   1      45.800  28.504  27.296  1.00  0.00     0.167 HD
ATOM     56  C   UNL A   1      47.160  26.086  26.634  1.00  0.00     0.074 A 
ATOM     57  C   UNL A   1      47.422  24.693  26.333  1.00  0.00     0.031 C 
ATOM     58  C   UNL A   1      48.109  27.055  26.642  1.00  0.00     0.037 A 
BRANCH  45  59
ATOM     59  C   UNL A   1      45.991  32.718  27.978  1.00  0.00     0.058 A 
ATOM     60  C   UNL A   1      46.454  33.254  29.191  1.00  0.00     0.135 A 
ATOM     61  C   UNL A   1      45.807  33.601  26.901  1.00  0.00     0.135 A 
ATOM     62  F   UNL A   1      46.629  32.460  30.259  1.00  0.00    -0.206 F 
ATOM     63  C   UNL A   1      46.687  34.617  29.344  1.00  0.00     0.059 A 
ATOM     64  C   UNL A   1      46.067  34.964  27.021  1.00  0.00     0.059 A 
ATOM     65  F   UNL A   1      45.364  33.146  25.720  1.00  0.00    -0.206 F 
ATOM     66  C   UNL A   1      46.490  35.464  28.252  1.00  0.00     0.060 A 
BRANCH  66  67
ATOM     67  S   UNL A   1      46.797  37.230  28.469  1.00  0.00     0.124 S 
ATOM     68  O   UNL A   1      46.322  37.441  29.834  1.00  0.00    -0.237 OA
ATOM     69  O   UNL A   1      48.240  37.321  28.279  1.00  0.00    -0.237 OA
ATOM     70  O   UNL A   1      45.989  37.846  27.422  1.00  0.00    -0.744 OA
ENDBRANCH  66  67
ENDBRANCH  45  59
BRANCH  46  71
ATOM     71  C   UNL A   1      43.534  23.071  26.732  1.00  0.00     0.058 A 
ATOM     72  C   UNL A   1      43.235  22.229  27.814  1.00  0.00     0.135 A 
ATOM     73  C   UNL A   1      43.447  22.527  25.441  1.00  0.00     0.135 A 
ATOM     74  F   UNL A   1      43.306  22.700  29.069  1.00  0.00    -0.206 F 
ATOM     75  C   UNL A   1      42.880  20.897  27.628  1.00  0.00     0.059 A 
ATOM     76  C   UNL A   1      43.067  21.205  25.227  1.00  0.00     0.059 A 
ATOM     77  F   UNL A   1      43.702  23.294  24.370  1.00  0.00    -0.206 F 
ATOM     78  C   UNL A   1      42.795  20.395  26.329  1.00  0.00     0.060 A 
BRANCH  78  79
ATOM     79  S   UNL A   1      42.283  18.679  26.098  1.00  0.00     0.124 S 
ATOM     80  O   UNL A   1      40.877  18.835  25.747  1.00  0.00    -0.237 OA
ATOM     81  O   UNL A   1      43.166  18.240  25.020  1.00  0.00    -0.237 OA
ATOM     82  O   UNL A   1      42.546  18.071  27.400  1.00  0.00    -0.744 OA
ENDBRANCH  78  79
ENDBRANCH  46  71
BRANCH  58  83
ATOM     83  C   UNL A   1      49.526  26.639  26.357  1.00  0.00     0.058 A 
ATOM     84  C   UNL A   1      50.348  26.086  27.350  1.00  0.00     0.135 A 
ATOM     85  C   UNL A   1      50.041  26.733  25.054  1.00  0.00     0.135 A 
ATOM     86  F   UNL A   1      49.904  25.978  28.613  1.00  0.00    -0.206 F 
ATOM     87  C   UNL A   1      51.641  25.661  27.066  1.00  0.00     0.059 A 
ATOM     88  C   UNL A   1      51.320  26.288  24.741  1.00  0.00     0.059 A 
ATOM     89  F   UNL A   1      49.290  27.244  24.065  1.00  0.00    -0.206 F 
ATOM     90  C   UNL A   1      52.117  25.763  25.757  1.00  0.00     0.060 A 
BRANCH  90  91
ATOM     91  S   UNL A   1      53.782  25.170  25.394  1.00  0.00     0.124 S 
ATOM     92  O   UNL A   1      54.039  25.792  24.100  1.00  0.00    -0.237 OA
ATOM     93  O   UNL A   1      54.552  25.696  26.517  1.00  0.00    -0.237 OA
ATOM     94  O   UNL A   1      53.629  23.718  25.372  1.00  0.00    -0.744 OA
ENDBRANCH  90  91
ENDBRANCH  58  83
ENDBRANCH  32  33
ENDBRANCH  24  27
ENDBRANCH  22  23
ENDBRANCH   1  22
TORSDOF 16
ENDMDL
MODEL 2
REMARK VINA RESULT:     -11.4      2.941      3.947
REMARK SMILES [NH3+][C@H](C(=O)NCCCCNC(=O)c1ccc(-c2c3nc(c(-c4c(F)cc(S(=O)(=O)[O-])cc4F)c4ccc([nH]4)c(-c4c(F)cc(S(=O)(=O)[O-])cc4F)c4nc(c(-c5c(F)cc(S(=O)(=O)[O-])cc5F)c5ccc2[nH]5)C=C4)C=C3)cc1)c1c(F)cc(I)cc1F
REMARK SMILES IDX 8 1 7 2 6 3 5 4 3 5 4 6 2 8 1 9 79 13 80 14 86 15 81 16
REMARK SMILES IDX 82 17 85 18 87 19 83 20 84 21 9 22 10 23 11 24 12 26 13 27
REMARK SMILES IDX 14 28 78 29 15 30 77 31 16 32 17 33 18 34 71 35 19 36 76 37
REMARK SMILES IDX 70 38 72 39 20 40 75 41 69 42 68 43 21 45 55 46 34 47 54 48
REMARK SMILES IDX 35 49 38 50 53 51 73 52 36 53 37 54 52 56 74 57 39 58 22 59
REMARK SMILES IDX 23 60 32 61 24 62 25 63 31 64 33 65 26 66 27 67 28 68 29 69
REMARK SMILES IDX 30 70 56 71 57 72 66 73 58 74 59 75 65 76 67 77 60 78 61 79
REMARK SMILES IDX 62 80 63 81 64 82 40 83 41 84 50 85 42 86 43 87 49 88 51 89
REMARK SMILES IDX 44 90 45 91 46 92 47 93 48 94
REMARK H PARENT 5 7 1 10 1 11 1 12 10 25 72 44 38 55
REMARK Flexibility Score: inf
ROOT
ATOM      1  C   UNL A   1      33.276  28.136  25.761  1.00  0.00     0.023 C 
ENDROOT
BRANCH   1   2
ATOM      2  C   UNL A   1      32.890  29.410  25.014  1.00  0.00     0.023 C 
BRANCH   2   3
ATOM      3  C   UNL A   1      31.393  29.736  25.002  1.00  0.00     0.116 C 
BRANCH   3   4
ATOM      4  N   UNL A   1      30.788  29.634  23.686  1.00  0.00    -0.351 N 
ATOM      5  C   UNL A   1      30.021  28.647  23.133  1.00  0.00     0.283 C 
ATOM      6  O   UNL A   1      29.640  28.808  21.967  1.00  0.00    -0.268 OA
ATOM      7  H   UNL A   1      30.959  30.401  23.095  1.00  0.00     0.163 HD
BRANCH   5   8
ATOM      8  C   UNL A   1      29.560  27.410  23.962  1.00  0.00     0.308 C 
BRANCH   8   9
ATOM      9  N   UNL A   1      28.260  26.953  23.409  1.00  0.00    -0.343 N 
ATOM     10  H   UNL A   1      28.030  26.038  23.795  1.00  0.00     0.345 HD
ATOM     11  H   UNL A   1      28.327  26.888  22.394  1.00  0.00     0.345 HD
ATOM     12  H   UNL A   1      27.531  27.622  23.659  1.00  0.00     0.345 HD
ENDBRANCH   8   9
BRANCH   8  13
ATOM     13  C   UNL A   1      30.549  26.266  24.084  1.00  0.00     0.090 A 
ATOM     14  C   UNL A   1      30.729  25.619  25.315  1.00  0.00     0.136 A 
ATOM     15  C   UNL A   1      31.425  25.898  23.064  1.00  0.00     0.136 A 
ATOM     16  F   UNL A   1      29.889  25.850  26.334  1.00  0.00    -0.206 F 
ATOM     17  C   UNL A   1      31.799  24.754  25.552  1.00  0.00     0.054 A 
ATOM     18  C   UNL A   1      32.552  25.109  23.300  1.00  0.00     0.054 A 
ATOM     19  F   UNL A   1      31.242  26.343  21.813  1.00  0.00    -0.206 F 
ATOM     20  C   UNL A   1      32.748  24.556  24.557  1.00  0.00     0.019 A 
ATOM     21  I   UNL A   1      34.471  23.476  24.962  1.00  0.00    -0.044 I 
ENDBRANCH   8  13
ENDBRANCH   5   8
ENDBRANCH   3   4
ENDBRANCH   2   3
ENDBRANCH   1   2
BRANCH   1  22
ATOM     22  C   UNL A   1      33.691  28.379  27.202  1.00  0.00     0.116 C 
BRANCH  22  23
ATOM     23  N   UNL A   1      33.605  29.791  27.563  1.00  0.00    -0.352 N 
ATOM     24  C   UNL A   1      34.528  30.587  28.196  1.00  0.00     0.251 C 
ATOM     25  H   UNL A   1      32.764  30.238  27.317  1.00  0.00     0.163 HD
ATOM     26  O   UNL A   1      34.199  31.691  28.625  1.00  0.00    -0.269 OA
BRANCH  24  27
ATOM     27  C   UNL A   1      35.908  30.096  28.356  1.00  0.00     0.039 A 
ATOM     28  C   UNL A   1      36.791  30.140  27.276  1.00  0.00     0.014 A 
ATOM     29  C   UNL A   1      36.329  29.624  29.600  1.00  0.00     0.014 A 
ATOM     30  C   UNL A   1      38.124  29.770  27.469  1.00  0.00     0.010 A 
ATOM     31  C   UNL A   1      37.673  29.373  29.817  1.00  0.00     0.010 A 
ATOM     32  C   UNL A   1      38.580  29.419  28.750  1.00  0.00    -0.014 A 
BRANCH  32  33
ATOM     33  C   UNL A   1      39.991  29.044  29.010  1.00  0.00     0.031 A 
ATOM     34  C   UNL A   1      40.935  30.083  29.554  1.00  0.00     0.074 A 
ATOM     35  C   UNL A   1      40.436  27.820  28.667  1.00  0.00     0.049 A 
ATOM     36  N   UNL A   1      42.230  30.019  29.720  1.00  0.00    -0.248 NA
ATOM     37  C   UNL A   1      40.351  31.388  29.913  1.00  0.00     0.031 C 
ATOM     38  C   UNL A   1      39.624  26.755  28.075  1.00  0.00     0.029 A 
ATOM     39  N   UNL A   1      41.690  27.271  28.753  1.00  0.00    -0.354 N 
ATOM     40  C   UNL A   1      42.613  31.277  30.170  1.00  0.00     0.074 A 
ATOM     41  C   UNL A   1      41.430  32.105  30.181  1.00  0.00     0.031 C 
ATOM     42  C   UNL A   1      40.393  25.672  27.878  1.00  0.00     0.029 A 
ATOM     43  C   UNL A   1      41.760  25.980  28.284  1.00  0.00     0.049 A 
ATOM     44  H   UNL A   1      42.466  27.755  29.115  1.00  0.00     0.167 HD
ATOM     45  C   UNL A   1      43.837  31.694  30.571  1.00  0.00     0.037 A 
ATOM     46  C   UNL A   1      42.812  25.144  28.190  1.00  0.00     0.037 A 
ATOM     47  C   UNL A   1      44.994  30.843  30.599  1.00  0.00     0.049 A 
ATOM     48  C   UNL A   1      44.159  25.622  28.662  1.00  0.00     0.074 A 
ATOM     49  C   UNL A   1      46.268  31.135  31.052  1.00  0.00     0.029 A 
ATOM     50  N   UNL A   1      45.016  29.526  30.160  1.00  0.00    -0.354 N 
ATOM     51  N   UNL A   1      44.496  26.794  29.145  1.00  0.00    -0.248 NA
ATOM     52  C   UNL A   1      45.268  24.662  28.585  1.00  0.00     0.031 C 
ATOM     53  C   UNL A   1      47.071  30.009  30.846  1.00  0.00     0.029 A 
ATOM     54  C   UNL A   1      46.285  28.997  30.316  1.00  0.00     0.049 A 
ATOM     55  H   UNL A   1      44.243  29.039  29.794  1.00  0.00     0.167 HD
ATOM     56  C   UNL A   1      45.847  26.705  29.458  1.00  0.00     0.074 A 
ATOM     57  C   UNL A   1      46.263  25.359  29.119  1.00  0.00     0.031 C 
ATOM     58  C   UNL A   1      46.670  27.647  29.981  1.00  0.00     0.037 A 
BRANCH  45  59
ATOM     59  C   UNL A   1      43.973  33.124  31.019  1.00  0.00     0.058 A 
ATOM     60  C   UNL A   1      43.693  33.516  32.340  1.00  0.00     0.135 A 
ATOM     61  C   UNL A   1      44.398  34.115  30.120  1.00  0.00     0.135 A 
ATOM     62  F   UNL A   1      43.265  32.614  33.237  1.00  0.00    -0.206 F 
ATOM     63  C   UNL A   1      43.791  34.844  32.741  1.00  0.00     0.059 A 
ATOM     64  C   UNL A   1      44.537  35.445  30.510  1.00  0.00     0.059 A 
ATOM     65  F   UNL A   1      44.677  33.800  28.847  1.00  0.00    -0.206 F 
ATOM     66  C   UNL A   1      44.214  35.802  31.819  1.00  0.00     0.060 A 
BRANCH  66  67
ATOM     67  S   UNL A   1      44.335  37.520  32.358  1.00  0.00     0.124 S 
ATOM     68  O   UNL A   1      43.854  38.230  31.176  1.00  0.00    -0.237 OA
ATOM     69  O   UNL A   1      43.449  37.546  33.516  1.00  0.00    -0.237 OA
ATOM     70  O   UNL A   1      45.754  37.684  32.654  1.00  0.00    -0.744 OA
ENDBRANCH  66  67
ENDBRANCH  45  59
BRANCH  46  71
ATOM     71  C   UNL A   1      42.624  23.768  27.659  1.00  0.00     0.058 A 
ATOM     72  C   UNL A   1      42.666  23.517  26.279  1.00  0.00     0.135 A 
ATOM     73  C   UNL A   1      42.425  22.673  28.514  1.00  0.00     0.135 A 
ATOM     74  F   UNL A   1      42.852  24.531  25.419  1.00  0.00    -0.206 F 
ATOM     75  C   UNL A   1      42.502  22.235  25.764  1.00  0.00     0.059 A 
ATOM     76  C   UNL A   1      42.285  21.377  28.025  1.00  0.00     0.059 A 
ATOM     77  F   UNL A   1      42.396  22.854  29.844  1.00  0.00    -0.206 F 
ATOM     78  C   UNL A   1      42.316  21.170  26.646  1.00  0.00     0.060 A 
BRANCH  78  79
ATOM     79  S   UNL A   1      42.155  19.504  25.968  1.00  0.00     0.124 S 
ATOM     80  O   UNL A   1      42.667  18.689  27.062  1.00  0.00    -0.237 OA
ATOM     81  O   UNL A   1      40.719  19.413  25.720  1.00  0.00    -0.237 OA
ATOM     82  O   UNL A   1      42.988  19.548  24.769  1.00  0.00    -0.744 OA
ENDBRANCH  78  79
ENDBRANCH  46  71
BRANCH  58  83
ATOM     83  C   UNL A   1      48.092  27.247  30.261  1.00  0.00     0.058 A 
ATOM     84  C   UNL A   1      49.130  27.527  29.359  1.00  0.00     0.135 A 
ATOM     85  C   UNL A   1      48.427  26.635  31.479  1.00  0.00     0.135 A 
ATOM     86  F   UNL A   1      48.861  28.106  28.178  1.00  0.00    -0.206 F 
ATOM     87  C   UNL A   1      50.449  27.194  29.647  1.00  0.00     0.059 A 
ATOM     88  C   UNL A   1      49.742  26.321  31.801  1.00  0.00     0.059 A 
ATOM     89  F   UNL A   1      47.472  26.357  32.382  1.00  0.00    -0.206 F 
ATOM     90  C   UNL A   1      50.745  26.594  30.872  1.00  0.00     0.060 A 
BRANCH  90  91
ATOM     91  S   UNL A   1      52.466  26.206  31.250  1.00  0.00     0.124 S 
ATOM     92  O   UNL A   1      52.322  25.016  32.083  1.00  0.00    -0.237 OA
ATOM     93  O   UNL A   1      53.035  25.988  29.924  1.00  0.00    -0.237 OA
ATOM     94  O   UNL A   1      52.942  27.401  31.941  1.00  0.00    -0.744 OA
ENDBRANCH  90  91
ENDBRANCH  58  83
ENDBRANCH  32  33
ENDBRANCH  24  27
ENDBRANCH  22  23
ENDBRANCH   1  22
TORSDOF 16
ENDMDL
MODEL 3
REMARK VINA RESULT:     -11.4      7.273     13.149
REMARK SMILES [NH3+][C@H](C(=O)NCCCCNC(=O)c1ccc(-c2c3nc(c(-c4c(F)cc(S(=O)(=O)[O-])cc4F)c4ccc([nH]4)c(-c4c(F)cc(S(=O)(=O)[O-])cc4F)c4nc(c(-c5c(F)cc(S(=O)(=O)[O-])cc5F)c5ccc2[nH]5)C=C4)C=C3)cc1)c1c(F)cc(I)cc1F
REMARK SMILES IDX 8 1 7 2 6 3 5 4 3 5 4 6 2 8 1 9 79 13 80 14 86 15 81 16
REMARK SMILES IDX 82 17 85 18 87 19 83 20 84 21 9 22 10 23 11 24 12 26 13 27
REMARK SMILES IDX 14 28 78 29 15 30 77 31 16 32 17 33 18 34 71 35 19 36 76 37
REMARK SMILES IDX 70 38 72 39 20 40 75 41 69 42 68 43 21 45 55 46 34 47 54 48
REMARK SMILES IDX 35 49 38 50 53 51 73 52 36 53 37 54 52 56 74 57 39 58 22 59
REMARK SMILES IDX 23 60 32 61 24 62 25 63 31 64 33 65 26 66 27 67 28 68 29 69
REMARK SMILES IDX 30 70 56 71 57 72 66 73 58 74 59 75 65 76 67 77 60 78 61 79
REMARK SMILES IDX 62 80 63 81 64 82 40 83 41 84 50 85 42 86 43 87 49 88 51 89
REMARK SMILES IDX 44 90 45 91 46 92 47 93 48 94
REMARK H PARENT 5 7 1 10 1 11 1 12 10 25 72 44 38 55
REMARK Flexibility Score: inf
ROOT
ATOM      1  C   UNL A   1      39.723  22.147  26.681  1.00  0.00     0.023 C 
ENDROOT
BRANCH   1   2
ATOM      2  C   UNL A   1      40.746  21.404  27.535  1.00  0.00     0.023 C 
BRANCH   2   3
ATOM      3  C   UNL A   1      41.783  20.590  26.756  1.00  0.00     0.116 C 
BRANCH   3   4
ATOM      4  N   UNL A   1      42.261  21.256  25.557  1.00  0.00    -0.351 N 
ATOM      5  C   UNL A   1      43.272  22.158  25.382  1.00  0.00     0.283 C 
ATOM      6  O   UNL A   1      43.462  22.587  24.237  1.00  0.00    -0.268 OA
ATOM      7  H   UNL A   1      41.775  21.019  24.734  1.00  0.00     0.163 HD
BRANCH   5   8
ATOM      8  C   UNL A   1      44.216  22.562  26.555  1.00  0.00     0.308 C 
BRANCH   8   9
ATOM      9  N   UNL A   1      45.603  22.204  26.163  1.00  0.00    -0.343 N 
ATOM     10  H   UNL A   1      46.134  21.945  26.995  1.00  0.00     0.345 HD
ATOM     11  H   UNL A   1      46.046  23.004  25.712  1.00  0.00     0.345 HD
ATOM     12  H   UNL A   1      45.581  21.417  25.515  1.00  0.00     0.345 HD
ENDBRANCH   8   9
BRANCH   8  13
ATOM     13  C   UNL A   1      44.124  23.997  27.038  1.00  0.00     0.090 A 
ATOM     14  C   UNL A   1      44.748  25.025  26.316  1.00  0.00     0.136 A 
ATOM     15  C   UNL A   1      43.572  24.359  28.266  1.00  0.00     0.136 A 
ATOM     16  F   UNL A   1      45.242  24.793  25.091  1.00  0.00    -0.206 F 
ATOM     17  C   UNL A   1      44.923  26.306  26.844  1.00  0.00     0.054 A 
ATOM     18  C   UNL A   1      43.812  25.602  28.852  1.00  0.00     0.054 A 
ATOM     19  F   UNL A   1      42.825  23.490  28.960  1.00  0.00    -0.206 F 
ATOM     20  C   UNL A   1      44.512  26.568  28.144  1.00  0.00     0.019 A 
ATOM     21  I   UNL A   1      44.979  28.381  29.038  1.00  0.00    -0.044 I 
ENDBRANCH   8  13
ENDBRANCH   5   8
ENDBRANCH   3   4
ENDBRANCH   2   3
ENDBRANCH   1   2
BRANCH   1  22
ATOM     22  C   UNL A   1      39.702  23.647  26.926  1.00  0.00     0.116 C 
BRANCH  22  23
ATOM     23  N   UNL A   1      40.579  24.363  26.004  1.00  0.00    -0.352 N 
ATOM     24  C   UNL A   1      40.965  25.680  26.012  1.00  0.00     0.251 C 
ATOM     25  H   UNL A   1      40.947  23.822  25.268  1.00  0.00     0.163 HD
ATOM     26  O   UNL A   1      41.522  26.166  25.030  1.00  0.00    -0.269 OA
BRANCH  24  27
ATOM     27  C   UNL A   1      40.697  26.498  27.208  1.00  0.00     0.039 A 
ATOM     28  C   UNL A   1      39.960  25.962  28.266  1.00  0.00     0.014 A 
ATOM     29  C   UNL A   1      41.213  27.792  27.286  1.00  0.00     0.014 A 
ATOM     30  C   UNL A   1      39.801  26.710  29.435  1.00  0.00     0.010 A 
ATOM     31  C   UNL A   1      41.157  28.481  28.485  1.00  0.00     0.010 A 
ATOM     32  C   UNL A   1      40.430  27.959  29.564  1.00  0.00    -0.014 A 
BRANCH  32  33
ATOM     33  C   UNL A   1      40.313  28.777  30.795  1.00  0.00     0.031 A 
ATOM     34  C   UNL A   1      39.289  29.880  30.846  1.00  0.00     0.074 A 
ATOM     35  C   UNL A   1      41.182  28.596  31.808  1.00  0.00     0.049 A 
ATOM     36  N   UNL A   1      39.111  30.802  31.755  1.00  0.00    -0.248 NA
ATOM     37  C   UNL A   1      38.374  29.990  29.696  1.00  0.00     0.031 C 
ATOM     38  C   UNL A   1      42.254  27.598  31.841  1.00  0.00     0.029 A 
ATOM     39  N   UNL A   1      41.310  29.257  33.002  1.00  0.00    -0.354 N 
ATOM     40  C   UNL A   1      38.091  31.613  31.271  1.00  0.00     0.074 A 
ATOM     41  C   UNL A   1      37.740  31.121  29.959  1.00  0.00     0.031 C 
ATOM     42  C   UNL A   1      42.911  27.695  33.008  1.00  0.00     0.029 A 
ATOM     43  C   UNL A   1      42.339  28.789  33.785  1.00  0.00     0.049 A 
ATOM     44  H   UNL A   1      40.720  29.997  33.274  1.00  0.00     0.167 HD
ATOM     45  C   UNL A   1      37.478  32.655  31.881  1.00  0.00     0.037 A 
ATOM     46  C   UNL A   1      42.773  29.203  34.992  1.00  0.00     0.037 A 
ATOM     47  C   UNL A   1      37.807  33.102  33.206  1.00  0.00     0.049 A 
ATOM     48  C   UNL A   1      42.062  30.349  35.661  1.00  0.00     0.074 A 
ATOM     49  C   UNL A   1      37.207  34.100  33.953  1.00  0.00     0.029 A 
ATOM     50  N   UNL A   1      38.825  32.572  33.987  1.00  0.00    -0.354 N 
ATOM     51  N   UNL A   1      41.058  31.068  35.219  1.00  0.00    -0.248 NA
ATOM     52  C   UNL A   1      42.538  30.736  36.995  1.00  0.00     0.031 C 
ATOM     53  C   UNL A   1      37.891  34.203  35.168  1.00  0.00     0.029 A 
ATOM     54  C   UNL A   1      38.882  33.234  35.201  1.00  0.00     0.049 A 
ATOM     55  H   UNL A   1      39.419  31.835  33.718  1.00  0.00     0.167 HD
ATOM     56  C   UNL A   1      40.760  31.972  36.232  1.00  0.00     0.074 A 
ATOM     57  C   UNL A   1      41.685  31.702  37.314  1.00  0.00     0.031 C 
ATOM     58  C   UNL A   1      39.807  32.935  36.268  1.00  0.00     0.037 A 
BRANCH  45  59
ATOM     59  C   UNL A   1      36.389  33.364  31.121  1.00  0.00     0.058 A 
ATOM     60  C   UNL A   1      35.034  33.227  31.469  1.00  0.00     0.135 A 
ATOM     61  C   UNL A   1      36.704  34.199  30.038  1.00  0.00     0.135 A 
ATOM     62  F   UNL A   1      34.674  32.426  32.484  1.00  0.00    -0.206 F 
ATOM     63  C   UNL A   1      34.029  33.860  30.746  1.00  0.00     0.059 A 
ATOM     64  C   UNL A   1      35.717  34.871  29.321  1.00  0.00     0.059 A 
ATOM     65  F   UNL A   1      37.980  34.366  29.660  1.00  0.00    -0.206 F 
ATOM     66  C   UNL A   1      34.381  34.681  29.673  1.00  0.00     0.060 A 
BRANCH  66  67
ATOM     67  S   UNL A   1      33.063  35.494  28.746  1.00  0.00     0.124 S 
ATOM     68  O   UNL A   1      32.191  35.953  29.823  1.00  0.00    -0.237 OA
ATOM     69  O   UNL A   1      33.785  36.537  28.027  1.00  0.00    -0.237 OA
ATOM     70  O   UNL A   1      32.522  34.423  27.915  1.00  0.00    -0.744 OA
ENDBRANCH  66  67
ENDBRANCH  45  59
BRANCH  46  71
ATOM     71  C   UNL A   1      43.911  28.509  35.652  1.00  0.00     0.058 A 
ATOM     72  C   UNL A   1      43.688  27.441  36.533  1.00  0.00     0.135 A 
ATOM     73  C   UNL A   1      45.241  28.878  35.397  1.00  0.00     0.135 A 
ATOM     74  F   UNL A   1      42.434  27.051  36.811  1.00  0.00    -0.206 F 
ATOM     75  C   UNL A   1      44.739  26.773  37.152  1.00  0.00     0.059 A 
ATOM     76  C   UNL A   1      46.311  28.208  35.983  1.00  0.00     0.059 A 
ATOM     77  F   UNL A   1      45.511  29.880  34.546  1.00  0.00    -0.206 F 
ATOM     78  C   UNL A   1      46.049  27.162  36.867  1.00  0.00     0.060 A 
BRANCH  78  79
ATOM     79  S   UNL A   1      47.407  26.254  37.638  1.00  0.00     0.124 S 
ATOM     80  O   UNL A   1      48.218  27.338  38.178  1.00  0.00    -0.237 OA
ATOM     81  O   UNL A   1      46.705  25.430  38.619  1.00  0.00    -0.237 OA
ATOM     82  O   UNL A   1      47.996  25.519  36.521  1.00  0.00    -0.744 OA
ENDBRANCH  78  79
ENDBRANCH  46  71
BRANCH  58  83
ATOM     83  C   UNL A   1      39.685  33.743  37.531  1.00  0.00     0.058 A 
ATOM     84  C   UNL A   1      40.387  34.944  37.711  1.00  0.00     0.135 A 
ATOM     85  C   UNL A   1      38.802  33.339  38.544  1.00  0.00     0.135 A 
ATOM     86  F   UNL A   1      41.247  35.372  36.773  1.00  0.00    -0.206 F 
ATOM     87  C   UNL A   1      40.232  35.708  38.863  1.00  0.00     0.059 A 
ATOM     88  C   UNL A   1      38.609  34.101  39.691  1.00  0.00     0.059 A 
ATOM     89  F   UNL A   1      38.098  32.203  38.415  1.00  0.00    -0.206 F 
ATOM     90  C   UNL A   1      39.338  35.279  39.845  1.00  0.00     0.060 A 
BRANCH  90  91
ATOM     91  S   UNL A   1      39.116  36.300  41.317  1.00  0.00     0.124 S 
ATOM     92  O   UNL A   1      37.927  35.701  41.913  1.00  0.00    -0.237 OA
ATOM     93  O   UNL A   1      40.366  36.083  42.038  1.00  0.00    -0.237 OA
ATOM     94  O   UNL A   1      38.937  37.644  40.775  1.00  0.00    -0.744 OA
ENDBRANCH  90  91
ENDBRANCH  58  83
ENDBRANCH  32  33
ENDBRANCH  24  27
ENDBRANCH  22  23
ENDBRANCH   1  22
TORSDOF 16
ENDMDL
