MODEL 1
REMARK VINA RESULT:     -12.3      0.000      0.000
REMARK SMILES O=C(NCCCCNC(=O)[C@H]1C[NH2+]CCN1c1ncc(C(F)(F)F)cc1Cl)c1ccc(-c2c3nc(c(-c4c(F)cc(S(=O)(=O)[O-])cc4F)c4ccc([nH]4)c(-c4c(F)cc(S(=O)(=O)[O-])cc4F)c4nc(c(-c5c(F)cc(S(=O)(=O)[O-])cc5F)c5ccc2[nH]5)C=C4)C=C3)cc1
REMARK SMILES IDX 5 1 4 2 3 3 1 4 2 5 28 7 29 8 93 9 30 10 92 11 31 12 32 13
REMARK SMILES IDX 33 14 86 15 34 16 91 17 85 18 87 19 35 20 90 21 84 22 83 23
REMARK SMILES IDX 36 25 70 26 49 27 69 28 50 29 53 30 68 31 88 32 51 33 52 34
REMARK SMILES IDX 67 36 89 37 54 38 37 39 38 40 47 41 39 42 40 43 46 44 48 45
REMARK SMILES IDX 41 46 42 47 43 48 44 49 45 50 71 51 72 52 81 53 73 54 74 55
REMARK SMILES IDX 80 56 82 57 75 58 76 59 77 60 78 61 79 62 55 63 56 64 65 65
REMARK SMILES IDX 57 66 58 67 64 68 66 69 59 70 60 71 61 72 62 73 63 74 6 75
REMARK SMILES IDX 7 76 8 77 9 78 10 80 11 81 12 82 16 83 13 84 15 85 14 86
REMARK SMILES IDX 17 89 18 90 26 91 19 92 25 93 27 94 20 95 21 96 22 97 23 98
REMARK SMILES IDX 24 99
REMARK H PARENT 3 6 87 24 53 35 8 79 13 87 13 88
REMARK Flexibility Score: inf
ROOT
ATOM      1  C   UNL A   1      33.887  28.889  26.564  1.00  0.00     0.023 C 
ENDROOT
BRANCH   1   2
ATOM      2  C   UNL A   1      35.212  29.436  27.088  1.00  0.00     0.116 C 
BRANCH   2   3
ATOM      3  N   UNL A   1      35.095  30.026  28.410  1.00  0.00    -0.352 N 
ATOM      4  O   UNL A   1      35.675  30.511  30.527  1.00  0.00    -0.269 OA
ATOM      5  C   UNL A   1      36.021  30.104  29.421  1.00  0.00     0.251 C 
ATOM      6  H   UNL A   1      34.221  30.431  28.612  1.00  0.00     0.163 HD
BRANCH   5   7
ATOM      7  C   UNL A   1      37.418  29.674  29.192  1.00  0.00     0.039 A 
ATOM      8  C   UNL A   1      38.195  29.154  30.231  1.00  0.00     0.014 A 
ATOM      9  C   UNL A   1      37.948  29.773  27.903  1.00  0.00     0.014 A 
ATOM     10  C   UNL A   1      39.537  28.847  30.009  1.00  0.00     0.010 A 
ATOM     11  C   UNL A   1      39.275  29.405  27.667  1.00  0.00     0.010 A 
ATOM     12  C   UNL A   1      40.089  28.967  28.725  1.00  0.00    -0.014 A 
BRANCH  12  13
ATOM     13  C   UNL A   1      41.506  28.600  28.475  1.00  0.00     0.031 A 
ATOM     14  C   UNL A   1      42.582  29.650  28.489  1.00  0.00     0.074 A 
ATOM     15  C   UNL A   1      41.816  27.320  28.196  1.00  0.00     0.049 A 
ATOM     16  N   UNL A   1      43.853  29.534  28.199  1.00  0.00    -0.248 NA
ATOM     17  C   UNL A   1      42.174  31.010  28.871  1.00  0.00     0.031 C 
ATOM     18  C   UNL A   1      40.858  26.213  28.154  1.00  0.00     0.029 A 
ATOM     19  N   UNL A   1      43.015  26.734  27.882  1.00  0.00    -0.354 N 
ATOM     20  C   UNL A   1      44.392  30.807  28.337  1.00  0.00     0.074 A 
ATOM     21  C   UNL A   1      43.305  31.685  28.717  1.00  0.00     0.031 C 
ATOM     22  C   UNL A   1      41.506  25.084  27.833  1.00  0.00     0.029 A 
ATOM     23  C   UNL A   1      42.912  25.395  27.592  1.00  0.00     0.049 A 
ATOM     24  H   UNL A   1      43.869  27.225  27.866  1.00  0.00     0.167 HD
ATOM     25  C   UNL A   1      45.677  31.206  28.164  1.00  0.00     0.037 A 
ATOM     26  C   UNL A   1      43.833  24.519  27.146  1.00  0.00     0.037 A 
ATOM     27  C   UNL A   1      46.752  30.321  27.788  1.00  0.00     0.049 A 
ATOM     28  C   UNL A   1      45.244  24.984  26.930  1.00  0.00     0.074 A 
ATOM     29  C   UNL A   1      48.092  30.618  27.619  1.00  0.00     0.029 A 
ATOM     30  N   UNL A   1      46.606  28.968  27.513  1.00  0.00    -0.354 N 
ATOM     31  N   UNL A   1      45.746  26.185  27.093  1.00  0.00    -0.248 NA
ATOM     32  C   UNL A   1      46.215  23.981  26.473  1.00  0.00     0.031 C 
ATOM     33  C   UNL A   1      48.748  29.458  27.196  1.00  0.00     0.029 A 
ATOM     34  C   UNL A   1      47.828  28.422  27.154  1.00  0.00     0.049 A 
ATOM     35  H   UNL A   1      45.758  28.470  27.565  1.00  0.00     0.167 HD
ATOM     36  C   UNL A   1      47.097  26.077  26.786  1.00  0.00     0.074 A 
ATOM     37  C   UNL A   1      47.334  24.694  26.425  1.00  0.00     0.031 C 
ATOM     38  C   UNL A   1      48.053  27.038  26.810  1.00  0.00     0.037 A 
BRANCH  25  39
ATOM     39  C   UNL A   1      45.980  32.669  28.342  1.00  0.00     0.058 A 
ATOM     40  C   UNL A   1      45.900  33.580  27.276  1.00  0.00     0.135 A 
ATOM     41  C   UNL A   1      46.354  33.169  29.601  1.00  0.00     0.135 A 
ATOM     42  F   UNL A   1      45.556  33.157  26.049  1.00  0.00    -0.206 F 
ATOM     43  C   UNL A   1      46.226  34.923  27.441  1.00  0.00     0.059 A 
ATOM     44  C   UNL A   1      46.658  34.514  29.795  1.00  0.00     0.059 A 
ATOM     45  F   UNL A   1      46.440  32.346  30.657  1.00  0.00    -0.206 F 
ATOM     46  C   UNL A   1      46.615  35.378  28.702  1.00  0.00     0.060 A 
BRANCH  46  47
ATOM     47  S   UNL A   1      47.083  37.112  28.890  1.00  0.00     0.124 S 
ATOM     48  O   UNL A   1      47.840  37.342  27.663  1.00  0.00    -0.237 OA
ATOM     49  O   UNL A   1      45.787  37.780  28.969  1.00  0.00    -0.237 OA
ATOM     50  O   UNL A   1      47.865  37.122  30.122  1.00  0.00    -0.744 OA
ENDBRANCH  46  47
ENDBRANCH  25  39
BRANCH  26  51
ATOM     51  C   UNL A   1      43.423  23.116  26.876  1.00  0.00     0.058 A 
ATOM     52  C   UNL A   1      43.343  22.626  25.567  1.00  0.00     0.135 A 
ATOM     53  C   UNL A   1      43.186  22.218  27.929  1.00  0.00     0.135 A 
ATOM     54  F   UNL A   1      43.555  23.448  24.527  1.00  0.00    -0.206 F 
ATOM     55  C   UNL A   1      43.054  21.290  25.308  1.00  0.00     0.059 A 
ATOM     56  C   UNL A   1      42.919  20.874  27.697  1.00  0.00     0.059 A 
ATOM     57  F   UNL A   1      43.269  22.638  29.202  1.00  0.00    -0.206 F 
ATOM     58  C   UNL A   1      42.856  20.419  26.381  1.00  0.00     0.060 A 
BRANCH  58  59
ATOM     59  S   UNL A   1      42.581  18.668  26.034  1.00  0.00     0.124 S 
ATOM     60  O   UNL A   1      41.155  18.648  25.730  1.00  0.00    -0.237 OA
ATOM     61  O   UNL A   1      43.479  18.435  24.907  1.00  0.00    -0.237 OA
ATOM     62  O   UNL A   1      42.971  18.014  27.280  1.00  0.00    -0.744 OA
ENDBRANCH  58  59
ENDBRANCH  26  51
BRANCH  38  63
ATOM     63  C   UNL A   1      49.463  26.631  26.484  1.00  0.00     0.058 A 
ATOM     64  C   UNL A   1      50.244  25.884  27.378  1.00  0.00     0.135 A 
ATOM     65  C   UNL A   1      50.002  26.918  25.219  1.00  0.00     0.135 A 
ATOM     66  F   UNL A   1      49.778  25.593  28.603  1.00  0.00    -0.206 F 
ATOM     67  C   UNL A   1      51.513  25.434  27.029  1.00  0.00     0.059 A 
ATOM     68  C   UNL A   1      51.259  26.459  24.841  1.00  0.00     0.059 A 
ATOM     69  F   UNL A   1      49.293  27.625  24.327  1.00  0.00    -0.206 F 
ATOM     70  C   UNL A   1      52.010  25.719  25.754  1.00  0.00     0.060 A 
BRANCH  70  71
ATOM     71  S   UNL A   1      53.627  25.065  25.286  1.00  0.00     0.124 S 
ATOM     72  O   UNL A   1      54.509  25.774  26.209  1.00  0.00    -0.237 OA
ATOM     73  O   UNL A   1      53.470  23.636  25.532  1.00  0.00    -0.237 OA
ATOM     74  O   UNL A   1      53.753  25.443  23.882  1.00  0.00    -0.744 OA
ENDBRANCH  70  71
ENDBRANCH  38  63
ENDBRANCH  12  13
ENDBRANCH   5   7
ENDBRANCH   2   3
ENDBRANCH   1   2
BRANCH   1  75
ATOM     75  C   UNL A   1      32.781  28.704  27.608  1.00  0.00     0.023 C 
BRANCH  75  76
ATOM     76  C   UNL A   1      31.429  28.248  27.065  1.00  0.00     0.116 C 
BRANCH  76  77
ATOM     77  N   UNL A   1      31.246  26.816  27.179  1.00  0.00    -0.354 N 
ATOM     78  C   UNL A   1      31.513  25.816  26.294  1.00  0.00     0.248 C 
ATOM     79  H   UNL A   1      30.867  26.517  28.037  1.00  0.00     0.163 HD
ATOM     80  O   UNL A   1      31.282  24.662  26.675  1.00  0.00    -0.272 OA
BRANCH  78  81
ATOM     81  C   UNL A   1      32.077  26.119  24.883  1.00  0.00     0.228 C 
ATOM     82  C   UNL A   1      33.125  25.026  24.517  1.00  0.00     0.296 C 
ATOM     83  N   UNL A   1      31.009  26.096  23.863  1.00  0.00    -0.333 N 
ATOM     84  N   UNL A   1      32.570  23.671  24.262  1.00  0.00    -0.343 N 
ATOM     85  C   UNL A   1      30.379  24.803  23.602  1.00  0.00     0.180 C 
ATOM     86  C   UNL A   1      31.482  23.767  23.262  1.00  0.00     0.282 C 
ATOM     87  H   UNL A   1      32.201  23.285  25.130  1.00  0.00     0.346 HD
ATOM     88  H   UNL A   1      33.307  23.062  23.907  1.00  0.00     0.346 HD
BRANCH  83  89
ATOM     89  C   UNL A   1      30.420  27.238  23.382  1.00  0.00     0.148 A 
ATOM     90  N   UNL A   1      29.071  27.328  23.489  1.00  0.00    -0.237 NA
ATOM     91  C   UNL A   1      31.147  28.247  22.728  1.00  0.00     0.084 A 
ATOM     92  C   UNL A   1      28.443  28.416  22.976  1.00  0.00     0.126 A 
ATOM     93  C   UNL A   1      30.476  29.350  22.195  1.00  0.00     0.039 A 
ATOM     94  Cl  UNL A   1      32.849  28.145  22.441  1.00  0.00    -0.080 Cl
ATOM     95  C   UNL A   1      29.091  29.447  22.318  1.00  0.00     0.075 A 
BRANCH  95  96
ATOM     96  C   UNL A   1      28.312  30.598  21.763  1.00  0.00     0.417 C 
ATOM     97  F   UNL A   1      27.787  30.332  20.535  1.00  0.00    -0.166 F 
ATOM     98  F   UNL A   1      27.265  30.950  22.554  1.00  0.00    -0.166 F 
ATOM     99  F   UNL A   1      29.059  31.727  21.608  1.00  0.00    -0.166 F 
ENDBRANCH  95  96
ENDBRANCH  83  89
ENDBRANCH  78  81
ENDBRANCH  76  77
ENDBRANCH  75  76
ENDBRANCH   1  75
TORSDOF 16
ENDMDL
MODEL 2
REMARK VINA RESULT:     -12.3      7.334     12.605
REMARK SMILES O=C(NCCCCNC(=O)[C@H]1C[NH2+]CCN1c1ncc(C(F)(F)F)cc1Cl)c1ccc(-c2c3nc(c(-c4c(F)cc(S(=O)(=O)[O-])cc4F)c4ccc([nH]4)c(-c4c(F)cc(S(=O)(=O)[O-])cc4F)c4nc(c(-c5c(F)cc(S(=O)(=O)[O-])cc5F)c5ccc2[nH]5)C=C4)C=C3)cc1
REMARK SMILES IDX 5 1 4 2 3 3 1 4 2 5 28 7 29 8 93 9 30 10 92 11 31 12 32 13
REMARK SMILES IDX 33 14 86 15 34 16 91 17 85 18 87 19 35 20 90 21 84 22 83 23
REMARK SMILES IDX 36 25 70 26 49 27 69 28 50 29 53 30 68 31 88 32 51 33 52 34
REMARK SMILES IDX 67 36 89 37 54 38 37 39 38 40 47 41 39 42 40 43 46 44 48 45
REMARK SMILES IDX 41 46 42 47 43 48 44 49 45 50 71 51 72 52 81 53 73 54 74 55
REMARK SMILES IDX 80 56 82 57 75 58 76 59 77 60 78 61 79 62 55 63 56 64 65 65
REMARK SMILES IDX 57 66 58 67 64 68 66 69 59 70 60 71 61 72 62 73 63 74 6 75
REMARK SMILES IDX 7 76 8 77 9 78 10 80 11 81 12 82 16 83 13 84 15 85 14 86
REMARK SMILES IDX 17 89 18 90 26 91 19 92 25 93 27 94 20 95 21 96 22 97 23 98
REMARK SMILES IDX 24 99
REMARK H PARENT 3 6 87 24 53 35 8 79 13 87 13 88
REMARK Flexibility Score: inf
ROOT
ATOM      1  C   UNL A   1      37.088  23.239  26.146  1.00  0.00     0.023 C 
ENDROOT
BRANCH   1   2
ATOM      2  C   UNL A   1      38.042  24.401  26.410  1.00  0.00     0.116 C 
BRANCH   2   3
ATOM      3  N   UNL A   1      39.428  24.067  26.126  1.00  0.00    -0.352 N 
ATOM      4  O   UNL A   1      41.664  24.298  26.138  1.00  0.00    -0.269 OA
ATOM      5  C   UNL A   1      40.581  24.622  26.622  1.00  0.00     0.251 C 
ATOM      6  H   UNL A   1      39.558  23.335  25.482  1.00  0.00     0.163 HD
BRANCH   5   7
ATOM      7  C   UNL A   1      40.525  25.622  27.710  1.00  0.00     0.039 A 
ATOM      8  C   UNL A   1      39.521  25.578  28.683  1.00  0.00     0.014 A 
ATOM      9  C   UNL A   1      41.513  26.609  27.768  1.00  0.00     0.014 A 
ATOM     10  C   UNL A   1      39.436  26.589  29.640  1.00  0.00     0.010 A 
ATOM     11  C   UNL A   1      41.462  27.585  28.766  1.00  0.00     0.010 A 
ATOM     12  C   UNL A   1      40.407  27.600  29.693  1.00  0.00    -0.014 A 
BRANCH  12  13
ATOM     13  C   UNL A   1      40.344  28.653  30.738  1.00  0.00     0.031 A 
ATOM     14  C   UNL A   1      41.219  28.574  31.958  1.00  0.00     0.074 A 
ATOM     15  C   UNL A   1      39.466  29.665  30.601  1.00  0.00     0.049 A 
ATOM     16  N   UNL A   1      41.233  29.345  33.015  1.00  0.00    -0.248 NA
ATOM     17  C   UNL A   1      42.199  27.479  31.998  1.00  0.00     0.031 C 
ATOM     18  C   UNL A   1      38.565  29.847  29.461  1.00  0.00     0.029 A 
ATOM     19  N   UNL A   1      39.174  30.718  31.428  1.00  0.00    -0.354 N 
ATOM     20  C   UNL A   1      42.203  28.816  33.859  1.00  0.00     0.074 A 
ATOM     21  C   UNL A   1      42.741  27.646  33.197  1.00  0.00     0.031 C 
ATOM     22  C   UNL A   1      37.822  30.945  29.660  1.00  0.00     0.029 A 
ATOM     23  C   UNL A   1      38.152  31.512  30.965  1.00  0.00     0.049 A 
ATOM     24  H   UNL A   1      39.650  30.889  32.273  1.00  0.00     0.167 HD
ATOM     25  C   UNL A   1      42.607  29.268  35.071  1.00  0.00     0.037 A 
ATOM     26  C   UNL A   1      37.524  32.557  31.537  1.00  0.00     0.037 A 
ATOM     27  C   UNL A   1      42.065  30.438  35.717  1.00  0.00     0.049 A 
ATOM     28  C   UNL A   1      37.963  33.025  32.893  1.00  0.00     0.074 A 
ATOM     29  C   UNL A   1      42.429  30.998  36.929  1.00  0.00     0.029 A 
ATOM     30  N   UNL A   1      41.038  31.221  35.209  1.00  0.00    -0.354 N 
ATOM     31  N   UNL A   1      38.903  32.534  33.667  1.00  0.00    -0.248 NA
ATOM     32  C   UNL A   1      37.266  34.188  33.457  1.00  0.00     0.031 C 
ATOM     33  C   UNL A   1      41.590  32.089  37.176  1.00  0.00     0.029 A 
ATOM     34  C   UNL A   1      40.740  32.245  36.093  1.00  0.00     0.049 A 
ATOM     35  H   UNL A   1      40.587  31.069  34.347  1.00  0.00     0.167 HD
ATOM     36  C   UNL A   1      38.928  33.343  34.797  1.00  0.00     0.074 A 
ATOM     37  C   UNL A   1      37.908  34.355  34.607  1.00  0.00     0.031 C 
ATOM     38  C   UNL A   1      39.730  33.256  35.886  1.00  0.00     0.037 A 
BRANCH  25  39
ATOM     39  C   UNL A   1      43.661  28.472  35.793  1.00  0.00     0.058 A 
ATOM     40  C   UNL A   1      45.032  28.725  35.623  1.00  0.00     0.135 A 
ATOM     41  C   UNL A   1      43.293  27.439  36.672  1.00  0.00     0.135 A 
ATOM     42  F   UNL A   1      45.442  29.694  34.789  1.00  0.00    -0.206 F 
ATOM     43  C   UNL A   1      45.999  27.953  36.260  1.00  0.00     0.059 A 
ATOM     44  C   UNL A   1      44.243  26.672  37.341  1.00  0.00     0.059 A 
ATOM     45  F   UNL A   1      41.997  27.157  36.879  1.00  0.00    -0.206 F 
ATOM     46  C   UNL A   1      45.594  26.922  37.108  1.00  0.00     0.060 A 
BRANCH  46  47
ATOM     47  S   UNL A   1      46.860  25.896  37.889  1.00  0.00     0.124 S 
ATOM     48  O   UNL A   1      46.783  24.680  37.085  1.00  0.00    -0.237 OA
ATOM     49  O   UNL A   1      48.067  26.698  37.711  1.00  0.00    -0.237 OA
ATOM     50  O   UNL A   1      46.393  25.770  39.265  1.00  0.00    -0.744 OA
ENDBRANCH  46  47
ENDBRANCH  25  39
BRANCH  26  51
ATOM     51  C   UNL A   1      36.408  33.214  30.807  1.00  0.00     0.058 A 
ATOM     52  C   UNL A   1      35.082  33.074  31.237  1.00  0.00     0.135 A 
ATOM     53  C   UNL A   1      36.659  34.063  29.718  1.00  0.00     0.135 A 
ATOM     54  F   UNL A   1      34.793  32.268  32.271  1.00  0.00    -0.206 F 
ATOM     55  C   UNL A   1      34.043  33.761  30.621  1.00  0.00     0.059 A 
ATOM     56  C   UNL A   1      35.640  34.779  29.100  1.00  0.00     0.059 A 
ATOM     57  F   UNL A   1      37.916  34.244  29.281  1.00  0.00    -0.206 F 
ATOM     58  C   UNL A   1      34.333  34.621  29.560  1.00  0.00     0.060 A 
BRANCH  58  59
ATOM     59  S   UNL A   1      32.989  35.584  28.833  1.00  0.00     0.124 S 
ATOM     60  O   UNL A   1      32.275  36.036  30.021  1.00  0.00    -0.237 OA
ATOM     61  O   UNL A   1      33.715  36.613  28.093  1.00  0.00    -0.237 OA
ATOM     62  O   UNL A   1      32.286  34.608  28.006  1.00  0.00    -0.744 OA
ENDBRANCH  58  59
ENDBRANCH  26  51
BRANCH  38  63
ATOM     63  C   UNL A   1      39.583  34.309  36.948  1.00  0.00     0.058 A 
ATOM     64  C   UNL A   1      38.876  34.070  38.135  1.00  0.00     0.135 A 
ATOM     65  C   UNL A   1      40.237  35.544  36.809  1.00  0.00     0.135 A 
ATOM     66  F   UNL A   1      38.225  32.910  38.312  1.00  0.00    -0.206 F 
ATOM     67  C   UNL A   1      38.824  35.019  39.151  1.00  0.00     0.059 A 
ATOM     68  C   UNL A   1      40.216  36.499  37.820  1.00  0.00     0.059 A 
ATOM     69  F   UNL A   1      40.929  35.821  35.693  1.00  0.00    -0.206 F 
ATOM     70  C   UNL A   1      39.505  36.228  38.988  1.00  0.00     0.060 A 
BRANCH  70  71
ATOM     71  S   UNL A   1      39.492  37.421  40.344  1.00  0.00     0.124 S 
ATOM     72  O   UNL A   1      40.915  37.709  40.497  1.00  0.00    -0.237 OA
ATOM     73  O   UNL A   1      38.681  38.505  39.800  1.00  0.00    -0.237 OA
ATOM     74  O   UNL A   1      38.880  36.680  41.443  1.00  0.00    -0.744 OA
ENDBRANCH  70  71
ENDBRANCH  38  63
ENDBRANCH  12  13
ENDBRANCH   5   7
ENDBRANCH   2   3
ENDBRANCH   1   2
BRANCH   1  75
ATOM     75  C   UNL A   1      37.146  22.632  24.740  1.00  0.00     0.023 C 
BRANCH  75  76
ATOM     76  C   UNL A   1      35.804  22.215  24.145  1.00  0.00     0.116 C 
BRANCH  76  77
ATOM     77  N   UNL A   1      34.852  23.306  24.119  1.00  0.00    -0.354 N 
ATOM     78  C   UNL A   1      33.771  23.557  24.910  1.00  0.00     0.248 C 
ATOM     79  H   UNL A   1      35.012  23.975  23.416  1.00  0.00     0.163 HD
ATOM     80  O   UNL A   1      33.144  24.596  24.677  1.00  0.00    -0.272 OA
BRANCH  78  81
ATOM     81  C   UNL A   1      33.357  22.582  26.040  1.00  0.00     0.228 C 
ATOM     82  C   UNL A   1      32.801  23.410  27.237  1.00  0.00     0.296 C 
ATOM     83  N   UNL A   1      32.300  21.654  25.589  1.00  0.00    -0.333 N 
ATOM     84  N   UNL A   1      31.490  24.067  27.002  1.00  0.00    -0.343 N 
ATOM     85  C   UNL A   1      30.997  22.244  25.285  1.00  0.00     0.180 C 
ATOM     86  C   UNL A   1      30.518  23.063  26.511  1.00  0.00     0.282 C 
ATOM     87  H   UNL A   1      31.597  24.805  26.306  1.00  0.00     0.346 HD
ATOM     88  H   UNL A   1      31.150  24.472  27.875  1.00  0.00     0.346 HD
BRANCH  83  89
ATOM     89  C   UNL A   1      32.564  20.369  25.188  1.00  0.00     0.148 A 
ATOM     90  N   UNL A   1      32.948  19.490  26.146  1.00  0.00    -0.237 NA
ATOM     91  C   UNL A   1      32.528  19.975  23.840  1.00  0.00     0.084 A 
ATOM     92  C   UNL A   1      33.272  18.224  25.784  1.00  0.00     0.126 A 
ATOM     93  C   UNL A   1      32.881  18.669  23.489  1.00  0.00     0.039 A 
ATOM     94  Cl  UNL A   1      32.172  21.069  22.548  1.00  0.00    -0.080 Cl
ATOM     95  C   UNL A   1      33.262  17.763  24.479  1.00  0.00     0.075 A 
BRANCH  95  96
ATOM     96  C   UNL A   1      33.659  16.354  24.170  1.00  0.00     0.417 C 
ATOM     97  F   UNL A   1      34.029  16.187  22.871  1.00  0.00    -0.166 F 
ATOM     98  F   UNL A   1      34.710  15.931  24.921  1.00  0.00    -0.166 F 
ATOM     99  F   UNL A   1      32.658  15.455  24.388  1.00  0.00    -0.166 F 
ENDBRANCH  95  96
ENDBRANCH  83  89
ENDBRANCH  78  81
ENDBRANCH  76  77
ENDBRANCH  75  76
ENDBRANCH   1  75
TORSDOF 16
ENDMDL
MODEL 3
REMARK VINA RESULT:     -12.0      6.945     11.434
REMARK SMILES O=C(NCCCCNC(=O)[C@H]1C[NH2+]CCN1c1ncc(C(F)(F)F)cc1Cl)c1ccc(-c2c3nc(c(-c4c(F)cc(S(=O)(=O)[O-])cc4F)c4ccc([nH]4)c(-c4c(F)cc(S(=O)(=O)[O-])cc4F)c4nc(c(-c5c(F)cc(S(=O)(=O)[O-])cc5F)c5ccc2[nH]5)C=C4)C=C3)cc1
REMARK SMILES IDX 5 1 4 2 3 3 1 4 2 5 28 7 29 8 93 9 30 10 92 11 31 12 32 13
REMARK SMILES IDX 33 14 86 15 34 16 91 17 85 18 87 19 35 20 90 21 84 22 83 23
REMARK SMILES IDX 36 25 70 26 49 27 69 28 50 29 53 30 68 31 88 32 51 33 52 34
REMARK SMILES IDX 67 36 89 37 54 38 37 39 38 40 47 41 39 42 40 43 46 44 48 45
REMARK SMILES IDX 41 46 42 47 43 48 44 49 45 50 71 51 72 52 81 53 73 54 74 55
REMARK SMILES IDX 80 56 82 57 75 58 76 59 77 60 78 61 79 62 55 63 56 64 65 65
REMARK SMILES IDX 57 66 58 67 64 68 66 69 59 70 60 71 61 72 62 73 63 74 6 75
REMARK SMILES IDX 7 76 8 77 9 78 10 80 11 81 12 82 16 83 13 84 15 85 14 86
REMARK SMILES IDX 17 89 18 90 26 91 19 92 25 93 27 94 20 95 21 96 22 97 23 98
REMARK SMILES IDX 24 99
REMARK H PARENT 3 6 87 24 53 35 8 79 13 87 13 88
REMARK Flexibility Score: inf
ROOT
ATOM      1  C   UNL A   1      39.178  22.212  26.499  1.00  0.00     0.023 C 
ENDROOT
BRANCH   1   2
ATOM      2  C   UNL A   1      40.068  23.296  27.099  1.00  0.00     0.116 C 
BRANCH   2   3
ATOM      3  N   UNL A   1      40.739  24.097  26.089  1.00  0.00    -0.352 N 
ATOM      4  O   UNL A   1      41.513  25.956  25.089  1.00  0.00    -0.269 OA
ATOM      5  C   UNL A   1      41.085  25.425  26.111  1.00  0.00     0.251 C 
ATOM      6  H   UNL A   1      40.981  23.615  25.266  1.00  0.00     0.163 HD
BRANCH   5   7
ATOM      7  C   UNL A   1      40.919  26.222  27.346  1.00  0.00     0.039 A 
ATOM      8  C   UNL A   1      39.859  25.981  28.226  1.00  0.00     0.014 A 
ATOM      9  C   UNL A   1      41.859  27.214  27.638  1.00  0.00     0.014 A 
ATOM     10  C   UNL A   1      39.672  26.810  29.332  1.00  0.00     0.010 A 
ATOM     11  C   UNL A   1      41.705  28.003  28.781  1.00  0.00     0.010 A 
ATOM     12  C   UNL A   1      40.594  27.826  29.622  1.00  0.00    -0.014 A 
BRANCH  12  13
ATOM     13  C   UNL A   1      40.422  28.683  30.823  1.00  0.00     0.031 A 
ATOM     14  C   UNL A   1      39.390  29.776  30.841  1.00  0.00     0.074 A 
ATOM     15  C   UNL A   1      41.227  28.497  31.886  1.00  0.00     0.049 A 
ATOM     16  N   UNL A   1      39.163  30.682  31.757  1.00  0.00    -0.248 NA
ATOM     17  C   UNL A   1      38.505  29.869  29.671  1.00  0.00     0.031 C 
ATOM     18  C   UNL A   1      42.265  27.468  31.984  1.00  0.00     0.029 A 
ATOM     19  N   UNL A   1      41.312  29.170  33.077  1.00  0.00    -0.354 N 
ATOM     20  C   UNL A   1      38.127  31.468  31.267  1.00  0.00     0.074 A 
ATOM     21  C   UNL A   1      37.785  30.944  29.961  1.00  0.00     0.031 C 
ATOM     22  C   UNL A   1      42.881  27.579  33.170  1.00  0.00     0.029 A 
ATOM     23  C   UNL A   1      42.322  28.719  33.891  1.00  0.00     0.049 A 
ATOM     24  H   UNL A   1      40.707  29.907  33.325  1.00  0.00     0.167 HD
ATOM     25  C   UNL A   1      37.517  32.528  31.854  1.00  0.00     0.037 A 
ATOM     26  C   UNL A   1      42.776  29.188  35.069  1.00  0.00     0.037 A 
ATOM     27  C   UNL A   1      37.866  33.037  33.157  1.00  0.00     0.049 A 
ATOM     28  C   UNL A   1      42.111  30.381  35.691  1.00  0.00     0.074 A 
ATOM     29  C   UNL A   1      37.288  34.083  33.854  1.00  0.00     0.029 A 
ATOM     30  N   UNL A   1      38.890  32.544  33.955  1.00  0.00    -0.354 N 
ATOM     31  N   UNL A   1      41.112  31.096  35.229  1.00  0.00    -0.248 NA
ATOM     32  C   UNL A   1      42.624  30.831  36.990  1.00  0.00     0.031 C 
ATOM     33  C   UNL A   1      37.993  34.254  35.050  1.00  0.00     0.029 A 
ATOM     34  C   UNL A   1      38.975  33.279  35.126  1.00  0.00     0.049 A 
ATOM     35  H   UNL A   1      39.470  31.784  33.721  1.00  0.00     0.167 HD
ATOM     36  C   UNL A   1      40.860  32.065  36.193  1.00  0.00     0.074 A 
ATOM     37  C   UNL A   1      41.812  31.845  37.264  1.00  0.00     0.031 C 
ATOM     38  C   UNL A   1      39.919  33.041  36.192  1.00  0.00     0.037 A 
BRANCH  25  39
ATOM     39  C   UNL A   1      36.439  33.228  31.073  1.00  0.00     0.058 A 
ATOM     40  C   UNL A   1      36.730  34.034  29.960  1.00  0.00     0.135 A 
ATOM     41  C   UNL A   1      35.090  33.088  31.441  1.00  0.00     0.135 A 
ATOM     42  F   UNL A   1      38.002  34.211  29.568  1.00  0.00    -0.206 F 
ATOM     43  C   UNL A   1      35.730  34.714  29.272  1.00  0.00     0.059 A 
ATOM     44  C   UNL A   1      34.070  33.737  30.751  1.00  0.00     0.059 A 
ATOM     45  F   UNL A   1      34.752  32.325  32.492  1.00  0.00    -0.206 F 
ATOM     46  C   UNL A   1      34.404  34.568  29.682  1.00  0.00     0.060 A 
BRANCH  46  47
ATOM     47  S   UNL A   1      33.121  35.495  28.811  1.00  0.00     0.124 S 
ATOM     48  O   UNL A   1      32.476  34.437  28.038  1.00  0.00    -0.237 OA
ATOM     49  O   UNL A   1      32.332  36.046  29.909  1.00  0.00    -0.237 OA
ATOM     50  O   UNL A   1      33.875  36.471  28.033  1.00  0.00    -0.744 OA
ENDBRANCH  46  47
ENDBRANCH  25  39
BRANCH  26  51
ATOM     51  C   UNL A   1      43.929  28.511  35.718  1.00  0.00     0.058 A 
ATOM     52  C   UNL A   1      43.734  27.453  36.615  1.00  0.00     0.135 A 
ATOM     53  C   UNL A   1      45.250  28.854  35.386  1.00  0.00     0.135 A 
ATOM     54  F   UNL A   1      42.490  27.092  36.967  1.00  0.00    -0.206 F 
ATOM     55  C   UNL A   1      44.806  26.749  37.153  1.00  0.00     0.059 A 
ATOM     56  C   UNL A   1      46.337  28.151  35.891  1.00  0.00     0.059 A 
ATOM     57  F   UNL A   1      45.487  29.850  34.516  1.00  0.00    -0.206 F 
ATOM     58  C   UNL A   1      46.104  27.099  36.775  1.00  0.00     0.060 A 
BRANCH  58  59
ATOM     59  S   UNL A   1      47.483  26.114  37.402  1.00  0.00     0.124 S 
ATOM     60  O   UNL A   1      48.412  27.150  37.836  1.00  0.00    -0.237 OA
ATOM     61  O   UNL A   1      46.847  25.340  38.465  1.00  0.00    -0.237 OA
ATOM     62  O   UNL A   1      47.898  25.339  36.238  1.00  0.00    -0.744 OA
ENDBRANCH  58  59
ENDBRANCH  26  51
BRANCH  38  63
ATOM     63  C   UNL A   1      39.828  33.926  37.403  1.00  0.00     0.058 A 
ATOM     64  C   UNL A   1      40.421  35.196  37.439  1.00  0.00     0.135 A 
ATOM     65  C   UNL A   1      39.057  33.527  38.508  1.00  0.00     0.135 A 
ATOM     66  F   UNL A   1      41.176  35.619  36.413  1.00  0.00    -0.206 F 
ATOM     67  C   UNL A   1      40.252  36.044  38.529  1.00  0.00     0.059 A 
ATOM     68  C   UNL A   1      38.857  34.367  39.598  1.00  0.00     0.059 A 
ATOM     69  F   UNL A   1      38.466  32.323  38.520  1.00  0.00    -0.206 F 
ATOM     70  C   UNL A   1      39.461  35.624  39.602  1.00  0.00     0.060 A 
BRANCH  70  71
ATOM     71  S   UNL A   1      39.188  36.762  40.977  1.00  0.00     0.124 S 
ATOM     72  O   UNL A   1      40.535  36.888  41.526  1.00  0.00    -0.237 OA
ATOM     73  O   UNL A   1      38.666  37.946  40.304  1.00  0.00    -0.237 OA
ATOM     74  O   UNL A   1      38.230  36.053  41.820  1.00  0.00    -0.744 OA
ENDBRANCH  70  71
ENDBRANCH  38  63
ENDBRANCH  12  13
ENDBRANCH   5   7
ENDBRANCH   2   3
ENDBRANCH   1   2
BRANCH   1  75
ATOM     75  C   UNL A   1      38.161  22.684  25.454  1.00  0.00     0.023 C 
BRANCH  75  76
ATOM     76  C   UNL A   1      37.035  23.570  25.982  1.00  0.00     0.116 C 
BRANCH  76  77
ATOM     77  N   UNL A   1      36.112  22.840  26.826  1.00  0.00    -0.354 N 
ATOM     78  C   UNL A   1      34.927  22.238  26.528  1.00  0.00     0.248 C 
ATOM     79  H   UNL A   1      36.385  22.768  27.769  1.00  0.00     0.163 HD
ATOM     80  O   UNL A   1      34.355  21.651  27.455  1.00  0.00    -0.272 OA
BRANCH  78  81
ATOM     81  C   UNL A   1      34.333  22.292  25.098  1.00  0.00     0.228 C 
ATOM     82  C   UNL A   1      33.755  20.889  24.744  1.00  0.00     0.296 C 
ATOM     83  N   UNL A   1      33.239  23.279  25.009  1.00  0.00    -0.333 N 
ATOM     84  N   UNL A   1      32.532  20.496  25.490  1.00  0.00    -0.343 N 
ATOM     85  C   UNL A   1      32.024  22.982  25.767  1.00  0.00     0.180 C 
ATOM     86  C   UNL A   1      31.519  21.570  25.373  1.00  0.00     0.282 C 
ATOM     87  H   UNL A   1      32.764  20.353  26.473  1.00  0.00     0.346 HD
ATOM     88  H   UNL A   1      32.158  19.631  25.101  1.00  0.00     0.346 HD
BRANCH  83  89
ATOM     89  C   UNL A   1      33.419  24.540  24.498  1.00  0.00     0.148 A 
ATOM     90  N   UNL A   1      33.565  25.552  25.388  1.00  0.00    -0.237 NA
ATOM     91  C   UNL A   1      33.373  24.811  23.120  1.00  0.00     0.084 A 
ATOM     92  C   UNL A   1      33.690  26.821  24.926  1.00  0.00     0.126 A 
ATOM     93  C   UNL A   1      33.488  26.128  22.668  1.00  0.00     0.039 A 
ATOM     94  Cl  UNL A   1      33.063  23.594  21.931  1.00  0.00    -0.080 Cl
ATOM     95  C   UNL A   1      33.652  27.165  23.585  1.00  0.00     0.075 A 
BRANCH  95  96
ATOM     96  C   UNL A   1      33.774  28.597  23.168  1.00  0.00     0.417 C 
ATOM     97  F   UNL A   1      33.067  28.875  22.039  1.00  0.00    -0.166 F 
ATOM     98  F   UNL A   1      33.325  29.458  24.119  1.00  0.00    -0.166 F 
ATOM     99  F   UNL A   1      35.057  28.971  22.902  1.00  0.00    -0.166 F 
ENDBRANCH  95  96
ENDBRANCH  83  89
ENDBRANCH  78  81
ENDBRANCH  76  77
ENDBRANCH  75  76
ENDBRANCH   1  75
TORSDOF 16
ENDMDL
