MODEL 1
REMARK VINA RESULT:     -10.9      0.000      0.000
REMARK SMILES O=C(NCCCCNC(=O)c1cc(Cl)nc(I)c1C(F)(F)F)c1ccc(-c2c3nc(c(-c4c(F)cc(S(=O)(=O)[O-])cc4F)c4ccc([nH]4)c(-c4c(F)cc(S(=O)(=O)[O-])cc4F)c4nc(c(-c5c(F)cc(S(=O)(=O)[O-])cc5F)c5ccc2[nH]5)C=C4)C=C3)cc1
REMARK SMILES IDX 4 1 3 2 1 3 2 4 23 6 24 7 88 8 25 9 87 10 26 11 27 12 28 13
REMARK SMILES IDX 81 14 29 15 86 16 80 17 82 18 30 19 85 20 79 21 78 22 31 24
REMARK SMILES IDX 65 25 44 26 64 27 45 28 48 29 63 30 83 31 46 32 47 33 62 35
REMARK SMILES IDX 84 36 49 37 32 38 33 39 42 40 34 41 35 42 41 43 43 44 36 45
REMARK SMILES IDX 37 46 38 47 39 48 40 49 66 50 67 51 76 52 68 53 69 54 75 55
REMARK SMILES IDX 77 56 70 57 71 58 72 59 73 60 74 61 50 62 51 63 60 64 52 65
REMARK SMILES IDX 53 66 59 67 61 68 54 69 55 70 56 71 57 72 58 73 5 74 6 75
REMARK SMILES IDX 7 76 8 77 9 78 10 80 11 81 12 82 18 83 13 84 16 85 14 86
REMARK SMILES IDX 15 87 17 88 19 89 20 90 21 91 22 92
REMARK H PARENT 3 5 82 23 48 34 8 79
REMARK Flexibility Score: inf
ROOT
ATOM      1  C   UNL A   1      33.515  28.206  27.229  1.00  0.00     0.116 C 
ENDROOT
BRANCH   1   2
ATOM      2  N   UNL A   1      33.395  29.634  27.478  1.00  0.00    -0.352 N 
ATOM      3  O   UNL A   1      33.966  31.649  28.305  1.00  0.00    -0.269 OA
ATOM      4  C   UNL A   1      34.310  30.508  28.015  1.00  0.00     0.251 C 
ATOM      5  H   UNL A   1      32.531  30.033  27.226  1.00  0.00     0.163 HD
BRANCH   4   6
ATOM      6  C   UNL A   1      35.700  30.066  28.263  1.00  0.00     0.039 A 
ATOM      7  C   UNL A   1      36.086  29.595  29.521  1.00  0.00     0.014 A 
ATOM      8  C   UNL A   1      36.623  30.109  27.215  1.00  0.00     0.014 A 
ATOM      9  C   UNL A   1      37.424  29.281  29.762  1.00  0.00     0.010 A 
ATOM     10  C   UNL A   1      37.956  29.752  27.447  1.00  0.00     0.010 A 
ATOM     11  C   UNL A   1      38.373  29.374  28.733  1.00  0.00    -0.014 A 
BRANCH  11  12
ATOM     12  C   UNL A   1      39.800  29.083  29.025  1.00  0.00     0.031 A 
ATOM     13  C   UNL A   1      40.387  27.738  28.690  1.00  0.00     0.074 A 
ATOM     14  C   UNL A   1      40.578  30.046  29.557  1.00  0.00     0.049 A 
ATOM     15  N   UNL A   1      41.626  27.333  28.796  1.00  0.00    -0.248 NA
ATOM     16  C   UNL A   1      39.465  26.715  28.169  1.00  0.00     0.031 C 
ATOM     17  C   UNL A   1      40.118  31.381  29.944  1.00  0.00     0.029 A 
ATOM     18  N   UNL A   1      41.917  30.055  29.858  1.00  0.00    -0.354 N 
ATOM     19  C   UNL A   1      41.637  26.016  28.351  1.00  0.00     0.074 A 
ATOM     20  C   UNL A   1      40.273  25.674  28.010  1.00  0.00     0.031 C 
ATOM     21  C   UNL A   1      41.160  32.083  30.418  1.00  0.00     0.029 A 
ATOM     22  C   UNL A   1      42.354  31.243  30.392  1.00  0.00     0.049 A 
ATOM     23  H   UNL A   1      42.508  29.282  29.705  1.00  0.00     0.167 HD
ATOM     24  C   UNL A   1      42.693  25.178  28.220  1.00  0.00     0.037 A 
ATOM     25  C   UNL A   1      43.578  31.614  30.819  1.00  0.00     0.037 A 
ATOM     26  C   UNL A   1      44.050  25.528  28.547  1.00  0.00     0.049 A 
ATOM     27  C   UNL A   1      44.726  30.647  30.697  1.00  0.00     0.074 A 
ATOM     28  C   UNL A   1      45.195  24.768  28.377  1.00  0.00     0.029 A 
ATOM     29  N   UNL A   1      44.447  26.727  29.117  1.00  0.00    -0.354 N 
ATOM     30  N   UNL A   1      44.732  29.438  30.187  1.00  0.00    -0.248 NA
ATOM     31  C   UNL A   1      46.031  31.092  31.207  1.00  0.00     0.031 C 
ATOM     32  C   UNL A   1      46.276  25.486  28.893  1.00  0.00     0.029 A 
ATOM     33  C   UNL A   1      45.813  26.712  29.344  1.00  0.00     0.049 A 
ATOM     34  H   UNL A   1      43.847  27.477  29.330  1.00  0.00     0.167 HD
ATOM     35  C   UNL A   1      46.040  28.982  30.309  1.00  0.00     0.074 A 
ATOM     36  C   UNL A   1      46.803  30.052  30.916  1.00  0.00     0.031 C 
ATOM     37  C   UNL A   1      46.560  27.782  29.955  1.00  0.00     0.037 A 
BRANCH  24  38
ATOM     38  C   UNL A   1      42.442  23.797  27.686  1.00  0.00     0.058 A 
ATOM     39  C   UNL A   1      42.371  23.550  26.307  1.00  0.00     0.135 A 
ATOM     40  C   UNL A   1      42.388  22.694  28.555  1.00  0.00     0.135 A 
ATOM     41  F   UNL A   1      42.404  24.570  25.435  1.00  0.00    -0.206 F 
ATOM     42  C   UNL A   1      42.256  22.257  25.806  1.00  0.00     0.059 A 
ATOM     43  C   UNL A   1      42.291  21.390  28.075  1.00  0.00     0.059 A 
ATOM     44  F   UNL A   1      42.448  22.877  29.883  1.00  0.00    -0.206 F 
ATOM     45  C   UNL A   1      42.227  21.184  26.698  1.00  0.00     0.060 A 
BRANCH  45  46
ATOM     46  S   UNL A   1      42.130  19.511  26.023  1.00  0.00     0.124 S 
ATOM     47  O   UNL A   1      42.995  19.620  24.851  1.00  0.00    -0.237 OA
ATOM     48  O   UNL A   1      42.653  18.704  27.121  1.00  0.00    -0.237 OA
ATOM     49  O   UNL A   1      40.709  19.338  25.740  1.00  0.00    -0.744 OA
ENDBRANCH  45  46
ENDBRANCH  24  38
BRANCH  25  50
ATOM     50  C   UNL A   1      43.782  32.961  31.412  1.00  0.00     0.058 A 
ATOM     51  C   UNL A   1      43.579  33.192  32.780  1.00  0.00     0.135 A 
ATOM     52  C   UNL A   1      44.179  34.048  30.616  1.00  0.00     0.135 A 
ATOM     53  F   UNL A   1      43.192  32.188  33.580  1.00  0.00    -0.206 F 
ATOM     54  C   UNL A   1      43.743  34.458  33.337  1.00  0.00     0.059 A 
ATOM     55  C   UNL A   1      44.374  35.315  31.154  1.00  0.00     0.059 A 
ATOM     56  F   UNL A   1      44.399  33.875  29.304  1.00  0.00    -0.206 F 
ATOM     57  C   UNL A   1      44.141  35.512  32.514  1.00  0.00     0.060 A 
BRANCH  57  58
ATOM     58  S   UNL A   1      44.378  37.144  33.252  1.00  0.00     0.124 S 
ATOM     59  O   UNL A   1      43.119  37.328  33.965  1.00  0.00    -0.237 OA
ATOM     60  O   UNL A   1      45.559  36.935  34.083  1.00  0.00    -0.237 OA
ATOM     61  O   UNL A   1      44.580  38.010  32.094  1.00  0.00    -0.744 OA
ENDBRANCH  57  58
ENDBRANCH  25  50
BRANCH  37  62
ATOM     62  C   UNL A   1      48.020  27.544  30.222  1.00  0.00     0.058 A 
ATOM     63  C   UNL A   1      48.444  26.843  31.361  1.00  0.00     0.135 A 
ATOM     64  C   UNL A   1      48.995  27.936  29.292  1.00  0.00     0.135 A 
ATOM     65  F   UNL A   1      47.551  26.453  32.286  1.00  0.00    -0.206 F 
ATOM     66  C   UNL A   1      49.785  26.540  31.570  1.00  0.00     0.059 A 
ATOM     67  C   UNL A   1      50.339  27.623  29.468  1.00  0.00     0.059 A 
ATOM     68  F   UNL A   1      48.640  28.603  28.181  1.00  0.00    -0.206 F 
ATOM     69  C   UNL A   1      50.724  26.927  30.612  1.00  0.00     0.060 A 
BRANCH  69  70
ATOM     70  S   UNL A   1      52.451  26.465  30.866  1.00  0.00     0.124 S 
ATOM     71  O   UNL A   1      52.901  26.243  29.495  1.00  0.00    -0.237 OA
ATOM     72  O   UNL A   1      52.995  27.645  31.528  1.00  0.00    -0.237 OA
ATOM     73  O   UNL A   1      52.366  25.269  31.698  1.00  0.00    -0.744 OA
ENDBRANCH  69  70
ENDBRANCH  37  62
ENDBRANCH  11  12
ENDBRANCH   4   6
ENDBRANCH   1   2
BRANCH   1  74
ATOM     74  C   UNL A   1      33.762  27.886  25.756  1.00  0.00     0.023 C 
BRANCH  74  75
ATOM     75  C   UNL A   1      33.419  29.001  24.762  1.00  0.00     0.023 C 
BRANCH  75  76
ATOM     76  C   UNL A   1      33.529  28.630  23.285  1.00  0.00     0.116 C 
BRANCH  76  77
ATOM     77  N   UNL A   1      32.255  28.672  22.587  1.00  0.00    -0.352 N 
ATOM     78  C   UNL A   1      31.322  27.687  22.402  1.00  0.00     0.252 C 
ATOM     79  H   UNL A   1      32.028  29.541  22.185  1.00  0.00     0.163 HD
ATOM     80  O   UNL A   1      30.282  27.896  21.789  1.00  0.00    -0.269 OA
BRANCH  78  81
ATOM     81  C   UNL A   1      31.583  26.321  22.882  1.00  0.00     0.057 A 
ATOM     82  C   UNL A   1      32.284  25.509  21.987  1.00  0.00     0.055 A 
ATOM     83  C   UNL A   1      31.135  25.835  24.120  1.00  0.00     0.100 A 
ATOM     84  C   UNL A   1      32.576  24.234  22.398  1.00  0.00     0.131 A 
ATOM     85  C   UNL A   1      31.547  24.546  24.445  1.00  0.00     0.116 A 
ATOM     86  Cl  UNL A   1      33.419  23.142  21.385  1.00  0.00    -0.062 Cl
ATOM     87  N   UNL A   1      32.253  23.747  23.606  1.00  0.00    -0.229 NA
ATOM     88  I   UNL A   1      31.208  23.667  26.338  1.00  0.00    -0.021 I 
BRANCH  83  89
ATOM     89  C   UNL A   1      30.274  26.649  25.035  1.00  0.00     0.419 C 
ATOM     90  F   UNL A   1      28.980  26.227  25.070  1.00  0.00    -0.166 F 
ATOM     91  F   UNL A   1      30.722  26.608  26.321  1.00  0.00    -0.166 F 
ATOM     92  F   UNL A   1      30.189  27.969  24.722  1.00  0.00    -0.166 F 
ENDBRANCH  83  89
ENDBRANCH  78  81
ENDBRANCH  76  77
ENDBRANCH  75  76
ENDBRANCH  74  75
ENDBRANCH   1  74
TORSDOF 15
ENDMDL
MODEL 2
REMARK VINA RESULT:     -10.9      5.188      9.887
REMARK SMILES O=C(NCCCCNC(=O)c1cc(Cl)nc(I)c1C(F)(F)F)c1ccc(-c2c3nc(c(-c4c(F)cc(S(=O)(=O)[O-])cc4F)c4ccc([nH]4)c(-c4c(F)cc(S(=O)(=O)[O-])cc4F)c4nc(c(-c5c(F)cc(S(=O)(=O)[O-])cc5F)c5ccc2[nH]5)C=C4)C=C3)cc1
REMARK SMILES IDX 4 1 3 2 1 3 2 4 23 6 24 7 88 8 25 9 87 10 26 11 27 12 28 13
REMARK SMILES IDX 81 14 29 15 86 16 80 17 82 18 30 19 85 20 79 21 78 22 31 24
REMARK SMILES IDX 65 25 44 26 64 27 45 28 48 29 63 30 83 31 46 32 47 33 62 35
REMARK SMILES IDX 84 36 49 37 32 38 33 39 42 40 34 41 35 42 41 43 43 44 36 45
REMARK SMILES IDX 37 46 38 47 39 48 40 49 66 50 67 51 76 52 68 53 69 54 75 55
REMARK SMILES IDX 77 56 70 57 71 58 72 59 73 60 74 61 50 62 51 63 60 64 52 65
REMARK SMILES IDX 53 66 59 67 61 68 54 69 55 70 56 71 57 72 58 73 5 74 6 75
REMARK SMILES IDX 7 76 8 77 9 78 10 80 11 81 12 82 18 83 13 84 16 85 14 86
REMARK SMILES IDX 15 87 17 88 19 89 20 90 21 91 22 92
REMARK H PARENT 3 5 82 23 48 34 8 79
REMARK Flexibility Score: inf
ROOT
ATOM      1  C   UNL A   1      38.258  24.105  26.444  1.00  0.00     0.116 C 
ENDROOT
BRANCH   1   2
ATOM      2  N   UNL A   1      39.673  23.977  26.134  1.00  0.00    -0.352 N 
ATOM      3  O   UNL A   1      41.840  24.586  26.049  1.00  0.00    -0.269 OA
ATOM      4  C   UNL A   1      40.732  24.746  26.552  1.00  0.00     0.251 C 
ATOM      5  H   UNL A   1      39.906  23.229  25.537  1.00  0.00     0.163 HD
BRANCH   4   6
ATOM      6  C   UNL A   1      40.532  25.781  27.590  1.00  0.00     0.039 A 
ATOM      7  C   UNL A   1      41.332  26.927  27.620  1.00  0.00     0.014 A 
ATOM      8  C   UNL A   1      39.518  25.607  28.537  1.00  0.00     0.014 A 
ATOM      9  C   UNL A   1      41.195  27.839  28.666  1.00  0.00     0.010 A 
ATOM     10  C   UNL A   1      39.354  26.545  29.561  1.00  0.00     0.010 A 
ATOM     11  C   UNL A   1      40.218  27.648  29.656  1.00  0.00    -0.014 A 
BRANCH  11  12
ATOM     12  C   UNL A   1      40.125  28.605  30.787  1.00  0.00     0.031 A 
ATOM     13  C   UNL A   1      41.030  28.461  31.981  1.00  0.00     0.074 A 
ATOM     14  C   UNL A   1      39.252  29.629  30.720  1.00  0.00     0.049 A 
ATOM     15  N   UNL A   1      41.149  29.246  33.021  1.00  0.00    -0.248 NA
ATOM     16  C   UNL A   1      41.915  27.285  32.015  1.00  0.00     0.031 C 
ATOM     17  C   UNL A   1      38.310  29.860  29.625  1.00  0.00     0.029 A 
ATOM     18  N   UNL A   1      39.019  30.668  31.585  1.00  0.00    -0.354 N 
ATOM     19  C   UNL A   1      42.123  28.668  33.827  1.00  0.00     0.074 A 
ATOM     20  C   UNL A   1      42.536  27.443  33.177  1.00  0.00     0.031 C 
ATOM     21  C   UNL A   1      37.610  30.978  29.877  1.00  0.00     0.029 A 
ATOM     22  C   UNL A   1      38.035  31.529  31.161  1.00  0.00     0.049 A 
ATOM     23  H   UNL A   1      39.511  30.786  32.431  1.00  0.00     0.167 HD
ATOM     24  C   UNL A   1      42.638  29.129  34.992  1.00  0.00     0.037 A 
ATOM     25  C   UNL A   1      37.529  32.634  31.743  1.00  0.00     0.037 A 
ATOM     26  C   UNL A   1      42.234  30.355  35.627  1.00  0.00     0.049 A 
ATOM     27  C   UNL A   1      38.094  33.102  33.057  1.00  0.00     0.074 A 
ATOM     28  C   UNL A   1      42.753  30.939  36.770  1.00  0.00     0.029 A 
ATOM     29  N   UNL A   1      41.212  31.180  35.185  1.00  0.00    -0.354 N 
ATOM     30  N   UNL A   1      39.079  32.591  33.757  1.00  0.00    -0.248 NA
ATOM     31  C   UNL A   1      37.483  34.294  33.661  1.00  0.00     0.031 C 
ATOM     32  C   UNL A   1      42.009  32.089  37.049  1.00  0.00     0.029 A 
ATOM     33  C   UNL A   1      41.056  32.247  36.056  1.00  0.00     0.049 A 
ATOM     34  H   UNL A   1      40.675  31.031  34.374  1.00  0.00     0.167 HD
ATOM     35  C   UNL A   1      39.208  33.402  34.879  1.00  0.00     0.074 A 
ATOM     36  C   UNL A   1      38.220  34.453  34.753  1.00  0.00     0.031 C 
ATOM     37  C   UNL A   1      40.065  33.283  35.922  1.00  0.00     0.037 A 
BRANCH  24  38
ATOM     38  C   UNL A   1      43.711  28.321  35.664  1.00  0.00     0.058 A 
ATOM     39  C   UNL A   1      45.070  28.551  35.401  1.00  0.00     0.135 A 
ATOM     40  C   UNL A   1      43.385  27.389  36.663  1.00  0.00     0.135 A 
ATOM     41  F   UNL A   1      45.436  29.421  34.445  1.00  0.00    -0.206 F 
ATOM     42  C   UNL A   1      46.069  27.888  36.106  1.00  0.00     0.059 A 
ATOM     43  C   UNL A   1      44.367  26.727  37.394  1.00  0.00     0.059 A 
ATOM     44  F   UNL A   1      42.099  27.130  36.950  1.00  0.00    -0.206 F 
ATOM     45  C   UNL A   1      45.707  26.985  37.107  1.00  0.00     0.060 A 
BRANCH  45  46
ATOM     46  S   UNL A   1      47.020  26.174  38.045  1.00  0.00     0.124 S 
ATOM     47  O   UNL A   1      48.173  27.004  37.709  1.00  0.00    -0.237 OA
ATOM     48  O   UNL A   1      46.537  26.289  39.417  1.00  0.00    -0.237 OA
ATOM     49  O   UNL A   1      47.043  24.820  37.502  1.00  0.00    -0.744 OA
ENDBRANCH  45  46
ENDBRANCH  24  38
BRANCH  25  50
ATOM     50  C   UNL A   1      36.415  33.373  31.091  1.00  0.00     0.058 A 
ATOM     51  C   UNL A   1      36.628  34.145  29.941  1.00  0.00     0.135 A 
ATOM     52  C   UNL A   1      35.112  33.322  31.614  1.00  0.00     0.135 A 
ATOM     53  F   UNL A   1      37.856  34.231  29.409  1.00  0.00    -0.206 F 
ATOM     54  C   UNL A   1      35.594  34.859  29.342  1.00  0.00     0.059 A 
ATOM     55  C   UNL A   1      34.058  34.006  31.019  1.00  0.00     0.059 A 
ATOM     56  F   UNL A   1      34.854  32.586  32.706  1.00  0.00    -0.206 F 
ATOM     57  C   UNL A   1      34.313  34.783  29.889  1.00  0.00     0.060 A 
BRANCH  57  58
ATOM     58  S   UNL A   1      32.973  35.691  29.087  1.00  0.00     0.124 S 
ATOM     59  O   UNL A   1      32.373  34.655  28.256  1.00  0.00    -0.237 OA
ATOM     60  O   UNL A   1      32.179  36.136  30.229  1.00  0.00    -0.237 OA
ATOM     61  O   UNL A   1      33.672  36.753  28.368  1.00  0.00    -0.744 OA
ENDBRANCH  57  58
ENDBRANCH  25  50
BRANCH  37  62
ATOM     62  C   UNL A   1      39.973  34.301  37.024  1.00  0.00     0.058 A 
ATOM     63  C   UNL A   1      40.559  35.569  36.891  1.00  0.00     0.135 A 
ATOM     64  C   UNL A   1      39.217  34.045  38.179  1.00  0.00     0.135 A 
ATOM     65  F   UNL A   1      41.299  35.861  35.808  1.00  0.00    -0.206 F 
ATOM     66  C   UNL A   1      40.402  36.548  37.866  1.00  0.00     0.059 A 
ATOM     67  C   UNL A   1      39.026  35.017  39.156  1.00  0.00     0.059 A 
ATOM     68  F   UNL A   1      38.628  32.850  38.350  1.00  0.00    -0.206 F 
ATOM     69  C   UNL A   1      39.625  36.265  38.991  1.00  0.00     0.060 A 
BRANCH  69  70
ATOM     70  S   UNL A   1      39.375  37.569  40.214  1.00  0.00     0.124 S 
ATOM     71  O   UNL A   1      38.758  36.830  41.311  1.00  0.00    -0.237 OA
ATOM     72  O   UNL A   1      40.736  38.039  40.452  1.00  0.00    -0.237 OA
ATOM     73  O   UNL A   1      38.501  38.517  39.528  1.00  0.00    -0.744 OA
ENDBRANCH  69  70
ENDBRANCH  37  62
ENDBRANCH  11  12
ENDBRANCH   4   6
ENDBRANCH   1   2
BRANCH   1  74
ATOM     74  C   UNL A   1      37.364  23.467  25.382  1.00  0.00     0.023 C 
BRANCH  74  75
ATOM     75  C   UNL A   1      36.739  22.119  25.754  1.00  0.00     0.023 C 
BRANCH  75  76
ATOM     76  C   UNL A   1      35.222  22.112  25.917  1.00  0.00     0.116 C 
BRANCH  76  77
ATOM     77  N   UNL A   1      34.515  21.743  24.702  1.00  0.00    -0.352 N 
ATOM     78  C   UNL A   1      33.304  22.168  24.227  1.00  0.00     0.252 C 
ATOM     79  H   UNL A   1      34.979  21.088  24.132  1.00  0.00     0.163 HD
ATOM     80  O   UNL A   1      32.853  21.759  23.163  1.00  0.00    -0.269 OA
BRANCH  78  81
ATOM     81  C   UNL A   1      32.474  23.082  25.027  1.00  0.00     0.057 A 
ATOM     82  C   UNL A   1      31.429  22.470  25.724  1.00  0.00     0.055 A 
ATOM     83  C   UNL A   1      32.671  24.472  25.069  1.00  0.00     0.100 A 
ATOM     84  C   UNL A   1      30.644  23.276  26.506  1.00  0.00     0.131 A 
ATOM     85  C   UNL A   1      31.846  25.170  25.946  1.00  0.00     0.116 A 
ATOM     86  Cl  UNL A   1      29.326  22.643  27.397  1.00  0.00    -0.062 Cl
ATOM     87  N   UNL A   1      30.843  24.595  26.655  1.00  0.00    -0.229 NA
ATOM     88  I   UNL A   1      32.089  27.227  26.370  1.00  0.00    -0.021 I 
BRANCH  83  89
ATOM     89  C   UNL A   1      33.702  25.160  24.230  1.00  0.00     0.419 C 
ATOM     90  F   UNL A   1      33.241  26.294  23.635  1.00  0.00    -0.166 F 
ATOM     91  F   UNL A   1      34.788  25.530  24.965  1.00  0.00    -0.166 F 
ATOM     92  F   UNL A   1      34.196  24.419  23.203  1.00  0.00    -0.166 F 
ENDBRANCH  83  89
ENDBRANCH  78  81
ENDBRANCH  76  77
ENDBRANCH  75  76
ENDBRANCH  74  75
ENDBRANCH   1  74
TORSDOF 15
ENDMDL
MODEL 3
REMARK VINA RESULT:     -10.9      1.740      2.252
REMARK SMILES O=C(NCCCCNC(=O)c1cc(Cl)nc(I)c1C(F)(F)F)c1ccc(-c2c3nc(c(-c4c(F)cc(S(=O)(=O)[O-])cc4F)c4ccc([nH]4)c(-c4c(F)cc(S(=O)(=O)[O-])cc4F)c4nc(c(-c5c(F)cc(S(=O)(=O)[O-])cc5F)c5ccc2[nH]5)C=C4)C=C3)cc1
REMARK SMILES IDX 4 1 3 2 1 3 2 4 23 6 24 7 88 8 25 9 87 10 26 11 27 12 28 13
REMARK SMILES IDX 81 14 29 15 86 16 80 17 82 18 30 19 85 20 79 21 78 22 31 24
REMARK SMILES IDX 65 25 44 26 64 27 45 28 48 29 63 30 83 31 46 32 47 33 62 35
REMARK SMILES IDX 84 36 49 37 32 38 33 39 42 40 34 41 35 42 41 43 43 44 36 45
REMARK SMILES IDX 37 46 38 47 39 48 40 49 66 50 67 51 76 52 68 53 69 54 75 55
REMARK SMILES IDX 77 56 70 57 71 58 72 59 73 60 74 61 50 62 51 63 60 64 52 65
REMARK SMILES IDX 53 66 59 67 61 68 54 69 55 70 56 71 57 72 58 73 5 74 6 75
REMARK SMILES IDX 7 76 8 77 9 78 10 80 11 81 12 82 18 83 13 84 16 85 14 86
REMARK SMILES IDX 15 87 17 88 19 89 20 90 21 91 22 92
REMARK H PARENT 3 5 82 23 48 34 8 79
REMARK Flexibility Score: inf
ROOT
ATOM      1  C   UNL A   1      33.525  28.250  27.059  1.00  0.00     0.116 C 
ENDROOT
BRANCH   1   2
ATOM      2  N   UNL A   1      33.389  29.660  27.388  1.00  0.00    -0.352 N 
ATOM      3  O   UNL A   1      33.930  31.627  28.342  1.00  0.00    -0.269 OA
ATOM      4  C   UNL A   1      34.287  30.506  27.994  1.00  0.00     0.251 C 
ATOM      5  H   UNL A   1      32.529  30.069  27.139  1.00  0.00     0.163 HD
BRANCH   4   6
ATOM      6  C   UNL A   1      35.673  30.057  28.248  1.00  0.00     0.039 A 
ATOM      7  C   UNL A   1      36.058  29.603  29.513  1.00  0.00     0.014 A 
ATOM      8  C   UNL A   1      36.597  30.078  27.199  1.00  0.00     0.014 A 
ATOM      9  C   UNL A   1      37.393  29.282  29.757  1.00  0.00     0.010 A 
ATOM     10  C   UNL A   1      37.927  29.714  27.435  1.00  0.00     0.010 A 
ATOM     11  C   UNL A   1      38.342  29.352  28.726  1.00  0.00    -0.014 A 
BRANCH  11  12
ATOM     12  C   UNL A   1      39.767  29.055  29.022  1.00  0.00     0.031 A 
ATOM     13  C   UNL A   1      40.349  27.709  28.686  1.00  0.00     0.074 A 
ATOM     14  C   UNL A   1      40.547  30.014  29.557  1.00  0.00     0.049 A 
ATOM     15  N   UNL A   1      41.586  27.298  28.794  1.00  0.00    -0.248 NA
ATOM     16  C   UNL A   1      39.425  26.690  28.161  1.00  0.00     0.031 C 
ATOM     17  C   UNL A   1      40.092  31.350  29.945  1.00  0.00     0.029 A 
ATOM     18  N   UNL A   1      41.885  30.017  29.861  1.00  0.00    -0.354 N 
ATOM     19  C   UNL A   1      41.593  25.982  28.347  1.00  0.00     0.074 A 
ATOM     20  C   UNL A   1      40.229  25.646  28.002  1.00  0.00     0.031 C 
ATOM     21  C   UNL A   1      41.135  32.047  30.423  1.00  0.00     0.029 A 
ATOM     22  C   UNL A   1      42.326  31.203  30.399  1.00  0.00     0.049 A 
ATOM     23  H   UNL A   1      42.474  29.242  29.709  1.00  0.00     0.167 HD
ATOM     24  C   UNL A   1      42.646  25.140  28.218  1.00  0.00     0.037 A 
ATOM     25  C   UNL A   1      43.551  31.567  30.829  1.00  0.00     0.037 A 
ATOM     26  C   UNL A   1      44.004  25.483  28.548  1.00  0.00     0.049 A 
ATOM     27  C   UNL A   1      44.695  30.597  30.709  1.00  0.00     0.074 A 
ATOM     28  C   UNL A   1      45.146  24.719  28.380  1.00  0.00     0.029 A 
ATOM     29  N   UNL A   1      44.404  26.680  29.121  1.00  0.00    -0.354 N 
ATOM     30  N   UNL A   1      44.697  29.388  30.197  1.00  0.00    -0.248 NA
ATOM     31  C   UNL A   1      46.000  31.035  31.223  1.00  0.00     0.031 C 
ATOM     32  C   UNL A   1      46.229  25.432  28.901  1.00  0.00     0.029 A 
ATOM     33  C   UNL A   1      45.770  26.659  29.353  1.00  0.00     0.049 A 
ATOM     34  H   UNL A   1      43.807  27.432  29.334  1.00  0.00     0.167 HD
ATOM     35  C   UNL A   1      46.003  28.927  30.321  1.00  0.00     0.074 A 
ATOM     36  C   UNL A   1      46.769  29.993  30.932  1.00  0.00     0.031 C 
ATOM     37  C   UNL A   1      46.520  27.725  29.967  1.00  0.00     0.037 A 
BRANCH  24  38
ATOM     38  C   UNL A   1      42.391  23.760  27.681  1.00  0.00     0.058 A 
ATOM     39  C   UNL A   1      42.337  23.513  26.300  1.00  0.00     0.135 A 
ATOM     40  C   UNL A   1      42.315  22.658  28.549  1.00  0.00     0.135 A 
ATOM     41  F   UNL A   1      42.391  24.533  25.428  1.00  0.00    -0.206 F 
ATOM     42  C   UNL A   1      42.219  22.221  25.798  1.00  0.00     0.059 A 
ATOM     43  C   UNL A   1      42.214  21.356  28.068  1.00  0.00     0.059 A 
ATOM     44  F   UNL A   1      42.358  22.842  29.878  1.00  0.00    -0.206 F 
ATOM     45  C   UNL A   1      42.168  21.149  26.690  1.00  0.00     0.060 A 
BRANCH  45  46
ATOM     46  S   UNL A   1      42.066  19.477  26.015  1.00  0.00     0.124 S 
ATOM     47  O   UNL A   1      42.904  19.593  24.825  1.00  0.00    -0.237 OA
ATOM     48  O   UNL A   1      42.617  18.671  27.100  1.00  0.00    -0.237 OA
ATOM     49  O   UNL A   1      40.641  19.296  25.763  1.00  0.00    -0.744 OA
ENDBRANCH  45  46
ENDBRANCH  24  38
BRANCH  25  50
ATOM     50  C   UNL A   1      43.758  32.913  31.426  1.00  0.00     0.058 A 
ATOM     51  C   UNL A   1      44.098  34.016  30.631  1.00  0.00     0.135 A 
ATOM     52  C   UNL A   1      43.625  33.118  32.809  1.00  0.00     0.135 A 
ATOM     53  F   UNL A   1      44.245  33.869  29.306  1.00  0.00    -0.206 F 
ATOM     54  C   UNL A   1      44.319  35.273  31.187  1.00  0.00     0.059 A 
ATOM     55  C   UNL A   1      43.816  34.369  33.384  1.00  0.00     0.059 A 
ATOM     56  F   UNL A   1      43.288  32.096  33.611  1.00  0.00    -0.206 F 
ATOM     57  C   UNL A   1      44.176  35.438  32.566  1.00  0.00     0.060 A 
BRANCH  57  58
ATOM     58  S   UNL A   1      44.438  37.080  33.273  1.00  0.00     0.124 S 
ATOM     59  O   UNL A   1      45.579  36.842  34.149  1.00  0.00    -0.237 OA
ATOM     60  O   UNL A   1      44.700  37.886  32.084  1.00  0.00    -0.237 OA
ATOM     61  O   UNL A   1      43.173  37.362  33.945  1.00  0.00    -0.744 OA
ENDBRANCH  57  58
ENDBRANCH  25  50
BRANCH  37  62
ATOM     62  C   UNL A   1      47.977  27.481  30.238  1.00  0.00     0.058 A 
ATOM     63  C   UNL A   1      48.407  26.937  31.458  1.00  0.00     0.135 A 
ATOM     64  C   UNL A   1      48.941  27.703  29.241  1.00  0.00     0.135 A 
ATOM     65  F   UNL A   1      47.525  26.714  32.446  1.00  0.00    -0.206 F 
ATOM     66  C   UNL A   1      49.744  26.624  31.682  1.00  0.00     0.059 A 
ATOM     67  C   UNL A   1      50.280  27.375  29.435  1.00  0.00     0.059 A 
ATOM     68  F   UNL A   1      48.579  28.214  28.053  1.00  0.00    -0.206 F 
ATOM     69  C   UNL A   1      50.671  26.838  30.661  1.00  0.00     0.060 A 
BRANCH  69  70
ATOM     70  S   UNL A   1      52.389  26.362  30.945  1.00  0.00     0.124 S 
ATOM     71  O   UNL A   1      52.892  26.246  29.580  1.00  0.00    -0.237 OA
ATOM     72  O   UNL A   1      52.901  27.489  31.716  1.00  0.00    -0.237 OA
ATOM     73  O   UNL A   1      52.278  25.105  31.680  1.00  0.00    -0.744 OA
ENDBRANCH  69  70
ENDBRANCH  37  62
ENDBRANCH  11  12
ENDBRANCH   4   6
ENDBRANCH   1   2
BRANCH   1  74
ATOM     74  C   UNL A   1      32.178  27.532  26.988  1.00  0.00     0.023 C 
BRANCH  74  75
ATOM     75  C   UNL A   1      31.622  27.291  25.581  1.00  0.00     0.023 C 
BRANCH  75  76
ATOM     76  C   UNL A   1      31.953  25.937  24.958  1.00  0.00     0.116 C 
BRANCH  76  77
ATOM     77  N   UNL A   1      32.571  26.044  23.647  1.00  0.00    -0.352 N 
ATOM     78  C   UNL A   1      33.509  25.247  23.050  1.00  0.00     0.252 C 
ATOM     79  H   UNL A   1      32.267  26.808  23.104  1.00  0.00     0.163 HD
ATOM     80  O   UNL A   1      33.920  25.476  21.918  1.00  0.00    -0.269 OA
BRANCH  78  81
ATOM     81  C   UNL A   1      34.105  24.124  23.791  1.00  0.00     0.057 A 
ATOM     82  C   UNL A   1      35.232  24.451  24.548  1.00  0.00     0.055 A 
ATOM     83  C   UNL A   1      33.622  22.807  23.723  1.00  0.00     0.100 A 
ATOM     84  C   UNL A   1      35.808  23.445  25.278  1.00  0.00     0.131 A 
ATOM     85  C   UNL A   1      34.256  21.890  24.556  1.00  0.00     0.116 A 
ATOM     86  Cl  UNL A   1      37.200  23.721  26.236  1.00  0.00    -0.062 Cl
ATOM     87  N   UNL A   1      35.334  22.190  25.323  1.00  0.00    -0.229 NA
ATOM     88  I   UNL A   1      33.577  19.905  24.819  1.00  0.00    -0.021 I 
BRANCH  83  89
ATOM     89  C   UNL A   1      32.496  22.413  22.818  1.00  0.00     0.419 C 
ATOM     90  F   UNL A   1      31.346  23.097  23.065  1.00  0.00    -0.166 F 
ATOM     91  F   UNL A   1      32.798  22.636  21.508  1.00  0.00    -0.166 F 
ATOM     92  F   UNL A   1      32.132  21.105  22.889  1.00  0.00    -0.166 F 
ENDBRANCH  83  89
ENDBRANCH  78  81
ENDBRANCH  76  77
ENDBRANCH  75  76
ENDBRANCH  74  75
ENDBRANCH   1  74
TORSDOF 15
ENDMDL
