MODEL 1
REMARK VINA RESULT:     -14.1      0.000      0.000
REMARK SMILES Cc1ccc(-c2cc(Cl)ccc2Cl)c(C(=O)NCCCCNC(=O)c2ccc(-c3c4nc(c(-c5c(F)cc(S(=O)(=O)[O-])cc5F)c5ccc([nH]5)c(-c5c(F)cc(S(=O)(=O)[O-])cc5F)c5nc(c(-c6c(F)cc(S(=O)(=O)[O-])cc6F)c6ccc3[nH]6)C=C5)C=C4)cc2)c1
REMARK SMILES IDX 20 1 19 2 18 3 17 4 15 5 16 6 14 8 1 9 2 10 3 11 91 12 4 13
REMARK SMILES IDX 5 14 6 15 7 16 12 17 8 18 11 19 13 20 9 21 10 22 21 23 22 24
REMARK SMILES IDX 23 25 24 27 25 28 26 29 90 30 27 31 89 32 28 33 29 34 30 35
REMARK SMILES IDX 83 36 31 37 88 38 82 39 84 40 32 41 87 42 81 43 80 44 33 46
REMARK SMILES IDX 67 47 46 48 66 49 47 50 50 51 65 52 85 53 48 54 49 55 64 57
REMARK SMILES IDX 86 58 51 59 34 60 35 61 44 62 36 63 37 64 43 65 45 66 38 67
REMARK SMILES IDX 39 68 40 69 41 70 42 71 68 72 69 73 78 74 70 75 71 76 77 77
REMARK SMILES IDX 79 78 72 79 73 80 74 81 75 82 76 83 52 84 53 85 62 86 54 87
REMARK SMILES IDX 55 88 61 89 63 90 56 91 57 92 58 93 59 94 60 95
REMARK H PARENT 17 7 22 26 84 45 50 56
REMARK Flexibility Score: inf
ROOT
ATOM      1  C   UNL A   1      32.942  30.142  26.753  1.00  0.00     0.023 C 
ENDROOT
BRANCH   1   2
ATOM      2  C   UNL A   1      31.974  29.073  27.279  1.00  0.00     0.023 C 
BRANCH   2   3
ATOM      3  C   UNL A   1      32.327  27.630  26.877  1.00  0.00     0.116 C 
BRANCH   3   4
ATOM      4  N   UNL A   1      31.170  26.746  26.898  1.00  0.00    -0.352 N 
ATOM      5  C   UNL A   1      30.709  25.688  26.157  1.00  0.00     0.251 C 
ATOM      6  O   UNL A   1      29.672  25.187  26.597  1.00  0.00    -0.269 OA
ATOM      7  H   UNL A   1      30.559  26.965  27.639  1.00  0.00     0.163 HD
BRANCH   5   8
ATOM      8  C   UNL A   1      31.356  25.128  24.909  1.00  0.00     0.047 A 
ATOM      9  C   UNL A   1      33.293  21.991  23.859  1.00  0.00     0.044 C 
ATOM     10  C   UNL A   1      32.606  23.323  23.783  1.00  0.00    -0.050 A 
ATOM     11  C   UNL A   1      32.515  23.998  22.574  1.00  0.00     0.004 A 
ATOM     12  C   UNL A   1      32.056  23.910  24.934  1.00  0.00     0.018 A 
ATOM     13  C   UNL A   1      31.883  25.237  22.523  1.00  0.00     0.010 A 
ATOM     14  C   UNL A   1      31.292  25.826  23.668  1.00  0.00    -0.004 A 
BRANCH  14  15
ATOM     15  C   UNL A   1      30.681  27.163  23.468  1.00  0.00     0.003 A 
ATOM     16  C   UNL A   1      29.275  27.275  23.414  1.00  0.00     0.030 A 
ATOM     17  C   UNL A   1      31.435  28.352  23.384  1.00  0.00     0.049 A 
ATOM     18  C   UNL A   1      28.656  28.514  23.243  1.00  0.00     0.041 A 
ATOM     19  C   UNL A   1      30.807  29.596  23.236  1.00  0.00     0.023 A 
ATOM     20  Cl  UNL A   1      33.164  28.352  23.479  1.00  0.00    -0.084 Cl
ATOM     21  Cl  UNL A   1      26.940  28.609  23.144  1.00  0.00    -0.084 Cl
ATOM     22  C   UNL A   1      29.417  29.677  23.158  1.00  0.00     0.022 A 
ENDBRANCH  14  15
ENDBRANCH   5   8
ENDBRANCH   3   4
ENDBRANCH   2   3
ENDBRANCH   1   2
BRANCH   1  23
ATOM     23  C   UNL A   1      34.394  29.890  27.145  1.00  0.00     0.116 C 
BRANCH  23  24
ATOM     24  N   UNL A   1      35.151  31.082  27.480  1.00  0.00    -0.352 N 
ATOM     25  C   UNL A   1      36.373  31.140  28.132  1.00  0.00     0.251 C 
ATOM     26  H   UNL A   1      34.756  31.944  27.214  1.00  0.00     0.163 HD
ATOM     27  O   UNL A   1      36.791  32.164  28.642  1.00  0.00    -0.269 OA
BRANCH  25  28
ATOM     28  C   UNL A   1      37.224  29.928  28.065  1.00  0.00     0.039 A 
ATOM     29  C   UNL A   1      37.274  29.131  29.215  1.00  0.00     0.014 A 
ATOM     30  C   UNL A   1      38.142  29.755  27.032  1.00  0.00     0.014 A 
ATOM     31  C   UNL A   1      38.363  28.286  29.416  1.00  0.00     0.010 A 
ATOM     32  C   UNL A   1      39.257  28.967  27.265  1.00  0.00     0.010 A 
ATOM     33  C   UNL A   1      39.396  28.278  28.481  1.00  0.00    -0.014 A 
BRANCH  33  34
ATOM     34  C   UNL A   1      40.708  27.689  28.738  1.00  0.00     0.031 A 
ATOM     35  C   UNL A   1      40.957  26.251  28.474  1.00  0.00     0.074 A 
ATOM     36  C   UNL A   1      41.732  28.472  29.148  1.00  0.00     0.049 A 
ATOM     37  N   UNL A   1      42.010  25.615  28.869  1.00  0.00    -0.248 NA
ATOM     38  C   UNL A   1      39.986  25.380  27.813  1.00  0.00     0.031 C 
ATOM     39  C   UNL A   1      43.160  28.169  29.068  1.00  0.00     0.029 A 
ATOM     40  N   UNL A   1      41.677  29.628  29.924  1.00  0.00    -0.354 N 
ATOM     41  C   UNL A   1      42.003  24.380  28.269  1.00  0.00     0.074 A 
ATOM     42  C   UNL A   1      40.670  24.231  27.746  1.00  0.00     0.031 C 
ATOM     43  C   UNL A   1      43.827  28.958  29.922  1.00  0.00     0.029 A 
ATOM     44  C   UNL A   1      42.843  29.684  30.704  1.00  0.00     0.049 A 
ATOM     45  H   UNL A   1      40.948  30.290  29.923  1.00  0.00     0.167 HD
ATOM     46  C   UNL A   1      43.173  23.690  28.162  1.00  0.00     0.037 A 
ATOM     47  C   UNL A   1      42.793  29.672  32.070  1.00  0.00     0.037 A 
ATOM     48  C   UNL A   1      44.184  24.229  29.072  1.00  0.00     0.049 A 
ATOM     49  C   UNL A   1      43.464  28.480  32.716  1.00  0.00     0.074 A 
ATOM     50  C   UNL A   1      45.337  24.971  28.899  1.00  0.00     0.029 A 
ATOM     51  N   UNL A   1      43.931  24.210  30.444  1.00  0.00    -0.354 N 
ATOM     52  N   UNL A   1      43.863  27.422  32.066  1.00  0.00    -0.248 NA
ATOM     53  C   UNL A   1      43.711  28.373  34.152  1.00  0.00     0.031 C 
ATOM     54  C   UNL A   1      45.707  25.499  30.168  1.00  0.00     0.029 A 
ATOM     55  C   UNL A   1      44.811  25.033  31.117  1.00  0.00     0.049 A 
ATOM     56  H   UNL A   1      43.219  23.681  30.873  1.00  0.00     0.167 HD
ATOM     57  C   UNL A   1      44.323  26.483  32.952  1.00  0.00     0.074 A 
ATOM     58  C   UNL A   1      44.257  27.148  34.241  1.00  0.00     0.031 C 
ATOM     59  C   UNL A   1      44.687  25.226  32.558  1.00  0.00     0.037 A 
BRANCH  46  60
ATOM     60  C   UNL A   1      43.472  22.645  27.099  1.00  0.00     0.058 A 
ATOM     61  C   UNL A   1      42.767  21.418  27.081  1.00  0.00     0.135 A 
ATOM     62  C   UNL A   1      44.534  22.718  26.168  1.00  0.00     0.135 A 
ATOM     63  F   UNL A   1      41.748  21.195  27.923  1.00  0.00    -0.206 F 
ATOM     64  C   UNL A   1      43.101  20.357  26.228  1.00  0.00     0.059 A 
ATOM     65  C   UNL A   1      44.850  21.693  25.274  1.00  0.00     0.059 A 
ATOM     66  F   UNL A   1      45.378  23.754  26.122  1.00  0.00    -0.206 F 
ATOM     67  C   UNL A   1      44.150  20.502  25.328  1.00  0.00     0.060 A 
BRANCH  67  68
ATOM     68  S   UNL A   1      44.621  19.130  24.258  1.00  0.00     0.124 S 
ATOM     69  O   UNL A   1      43.682  18.092  24.670  1.00  0.00    -0.237 OA
ATOM     70  O   UNL A   1      44.417  19.682  22.923  1.00  0.00    -0.237 OA
ATOM     71  O   UNL A   1      46.016  18.884  24.618  1.00  0.00    -0.744 OA
ENDBRANCH  67  68
ENDBRANCH  46  60
BRANCH  47  72
ATOM     72  C   UNL A   1      41.623  30.408  32.620  1.00  0.00     0.058 A 
ATOM     73  C   UNL A   1      40.492  29.646  32.966  1.00  0.00     0.135 A 
ATOM     74  C   UNL A   1      41.774  31.665  33.222  1.00  0.00     0.135 A 
ATOM     75  F   UNL A   1      40.289  28.448  32.395  1.00  0.00    -0.206 F 
ATOM     76  C   UNL A   1      39.652  30.025  34.005  1.00  0.00     0.059 A 
ATOM     77  C   UNL A   1      40.939  32.068  34.265  1.00  0.00     0.059 A 
ATOM     78  F   UNL A   1      42.829  32.437  32.920  1.00  0.00    -0.206 F 
ATOM     79  C   UNL A   1      39.936  31.199  34.699  1.00  0.00     0.060 A 
BRANCH  79  80
ATOM     80  S   UNL A   1      39.117  31.447  36.292  1.00  0.00     0.124 S 
ATOM     81  O   UNL A   1      40.236  31.791  37.162  1.00  0.00    -0.237 OA
ATOM     82  O   UNL A   1      38.203  32.544  35.974  1.00  0.00    -0.237 OA
ATOM     83  O   UNL A   1      38.490  30.156  36.547  1.00  0.00    -0.744 OA
ENDBRANCH  79  80
ENDBRANCH  47  72
BRANCH  59  84
ATOM     84  C   UNL A   1      45.007  24.080  33.490  1.00  0.00     0.058 A 
ATOM     85  C   UNL A   1      44.104  23.054  33.820  1.00  0.00     0.135 A 
ATOM     86  C   UNL A   1      46.320  23.917  33.992  1.00  0.00     0.135 A 
ATOM     87  F   UNL A   1      42.865  23.027  33.308  1.00  0.00    -0.206 F 
ATOM     88  C   UNL A   1      44.447  21.988  34.655  1.00  0.00     0.059 A 
ATOM     89  C   UNL A   1      46.701  22.832  34.782  1.00  0.00     0.059 A 
ATOM     90  F   UNL A   1      47.284  24.811  33.723  1.00  0.00    -0.206 F 
ATOM     91  C   UNL A   1      45.748  21.887  35.136  1.00  0.00     0.060 A 
BRANCH  91  92
ATOM     92  S   UNL A   1      46.224  20.492  36.176  1.00  0.00     0.124 S 
ATOM     93  O   UNL A   1      45.710  20.909  37.477  1.00  0.00    -0.237 OA
ATOM     94  O   UNL A   1      45.529  19.367  35.557  1.00  0.00    -0.237 OA
ATOM     95  O   UNL A   1      47.678  20.468  36.047  1.00  0.00    -0.744 OA
ENDBRANCH  91  92
ENDBRANCH  59  84
ENDBRANCH  33  34
ENDBRANCH  25  28
ENDBRANCH  23  24
ENDBRANCH   1  23
TORSDOF 15
ENDMDL
MODEL 2
REMARK VINA RESULT:     -14.0      1.462      2.879
REMARK SMILES Cc1ccc(-c2cc(Cl)ccc2Cl)c(C(=O)NCCCCNC(=O)c2ccc(-c3c4nc(c(-c5c(F)cc(S(=O)(=O)[O-])cc5F)c5ccc([nH]5)c(-c5c(F)cc(S(=O)(=O)[O-])cc5F)c5nc(c(-c6c(F)cc(S(=O)(=O)[O-])cc6F)c6ccc3[nH]6)C=C5)C=C4)cc2)c1
REMARK SMILES IDX 20 1 19 2 18 3 17 4 15 5 16 6 14 8 1 9 2 10 3 11 91 12 4 13
REMARK SMILES IDX 5 14 6 15 7 16 12 17 8 18 11 19 13 20 9 21 10 22 21 23 22 24
REMARK SMILES IDX 23 25 24 27 25 28 26 29 90 30 27 31 89 32 28 33 29 34 30 35
REMARK SMILES IDX 83 36 31 37 88 38 82 39 84 40 32 41 87 42 81 43 80 44 33 46
REMARK SMILES IDX 67 47 46 48 66 49 47 50 50 51 65 52 85 53 48 54 49 55 64 57
REMARK SMILES IDX 86 58 51 59 34 60 35 61 44 62 36 63 37 64 43 65 45 66 38 67
REMARK SMILES IDX 39 68 40 69 41 70 42 71 68 72 69 73 78 74 70 75 71 76 77 77
REMARK SMILES IDX 79 78 72 79 73 80 74 81 75 82 76 83 52 84 53 85 62 86 54 87
REMARK SMILES IDX 55 88 61 89 63 90 56 91 57 92 58 93 59 94 60 95
REMARK H PARENT 17 7 22 26 84 45 50 56
REMARK Flexibility Score: inf
ROOT
ATOM      1  C   UNL A   1      33.055  30.112  27.189  1.00  0.00     0.023 C 
ENDROOT
BRANCH   1   2
ATOM      2  C   UNL A   1      32.198  28.838  27.211  1.00  0.00     0.023 C 
BRANCH   2   3
ATOM      3  C   UNL A   1      32.795  27.647  26.441  1.00  0.00     0.116 C 
BRANCH   3   4
ATOM      4  N   UNL A   1      33.174  27.996  25.079  1.00  0.00    -0.352 N 
ATOM      5  C   UNL A   1      32.526  28.339  23.919  1.00  0.00     0.251 C 
ATOM      6  O   UNL A   1      33.286  28.622  22.990  1.00  0.00    -0.269 OA
ATOM      7  H   UNL A   1      34.152  27.985  24.960  1.00  0.00     0.163 HD
BRANCH   5   8
ATOM      8  C   UNL A   1      31.028  28.389  23.720  1.00  0.00     0.047 A 
ATOM      9  C   UNL A   1      28.303  31.036  23.209  1.00  0.00     0.044 C 
ATOM     10  C   UNL A   1      28.968  29.700  23.363  1.00  0.00    -0.050 A 
ATOM     11  C   UNL A   1      28.227  28.531  23.263  1.00  0.00     0.004 A 
ATOM     12  C   UNL A   1      30.346  29.614  23.621  1.00  0.00     0.018 A 
ATOM     13  C   UNL A   1      28.858  27.301  23.419  1.00  0.00     0.010 A 
ATOM     14  C   UNL A   1      30.253  27.195  23.643  1.00  0.00    -0.004 A 
BRANCH  14  15
ATOM     15  C   UNL A   1      30.780  25.819  23.819  1.00  0.00     0.003 A 
ATOM     16  C   UNL A   1      30.495  25.122  25.012  1.00  0.00     0.030 A 
ATOM     17  C   UNL A   1      31.512  25.139  22.824  1.00  0.00     0.049 A 
ATOM     18  C   UNL A   1      30.957  23.821  25.215  1.00  0.00     0.041 A 
ATOM     19  C   UNL A   1      31.953  23.824  23.024  1.00  0.00     0.023 A 
ATOM     20  Cl  UNL A   1      31.890  25.871  21.300  1.00  0.00    -0.084 Cl
ATOM     21  Cl  UNL A   1      30.623  23.013  26.699  1.00  0.00    -0.084 Cl
ATOM     22  C   UNL A   1      31.681  23.166  24.223  1.00  0.00     0.022 A 
ENDBRANCH  14  15
ENDBRANCH   5   8
ENDBRANCH   3   4
ENDBRANCH   2   3
ENDBRANCH   1   2
BRANCH   1  23
ATOM     23  C   UNL A   1      34.510  29.871  27.575  1.00  0.00     0.116 C 
BRANCH  23  24
ATOM     24  N   UNL A   1      35.301  31.074  27.756  1.00  0.00    -0.352 N 
ATOM     25  C   UNL A   1      36.559  31.168  28.330  1.00  0.00     0.251 C 
ATOM     26  H   UNL A   1      34.902  31.915  27.435  1.00  0.00     0.163 HD
ATOM     27  O   UNL A   1      37.020  32.227  28.719  1.00  0.00    -0.269 OA
BRANCH  25  28
ATOM     28  C   UNL A   1      37.389  29.940  28.327  1.00  0.00     0.039 A 
ATOM     29  C   UNL A   1      37.479  29.239  29.535  1.00  0.00     0.014 A 
ATOM     30  C   UNL A   1      38.258  29.667  27.273  1.00  0.00     0.014 A 
ATOM     31  C   UNL A   1      38.562  28.393  29.758  1.00  0.00     0.010 A 
ATOM     32  C   UNL A   1      39.370  28.881  27.522  1.00  0.00     0.010 A 
ATOM     33  C   UNL A   1      39.553  28.291  28.784  1.00  0.00    -0.014 A 
BRANCH  33  34
ATOM     34  C   UNL A   1      40.867  27.701  29.032  1.00  0.00     0.031 A 
ATOM     35  C   UNL A   1      41.136  26.282  28.695  1.00  0.00     0.074 A 
ATOM     36  C   UNL A   1      41.875  28.470  29.503  1.00  0.00     0.049 A 
ATOM     37  N   UNL A   1      42.188  25.635  29.073  1.00  0.00    -0.248 NA
ATOM     38  C   UNL A   1      40.185  25.439  27.969  1.00  0.00     0.031 C 
ATOM     39  C   UNL A   1      43.307  28.186  29.433  1.00  0.00     0.029 A 
ATOM     40  N   UNL A   1      41.793  29.581  30.340  1.00  0.00    -0.354 N 
ATOM     41  C   UNL A   1      42.205  24.435  28.406  1.00  0.00     0.074 A 
ATOM     42  C   UNL A   1      40.883  24.302  27.852  1.00  0.00     0.031 C 
ATOM     43  C   UNL A   1      43.950  28.933  30.341  1.00  0.00     0.029 A 
ATOM     44  C   UNL A   1      42.945  29.606  31.144  1.00  0.00     0.049 A 
ATOM     45  H   UNL A   1      41.058  30.235  30.363  1.00  0.00     0.167 HD
ATOM     46  C   UNL A   1      43.383  23.764  28.284  1.00  0.00     0.037 A 
ATOM     47  C   UNL A   1      42.871  29.518  32.505  1.00  0.00     0.037 A 
ATOM     48  C   UNL A   1      44.372  24.262  29.240  1.00  0.00     0.049 A 
ATOM     49  C   UNL A   1      43.543  28.299  33.097  1.00  0.00     0.074 A 
ATOM     50  C   UNL A   1      45.521  25.023  29.130  1.00  0.00     0.029 A 
ATOM     51  N   UNL A   1      44.095  24.165  30.604  1.00  0.00    -0.354 N 
ATOM     52  N   UNL A   1      43.965  27.282  32.398  1.00  0.00    -0.248 NA
ATOM     53  C   UNL A   1      43.765  28.116  34.531  1.00  0.00     0.031 C 
ATOM     54  C   UNL A   1      45.862  25.484  30.432  1.00  0.00     0.029 A 
ATOM     55  C   UNL A   1      44.954  24.958  31.337  1.00  0.00     0.049 A 
ATOM     56  H   UNL A   1      43.382  23.606  30.991  1.00  0.00     0.167 HD
ATOM     57  C   UNL A   1      44.419  26.301  33.240  1.00  0.00     0.074 A 
ATOM     58  C   UNL A   1      44.323  26.893  34.562  1.00  0.00     0.031 C 
ATOM     59  C   UNL A   1      44.803  25.071  32.784  1.00  0.00     0.037 A 
BRANCH  46  60
ATOM     60  C   UNL A   1      43.712  22.781  27.170  1.00  0.00     0.058 A 
ATOM     61  C   UNL A   1      43.053  21.532  27.098  1.00  0.00     0.135 A 
ATOM     62  C   UNL A   1      44.765  22.937  26.239  1.00  0.00     0.135 A 
ATOM     63  F   UNL A   1      42.048  21.232  27.935  1.00  0.00    -0.206 F 
ATOM     64  C   UNL A   1      43.419  20.525  26.194  1.00  0.00     0.059 A 
ATOM     65  C   UNL A   1      45.111  21.968  25.295  1.00  0.00     0.059 A 
ATOM     66  F   UNL A   1      45.570  24.004  26.237  1.00  0.00    -0.206 F 
ATOM     67  C   UNL A   1      44.455  20.751  25.296  1.00  0.00     0.060 A 
BRANCH  67  68
ATOM     68  S   UNL A   1      44.968  19.449  24.160  1.00  0.00     0.124 S 
ATOM     69  O   UNL A   1      44.489  19.961  22.881  1.00  0.00    -0.237 OA
ATOM     70  O   UNL A   1      46.416  19.425  24.336  1.00  0.00    -0.237 OA
ATOM     71  O   UNL A   1      44.266  18.268  24.659  1.00  0.00    -0.744 OA
ENDBRANCH  67  68
ENDBRANCH  46  60
BRANCH  47  72
ATOM     72  C   UNL A   1      41.683  30.211  33.073  1.00  0.00     0.058 A 
ATOM     73  C   UNL A   1      41.757  31.611  33.196  1.00  0.00     0.135 A 
ATOM     74  C   UNL A   1      40.410  29.625  33.029  1.00  0.00     0.135 A 
ATOM     75  F   UNL A   1      42.953  32.216  33.269  1.00  0.00    -0.206 F 
ATOM     76  C   UNL A   1      40.627  32.410  33.084  1.00  0.00     0.059 A 
ATOM     77  C   UNL A   1      39.261  30.409  32.922  1.00  0.00     0.059 A 
ATOM     78  F   UNL A   1      40.283  28.294  32.923  1.00  0.00    -0.206 F 
ATOM     79  C   UNL A   1      39.395  31.797  32.866  1.00  0.00     0.060 A 
BRANCH  79  80
ATOM     80  S   UNL A   1      38.033  32.841  32.295  1.00  0.00     0.124 S 
ATOM     81  O   UNL A   1      38.653  33.584  31.205  1.00  0.00    -0.237 OA
ATOM     82  O   UNL A   1      37.051  31.833  31.895  1.00  0.00    -0.237 OA
ATOM     83  O   UNL A   1      37.691  33.619  33.479  1.00  0.00    -0.744 OA
ENDBRANCH  79  80
ENDBRANCH  47  72
BRANCH  59  84
ATOM     84  C   UNL A   1      45.119  23.878  33.658  1.00  0.00     0.058 A 
ATOM     85  C   UNL A   1      44.176  22.906  34.039  1.00  0.00     0.135 A 
ATOM     86  C   UNL A   1      46.454  23.612  34.043  1.00  0.00     0.135 A 
ATOM     87  F   UNL A   1      42.900  22.978  33.633  1.00  0.00    -0.206 F 
ATOM     88  C   UNL A   1      44.513  21.795  34.815  1.00  0.00     0.059 A 
ATOM     89  C   UNL A   1      46.822  22.481  34.771  1.00  0.00     0.059 A 
ATOM     90  F   UNL A   1      47.452  24.446  33.715  1.00  0.00    -0.206 F 
ATOM     91  C   UNL A   1      45.839  21.591  35.182  1.00  0.00     0.060 A 
BRANCH  91  92
ATOM     92  S   UNL A   1      46.301  20.137  36.144  1.00  0.00     0.124 S 
ATOM     93  O   UNL A   1      47.757  20.179  36.053  1.00  0.00    -0.237 OA
ATOM     94  O   UNL A   1      45.745  20.424  37.464  1.00  0.00    -0.237 OA
ATOM     95  O   UNL A   1      45.651  19.047  35.423  1.00  0.00    -0.744 OA
ENDBRANCH  91  92
ENDBRANCH  59  84
ENDBRANCH  33  34
ENDBRANCH  25  28
ENDBRANCH  23  24
ENDBRANCH   1  23
TORSDOF 15
ENDMDL
MODEL 3
REMARK VINA RESULT:     -13.9      5.165     11.379
REMARK SMILES Cc1ccc(-c2cc(Cl)ccc2Cl)c(C(=O)NCCCCNC(=O)c2ccc(-c3c4nc(c(-c5c(F)cc(S(=O)(=O)[O-])cc5F)c5ccc([nH]5)c(-c5c(F)cc(S(=O)(=O)[O-])cc5F)c5nc(c(-c6c(F)cc(S(=O)(=O)[O-])cc6F)c6ccc3[nH]6)C=C5)C=C4)cc2)c1
REMARK SMILES IDX 20 1 19 2 18 3 17 4 15 5 16 6 14 8 1 9 2 10 3 11 91 12 4 13
REMARK SMILES IDX 5 14 6 15 7 16 12 17 8 18 11 19 13 20 9 21 10 22 21 23 22 24
REMARK SMILES IDX 23 25 24 27 25 28 26 29 90 30 27 31 89 32 28 33 29 34 30 35
REMARK SMILES IDX 83 36 31 37 88 38 82 39 84 40 32 41 87 42 81 43 80 44 33 46
REMARK SMILES IDX 67 47 46 48 66 49 47 50 50 51 65 52 85 53 48 54 49 55 64 57
REMARK SMILES IDX 86 58 51 59 34 60 35 61 44 62 36 63 37 64 43 65 45 66 38 67
REMARK SMILES IDX 39 68 40 69 41 70 42 71 68 72 69 73 78 74 70 75 71 76 77 77
REMARK SMILES IDX 79 78 72 79 73 80 74 81 75 82 76 83 52 84 53 85 62 86 54 87
REMARK SMILES IDX 55 88 61 89 63 90 56 91 57 92 58 93 59 94 60 95
REMARK H PARENT 17 7 22 26 84 45 50 56
REMARK Flexibility Score: inf
ROOT
ATOM      1  C   UNL A   1      37.711  22.224  25.212  1.00  0.00     0.023 C 
ENDROOT
BRANCH   1   2
ATOM      2  C   UNL A   1      36.743  22.699  24.119  1.00  0.00     0.023 C 
BRANCH   2   3
ATOM      3  C   UNL A   1      35.541  23.511  24.631  1.00  0.00     0.116 C 
BRANCH   3   4
ATOM      4  N   UNL A   1      34.884  22.879  25.767  1.00  0.00    -0.352 N 
ATOM      5  C   UNL A   1      34.083  21.784  25.974  1.00  0.00     0.251 C 
ATOM      6  O   UNL A   1      33.802  21.590  27.159  1.00  0.00    -0.269 OA
ATOM      7  H   UNL A   1      35.060  23.364  26.606  1.00  0.00     0.163 HD
BRANCH   5   8
ATOM      8  C   UNL A   1      33.557  20.853  24.905  1.00  0.00     0.047 A 
ATOM      9  C   UNL A   1      33.924  17.175  23.888  1.00  0.00     0.044 C 
ATOM     10  C   UNL A   1      33.469  18.605  23.891  1.00  0.00    -0.050 A 
ATOM     11  C   UNL A   1      32.534  19.045  22.965  1.00  0.00     0.004 A 
ATOM     12  C   UNL A   1      33.989  19.517  24.823  1.00  0.00     0.018 A 
ATOM     13  C   UNL A   1      32.131  20.377  22.975  1.00  0.00     0.010 A 
ATOM     14  C   UNL A   1      32.618  21.302  23.931  1.00  0.00    -0.004 A 
BRANCH  14  15
ATOM     15  C   UNL A   1      32.120  22.694  23.800  1.00  0.00     0.003 A 
ATOM     16  C   UNL A   1      32.560  23.482  22.716  1.00  0.00     0.030 A 
ATOM     17  C   UNL A   1      31.175  23.262  24.680  1.00  0.00     0.049 A 
ATOM     18  C   UNL A   1      32.107  24.790  22.543  1.00  0.00     0.041 A 
ATOM     19  C   UNL A   1      30.706  24.569  24.489  1.00  0.00     0.023 A 
ATOM     20  Cl  UNL A   1      30.527  22.384  26.024  1.00  0.00    -0.084 Cl
ATOM     21  Cl  UNL A   1      32.694  25.735  21.230  1.00  0.00    -0.084 Cl
ATOM     22  C   UNL A   1      31.177  25.336  23.424  1.00  0.00     0.022 A 
ENDBRANCH  14  15
ENDBRANCH   5   8
ENDBRANCH   3   4
ENDBRANCH   2   3
ENDBRANCH   1   2
BRANCH   1  23
ATOM     23  C   UNL A   1      38.190  23.346  26.127  1.00  0.00     0.116 C 
BRANCH  23  24
ATOM     24  N   UNL A   1      39.343  23.016  26.946  1.00  0.00    -0.352 N 
ATOM     25  C   UNL A   1      40.220  23.904  27.549  1.00  0.00     0.251 C 
ATOM     26  H   UNL A   1      39.521  22.059  27.088  1.00  0.00     0.163 HD
ATOM     27  O   UNL A   1      41.316  23.561  27.955  1.00  0.00    -0.269 OA
BRANCH  25  28
ATOM     28  C   UNL A   1      39.711  25.271  27.811  1.00  0.00     0.039 A 
ATOM     29  C   UNL A   1      40.187  26.289  26.976  1.00  0.00     0.014 A 
ATOM     30  C   UNL A   1      39.037  25.570  28.993  1.00  0.00     0.014 A 
ATOM     31  C   UNL A   1      40.156  27.609  27.418  1.00  0.00     0.010 A 
ATOM     32  C   UNL A   1      39.070  26.873  29.460  1.00  0.00     0.010 A 
ATOM     33  C   UNL A   1      39.682  27.883  28.700  1.00  0.00    -0.014 A 
BRANCH  33  34
ATOM     34  C   UNL A   1      39.895  29.158  29.381  1.00  0.00     0.031 A 
ATOM     35  C   UNL A   1      38.912  30.260  29.250  1.00  0.00     0.074 A 
ATOM     36  C   UNL A   1      40.959  29.316  30.201  1.00  0.00     0.049 A 
ATOM     37  N   UNL A   1      39.128  31.473  29.639  1.00  0.00    -0.248 NA
ATOM     38  C   UNL A   1      37.622  30.105  28.578  1.00  0.00     0.031 C 
ATOM     39  C   UNL A   1      41.122  30.323  31.249  1.00  0.00     0.029 A 
ATOM     40  N   UNL A   1      42.214  28.720  30.110  1.00  0.00    -0.354 N 
ATOM     41  C   UNL A   1      37.940  32.157  29.561  1.00  0.00     0.074 A 
ATOM     42  C   UNL A   1      37.081  31.315  28.769  1.00  0.00     0.031 C 
ATOM     43  C   UNL A   1      42.422  30.436  31.552  1.00  0.00     0.029 A 
ATOM     44  C   UNL A   1      43.165  29.629  30.602  1.00  0.00     0.049 A 
ATOM     45  H   UNL A   1      42.402  27.818  29.763  1.00  0.00     0.167 HD
ATOM     46  C   UNL A   1      37.780  33.291  30.297  1.00  0.00     0.037 A 
ATOM     47  C   UNL A   1      44.171  30.111  29.813  1.00  0.00     0.037 A 
ATOM     48  C   UNL A   1      39.071  33.805  30.755  1.00  0.00     0.049 A 
ATOM     49  C   UNL A   1      44.139  31.607  29.590  1.00  0.00     0.074 A 
ATOM     50  C   UNL A   1      39.708  33.853  31.981  1.00  0.00     0.029 A 
ATOM     51  N   UNL A   1      40.021  34.178  29.804  1.00  0.00    -0.354 N 
ATOM     52  N   UNL A   1      43.133  32.374  29.909  1.00  0.00    -0.248 NA
ATOM     53  C   UNL A   1      45.226  32.354  28.961  1.00  0.00     0.031 C 
ATOM     54  C   UNL A   1      41.082  34.141  31.745  1.00  0.00     0.029 A 
ATOM     55  C   UNL A   1      41.265  34.322  30.383  1.00  0.00     0.049 A 
ATOM     56  H   UNL A   1      39.828  34.320  28.849  1.00  0.00     0.167 HD
ATOM     57  C   UNL A   1      43.372  33.651  29.475  1.00  0.00     0.074 A 
ATOM     58  C   UNL A   1      44.719  33.598  28.936  1.00  0.00     0.031 C 
ATOM     59  C   UNL A   1      42.430  34.638  29.563  1.00  0.00     0.037 A 
BRANCH  46  60
ATOM     60  C   UNL A   1      36.442  33.840  30.770  1.00  0.00     0.058 A 
ATOM     61  C   UNL A   1      35.517  34.371  29.841  1.00  0.00     0.135 A 
ATOM     62  C   UNL A   1      36.071  34.014  32.123  1.00  0.00     0.135 A 
ATOM     63  F   UNL A   1      35.745  34.300  28.522  1.00  0.00    -0.206 F 
ATOM     64  C   UNL A   1      34.341  35.029  30.225  1.00  0.00     0.059 A 
ATOM     65  C   UNL A   1      34.880  34.619  32.527  1.00  0.00     0.059 A 
ATOM     66  F   UNL A   1      36.876  33.677  33.137  1.00  0.00    -0.206 F 
ATOM     67  C   UNL A   1      34.031  35.153  31.574  1.00  0.00     0.060 A 
BRANCH  67  68
ATOM     68  S   UNL A   1      32.547  36.038  32.085  1.00  0.00     0.124 S 
ATOM     69  O   UNL A   1      31.705  34.953  32.577  1.00  0.00    -0.237 OA
ATOM     70  O   UNL A   1      33.056  36.959  33.096  1.00  0.00    -0.237 OA
ATOM     71  O   UNL A   1      32.087  36.670  30.849  1.00  0.00    -0.744 OA
ENDBRANCH  67  68
ENDBRANCH  46  60
BRANCH  47  72
ATOM     72  C   UNL A   1      44.692  29.105  28.848  1.00  0.00     0.058 A 
ATOM     73  C   UNL A   1      44.171  29.140  27.542  1.00  0.00     0.135 A 
ATOM     74  C   UNL A   1      45.942  28.497  29.038  1.00  0.00     0.135 A 
ATOM     75  F   UNL A   1      42.966  29.687  27.315  1.00  0.00    -0.206 F 
ATOM     76  C   UNL A   1      44.936  28.766  26.445  1.00  0.00     0.059 A 
ATOM     77  C   UNL A   1      46.725  28.110  27.950  1.00  0.00     0.059 A 
ATOM     78  F   UNL A   1      46.480  28.428  30.264  1.00  0.00    -0.206 F 
ATOM     79  C   UNL A   1      46.241  28.328  26.659  1.00  0.00     0.060 A 
BRANCH  79  80
ATOM     80  S   UNL A   1      47.346  28.267  25.229  1.00  0.00     0.124 S 
ATOM     81  O   UNL A   1      48.592  28.788  25.781  1.00  0.00    -0.237 OA
ATOM     82  O   UNL A   1      47.340  26.836  24.926  1.00  0.00    -0.237 OA
ATOM     83  O   UNL A   1      46.678  29.121  24.256  1.00  0.00    -0.744 OA
ENDBRANCH  79  80
ENDBRANCH  47  72
BRANCH  59  84
ATOM     84  C   UNL A   1      42.541  36.006  28.928  1.00  0.00     0.058 A 
ATOM     85  C   UNL A   1      43.327  37.053  29.441  1.00  0.00     0.135 A 
ATOM     86  C   UNL A   1      41.935  36.260  27.675  1.00  0.00     0.135 A 
ATOM     87  F   UNL A   1      44.052  36.896  30.558  1.00  0.00    -0.206 F 
ATOM     88  C   UNL A   1      43.438  38.292  28.806  1.00  0.00     0.059 A 
ATOM     89  C   UNL A   1      42.076  37.470  26.995  1.00  0.00     0.059 A 
ATOM     90  F   UNL A   1      41.185  35.330  27.064  1.00  0.00    -0.206 F 
ATOM     91  C   UNL A   1      42.805  38.495  27.584  1.00  0.00     0.060 A 
BRANCH  91  92
ATOM     92  S   UNL A   1      42.975  40.071  26.724  1.00  0.00     0.124 S 
ATOM     93  O   UNL A   1      43.124  40.998  27.843  1.00  0.00    -0.237 OA
ATOM     94  O   UNL A   1      44.170  39.875  25.909  1.00  0.00    -0.237 OA
ATOM     95  O   UNL A   1      41.726  40.174  25.977  1.00  0.00    -0.744 OA
ENDBRANCH  91  92
ENDBRANCH  59  84
ENDBRANCH  33  34
ENDBRANCH  25  28
ENDBRANCH  23  24
ENDBRANCH   1  23
TORSDOF 15
ENDMDL
