MODEL 1
REMARK VINA RESULT:     -12.3      0.000      0.000
REMARK SMILES CC(=O)N[C@@H](Cc1c(C)[nH]c2ccccc2c1=O)C(=O)NCCCCNC(=O)c1ccc(-c2c3nc(c(-c4c(F)cc(S(=O)(=O)[O-])cc4F)c4ccc([nH]4)c(-c4c(F)cc(S(=O)(=O)[O-])cc4F)c4nc(c(-c5c(F)cc(S(=O)(=O)[O-])cc5F)c5ccc2[nH]5)C=C4)C=C3)cc1
REMARK SMILES IDX 24 1 23 2 22 3 21 4 19 5 20 6 5 8 4 9 1 10 2 11 3 12 6 14
REMARK SMILES IDX 7 15 8 16 17 17 9 18 10 19 16 20 18 21 11 22 15 24 12 25
REMARK SMILES IDX 14 26 13 27 25 28 26 29 27 30 28 32 29 33 30 34 94 35 31 36
REMARK SMILES IDX 93 37 32 38 33 39 34 40 87 41 35 42 92 43 86 44 88 45 36 46
REMARK SMILES IDX 91 47 85 48 84 49 37 51 71 52 50 53 70 54 51 55 54 56 69 57
REMARK SMILES IDX 89 58 52 59 53 60 68 62 90 63 55 64 38 65 39 66 48 67 40 68
REMARK SMILES IDX 41 69 47 70 49 71 42 72 43 73 44 74 45 75 46 76 72 77 73 78
REMARK SMILES IDX 82 79 74 80 75 81 81 82 83 83 76 84 77 85 78 86 79 87 80 88
REMARK SMILES IDX 56 89 57 90 66 91 58 92 59 93 65 94 67 95 60 96 61 97 62 98
REMARK SMILES IDX 63 99 64 100
REMARK H PARENT 21 7 4 13 10 23 26 31 88 50 54 61
REMARK Flexibility Score: inf
ROOT
ATOM      1  C   UNL A   1      32.259  28.672  26.855  1.00  0.00     0.023 C 
ENDROOT
BRANCH   1   2
ATOM      2  C   UNL A   1      32.162  27.672  25.710  1.00  0.00     0.023 C 
BRANCH   2   3
ATOM      3  C   UNL A   1      33.431  26.908  25.377  1.00  0.00     0.116 C 
BRANCH   3   4
ATOM      4  N   UNL A   1      33.659  26.635  23.982  1.00  0.00    -0.354 N 
ATOM      5  C   UNL A   1      33.885  25.425  23.387  1.00  0.00     0.242 C 
ATOM      6  O   UNL A   1      33.747  25.369  22.159  1.00  0.00    -0.273 OA
ATOM      7  H   UNL A   1      33.650  27.415  23.383  1.00  0.00     0.163 HD
BRANCH   5   8
ATOM      8  C   UNL A   1      34.249  24.135  24.178  1.00  0.00     0.175 C 
BRANCH   8   9
ATOM      9  N   UNL A   1      35.509  24.232  24.910  1.00  0.00    -0.344 N 
ATOM     10  C   UNL A   1      36.653  22.366  23.772  1.00  0.00     0.114 C 
ATOM     11  C   UNL A   1      36.647  23.498  24.764  1.00  0.00     0.217 C 
ATOM     12  O   UNL A   1      37.634  23.746  25.454  1.00  0.00    -0.275 OA
ATOM     13  H   UNL A   1      35.541  24.926  25.608  1.00  0.00     0.164 HD
ENDBRANCH   8   9
BRANCH   8  14
ATOM     14  C   UNL A   1      33.101  23.424  24.953  1.00  0.00     0.076 C 
BRANCH  14  15
ATOM     15  C   UNL A   1      33.026  21.915  25.127  1.00  0.00     0.022 A 
ATOM     16  C   UNL A   1      33.365  21.212  26.236  1.00  0.00     0.019 A 
ATOM     17  C   UNL A   1      32.453  21.111  23.987  1.00  0.00     0.192 A 
ATOM     18  C   UNL A   1      33.776  21.851  27.543  1.00  0.00     0.064 C 
ATOM     19  N   UNL A   1      33.347  19.829  26.277  1.00  0.00    -0.358 N 
ATOM     20  C   UNL A   1      32.655  19.648  23.974  1.00  0.00     0.046 A 
ATOM     21  O   UNL A   1      31.905  21.652  23.032  1.00  0.00    -0.289 OA
ATOM     22  C   UNL A   1      33.081  19.041  25.156  1.00  0.00     0.049 A 
ATOM     23  H   UNL A   1      33.530  19.381  27.135  1.00  0.00     0.166 HD
ATOM     24  C   UNL A   1      32.474  18.908  22.800  1.00  0.00     0.014 A 
ATOM     25  C   UNL A   1      33.295  17.663  25.164  1.00  0.00     0.027 A 
ATOM     26  C   UNL A   1      32.713  17.537  22.812  1.00  0.00     0.001 A 
ATOM     27  C   UNL A   1      33.107  16.915  23.997  1.00  0.00     0.002 A 
ENDBRANCH  14  15
ENDBRANCH   8  14
ENDBRANCH   5   8
ENDBRANCH   3   4
ENDBRANCH   2   3
ENDBRANCH   1   2
BRANCH   1  28
ATOM     28  C   UNL A   1      33.659  29.143  27.242  1.00  0.00     0.116 C 
BRANCH  28  29
ATOM     29  N   UNL A   1      33.725  30.390  27.997  1.00  0.00    -0.352 N 
ATOM     30  C   UNL A   1      34.807  30.928  28.678  1.00  0.00     0.251 C 
ATOM     31  H   UNL A   1      32.895  30.918  28.027  1.00  0.00     0.163 HD
ATOM     32  O   UNL A   1      34.720  31.977  29.286  1.00  0.00    -0.269 OA
BRANCH  30  33
ATOM     33  C   UNL A   1      36.073  30.165  28.719  1.00  0.00     0.039 A 
ATOM     34  C   UNL A   1      36.508  29.573  29.902  1.00  0.00     0.014 A 
ATOM     35  C   UNL A   1      36.881  30.156  27.577  1.00  0.00     0.014 A 
ATOM     36  C   UNL A   1      37.838  29.192  30.014  1.00  0.00     0.010 A 
ATOM     37  C   UNL A   1      38.190  29.680  27.666  1.00  0.00     0.010 A 
ATOM     38  C   UNL A   1      38.701  29.276  28.908  1.00  0.00    -0.014 A 
BRANCH  38  39
ATOM     39  C   UNL A   1      40.148  29.007  29.101  1.00  0.00     0.031 A 
ATOM     40  C   UNL A   1      40.738  27.682  28.688  1.00  0.00     0.074 A 
ATOM     41  C   UNL A   1      40.942  29.997  29.546  1.00  0.00     0.049 A 
ATOM     42  N   UNL A   1      41.985  27.285  28.733  1.00  0.00    -0.248 NA
ATOM     43  C   UNL A   1      39.811  26.666  28.159  1.00  0.00     0.031 C 
ATOM     44  C   UNL A   1      40.478  31.328  29.947  1.00  0.00     0.029 A 
ATOM     45  N   UNL A   1      42.303  30.061  29.692  1.00  0.00    -0.354 N 
ATOM     46  C   UNL A   1      41.988  25.976  28.264  1.00  0.00     0.074 A 
ATOM     47  C   UNL A   1      40.617  25.632  27.961  1.00  0.00     0.031 C 
ATOM     48  C   UNL A   1      41.540  32.101  30.215  1.00  0.00     0.029 A 
ATOM     49  C   UNL A   1      42.754  31.304  30.069  1.00  0.00     0.049 A 
ATOM     50  H   UNL A   1      42.899  29.293  29.541  1.00  0.00     0.167 HD
ATOM     51  C   UNL A   1      43.041  25.141  28.093  1.00  0.00     0.037 A 
ATOM     52  C   UNL A   1      44.006  31.752  30.275  1.00  0.00     0.037 A 
ATOM     53  C   UNL A   1      44.407  25.503  28.369  1.00  0.00     0.049 A 
ATOM     54  C   UNL A   1      45.154  30.804  30.096  1.00  0.00     0.074 A 
ATOM     55  C   UNL A   1      45.548  24.731  28.240  1.00  0.00     0.029 A 
ATOM     56  N   UNL A   1      44.817  26.750  28.819  1.00  0.00    -0.354 N 
ATOM     57  N   UNL A   1      45.132  29.555  29.694  1.00  0.00    -0.248 NA
ATOM     58  C   UNL A   1      46.493  31.314  30.417  1.00  0.00     0.031 C 
ATOM     59  C   UNL A   1      46.645  25.505  28.637  1.00  0.00     0.029 A 
ATOM     60  C   UNL A   1      46.192  26.767  28.982  1.00  0.00     0.049 A 
ATOM     61  H   UNL A   1      44.217  27.511  28.996  1.00  0.00     0.167 HD
ATOM     62  C   UNL A   1      46.453  29.126  29.722  1.00  0.00     0.074 A 
ATOM     63  C   UNL A   1      47.250  30.257  30.154  1.00  0.00     0.031 C 
ATOM     64  C   UNL A   1      46.959  27.903  29.428  1.00  0.00     0.037 A 
BRANCH  51  65
ATOM     65  C   UNL A   1      42.756  23.750  27.597  1.00  0.00     0.058 A 
ATOM     66  C   UNL A   1      42.695  23.452  26.227  1.00  0.00     0.135 A 
ATOM     67  C   UNL A   1      42.569  22.693  28.503  1.00  0.00     0.135 A 
ATOM     68  F   UNL A   1      42.848  24.428  25.317  1.00  0.00    -0.206 F 
ATOM     69  C   UNL A   1      42.435  22.163  25.772  1.00  0.00     0.059 A 
ATOM     70  C   UNL A   1      42.328  21.392  28.072  1.00  0.00     0.059 A 
ATOM     71  F   UNL A   1      42.615  22.921  29.825  1.00  0.00    -0.206 F 
ATOM     72  C   UNL A   1      42.248  21.139  26.703  1.00  0.00     0.060 A 
BRANCH  72  73
ATOM     73  S   UNL A   1      41.905  19.472  26.098  1.00  0.00     0.124 S 
ATOM     74  O   UNL A   1      42.786  19.400  24.937  1.00  0.00    -0.237 OA
ATOM     75  O   UNL A   1      42.286  18.641  27.235  1.00  0.00    -0.237 OA
ATOM     76  O   UNL A   1      40.476  19.506  25.801  1.00  0.00    -0.744 OA
ENDBRANCH  72  73
ENDBRANCH  51  65
BRANCH  52  77
ATOM     77  C   UNL A   1      44.218  33.170  30.662  1.00  0.00     0.058 A 
ATOM     78  C   UNL A   1      44.332  34.170  29.687  1.00  0.00     0.135 A 
ATOM     79  C   UNL A   1      44.228  33.560  32.010  1.00  0.00     0.135 A 
ATOM     80  F   UNL A   1      44.333  33.843  28.386  1.00  0.00    -0.206 F 
ATOM     81  C   UNL A   1      44.436  35.513  30.034  1.00  0.00     0.059 A 
ATOM     82  C   UNL A   1      44.308  34.898  32.381  1.00  0.00     0.059 A 
ATOM     83  F   UNL A   1      44.104  32.639  32.978  1.00  0.00    -0.206 F 
ATOM     84  C   UNL A   1      44.412  35.868  31.385  1.00  0.00     0.060 A 
BRANCH  84  85
ATOM     85  S   UNL A   1      44.439  37.620  31.823  1.00  0.00     0.124 S 
ATOM     86  O   UNL A   1      43.668  37.625  33.060  1.00  0.00    -0.237 OA
ATOM     87  O   UNL A   1      45.869  37.880  31.961  1.00  0.00    -0.237 OA
ATOM     88  O   UNL A   1      43.803  38.261  30.677  1.00  0.00    -0.744 OA
ENDBRANCH  84  85
ENDBRANCH  52  77
BRANCH  64  89
ATOM     89  C   UNL A   1      48.440  27.724  29.578  1.00  0.00     0.058 A 
ATOM     90  C   UNL A   1      48.991  27.207  30.760  1.00  0.00     0.135 A 
ATOM     91  C   UNL A   1      49.308  28.020  28.517  1.00  0.00     0.135 A 
ATOM     92  F   UNL A   1      48.198  26.917  31.804  1.00  0.00    -0.206 F 
ATOM     93  C   UNL A   1      50.358  27.001  30.890  1.00  0.00     0.059 A 
ATOM     94  C   UNL A   1      50.678  27.805  28.618  1.00  0.00     0.059 A 
ATOM     95  F   UNL A   1      48.825  28.512  27.364  1.00  0.00    -0.206 F 
ATOM     96  C   UNL A   1      51.195  27.302  29.814  1.00  0.00     0.060 A 
BRANCH  96  97
ATOM     97  S   UNL A   1      52.965  26.995  29.982  1.00  0.00     0.124 S 
ATOM     98  O   UNL A   1      53.009  26.201  31.205  1.00  0.00    -0.237 OA
ATOM     99  O   UNL A   1      53.278  26.278  28.749  1.00  0.00    -0.237 OA
ATOM    100  O   UNL A   1      53.534  28.336  30.081  1.00  0.00    -0.744 OA
ENDBRANCH  96  97
ENDBRANCH  64  89
ENDBRANCH  38  39
ENDBRANCH  30  33
ENDBRANCH  28  29
ENDBRANCH   1  28
TORSDOF 17
ENDMDL
MODEL 2
REMARK VINA RESULT:     -12.2      2.820      8.946
REMARK SMILES CC(=O)N[C@@H](Cc1c(C)[nH]c2ccccc2c1=O)C(=O)NCCCCNC(=O)c1ccc(-c2c3nc(c(-c4c(F)cc(S(=O)(=O)[O-])cc4F)c4ccc([nH]4)c(-c4c(F)cc(S(=O)(=O)[O-])cc4F)c4nc(c(-c5c(F)cc(S(=O)(=O)[O-])cc5F)c5ccc2[nH]5)C=C4)C=C3)cc1
REMARK SMILES IDX 24 1 23 2 22 3 21 4 19 5 20 6 5 8 4 9 1 10 2 11 3 12 6 14
REMARK SMILES IDX 7 15 8 16 17 17 9 18 10 19 16 20 18 21 11 22 15 24 12 25
REMARK SMILES IDX 14 26 13 27 25 28 26 29 27 30 28 32 29 33 30 34 94 35 31 36
REMARK SMILES IDX 93 37 32 38 33 39 34 40 87 41 35 42 92 43 86 44 88 45 36 46
REMARK SMILES IDX 91 47 85 48 84 49 37 51 71 52 50 53 70 54 51 55 54 56 69 57
REMARK SMILES IDX 89 58 52 59 53 60 68 62 90 63 55 64 38 65 39 66 48 67 40 68
REMARK SMILES IDX 41 69 47 70 49 71 42 72 43 73 44 74 45 75 46 76 72 77 73 78
REMARK SMILES IDX 82 79 74 80 75 81 81 82 83 83 76 84 77 85 78 86 79 87 80 88
REMARK SMILES IDX 56 89 57 90 66 91 58 92 59 93 65 94 67 95 60 96 61 97 62 98
REMARK SMILES IDX 63 99 64 100
REMARK H PARENT 21 7 4 13 10 23 26 31 88 50 54 61
REMARK Flexibility Score: inf
ROOT
ATOM      1  C   UNL A   1      34.770  28.945  26.857  1.00  0.00     0.023 C 
ENDROOT
BRANCH   1   2
ATOM      2  C   UNL A   1      33.300  29.235  26.587  1.00  0.00     0.023 C 
BRANCH   2   3
ATOM      3  C   UNL A   1      32.959  29.739  25.196  1.00  0.00     0.116 C 
BRANCH   3   4
ATOM      4  N   UNL A   1      33.737  29.189  24.115  1.00  0.00    -0.354 N 
ATOM      5  C   UNL A   1      33.294  28.466  23.043  1.00  0.00     0.242 C 
ATOM      6  O   UNL A   1      34.066  28.357  22.082  1.00  0.00    -0.273 OA
ATOM      7  H   UNL A   1      34.706  29.353  24.154  1.00  0.00     0.163 HD
BRANCH   5   8
ATOM      8  C   UNL A   1      31.873  27.836  22.961  1.00  0.00     0.175 C 
BRANCH   8   9
ATOM      9  N   UNL A   1      30.998  28.486  21.990  1.00  0.00    -0.344 N 
ATOM     10  C   UNL A   1      29.760  29.885  23.602  1.00  0.00     0.114 C 
ATOM     11  C   UNL A   1      30.047  29.441  22.194  1.00  0.00     0.217 C 
ATOM     12  O   UNL A   1      29.423  29.902  21.239  1.00  0.00    -0.275 OA
ATOM     13  H   UNL A   1      31.110  28.193  21.057  1.00  0.00     0.164 HD
ENDBRANCH   8   9
BRANCH   8  14
ATOM     14  C   UNL A   1      31.778  26.282  22.982  1.00  0.00     0.076 C 
BRANCH  14  15
ATOM     15  C   UNL A   1      32.672  25.406  23.848  1.00  0.00     0.022 A 
ATOM     16  C   UNL A   1      32.652  25.322  25.201  1.00  0.00     0.019 A 
ATOM     17  C   UNL A   1      33.632  24.482  23.143  1.00  0.00     0.192 A 
ATOM     18  C   UNL A   1      31.635  26.022  26.073  1.00  0.00     0.064 C 
ATOM     19  N   UNL A   1      33.562  24.561  25.914  1.00  0.00    -0.358 N 
ATOM     20  C   UNL A   1      34.725  23.863  23.920  1.00  0.00     0.046 A 
ATOM     21  O   UNL A   1      33.580  24.304  21.931  1.00  0.00    -0.289 OA
ATOM     22  C   UNL A   1      34.636  23.903  25.312  1.00  0.00     0.049 A 
ATOM     23  H   UNL A   1      33.447  24.481  26.888  1.00  0.00     0.166 HD
ATOM     24  C   UNL A   1      35.835  23.302  23.278  1.00  0.00     0.014 A 
ATOM     25  C   UNL A   1      35.665  23.341  26.067  1.00  0.00     0.027 A 
ATOM     26  C   UNL A   1      36.867  22.764  24.041  1.00  0.00     0.001 A 
ATOM     27  C   UNL A   1      36.773  22.770  25.433  1.00  0.00     0.002 A 
ENDBRANCH  14  15
ENDBRANCH   8  14
ENDBRANCH   5   8
ENDBRANCH   3   4
ENDBRANCH   2   3
ENDBRANCH   1   2
BRANCH   1  28
ATOM     28  C   UNL A   1      35.521  29.946  27.732  1.00  0.00     0.116 C 
BRANCH  28  29
ATOM     29  N   UNL A   1      35.430  29.727  29.171  1.00  0.00    -0.352 N 
ATOM     30  C   UNL A   1      36.460  29.665  30.099  1.00  0.00     0.251 C 
ATOM     31  H   UNL A   1      34.522  29.607  29.531  1.00  0.00     0.163 HD
ATOM     32  O   UNL A   1      36.245  29.458  31.277  1.00  0.00    -0.269 OA
BRANCH  30  33
ATOM     33  C   UNL A   1      37.855  29.788  29.624  1.00  0.00     0.039 A 
ATOM     34  C   UNL A   1      38.146  29.761  28.261  1.00  0.00     0.014 A 
ATOM     35  C   UNL A   1      38.883  29.809  30.572  1.00  0.00     0.014 A 
ATOM     36  C   UNL A   1      39.450  29.508  27.858  1.00  0.00     0.010 A 
ATOM     37  C   UNL A   1      40.205  29.652  30.155  1.00  0.00     0.010 A 
ATOM     38  C   UNL A   1      40.485  29.415  28.802  1.00  0.00    -0.014 A 
BRANCH  38  39
ATOM     39  C   UNL A   1      41.836  28.993  28.352  1.00  0.00     0.031 A 
ATOM     40  C   UNL A   1      43.005  29.938  28.463  1.00  0.00     0.074 A 
ATOM     41  C   UNL A   1      42.021  27.723  27.947  1.00  0.00     0.049 A 
ATOM     42  N   UNL A   1      44.264  29.729  28.169  1.00  0.00    -0.248 NA
ATOM     43  C   UNL A   1      42.731  31.295  28.966  1.00  0.00     0.031 C 
ATOM     44  C   UNL A   1      40.962  26.718  27.829  1.00  0.00     0.029 A 
ATOM     45  N   UNL A   1      43.162  27.046  27.607  1.00  0.00    -0.354 N 
ATOM     46  C   UNL A   1      44.922  30.927  28.427  1.00  0.00     0.074 A 
ATOM     47  C   UNL A   1      43.923  31.869  28.879  1.00  0.00     0.031 C 
ATOM     48  C   UNL A   1      41.513  25.534  27.524  1.00  0.00     0.029 A 
ATOM     49  C   UNL A   1      42.952  25.711  27.360  1.00  0.00     0.049 A 
ATOM     50  H   UNL A   1      44.046  27.474  27.546  1.00  0.00     0.167 HD
ATOM     51  C   UNL A   1      46.242  31.211  28.307  1.00  0.00     0.037 A 
ATOM     52  C   UNL A   1      43.821  24.736  27.036  1.00  0.00     0.037 A 
ATOM     53  C   UNL A   1      47.233  30.257  27.884  1.00  0.00     0.049 A 
ATOM     54  C   UNL A   1      45.274  25.078  26.891  1.00  0.00     0.074 A 
ATOM     55  C   UNL A   1      48.594  30.442  27.718  1.00  0.00     0.029 A 
ATOM     56  N   UNL A   1      46.969  28.930  27.572  1.00  0.00    -0.354 N 
ATOM     57  N   UNL A   1      45.870  26.229  27.097  1.00  0.00    -0.248 NA
ATOM     58  C   UNL A   1      46.169  24.001  26.452  1.00  0.00     0.031 C 
ATOM     59  C   UNL A   1      49.149  29.233  27.281  1.00  0.00     0.029 A 
ATOM     60  C   UNL A   1      48.139  28.287  27.205  1.00  0.00     0.049 A 
ATOM     61  H   UNL A   1      46.080  28.509  27.606  1.00  0.00     0.167 HD
ATOM     62  C   UNL A   1      47.211  26.017  26.802  1.00  0.00     0.074 A 
ATOM     63  C   UNL A   1      47.341  24.622  26.431  1.00  0.00     0.031 C 
ATOM     64  C   UNL A   1      48.239  26.901  26.826  1.00  0.00     0.037 A 
BRANCH  51  65
ATOM     65  C   UNL A   1      46.686  32.613  28.622  1.00  0.00     0.058 A 
ATOM     66  C   UNL A   1      47.032  33.002  29.925  1.00  0.00     0.135 A 
ATOM     67  C   UNL A   1      46.794  33.574  27.603  1.00  0.00     0.135 A 
ATOM     68  F   UNL A   1      46.929  32.128  30.940  1.00  0.00    -0.206 F 
ATOM     69  C   UNL A   1      47.446  34.298  30.213  1.00  0.00     0.059 A 
ATOM     70  C   UNL A   1      47.226  34.871  27.863  1.00  0.00     0.059 A 
ATOM     71  F   UNL A   1      46.474  33.256  26.339  1.00  0.00    -0.206 F 
ATOM     72  C   UNL A   1      47.537  35.229  29.175  1.00  0.00     0.060 A 
BRANCH  72  73
ATOM     73  S   UNL A   1      48.070  36.910  29.563  1.00  0.00     0.124 S 
ATOM     74  O   UNL A   1      47.318  37.685  28.581  1.00  0.00    -0.237 OA
ATOM     75  O   UNL A   1      47.643  37.061  30.950  1.00  0.00    -0.237 OA
ATOM     76  O   UNL A   1      49.514  36.865  29.355  1.00  0.00    -0.744 OA
ENDBRANCH  72  73
ENDBRANCH  51  65
BRANCH  52  77
ATOM     77  C   UNL A   1      43.323  23.350  26.842  1.00  0.00     0.058 A 
ATOM     78  C   UNL A   1      43.227  22.794  25.560  1.00  0.00     0.135 A 
ATOM     79  C   UNL A   1      43.013  22.531  27.939  1.00  0.00     0.135 A 
ATOM     80  F   UNL A   1      43.509  23.541  24.481  1.00  0.00    -0.206 F 
ATOM     81  C   UNL A   1      42.853  21.468  25.369  1.00  0.00     0.059 A 
ATOM     82  C   UNL A   1      42.658  21.196  27.776  1.00  0.00     0.059 A 
ATOM     83  F   UNL A   1      43.107  23.015  29.187  1.00  0.00    -0.206 F 
ATOM     84  C   UNL A   1      42.581  20.673  26.486  1.00  0.00     0.060 A 
BRANCH  84  85
ATOM     85  S   UNL A   1      42.201  18.926  26.237  1.00  0.00     0.124 S 
ATOM     86  O   UNL A   1      40.797  18.983  25.852  1.00  0.00    -0.237 OA
ATOM     87  O   UNL A   1      43.139  18.554  25.180  1.00  0.00    -0.237 OA
ATOM     88  O   UNL A   1      42.478  18.335  27.542  1.00  0.00    -0.744 OA
ENDBRANCH  84  85
ENDBRANCH  52  77
BRANCH  64  89
ATOM     89  C   UNL A   1      49.589  26.385  26.426  1.00  0.00     0.058 A 
ATOM     90  C   UNL A   1      50.052  26.513  25.108  1.00  0.00     0.135 A 
ATOM     91  C   UNL A   1      50.446  25.811  27.377  1.00  0.00     0.135 A 
ATOM     92  F   UNL A   1      49.263  27.050  24.165  1.00  0.00    -0.206 F 
ATOM     93  C   UNL A   1      51.318  26.075  24.741  1.00  0.00     0.059 A 
ATOM     94  C   UNL A   1      51.724  25.381  27.035  1.00  0.00     0.059 A 
ATOM     95  F   UNL A   1      50.049  25.673  28.652  1.00  0.00    -0.206 F 
ATOM     96  C   UNL A   1      52.148  25.511  25.711  1.00  0.00     0.060 A 
BRANCH  96  97
ATOM     97  S   UNL A   1      53.804  24.979  25.230  1.00  0.00     0.124 S 
ATOM     98  O   UNL A   1      53.616  23.541  25.077  1.00  0.00    -0.237 OA
ATOM     99  O   UNL A   1      54.026  25.725  23.994  1.00  0.00    -0.237 OA
ATOM    100  O   UNL A   1      54.634  25.390  26.358  1.00  0.00    -0.744 OA
ENDBRANCH  96  97
ENDBRANCH  64  89
ENDBRANCH  38  39
ENDBRANCH  30  33
ENDBRANCH  28  29
ENDBRANCH   1  28
TORSDOF 17
ENDMDL
MODEL 3
REMARK VINA RESULT:     -12.1      5.484     10.319
REMARK SMILES CC(=O)N[C@@H](Cc1c(C)[nH]c2ccccc2c1=O)C(=O)NCCCCNC(=O)c1ccc(-c2c3nc(c(-c4c(F)cc(S(=O)(=O)[O-])cc4F)c4ccc([nH]4)c(-c4c(F)cc(S(=O)(=O)[O-])cc4F)c4nc(c(-c5c(F)cc(S(=O)(=O)[O-])cc5F)c5ccc2[nH]5)C=C4)C=C3)cc1
REMARK SMILES IDX 24 1 23 2 22 3 21 4 19 5 20 6 5 8 4 9 1 10 2 11 3 12 6 14
REMARK SMILES IDX 7 15 8 16 17 17 9 18 10 19 16 20 18 21 11 22 15 24 12 25
REMARK SMILES IDX 14 26 13 27 25 28 26 29 27 30 28 32 29 33 30 34 94 35 31 36
REMARK SMILES IDX 93 37 32 38 33 39 34 40 87 41 35 42 92 43 86 44 88 45 36 46
REMARK SMILES IDX 91 47 85 48 84 49 37 51 71 52 50 53 70 54 51 55 54 56 69 57
REMARK SMILES IDX 89 58 52 59 53 60 68 62 90 63 55 64 38 65 39 66 48 67 40 68
REMARK SMILES IDX 41 69 47 70 49 71 42 72 43 73 44 74 45 75 46 76 72 77 73 78
REMARK SMILES IDX 82 79 74 80 75 81 81 82 83 83 76 84 77 85 78 86 79 87 80 88
REMARK SMILES IDX 56 89 57 90 66 91 58 92 59 93 65 94 67 95 60 96 61 97 62 98
REMARK SMILES IDX 63 99 64 100
REMARK H PARENT 21 7 4 13 10 23 26 31 88 50 54 61
REMARK Flexibility Score: inf
ROOT
ATOM      1  C   UNL A   1      37.155  23.455  26.116  1.00  0.00     0.023 C 
ENDROOT
BRANCH   1   2
ATOM      2  C   UNL A   1      36.071  24.442  25.704  1.00  0.00     0.023 C 
BRANCH   2   3
ATOM      3  C   UNL A   1      34.739  23.840  25.291  1.00  0.00     0.116 C 
BRANCH   3   4
ATOM      4  N   UNL A   1      33.711  23.824  26.300  1.00  0.00    -0.354 N 
ATOM      5  C   UNL A   1      32.685  24.711  26.470  1.00  0.00     0.242 C 
ATOM      6  O   UNL A   1      31.746  24.352  27.190  1.00  0.00    -0.273 OA
ATOM      7  H   UNL A   1      33.753  23.084  26.946  1.00  0.00     0.163 HD
BRANCH   5   8
ATOM      8  C   UNL A   1      32.627  26.100  25.768  1.00  0.00     0.175 C 
BRANCH   8   9
ATOM      9  N   UNL A   1      33.613  27.052  26.270  1.00  0.00    -0.344 N 
ATOM     10  C   UNL A   1      32.007  28.753  27.052  1.00  0.00     0.114 C 
ATOM     11  C   UNL A   1      33.415  28.249  26.890  1.00  0.00     0.217 C 
ATOM     12  O   UNL A   1      34.377  28.908  27.279  1.00  0.00    -0.275 OA
ATOM     13  H   UNL A   1      34.555  26.793  26.142  1.00  0.00     0.164 HD
ENDBRANCH   8   9
BRANCH   8  14
ATOM     14  C   UNL A   1      32.439  26.112  24.222  1.00  0.00     0.076 C 
BRANCH  14  15
ATOM     15  C   UNL A   1      31.700  27.218  23.484  1.00  0.00     0.022 A 
ATOM     16  C   UNL A   1      32.257  28.292  22.871  1.00  0.00     0.019 A 
ATOM     17  C   UNL A   1      30.204  27.084  23.350  1.00  0.00     0.192 A 
ATOM     18  C   UNL A   1      33.748  28.500  22.730  1.00  0.00     0.064 C 
ATOM     19  N   UNL A   1      31.500  29.297  22.295  1.00  0.00    -0.358 N 
ATOM     20  C   UNL A   1      29.418  28.264  22.937  1.00  0.00     0.046 A 
ATOM     21  O   UNL A   1      29.621  26.050  23.660  1.00  0.00    -0.289 OA
ATOM     22  C   UNL A   1      30.109  29.345  22.387  1.00  0.00     0.049 A 
ATOM     23  H   UNL A   1      31.965  30.010  21.800  1.00  0.00     0.166 HD
ATOM     24  C   UNL A   1      28.033  28.312  23.139  1.00  0.00     0.014 A 
ATOM     25  C   UNL A   1      29.389  30.477  22.005  1.00  0.00     0.027 A 
ATOM     26  C   UNL A   1      27.329  29.456  22.776  1.00  0.00     0.001 A 
ATOM     27  C   UNL A   1      28.005  30.529  22.195  1.00  0.00     0.002 A 
ENDBRANCH  14  15
ENDBRANCH   8  14
ENDBRANCH   5   8
ENDBRANCH   3   4
ENDBRANCH   2   3
ENDBRANCH   1   2
BRANCH   1  28
ATOM     28  C   UNL A   1      38.409  24.040  26.761  1.00  0.00     0.116 C 
BRANCH  28  29
ATOM     29  N   UNL A   1      39.402  24.587  25.843  1.00  0.00    -0.352 N 
ATOM     30  C   UNL A   1      40.421  25.489  26.115  1.00  0.00     0.251 C 
ATOM     31  H   UNL A   1      39.341  24.278  24.911  1.00  0.00     0.163 HD
ATOM     32  O   UNL A   1      41.175  25.879  25.246  1.00  0.00    -0.269 OA
BRANCH  30  33
ATOM     33  C   UNL A   1      40.543  26.035  27.484  1.00  0.00     0.039 A 
ATOM     34  C   UNL A   1      39.537  25.824  28.425  1.00  0.00     0.014 A 
ATOM     35  C   UNL A   1      41.629  26.867  27.775  1.00  0.00     0.014 A 
ATOM     36  C   UNL A   1      39.491  26.631  29.552  1.00  0.00     0.010 A 
ATOM     37  C   UNL A   1      41.629  27.606  28.959  1.00  0.00     0.010 A 
ATOM     38  C   UNL A   1      40.517  27.556  29.812  1.00  0.00    -0.014 A 
BRANCH  38  39
ATOM     39  C   UNL A   1      40.361  28.508  30.940  1.00  0.00     0.031 A 
ATOM     40  C   UNL A   1      41.350  28.507  32.079  1.00  0.00     0.074 A 
ATOM     41  C   UNL A   1      39.392  29.439  30.879  1.00  0.00     0.049 A 
ATOM     42  N   UNL A   1      41.404  29.296  33.122  1.00  0.00    -0.248 NA
ATOM     43  C   UNL A   1      42.415  27.490  32.047  1.00  0.00     0.031 C 
ATOM     44  C   UNL A   1      38.399  29.547  29.807  1.00  0.00     0.029 A 
ATOM     45  N   UNL A   1      39.110  30.498  31.702  1.00  0.00    -0.354 N 
ATOM     46  C   UNL A   1      42.486  28.858  33.878  1.00  0.00     0.074 A 
ATOM     47  C   UNL A   1      43.049  27.718  33.189  1.00  0.00     0.031 C 
ATOM     48  C   UNL A   1      37.670  30.656  29.994  1.00  0.00     0.029 A 
ATOM     49  C   UNL A   1      38.099  31.301  31.231  1.00  0.00     0.049 A 
ATOM     50  H   UNL A   1      39.585  30.666  32.547  1.00  0.00     0.167 HD
ATOM     51  C   UNL A   1      42.972  29.366  35.037  1.00  0.00     0.037 A 
ATOM     52  C   UNL A   1      37.575  32.431  31.739  1.00  0.00     0.037 A 
ATOM     53  C   UNL A   1      42.423  30.520  35.700  1.00  0.00     0.049 A 
ATOM     54  C   UNL A   1      38.117  32.965  33.031  1.00  0.00     0.074 A 
ATOM     55  C   UNL A   1      42.831  31.113  36.881  1.00  0.00     0.029 A 
ATOM     56  N   UNL A   1      41.351  31.265  35.228  1.00  0.00    -0.354 N 
ATOM     57  N   UNL A   1      39.113  32.510  33.754  1.00  0.00    -0.248 NA
ATOM     58  C   UNL A   1      37.455  34.151  33.589  1.00  0.00     0.031 C 
ATOM     59  C   UNL A   1      41.989  32.201  37.137  1.00  0.00     0.029 A 
ATOM     60  C   UNL A   1      41.077  32.306  36.099  1.00  0.00     0.049 A 
ATOM     61  H   UNL A   1      40.857  31.080  34.396  1.00  0.00     0.167 HD
ATOM     62  C   UNL A   1      39.192  33.348  34.859  1.00  0.00     0.074 A 
ATOM     63  C   UNL A   1      38.161  34.354  34.694  1.00  0.00     0.031 C 
ATOM     64  C   UNL A   1      40.035  33.284  35.919  1.00  0.00     0.037 A 
BRANCH  51  65
ATOM     65  C   UNL A   1      44.146  28.670  35.668  1.00  0.00     0.058 A 
ATOM     66  C   UNL A   1      45.468  29.036  35.372  1.00  0.00     0.135 A 
ATOM     67  C   UNL A   1      43.947  27.639  36.602  1.00  0.00     0.135 A 
ATOM     68  F   UNL A   1      45.716  30.002  34.473  1.00  0.00    -0.206 F 
ATOM     69  C   UNL A   1      46.552  28.393  35.961  1.00  0.00     0.059 A 
ATOM     70  C   UNL A   1      45.015  26.995  37.219  1.00  0.00     0.059 A 
ATOM     71  F   UNL A   1      42.703  27.247  36.919  1.00  0.00    -0.206 F 
ATOM     72  C   UNL A   1      46.315  27.368  36.882  1.00  0.00     0.060 A 
BRANCH  72  73
ATOM     73  S   UNL A   1      47.731  26.537  37.633  1.00  0.00     0.124 S 
ATOM     74  O   UNL A   1      47.196  26.185  38.945  1.00  0.00    -0.237 OA
ATOM     75  O   UNL A   1      47.959  25.421  36.722  1.00  0.00    -0.237 OA
ATOM     76  O   UNL A   1      48.768  27.564  37.634  1.00  0.00    -0.744 OA
ENDBRANCH  72  73
ENDBRANCH  51  65
BRANCH  52  77
ATOM     77  C   UNL A   1      36.486  33.124  31.004  1.00  0.00     0.058 A 
ATOM     78  C   UNL A   1      35.164  33.080  31.468  1.00  0.00     0.135 A 
ATOM     79  C   UNL A   1      36.760  33.908  29.873  1.00  0.00     0.135 A 
ATOM     80  F   UNL A   1      34.856  32.338  32.544  1.00  0.00    -0.206 F 
ATOM     81  C   UNL A   1      34.151  33.800  30.845  1.00  0.00     0.059 A 
ATOM     82  C   UNL A   1      35.768  34.655  29.245  1.00  0.00     0.059 A 
ATOM     83  F   UNL A   1      38.013  33.995  29.401  1.00  0.00    -0.206 F 
ATOM     84  C   UNL A   1      34.465  34.595  29.740  1.00  0.00     0.060 A 
BRANCH  84  85
ATOM     85  S   UNL A   1      33.167  35.610  29.002  1.00  0.00     0.124 S 
ATOM     86  O   UNL A   1      33.948  36.616  28.294  1.00  0.00    -0.237 OA
ATOM     87  O   UNL A   1      32.460  34.644  28.166  1.00  0.00    -0.237 OA
ATOM     88  O   UNL A   1      32.418  36.087  30.161  1.00  0.00    -0.744 OA
ENDBRANCH  84  85
ENDBRANCH  52  77
BRANCH  64  89
ATOM     89  C   UNL A   1      39.864  34.322  36.987  1.00  0.00     0.058 A 
ATOM     90  C   UNL A   1      40.457  35.588  36.869  1.00  0.00     0.135 A 
ATOM     91  C   UNL A   1      39.059  34.070  38.108  1.00  0.00     0.135 A 
ATOM     92  F   UNL A   1      41.240  35.871  35.816  1.00  0.00    -0.206 F 
ATOM     93  C   UNL A   1      40.268  36.567  37.835  1.00  0.00     0.059 A 
ATOM     94  C   UNL A   1      38.842  35.042  39.079  1.00  0.00     0.059 A 
ATOM     95  F   UNL A   1      38.466  32.875  38.261  1.00  0.00    -0.206 F 
ATOM     96  C   UNL A   1      39.458  36.286  38.937  1.00  0.00     0.060 A 
BRANCH  96  97
ATOM     97  S   UNL A   1      39.191  37.580  40.167  1.00  0.00     0.124 S 
ATOM     98  O   UNL A   1      40.510  38.199  40.232  1.00  0.00    -0.237 OA
ATOM     99  O   UNL A   1      38.141  38.386  39.552  1.00  0.00    -0.237 OA
ATOM    100  O   UNL A   1      38.785  36.837  41.357  1.00  0.00    -0.744 OA
ENDBRANCH  96  97
ENDBRANCH  64  89
ENDBRANCH  38  39
ENDBRANCH  30  33
ENDBRANCH  28  29
ENDBRANCH   1  28
TORSDOF 17
ENDMDL
