MODEL 1
REMARK VINA RESULT:     -13.1      0.000      0.000
REMARK SMILES Cc1ncc(CO)c([C@H]2[NH2+][C@@H](C(=O)NCCCCNC(=O)c3ccc(-c4c5nc(c(-c6c(F)cc(S(=O)(=O)[O-])cc6F)c6ccc([nH]6)c(-c6c(F)cc(S(=O)(=O)[O-])cc6F)c6nc(c(-c7c(F)cc(S(=O)(=O)[O-])cc7F)c7ccc4[nH]7)C=C6)C=C5)cc3)Cc3[nH]cnc32)c1O
REMARK SMILES IDX 16 1 15 2 14 3 12 4 13 5 11 7 9 8 10 9 93 10 89 13 92 14
REMARK SMILES IDX 88 15 90 16 91 17 8 19 1 20 2 21 3 22 94 23 4 24 5 25 95 26
REMARK SMILES IDX 6 28 7 29 17 31 18 32 19 33 20 34 21 36 22 37 23 38 87 39
REMARK SMILES IDX 24 40 86 41 25 42 26 43 27 44 80 45 28 46 85 47 79 48 81 49
REMARK SMILES IDX 29 50 84 51 78 52 77 53 30 55 64 56 43 57 63 58 44 59 47 60
REMARK SMILES IDX 62 61 82 62 45 63 46 64 61 66 83 67 48 68 31 69 32 70 41 71
REMARK SMILES IDX 33 72 34 73 40 74 42 75 35 76 36 77 37 78 38 79 39 80 65 81
REMARK SMILES IDX 66 82 75 83 67 84 68 85 74 86 76 87 69 88 70 89 71 90 72 91
REMARK SMILES IDX 73 92 49 93 50 94 59 95 51 96 52 97 58 98 60 99 53 100
REMARK SMILES IDX 54 101 55 102 56 103 57 104
REMARK H PARENT 14 6 10 11 10 12 90 18 95 27 7 30 19 35 81 54 47 65
REMARK Flexibility Score: inf
ROOT
ATOM      1  C   UNL A   1      34.975  22.935  26.518  1.00  0.00     0.023 C 
ENDROOT
BRANCH   1   2
ATOM      2  C   UNL A   1      33.870  21.899  26.739  1.00  0.00     0.116 C 
BRANCH   2   3
ATOM      3  N   UNL A   1      32.632  22.477  27.235  1.00  0.00    -0.351 N 
ATOM      4  C   UNL A   1      31.801  23.417  26.679  1.00  0.00     0.278 C 
ATOM      5  O   UNL A   1      30.768  23.708  27.278  1.00  0.00    -0.268 OA
ATOM      6  H   UNL A   1      32.341  22.139  28.114  1.00  0.00     0.163 HD
BRANCH   4   7
ATOM      7  C   UNL A   1      32.247  24.131  25.399  1.00  0.00     0.279 C 
ATOM      8  C   UNL A   1      32.385  26.301  24.383  1.00  0.00     0.270 C 
ATOM      9  N   UNL A   1      31.600  25.468  25.321  1.00  0.00    -0.324 N 
ATOM     10  C   UNL A   1      32.336  25.652  23.029  1.00  0.00     0.124 A 
ATOM     11  H   UNL A   1      30.643  25.372  24.981  1.00  0.00     0.347 HD
ATOM     12  H   UNL A   1      31.572  25.903  26.243  1.00  0.00     0.347 HD
ATOM     13  C   UNL A   1      32.228  24.266  22.938  1.00  0.00     0.051 A 
ATOM     14  N   UNL A   1      32.766  26.161  21.828  1.00  0.00    -0.235 NA
ATOM     15  C   UNL A   1      31.989  23.333  24.095  1.00  0.00     0.131 C 
ATOM     16  N   UNL A   1      32.516  23.943  21.648  1.00  0.00    -0.348 N 
ATOM     17  C   UNL A   1      32.839  25.119  21.018  1.00  0.00     0.197 A 
ATOM     18  H   UNL A   1      32.496  23.045  21.246  1.00  0.00     0.167 HD
BRANCH   8  19
ATOM     19  C   UNL A   1      32.110  27.761  24.641  1.00  0.00     0.066 A 
ATOM     20  C   UNL A   1      33.520  30.158  27.309  1.00  0.00     0.071 C 
ATOM     21  C   UNL A   1      32.726  29.617  26.154  1.00  0.00     0.079 A 
ATOM     22  N   UNL A   1      31.763  30.411  25.650  1.00  0.00    -0.257 NA
ATOM     23  C   UNL A   1      32.946  28.336  25.656  1.00  0.00     0.146 A 
ATOM     24  C   UNL A   1      30.974  29.872  24.689  1.00  0.00     0.118 A 
ATOM     25  C   UNL A   1      31.064  28.567  24.169  1.00  0.00     0.009 A 
BRANCH  23  26
ATOM     26  O   UNL A   1      33.944  27.609  26.271  1.00  0.00    -0.505 OA
ATOM     27  H   UNL A   1      33.742  27.065  27.006  1.00  0.00     0.293 HD
ENDBRANCH  23  26
BRANCH  25  28
ATOM     28  C   UNL A   1      30.008  28.172  23.177  1.00  0.00     0.194 C 
BRANCH  28  29
ATOM     29  O   UNL A   1      30.508  28.364  21.853  1.00  0.00    -0.392 OA
ATOM     30  H   UNL A   1      31.437  28.089  21.815  1.00  0.00     0.211 HD
ENDBRANCH  28  29
ENDBRANCH  25  28
ENDBRANCH   8  19
ENDBRANCH   4   7
ENDBRANCH   2   3
ENDBRANCH   1   2
BRANCH   1  31
ATOM     31  C   UNL A   1      35.975  22.616  25.397  1.00  0.00     0.023 C 
BRANCH  31  32
ATOM     32  C   UNL A   1      37.381  23.164  25.609  1.00  0.00     0.116 C 
BRANCH  32  33
ATOM     33  N   UNL A   1      38.294  22.191  26.207  1.00  0.00    -0.352 N 
ATOM     34  C   UNL A   1      39.561  22.425  26.714  1.00  0.00     0.251 C 
ATOM     35  H   UNL A   1      37.971  21.263  26.254  1.00  0.00     0.163 HD
ATOM     36  O   UNL A   1      40.375  21.518  26.818  1.00  0.00    -0.269 OA
BRANCH  34  37
ATOM     37  C   UNL A   1      39.902  23.796  27.137  1.00  0.00     0.039 A 
ATOM     38  C   UNL A   1      38.964  24.830  27.110  1.00  0.00     0.014 A 
ATOM     39  C   UNL A   1      41.188  24.012  27.622  1.00  0.00     0.014 A 
ATOM     40  C   UNL A   1      39.307  26.063  27.664  1.00  0.00     0.010 A 
ATOM     41  C   UNL A   1      41.472  25.170  28.298  1.00  0.00     0.010 A 
ATOM     42  C   UNL A   1      40.558  26.220  28.280  1.00  0.00    -0.014 A 
BRANCH  42  43
ATOM     43  C   UNL A   1      40.893  27.440  29.012  1.00  0.00     0.031 A 
ATOM     44  C   UNL A   1      41.980  28.266  28.406  1.00  0.00     0.074 A 
ATOM     45  C   UNL A   1      40.106  27.924  29.999  1.00  0.00     0.049 A 
ATOM     46  N   UNL A   1      43.140  28.550  28.902  1.00  0.00    -0.248 NA
ATOM     47  C   UNL A   1      41.803  28.734  27.021  1.00  0.00     0.031 C 
ATOM     48  C   UNL A   1      38.817  27.398  30.469  1.00  0.00     0.029 A 
ATOM     49  N   UNL A   1      40.226  29.079  30.706  1.00  0.00    -0.354 N 
ATOM     50  C   UNL A   1      43.747  29.419  27.995  1.00  0.00     0.074 A 
ATOM     51  C   UNL A   1      42.971  29.336  26.786  1.00  0.00     0.031 C 
ATOM     52  C   UNL A   1      38.170  28.351  31.174  1.00  0.00     0.029 A 
ATOM     53  C   UNL A   1      39.064  29.476  31.361  1.00  0.00     0.049 A 
ATOM     54  H   UNL A   1      41.065  29.592  30.751  1.00  0.00     0.167 HD
ATOM     55  C   UNL A   1      44.695  30.317  28.390  1.00  0.00     0.037 A 
ATOM     56  C   UNL A   1      38.841  30.662  31.982  1.00  0.00     0.037 A 
ATOM     57  C   UNL A   1      45.201  29.991  29.701  1.00  0.00     0.049 A 
ATOM     58  C   UNL A   1      40.172  31.260  32.263  1.00  0.00     0.074 A 
ATOM     59  C   UNL A   1      45.826  28.892  30.255  1.00  0.00     0.029 A 
ATOM     60  N   UNL A   1      44.743  30.735  30.763  1.00  0.00    -0.354 N 
ATOM     61  N   UNL A   1      41.043  30.740  33.086  1.00  0.00    -0.248 NA
ATOM     62  C   UNL A   1      40.719  32.180  31.279  1.00  0.00     0.031 C 
ATOM     63  C   UNL A   1      45.272  28.778  31.564  1.00  0.00     0.029 A 
ATOM     64  C   UNL A   1      44.404  29.854  31.758  1.00  0.00     0.049 A 
ATOM     65  H   UNL A   1      44.672  31.715  30.801  1.00  0.00     0.167 HD
ATOM     66  C   UNL A   1      42.271  30.920  32.465  1.00  0.00     0.074 A 
ATOM     67  C   UNL A   1      42.018  31.892  31.403  1.00  0.00     0.031 C 
ATOM     68  C   UNL A   1      43.309  30.059  32.682  1.00  0.00     0.037 A 
BRANCH  55  69
ATOM     69  C   UNL A   1      44.906  31.687  27.778  1.00  0.00     0.058 A 
ATOM     70  C   UNL A   1      46.117  31.962  27.105  1.00  0.00     0.135 A 
ATOM     71  C   UNL A   1      44.109  32.817  28.070  1.00  0.00     0.135 A 
ATOM     72  F   UNL A   1      46.957  30.969  26.773  1.00  0.00    -0.206 F 
ATOM     73  C   UNL A   1      46.544  33.263  26.830  1.00  0.00     0.059 A 
ATOM     74  C   UNL A   1      44.490  34.117  27.754  1.00  0.00     0.059 A 
ATOM     75  F   UNL A   1      42.969  32.729  28.765  1.00  0.00    -0.206 F 
ATOM     76  C   UNL A   1      45.729  34.335  27.178  1.00  0.00     0.060 A 
BRANCH  76  77
ATOM     77  S   UNL A   1      46.327  36.017  26.938  1.00  0.00     0.124 S 
ATOM     78  O   UNL A   1      45.076  36.746  26.763  1.00  0.00    -0.237 OA
ATOM     79  O   UNL A   1      47.043  36.264  28.186  1.00  0.00    -0.237 OA
ATOM     80  O   UNL A   1      47.168  35.907  25.750  1.00  0.00    -0.744 OA
ENDBRANCH  76  77
ENDBRANCH  55  69
BRANCH  56  81
ATOM     81  C   UNL A   1      37.573  31.435  32.042  1.00  0.00     0.058 A 
ATOM     82  C   UNL A   1      37.004  31.816  33.270  1.00  0.00     0.135 A 
ATOM     83  C   UNL A   1      37.035  32.051  30.892  1.00  0.00     0.135 A 
ATOM     84  F   UNL A   1      37.468  31.297  34.416  1.00  0.00    -0.206 F 
ATOM     85  C   UNL A   1      35.991  32.780  33.357  1.00  0.00     0.059 A 
ATOM     86  C   UNL A   1      36.021  33.007  30.954  1.00  0.00     0.059 A 
ATOM     87  F   UNL A   1      37.542  31.804  29.675  1.00  0.00    -0.206 F 
ATOM     88  C   UNL A   1      35.518  33.384  32.192  1.00  0.00     0.060 A 
BRANCH  88  89
ATOM     89  S   UNL A   1      34.326  34.739  32.310  1.00  0.00     0.124 S 
ATOM     90  O   UNL A   1      33.186  34.083  32.942  1.00  0.00    -0.237 OA
ATOM     91  O   UNL A   1      35.042  35.709  33.132  1.00  0.00    -0.237 OA
ATOM     92  O   UNL A   1      34.124  35.133  30.918  1.00  0.00    -0.744 OA
ENDBRANCH  88  89
ENDBRANCH  56  81
BRANCH  68  93
ATOM     93  C   UNL A   1      43.217  29.088  33.832  1.00  0.00     0.058 A 
ATOM     94  C   UNL A   1      43.534  29.395  35.166  1.00  0.00     0.135 A 
ATOM     95  C   UNL A   1      42.611  27.846  33.589  1.00  0.00     0.135 A 
ATOM     96  F   UNL A   1      44.023  30.596  35.503  1.00  0.00    -0.206 F 
ATOM     97  C   UNL A   1      43.287  28.496  36.207  1.00  0.00     0.059 A 
ATOM     98  C   UNL A   1      42.327  26.947  34.613  1.00  0.00     0.059 A 
ATOM     99  F   UNL A   1      42.229  27.517  32.344  1.00  0.00    -0.206 F 
ATOM    100  C   UNL A   1      42.677  27.276  35.921  1.00  0.00     0.060 A 
BRANCH 100 101
ATOM    101  S   UNL A   1      42.275  26.151  37.276  1.00  0.00     0.124 S 
ATOM    102  O   UNL A   1      40.865  26.443  37.510  1.00  0.00    -0.237 OA
ATOM    103  O   UNL A   1      42.565  24.842  36.698  1.00  0.00    -0.237 OA
ATOM    104  O   UNL A   1      43.183  26.565  38.343  1.00  0.00    -0.744 OA
ENDBRANCH 100 101
ENDBRANCH  68  93
ENDBRANCH  42  43
ENDBRANCH  34  37
ENDBRANCH  32  33
ENDBRANCH  31  32
ENDBRANCH   1  31
TORSDOF 18
ENDMDL
MODEL 2
REMARK VINA RESULT:     -13.1      2.675      4.279
REMARK SMILES Cc1ncc(CO)c([C@H]2[NH2+][C@@H](C(=O)NCCCCNC(=O)c3ccc(-c4c5nc(c(-c6c(F)cc(S(=O)(=O)[O-])cc6F)c6ccc([nH]6)c(-c6c(F)cc(S(=O)(=O)[O-])cc6F)c6nc(c(-c7c(F)cc(S(=O)(=O)[O-])cc7F)c7ccc4[nH]7)C=C6)C=C5)cc3)Cc3[nH]cnc32)c1O
REMARK SMILES IDX 16 1 15 2 14 3 12 4 13 5 11 7 9 8 10 9 93 10 89 13 92 14
REMARK SMILES IDX 88 15 90 16 91 17 8 19 1 20 2 21 3 22 94 23 4 24 5 25 95 26
REMARK SMILES IDX 6 28 7 29 17 31 18 32 19 33 20 34 21 36 22 37 23 38 87 39
REMARK SMILES IDX 24 40 86 41 25 42 26 43 27 44 80 45 28 46 85 47 79 48 81 49
REMARK SMILES IDX 29 50 84 51 78 52 77 53 30 55 64 56 43 57 63 58 44 59 47 60
REMARK SMILES IDX 62 61 82 62 45 63 46 64 61 66 83 67 48 68 31 69 32 70 41 71
REMARK SMILES IDX 33 72 34 73 40 74 42 75 35 76 36 77 37 78 38 79 39 80 65 81
REMARK SMILES IDX 66 82 75 83 67 84 68 85 74 86 76 87 69 88 70 89 71 90 72 91
REMARK SMILES IDX 73 92 49 93 50 94 59 95 51 96 52 97 58 98 60 99 53 100
REMARK SMILES IDX 54 101 55 102 56 103 57 104
REMARK H PARENT 14 6 10 11 10 12 90 18 95 27 7 30 19 35 81 54 47 65
REMARK Flexibility Score: inf
ROOT
ATOM      1  C   UNL A   1      40.173  21.114  26.491  1.00  0.00     0.023 C 
ENDROOT
BRANCH   1   2
ATOM      2  C   UNL A   1      38.874  21.352  25.716  1.00  0.00     0.116 C 
BRANCH   2   3
ATOM      3  N   UNL A   1      38.394  22.721  25.809  1.00  0.00    -0.351 N 
ATOM      4  C   UNL A   1      37.149  23.246  25.572  1.00  0.00     0.278 C 
ATOM      5  O   UNL A   1      36.976  24.447  25.775  1.00  0.00    -0.268 OA
ATOM      6  H   UNL A   1      39.072  23.379  26.087  1.00  0.00     0.163 HD
BRANCH   4   7
ATOM      7  C   UNL A   1      36.068  22.343  24.971  1.00  0.00     0.279 C 
ATOM      8  C   UNL A   1      33.786  22.347  24.224  1.00  0.00     0.270 C 
ATOM      9  N   UNL A   1      34.728  22.950  25.194  1.00  0.00    -0.324 N 
ATOM     10  C   UNL A   1      33.711  20.873  24.502  1.00  0.00     0.124 A 
ATOM     11  H   UNL A   1      34.414  22.758  26.145  1.00  0.00     0.347 HD
ATOM     12  H   UNL A   1      34.770  23.960  25.066  1.00  0.00     0.347 HD
ATOM     13  C   UNL A   1      34.825  20.215  25.018  1.00  0.00     0.051 A 
ATOM     14  N   UNL A   1      32.837  19.953  23.974  1.00  0.00    -0.235 NA
ATOM     15  C   UNL A   1      36.089  20.882  25.490  1.00  0.00     0.131 C 
ATOM     16  N   UNL A   1      34.585  18.884  24.875  1.00  0.00    -0.348 N 
ATOM     17  C   UNL A   1      33.375  18.776  24.236  1.00  0.00     0.197 A 
ATOM     18  H   UNL A   1      35.164  18.144  25.171  1.00  0.00     0.167 HD
BRANCH   8  19
ATOM     19  C   UNL A   1      32.589  23.245  24.046  1.00  0.00     0.066 A 
ATOM     20  C   UNL A   1      31.858  25.985  21.437  1.00  0.00     0.071 C 
ATOM     21  C   UNL A   1      31.717  25.062  22.613  1.00  0.00     0.079 A 
ATOM     22  N   UNL A   1      30.681  25.283  23.442  1.00  0.00    -0.257 NA
ATOM     23  C   UNL A   1      32.641  24.049  22.859  1.00  0.00     0.146 A 
ATOM     24  C   UNL A   1      30.627  24.523  24.563  1.00  0.00     0.118 A 
ATOM     25  C   UNL A   1      31.548  23.528  24.943  1.00  0.00     0.009 A 
BRANCH  23  26
ATOM     26  O   UNL A   1      33.673  23.937  21.951  1.00  0.00    -0.505 OA
ATOM     27  H   UNL A   1      33.825  24.619  21.327  1.00  0.00     0.293 HD
ENDBRANCH  23  26
BRANCH  25  28
ATOM     28  C   UNL A   1      31.324  22.892  26.284  1.00  0.00     0.194 C 
BRANCH  28  29
ATOM     29  O   UNL A   1      30.378  21.829  26.152  1.00  0.00    -0.392 OA
ATOM     30  H   UNL A   1      30.830  21.032  25.832  1.00  0.00     0.211 HD
ENDBRANCH  28  29
ENDBRANCH  25  28
ENDBRANCH   8  19
ENDBRANCH   4   7
ENDBRANCH   2   3
ENDBRANCH   1   2
BRANCH   1  31
ATOM     31  C   UNL A   1      40.932  19.825  26.143  1.00  0.00     0.023 C 
BRANCH  31  32
ATOM     32  C   UNL A   1      42.307  19.691  26.786  1.00  0.00     0.116 C 
BRANCH  32  33
ATOM     33  N   UNL A   1      43.377  19.464  25.816  1.00  0.00    -0.352 N 
ATOM     34  C   UNL A   1      44.013  20.406  25.025  1.00  0.00     0.251 C 
ATOM     35  H   UNL A   1      43.681  18.533  25.714  1.00  0.00     0.163 HD
ATOM     36  O   UNL A   1      44.588  20.079  23.997  1.00  0.00    -0.269 OA
BRANCH  34  37
ATOM     37  C   UNL A   1      43.988  21.814  25.460  1.00  0.00     0.039 A 
ATOM     38  C   UNL A   1      43.036  22.717  24.982  1.00  0.00     0.014 A 
ATOM     39  C   UNL A   1      44.921  22.202  26.416  1.00  0.00     0.014 A 
ATOM     40  C   UNL A   1      42.974  23.991  25.547  1.00  0.00     0.010 A 
ATOM     41  C   UNL A   1      44.764  23.395  27.073  1.00  0.00     0.010 A 
ATOM     42  C   UNL A   1      43.828  24.316  26.612  1.00  0.00    -0.014 A 
BRANCH  42  43
ATOM     43  C   UNL A   1      43.686  25.578  27.336  1.00  0.00     0.031 A 
ATOM     44  C   UNL A   1      44.709  26.616  27.010  1.00  0.00     0.074 A 
ATOM     45  C   UNL A   1      42.570  25.884  28.034  1.00  0.00     0.049 A 
ATOM     46  N   UNL A   1      45.597  27.137  27.792  1.00  0.00    -0.248 NA
ATOM     47  C   UNL A   1      44.843  27.038  25.605  1.00  0.00     0.031 C 
ATOM     48  C   UNL A   1      41.334  25.097  28.157  1.00  0.00     0.029 A 
ATOM     49  N   UNL A   1      42.246  27.037  28.678  1.00  0.00    -0.354 N 
ATOM     50  C   UNL A   1      46.248  28.116  27.040  1.00  0.00     0.074 A 
ATOM     51  C   UNL A   1      45.882  27.874  25.669  1.00  0.00     0.031 C 
ATOM     52  C   UNL A   1      40.334  25.891  28.596  1.00  0.00     0.029 A 
ATOM     53  C   UNL A   1      40.891  27.179  28.959  1.00  0.00     0.049 A 
ATOM     54  H   UNL A   1      42.916  27.715  28.925  1.00  0.00     0.167 HD
ATOM     55  C   UNL A   1      46.842  29.193  27.630  1.00  0.00     0.037 A 
ATOM     56  C   UNL A   1      40.265  28.290  29.422  1.00  0.00     0.037 A 
ATOM     57  C   UNL A   1      47.009  28.979  29.047  1.00  0.00     0.049 A 
ATOM     58  C   UNL A   1      41.311  29.155  30.028  1.00  0.00     0.074 A 
ATOM     59  C   UNL A   1      47.660  28.035  29.817  1.00  0.00     0.029 A 
ATOM     60  N   UNL A   1      46.127  29.608  29.894  1.00  0.00    -0.354 N 
ATOM     61  N   UNL A   1      41.999  28.829  31.090  1.00  0.00    -0.248 NA
ATOM     62  C   UNL A   1      41.918  30.171  29.183  1.00  0.00     0.031 C 
ATOM     63  C   UNL A   1      46.791  27.805  30.924  1.00  0.00     0.029 A 
ATOM     64  C   UNL A   1      45.705  28.673  30.805  1.00  0.00     0.049 A 
ATOM     65  H   UNL A   1      45.851  30.551  29.854  1.00  0.00     0.167 HD
ATOM     66  C   UNL A   1      43.289  29.265  30.826  1.00  0.00     0.074 A 
ATOM     67  C   UNL A   1      43.157  30.163  29.681  1.00  0.00     0.031 C 
ATOM     68  C   UNL A   1      44.374  28.641  31.374  1.00  0.00     0.037 A 
BRANCH  55  69
ATOM     69  C   UNL A   1      46.937  30.578  27.023  1.00  0.00     0.058 A 
ATOM     70  C   UNL A   1      48.175  31.257  27.044  1.00  0.00     0.135 A 
ATOM     71  C   UNL A   1      45.819  31.375  26.689  1.00  0.00     0.135 A 
ATOM     72  F   UNL A   1      49.309  30.605  27.346  1.00  0.00    -0.206 F 
ATOM     73  C   UNL A   1      48.280  32.635  26.841  1.00  0.00     0.059 A 
ATOM     74  C   UNL A   1      45.909  32.738  26.428  1.00  0.00     0.059 A 
ATOM     75  F   UNL A   1      44.569  30.896  26.696  1.00  0.00    -0.206 F 
ATOM     76  C   UNL A   1      47.134  33.369  26.554  1.00  0.00     0.060 A 
BRANCH  76  77
ATOM     77  S   UNL A   1      47.243  35.162  26.414  1.00  0.00     0.124 S 
ATOM     78  O   UNL A   1      45.888  35.501  25.994  1.00  0.00    -0.237 OA
ATOM     79  O   UNL A   1      47.608  35.550  27.773  1.00  0.00    -0.237 OA
ATOM     80  O   UNL A   1      48.284  35.357  25.410  1.00  0.00    -0.744 OA
ENDBRANCH  76  77
ENDBRANCH  55  69
BRANCH  56  81
ATOM     81  C   UNL A   1      38.903  28.779  29.082  1.00  0.00     0.058 A 
ATOM     82  C   UNL A   1      37.919  28.956  30.070  1.00  0.00     0.135 A 
ATOM     83  C   UNL A   1      38.621  29.340  27.818  1.00  0.00     0.135 A 
ATOM     84  F   UNL A   1      38.113  28.475  31.307  1.00  0.00    -0.206 F 
ATOM     85  C   UNL A   1      36.745  29.682  29.833  1.00  0.00     0.059 A 
ATOM     86  C   UNL A   1      37.454  30.059  27.556  1.00  0.00     0.059 A 
ATOM     87  F   UNL A   1      39.515  29.279  26.820  1.00  0.00    -0.206 F 
ATOM     88  C   UNL A   1      36.530  30.246  28.576  1.00  0.00     0.060 A 
BRANCH  88  89
ATOM     89  S   UNL A   1      35.095  31.315  28.311  1.00  0.00     0.124 S 
ATOM     90  O   UNL A   1      35.658  32.375  27.481  1.00  0.00    -0.237 OA
ATOM     91  O   UNL A   1      34.157  30.414  27.649  1.00  0.00    -0.237 OA
ATOM     92  O   UNL A   1      34.720  31.717  29.664  1.00  0.00    -0.744 OA
ENDBRANCH  88  89
ENDBRANCH  56  81
BRANCH  68  93
ATOM     93  C   UNL A   1      44.158  27.671  32.507  1.00  0.00     0.058 A 
ATOM     94  C   UNL A   1      43.873  28.039  33.833  1.00  0.00     0.135 A 
ATOM     95  C   UNL A   1      44.059  26.308  32.188  1.00  0.00     0.135 A 
ATOM     96  F   UNL A   1      43.845  29.326  34.204  1.00  0.00    -0.206 F 
ATOM     97  C   UNL A   1      43.537  27.092  34.804  1.00  0.00     0.059 A 
ATOM     98  C   UNL A   1      43.696  25.350  33.131  1.00  0.00     0.059 A 
ATOM     99  F   UNL A   1      44.260  25.897  30.925  1.00  0.00    -0.206 F 
ATOM    100  C   UNL A   1      43.445  25.749  34.441  1.00  0.00     0.060 A 
BRANCH 100 101
ATOM    101  S   UNL A   1      42.924  24.537  35.674  1.00  0.00     0.124 S 
ATOM    102  O   UNL A   1      43.320  23.278  35.053  1.00  0.00    -0.237 OA
ATOM    103  O   UNL A   1      43.690  24.931  36.852  1.00  0.00    -0.237 OA
ATOM    104  O   UNL A   1      41.482  24.754  35.778  1.00  0.00    -0.744 OA
ENDBRANCH 100 101
ENDBRANCH  68  93
ENDBRANCH  42  43
ENDBRANCH  34  37
ENDBRANCH  32  33
ENDBRANCH  31  32
ENDBRANCH   1  31
TORSDOF 18
ENDMDL
MODEL 3
REMARK VINA RESULT:     -12.9      2.881      4.672
REMARK SMILES Cc1ncc(CO)c([C@H]2[NH2+][C@@H](C(=O)NCCCCNC(=O)c3ccc(-c4c5nc(c(-c6c(F)cc(S(=O)(=O)[O-])cc6F)c6ccc([nH]6)c(-c6c(F)cc(S(=O)(=O)[O-])cc6F)c6nc(c(-c7c(F)cc(S(=O)(=O)[O-])cc7F)c7ccc4[nH]7)C=C6)C=C5)cc3)Cc3[nH]cnc32)c1O
REMARK SMILES IDX 16 1 15 2 14 3 12 4 13 5 11 7 9 8 10 9 93 10 89 13 92 14
REMARK SMILES IDX 88 15 90 16 91 17 8 19 1 20 2 21 3 22 94 23 4 24 5 25 95 26
REMARK SMILES IDX 6 28 7 29 17 31 18 32 19 33 20 34 21 36 22 37 23 38 87 39
REMARK SMILES IDX 24 40 86 41 25 42 26 43 27 44 80 45 28 46 85 47 79 48 81 49
REMARK SMILES IDX 29 50 84 51 78 52 77 53 30 55 64 56 43 57 63 58 44 59 47 60
REMARK SMILES IDX 62 61 82 62 45 63 46 64 61 66 83 67 48 68 31 69 32 70 41 71
REMARK SMILES IDX 33 72 34 73 40 74 42 75 35 76 36 77 37 78 38 79 39 80 65 81
REMARK SMILES IDX 66 82 75 83 67 84 68 85 74 86 76 87 69 88 70 89 71 90 72 91
REMARK SMILES IDX 73 92 49 93 50 94 59 95 51 96 52 97 58 98 60 99 53 100
REMARK SMILES IDX 54 101 55 102 56 103 57 104
REMARK H PARENT 14 6 10 11 10 12 90 18 95 27 7 30 19 35 81 54 47 65
REMARK Flexibility Score: inf
ROOT
ATOM      1  C   UNL A   1      37.930  20.106  24.724  1.00  0.00     0.023 C 
ENDROOT
BRANCH   1   2
ATOM      2  C   UNL A   1      36.670  20.843  25.186  1.00  0.00     0.116 C 
BRANCH   2   3
ATOM      3  N   UNL A   1      36.857  22.281  25.300  1.00  0.00    -0.351 N 
ATOM      4  C   UNL A   1      36.003  23.257  25.746  1.00  0.00     0.278 C 
ATOM      5  O   UNL A   1      36.419  24.414  25.798  1.00  0.00    -0.268 OA
ATOM      6  H   UNL A   1      37.740  22.606  25.011  1.00  0.00     0.163 HD
BRANCH   4   7
ATOM      7  C   UNL A   1      34.551  22.883  26.058  1.00  0.00     0.279 C 
ATOM      8  C   UNL A   1      32.825  21.319  25.476  1.00  0.00     0.270 C 
ATOM      9  N   UNL A   1      34.002  22.049  24.954  1.00  0.00    -0.324 N 
ATOM     10  C   UNL A   1      31.794  22.330  25.888  1.00  0.00     0.124 A 
ATOM     11  H   UNL A   1      33.722  22.646  24.176  1.00  0.00     0.347 HD
ATOM     12  H   UNL A   1      34.706  21.393  24.621  1.00  0.00     0.347 HD
ATOM     13  C   UNL A   1      32.205  23.578  26.352  1.00  0.00     0.051 A 
ATOM     14  N   UNL A   1      30.488  22.110  26.255  1.00  0.00    -0.235 NA
ATOM     15  C   UNL A   1      33.620  24.091  26.332  1.00  0.00     0.131 C 
ATOM     16  N   UNL A   1      31.115  24.150  26.931  1.00  0.00    -0.348 N 
ATOM     17  C   UNL A   1      30.105  23.224  26.853  1.00  0.00     0.197 A 
ATOM     18  H   UNL A   1      31.062  25.050  27.329  1.00  0.00     0.167 HD
BRANCH   8  19
ATOM     19  C   UNL A   1      32.544  20.117  24.612  1.00  0.00     0.066 A 
ATOM     20  C   UNL A   1      33.023  16.354  25.295  1.00  0.00     0.071 C 
ATOM     21  C   UNL A   1      32.692  17.648  24.608  1.00  0.00     0.079 A 
ATOM     22  N   UNL A   1      32.394  17.585  23.297  1.00  0.00    -0.257 NA
ATOM     23  C   UNL A   1      32.732  18.864  25.285  1.00  0.00     0.146 A 
ATOM     24  C   UNL A   1      32.213  18.766  22.658  1.00  0.00     0.118 A 
ATOM     25  C   UNL A   1      32.305  20.049  23.231  1.00  0.00     0.009 A 
BRANCH  23  26
ATOM     26  O   UNL A   1      33.074  18.803  26.621  1.00  0.00    -0.505 OA
ATOM     27  H   UNL A   1      32.430  18.566  27.259  1.00  0.00     0.293 HD
ENDBRANCH  23  26
BRANCH  25  28
ATOM     28  C   UNL A   1      32.159  21.209  22.290  1.00  0.00     0.194 C 
BRANCH  28  29
ATOM     29  O   UNL A   1      31.412  20.798  21.144  1.00  0.00    -0.392 OA
ATOM     30  H   UNL A   1      30.476  21.018  21.271  1.00  0.00     0.211 HD
ENDBRANCH  28  29
ENDBRANCH  25  28
ENDBRANCH   8  19
ENDBRANCH   4   7
ENDBRANCH   2   3
ENDBRANCH   1   2
BRANCH   1  31
ATOM     31  C   UNL A   1      38.869  19.623  25.840  1.00  0.00     0.023 C 
BRANCH  31  32
ATOM     32  C   UNL A   1      40.088  20.505  26.083  1.00  0.00     0.116 C 
BRANCH  32  33
ATOM     33  N   UNL A   1      41.355  19.793  25.917  1.00  0.00    -0.352 N 
ATOM     34  C   UNL A   1      42.612  20.342  25.725  1.00  0.00     0.251 C 
ATOM     35  H   UNL A   1      41.309  18.810  25.943  1.00  0.00     0.163 HD
ATOM     36  O   UNL A   1      43.511  19.692  25.213  1.00  0.00    -0.269 OA
BRANCH  34  37
ATOM     37  C   UNL A   1      42.842  21.731  26.167  1.00  0.00     0.039 A 
ATOM     38  C   UNL A   1      42.609  22.820  25.324  1.00  0.00     0.014 A 
ATOM     39  C   UNL A   1      43.249  21.921  27.483  1.00  0.00     0.014 A 
ATOM     40  C   UNL A   1      42.700  24.108  25.851  1.00  0.00     0.010 A 
ATOM     41  C   UNL A   1      43.193  23.174  28.036  1.00  0.00     0.010 A 
ATOM     42  C   UNL A   1      42.970  24.278  27.218  1.00  0.00    -0.014 A 
BRANCH  42  43
ATOM     43  C   UNL A   1      42.915  25.599  27.841  1.00  0.00     0.031 A 
ATOM     44  C   UNL A   1      44.013  26.532  27.448  1.00  0.00     0.074 A 
ATOM     45  C   UNL A   1      41.820  26.038  28.499  1.00  0.00     0.049 A 
ATOM     46  N   UNL A   1      44.931  27.048  28.198  1.00  0.00    -0.248 NA
ATOM     47  C   UNL A   1      44.186  26.834  26.016  1.00  0.00     0.031 C 
ATOM     48  C   UNL A   1      40.530  25.354  28.667  1.00  0.00     0.029 A 
ATOM     49  N   UNL A   1      41.576  27.257  29.049  1.00  0.00    -0.354 N 
ATOM     50  C   UNL A   1      45.657  27.916  27.381  1.00  0.00     0.074 A 
ATOM     51  C   UNL A   1      45.283  27.595  26.029  1.00  0.00     0.031 C 
ATOM     52  C   UNL A   1      39.587  26.249  29.032  1.00  0.00     0.029 A 
ATOM     53  C   UNL A   1      40.233  27.518  29.301  1.00  0.00     0.049 A 
ATOM     54  H   UNL A   1      42.292  27.903  29.251  1.00  0.00     0.167 HD
ATOM     55  C   UNL A   1      46.323  28.991  27.894  1.00  0.00     0.037 A 
ATOM     56  C   UNL A   1      39.686  28.704  29.670  1.00  0.00     0.037 A 
ATOM     57  C   UNL A   1      46.465  28.876  29.325  1.00  0.00     0.049 A 
ATOM     58  C   UNL A   1      40.788  29.535  30.220  1.00  0.00     0.074 A 
ATOM     59  C   UNL A   1      47.041  27.951  30.173  1.00  0.00     0.029 A 
ATOM     60  N   UNL A   1      45.625  29.630  30.110  1.00  0.00    -0.354 N 
ATOM     61  N   UNL A   1      41.443  29.245  31.312  1.00  0.00    -0.248 NA
ATOM     62  C   UNL A   1      41.472  30.437  29.307  1.00  0.00     0.031 C 
ATOM     63  C   UNL A   1      46.150  27.870  31.284  1.00  0.00     0.029 A 
ATOM     64  C   UNL A   1      45.130  28.802  31.086  1.00  0.00     0.049 A 
ATOM     65  H   UNL A   1      45.418  30.585  29.994  1.00  0.00     0.167 HD
ATOM     66  C   UNL A   1      42.763  29.565  31.032  1.00  0.00     0.074 A 
ATOM     67  C   UNL A   1      42.705  30.379  29.819  1.00  0.00     0.031 C 
ATOM     68  C   UNL A   1      43.797  28.910  31.638  1.00  0.00     0.037 A 
BRANCH  55  69
ATOM     69  C   UNL A   1      46.522  30.314  27.183  1.00  0.00     0.058 A 
ATOM     70  C   UNL A   1      47.804  30.907  27.175  1.00  0.00     0.135 A 
ATOM     71  C   UNL A   1      45.466  31.156  26.767  1.00  0.00     0.135 A 
ATOM     72  F   UNL A   1      48.885  30.205  27.548  1.00  0.00    -0.206 F 
ATOM     73  C   UNL A   1      48.007  32.254  26.868  1.00  0.00     0.059 A 
ATOM     74  C   UNL A   1      45.654  32.485  26.402  1.00  0.00     0.059 A 
ATOM     75  F   UNL A   1      44.187  30.765  26.787  1.00  0.00    -0.206 F 
ATOM     76  C   UNL A   1      46.918  33.039  26.502  1.00  0.00     0.060 A 
BRANCH  76  77
ATOM     77  S   UNL A   1      47.152  34.804  26.226  1.00  0.00     0.124 S 
ATOM     78  O   UNL A   1      45.773  35.264  26.115  1.00  0.00    -0.237 OA
ATOM     79  O   UNL A   1      47.867  35.207  27.433  1.00  0.00    -0.237 OA
ATOM     80  O   UNL A   1      47.936  34.849  24.995  1.00  0.00    -0.744 OA
ENDBRANCH  76  77
ENDBRANCH  55  69
BRANCH  56  81
ATOM     81  C   UNL A   1      38.365  29.261  29.276  1.00  0.00     0.058 A 
ATOM     82  C   UNL A   1      37.392  29.589  30.236  1.00  0.00     0.135 A 
ATOM     83  C   UNL A   1      38.131  29.736  27.969  1.00  0.00     0.135 A 
ATOM     84  F   UNL A   1      37.544  29.196  31.510  1.00  0.00    -0.206 F 
ATOM     85  C   UNL A   1      36.275  30.376  29.929  1.00  0.00     0.059 A 
ATOM     86  C   UNL A   1      37.022  30.515  27.637  1.00  0.00     0.059 A 
ATOM     87  F   UNL A   1      39.024  29.531  26.989  1.00  0.00    -0.206 F 
ATOM     88  C   UNL A   1      36.109  30.851  28.628  1.00  0.00     0.060 A 
BRANCH  88  89
ATOM     89  S   UNL A   1      34.757  31.996  28.262  1.00  0.00     0.124 S 
ATOM     90  O   UNL A   1      35.447  33.050  27.526  1.00  0.00    -0.237 OA
ATOM     91  O   UNL A   1      33.848  31.162  27.484  1.00  0.00    -0.237 OA
ATOM     92  O   UNL A   1      34.271  32.377  29.586  1.00  0.00    -0.744 OA
ENDBRANCH  88  89
ENDBRANCH  56  81
BRANCH  68  93
ATOM     93  C   UNL A   1      43.503  28.048  32.840  1.00  0.00     0.058 A 
ATOM     94  C   UNL A   1      43.430  26.645  32.821  1.00  0.00     0.135 A 
ATOM     95  C   UNL A   1      43.474  28.672  34.097  1.00  0.00     0.135 A 
ATOM     96  F   UNL A   1      43.551  25.961  31.675  1.00  0.00    -0.206 F 
ATOM     97  C   UNL A   1      43.301  25.898  33.995  1.00  0.00     0.059 A 
ATOM     98  C   UNL A   1      43.377  27.947  35.282  1.00  0.00     0.059 A 
ATOM     99  F   UNL A   1      43.600  30.006  34.189  1.00  0.00    -0.206 F 
ATOM    100  C   UNL A   1      43.281  26.559  35.222  1.00  0.00     0.060 A 
BRANCH 100 101
ATOM    101  S   UNL A   1      43.205  25.590  36.744  1.00  0.00     0.124 S 
ATOM    102  O   UNL A   1      43.064  26.626  37.762  1.00  0.00    -0.237 OA
ATOM    103  O   UNL A   1      42.031  24.750  36.528  1.00  0.00    -0.237 OA
ATOM    104  O   UNL A   1      44.479  24.873  36.757  1.00  0.00    -0.744 OA
ENDBRANCH 100 101
ENDBRANCH  68  93
ENDBRANCH  42  43
ENDBRANCH  34  37
ENDBRANCH  32  33
ENDBRANCH  31  32
ENDBRANCH   1  31
TORSDOF 18
ENDMDL
