MODEL 1
REMARK VINA RESULT:     -11.5      0.000      0.000
REMARK SMILES Cc1cc(C(=O)N[C@@H](C)C(=O)NCCCCNC(=O)c2ccc(-c3c4nc(c(-c5c(F)cc(S(=O)(=O)[O-])cc5F)c5ccc([nH]5)c(-c5c(F)cc(S(=O)(=O)[O-])cc5F)c5nc(c(-c6c(F)cc(S(=O)(=O)[O-])cc6F)c6ccc3[nH]6)C=C5)C=C4)cc2)cc(C)c1OC(F)F
REMARK SMILES IDX 14 1 13 2 12 3 10 4 11 5 8 7 9 8 7 9 5 10 6 11 4 13 1 14
REMARK SMILES IDX 2 15 3 16 89 17 87 18 86 19 88 20 90 21 91 22 92 23 93 24
REMARK SMILES IDX 15 25 16 26 17 27 18 28 19 30 20 31 21 32 85 33 22 34 84 35
REMARK SMILES IDX 23 36 24 37 25 38 78 39 26 40 83 41 77 42 79 43 27 44 82 45
REMARK SMILES IDX 76 46 75 47 28 49 62 50 41 51 61 52 42 53 45 54 60 55 80 56
REMARK SMILES IDX 43 57 44 58 59 60 81 61 46 62 29 63 30 64 39 65 31 66 32 67
REMARK SMILES IDX 38 68 40 69 33 70 34 71 35 72 36 73 37 74 63 75 64 76 73 77
REMARK SMILES IDX 65 78 66 79 72 80 74 81 67 82 68 83 69 84 70 85 71 86 47 87
REMARK SMILES IDX 48 88 57 89 49 90 50 91 56 92 58 93 51 94 52 95 53 96 54 97
REMARK SMILES IDX 55 98
REMARK H PARENT 12 6 7 12 17 29 79 48 45 59
REMARK Flexibility Score: inf
ROOT
ATOM      1  C   UNL A   1      31.425  27.859  26.341  1.00  0.00     0.023 C 
ENDROOT
BRANCH   1   2
ATOM      2  C   UNL A   1      30.970  26.823  25.321  1.00  0.00     0.116 C 
BRANCH   2   3
ATOM      3  N   UNL A   1      30.432  27.408  24.106  1.00  0.00    -0.354 N 
ATOM      4  C   UNL A   1      31.048  27.739  22.932  1.00  0.00     0.242 C 
ATOM      5  O   UNL A   1      30.337  28.096  21.988  1.00  0.00    -0.273 OA
ATOM      6  H   UNL A   1      29.467  27.598  24.133  1.00  0.00     0.163 HD
BRANCH   4   7
ATOM      7  C   UNL A   1      32.579  27.667  22.768  1.00  0.00     0.168 C 
ATOM      8  C   UNL A   1      33.245  29.037  22.710  1.00  0.00     0.041 C 
BRANCH   7   9
ATOM      9  N   UNL A   1      32.885  26.806  21.625  1.00  0.00    -0.341 N 
ATOM     10  C   UNL A   1      33.067  25.452  21.503  1.00  0.00     0.251 C 
ATOM     11  O   UNL A   1      33.135  24.997  20.360  1.00  0.00    -0.269 OA
ATOM     12  H   UNL A   1      32.978  27.296  20.775  1.00  0.00     0.164 HD
BRANCH  10  13
ATOM     13  C   UNL A   1      33.313  24.541  22.656  1.00  0.00     0.040 A 
ATOM     14  C   UNL A   1      32.429  20.907  23.203  1.00  0.00     0.048 C 
ATOM     15  C   UNL A   1      33.073  22.230  23.508  1.00  0.00    -0.008 A 
ATOM     16  C   UNL A   1      32.790  23.244  22.561  1.00  0.00     0.021 A 
ATOM     17  C   UNL A   1      33.981  22.525  24.538  1.00  0.00     0.131 A 
ATOM     18  C   UNL A   1      34.430  23.861  24.697  1.00  0.00    -0.008 A 
ATOM     19  C   UNL A   1      34.038  24.864  23.791  1.00  0.00     0.021 A 
ATOM     20  C   UNL A   1      35.418  24.259  25.767  1.00  0.00     0.048 C 
BRANCH  17  21
ATOM     21  O   UNL A   1      34.617  21.653  25.372  1.00  0.00    -0.434 OA
BRANCH  21  22
ATOM     22  C   UNL A   1      35.815  20.996  25.010  1.00  0.00     0.542 C 
ATOM     23  F   UNL A   1      35.620  19.671  24.833  1.00  0.00    -0.167 F 
ATOM     24  F   UNL A   1      36.295  21.538  23.865  1.00  0.00    -0.167 F 
ENDBRANCH  21  22
ENDBRANCH  17  21
ENDBRANCH  10  13
ENDBRANCH   7   9
ENDBRANCH   4   7
ENDBRANCH   2   3
ENDBRANCH   1   2
BRANCH   1  25
ATOM     25  C   UNL A   1      32.889  27.764  26.767  1.00  0.00     0.023 C 
BRANCH  25  26
ATOM     26  C   UNL A   1      33.843  28.735  26.080  1.00  0.00     0.116 C 
BRANCH  26  27
ATOM     27  N   UNL A   1      33.680  30.116  26.513  1.00  0.00    -0.352 N 
ATOM     28  C   UNL A   1      34.457  30.842  27.388  1.00  0.00     0.251 C 
ATOM     29  H   UNL A   1      32.911  30.596  26.128  1.00  0.00     0.163 HD
ATOM     30  O   UNL A   1      34.132  31.975  27.713  1.00  0.00    -0.269 OA
BRANCH  28  31
ATOM     31  C   UNL A   1      35.666  30.215  27.962  1.00  0.00     0.039 A 
ATOM     32  C   UNL A   1      36.883  30.344  27.286  1.00  0.00     0.014 A 
ATOM     33  C   UNL A   1      35.605  29.558  29.194  1.00  0.00     0.014 A 
ATOM     34  C   UNL A   1      38.058  29.890  27.890  1.00  0.00     0.010 A 
ATOM     35  C   UNL A   1      36.783  29.168  29.821  1.00  0.00     0.010 A 
ATOM     36  C   UNL A   1      38.021  29.340  29.180  1.00  0.00    -0.014 A 
BRANCH  36  37
ATOM     37  C   UNL A   1      39.258  28.948  29.902  1.00  0.00     0.031 A 
ATOM     38  C   UNL A   1      39.708  29.744  31.094  1.00  0.00     0.074 A 
ATOM     39  C   UNL A   1      40.037  27.964  29.410  1.00  0.00     0.049 A 
ATOM     40  N   UNL A   1      40.834  29.677  31.755  1.00  0.00    -0.248 NA
ATOM     41  C   UNL A   1      38.781  30.775  31.583  1.00  0.00     0.031 C 
ATOM     42  C   UNL A   1      39.734  27.156  28.227  1.00  0.00     0.029 A 
ATOM     43  N   UNL A   1      41.259  27.498  29.827  1.00  0.00    -0.354 N 
ATOM     44  C   UNL A   1      40.769  30.685  32.709  1.00  0.00     0.074 A 
ATOM     45  C   UNL A   1      39.506  31.365  32.521  1.00  0.00     0.031 C 
ATOM     46  C   UNL A   1      40.745  26.299  28.009  1.00  0.00     0.029 A 
ATOM     47  C   UNL A   1      41.783  26.521  29.013  1.00  0.00     0.049 A 
ATOM     48  H   UNL A   1      41.718  27.832  30.631  1.00  0.00     0.167 HD
ATOM     49  C   UNL A   1      41.677  31.005  33.662  1.00  0.00     0.037 A 
ATOM     50  C   UNL A   1      42.973  25.889  29.054  1.00  0.00     0.037 A 
ATOM     51  C   UNL A   1      42.910  30.293  33.870  1.00  0.00     0.049 A 
ATOM     52  C   UNL A   1      43.947  26.228  30.148  1.00  0.00     0.074 A 
ATOM     53  C   UNL A   1      43.852  30.478  34.865  1.00  0.00     0.029 A 
ATOM     54  N   UNL A   1      43.372  29.260  33.067  1.00  0.00    -0.354 N 
ATOM     55  N   UNL A   1      43.840  27.133  31.091  1.00  0.00    -0.248 NA
ATOM     56  C   UNL A   1      45.201  25.461  30.189  1.00  0.00     0.031 C 
ATOM     57  C   UNL A   1      44.901  29.581  34.645  1.00  0.00     0.029 A 
ATOM     58  C   UNL A   1      44.594  28.810  33.534  1.00  0.00     0.049 A 
ATOM     59  H   UNL A   1      42.900  28.901  32.281  1.00  0.00     0.167 HD
ATOM     60  C   UNL A   1      44.999  27.030  31.851  1.00  0.00     0.074 A 
ATOM     61  C   UNL A   1      45.794  25.972  31.261  1.00  0.00     0.031 C 
ATOM     62  C   UNL A   1      45.366  27.745  32.943  1.00  0.00     0.037 A 
BRANCH  49  63
ATOM     63  C   UNL A   1      41.368  32.183  34.542  1.00  0.00     0.058 A 
ATOM     64  C   UNL A   1      40.729  32.033  35.782  1.00  0.00     0.135 A 
ATOM     65  C   UNL A   1      41.713  33.482  34.136  1.00  0.00     0.135 A 
ATOM     66  F   UNL A   1      40.365  30.814  36.212  1.00  0.00    -0.206 F 
ATOM     67  C   UNL A   1      40.404  33.132  36.570  1.00  0.00     0.059 A 
ATOM     68  C   UNL A   1      41.422  34.594  34.921  1.00  0.00     0.059 A 
ATOM     69  F   UNL A   1      42.329  33.682  32.959  1.00  0.00    -0.206 F 
ATOM     70  C   UNL A   1      40.745  34.409  36.125  1.00  0.00     0.060 A 
BRANCH  70  71
ATOM     71  S   UNL A   1      40.289  35.830  37.140  1.00  0.00     0.124 S 
ATOM     72  O   UNL A   1      40.006  36.835  36.120  1.00  0.00    -0.237 OA
ATOM     73  O   UNL A   1      39.131  35.335  37.876  1.00  0.00    -0.237 OA
ATOM     74  O   UNL A   1      41.483  36.071  37.944  1.00  0.00    -0.744 OA
ENDBRANCH  70  71
ENDBRANCH  49  63
BRANCH  50  75
ATOM     75  C   UNL A   1      43.290  24.862  28.029  1.00  0.00     0.058 A 
ATOM     76  C   UNL A   1      43.986  25.201  26.861  1.00  0.00     0.135 A 
ATOM     77  C   UNL A   1      42.957  23.512  28.226  1.00  0.00     0.135 A 
ATOM     78  F   UNL A   1      44.320  26.480  26.627  1.00  0.00    -0.206 F 
ATOM     79  C   UNL A   1      44.348  24.239  25.924  1.00  0.00     0.059 A 
ATOM     80  C   UNL A   1      43.324  22.529  27.312  1.00  0.00     0.059 A 
ATOM     81  F   UNL A   1      42.305  23.136  29.336  1.00  0.00    -0.206 F 
ATOM     82  C   UNL A   1      44.020  22.903  26.162  1.00  0.00     0.060 A 
BRANCH  82  83
ATOM     83  S   UNL A   1      44.575  21.651  24.985  1.00  0.00     0.124 S 
ATOM     84  O   UNL A   1      44.414  22.350  23.715  1.00  0.00    -0.237 OA
ATOM     85  O   UNL A   1      45.950  21.414  25.414  1.00  0.00    -0.237 OA
ATOM     86  O   UNL A   1      43.655  20.542  25.218  1.00  0.00    -0.744 OA
ENDBRANCH  82  83
ENDBRANCH  50  75
BRANCH  62  87
ATOM     87  C   UNL A   1      46.671  27.398  33.602  1.00  0.00     0.058 A 
ATOM     88  C   UNL A   1      46.763  26.369  34.550  1.00  0.00     0.135 A 
ATOM     89  C   UNL A   1      47.857  28.032  33.198  1.00  0.00     0.135 A 
ATOM     90  F   UNL A   1      45.656  25.739  34.974  1.00  0.00    -0.206 F 
ATOM     91  C   UNL A   1      47.991  25.975  35.073  1.00  0.00     0.059 A 
ATOM     92  C   UNL A   1      49.096  27.641  33.693  1.00  0.00     0.059 A 
ATOM     93  F   UNL A   1      47.819  29.018  32.288  1.00  0.00    -0.206 F 
ATOM     94  C   UNL A   1      49.153  26.611  34.630  1.00  0.00     0.060 A 
BRANCH  94  95
ATOM     95  S   UNL A   1      50.747  26.034  35.252  1.00  0.00     0.124 S 
ATOM     96  O   UNL A   1      50.830  24.703  34.660  1.00  0.00    -0.237 OA
ATOM     97  O   UNL A   1      51.672  27.027  34.711  1.00  0.00    -0.237 OA
ATOM     98  O   UNL A   1      50.579  26.069  36.701  1.00  0.00    -0.744 OA
ENDBRANCH  94  95
ENDBRANCH  62  87
ENDBRANCH  36  37
ENDBRANCH  28  31
ENDBRANCH  26  27
ENDBRANCH  25  26
ENDBRANCH   1  25
TORSDOF 18
ENDMDL
MODEL 2
REMARK VINA RESULT:     -11.2      3.633      4.743
REMARK SMILES Cc1cc(C(=O)N[C@@H](C)C(=O)NCCCCNC(=O)c2ccc(-c3c4nc(c(-c5c(F)cc(S(=O)(=O)[O-])cc5F)c5ccc([nH]5)c(-c5c(F)cc(S(=O)(=O)[O-])cc5F)c5nc(c(-c6c(F)cc(S(=O)(=O)[O-])cc6F)c6ccc3[nH]6)C=C5)C=C4)cc2)cc(C)c1OC(F)F
REMARK SMILES IDX 14 1 13 2 12 3 10 4 11 5 8 7 9 8 7 9 5 10 6 11 4 13 1 14
REMARK SMILES IDX 2 15 3 16 89 17 87 18 86 19 88 20 90 21 91 22 92 23 93 24
REMARK SMILES IDX 15 25 16 26 17 27 18 28 19 30 20 31 21 32 85 33 22 34 84 35
REMARK SMILES IDX 23 36 24 37 25 38 78 39 26 40 83 41 77 42 79 43 27 44 82 45
REMARK SMILES IDX 76 46 75 47 28 49 62 50 41 51 61 52 42 53 45 54 60 55 80 56
REMARK SMILES IDX 43 57 44 58 59 60 81 61 46 62 29 63 30 64 39 65 31 66 32 67
REMARK SMILES IDX 38 68 40 69 33 70 34 71 35 72 36 73 37 74 63 75 64 76 73 77
REMARK SMILES IDX 65 78 66 79 72 80 74 81 67 82 68 83 69 84 70 85 71 86 47 87
REMARK SMILES IDX 48 88 57 89 49 90 50 91 56 92 58 93 51 94 52 95 53 96 54 97
REMARK SMILES IDX 55 98
REMARK H PARENT 12 6 7 12 17 29 79 48 45 59
REMARK Flexibility Score: inf
ROOT
ATOM      1  C   UNL A   1      31.680  27.525  26.776  1.00  0.00     0.023 C 
ENDROOT
BRANCH   1   2
ATOM      2  C   UNL A   1      32.216  26.144  26.418  1.00  0.00     0.116 C 
BRANCH   2   3
ATOM      3  N   UNL A   1      31.360  25.060  26.864  1.00  0.00    -0.354 N 
ATOM      4  C   UNL A   1      31.550  23.707  26.832  1.00  0.00     0.242 C 
ATOM      5  O   UNL A   1      30.723  22.994  27.408  1.00  0.00    -0.273 OA
ATOM      6  H   UNL A   1      30.502  25.347  27.252  1.00  0.00     0.163 HD
BRANCH   4   7
ATOM      7  C   UNL A   1      32.757  23.072  26.113  1.00  0.00     0.168 C 
ATOM      8  C   UNL A   1      33.893  24.055  25.855  1.00  0.00     0.041 C 
BRANCH   7   9
ATOM      9  N   UNL A   1      32.275  22.389  24.912  1.00  0.00    -0.341 N 
ATOM     10  C   UNL A   1      31.927  22.837  23.663  1.00  0.00     0.251 C 
ATOM     11  O   UNL A   1      31.729  21.984  22.797  1.00  0.00    -0.269 OA
ATOM     12  H   UNL A   1      32.183  21.414  25.022  1.00  0.00     0.164 HD
BRANCH  10  13
ATOM     13  C   UNL A   1      31.655  24.266  23.341  1.00  0.00     0.040 A 
ATOM     14  C   UNL A   1      28.589  26.409  23.883  1.00  0.00     0.048 C 
ATOM     15  C   UNL A   1      30.014  26.111  23.511  1.00  0.00    -0.008 A 
ATOM     16  C   UNL A   1      30.368  24.744  23.622  1.00  0.00     0.021 A 
ATOM     17  C   UNL A   1      31.025  27.028  23.180  1.00  0.00     0.131 A 
ATOM     18  C   UNL A   1      32.299  26.539  22.796  1.00  0.00    -0.008 A 
ATOM     19  C   UNL A   1      32.576  25.159  22.820  1.00  0.00     0.021 A 
ATOM     20  C   UNL A   1      33.444  27.457  22.443  1.00  0.00     0.048 C 
BRANCH  17  21
ATOM     21  O   UNL A   1      30.996  28.387  23.297  1.00  0.00    -0.434 OA
BRANCH  21  22
ATOM     22  C   UNL A   1      30.055  29.186  22.609  1.00  0.00     0.542 C 
ATOM     23  F   UNL A   1      29.406  30.023  23.449  1.00  0.00    -0.167 F 
ATOM     24  F   UNL A   1      30.691  29.908  21.656  1.00  0.00    -0.167 F 
ENDBRANCH  21  22
ENDBRANCH  17  21
ENDBRANCH  10  13
ENDBRANCH   7   9
ENDBRANCH   4   7
ENDBRANCH   2   3
ENDBRANCH   1   2
BRANCH   1  25
ATOM     25  C   UNL A   1      32.582  28.699  26.397  1.00  0.00     0.023 C 
BRANCH  25  26
ATOM     26  C   UNL A   1      33.770  28.945  27.320  1.00  0.00     0.116 C 
BRANCH  26  27
ATOM     27  N   UNL A   1      33.719  30.228  28.006  1.00  0.00    -0.352 N 
ATOM     28  C   UNL A   1      34.710  30.865  28.719  1.00  0.00     0.251 C 
ATOM     29  H   UNL A   1      32.859  30.706  27.954  1.00  0.00     0.163 HD
ATOM     30  O   UNL A   1      34.476  31.909  29.311  1.00  0.00    -0.269 OA
BRANCH  28  31
ATOM     31  C   UNL A   1      36.049  30.244  28.793  1.00  0.00     0.039 A 
ATOM     32  C   UNL A   1      36.851  30.224  27.649  1.00  0.00     0.014 A 
ATOM     33  C   UNL A   1      36.530  29.745  30.006  1.00  0.00     0.014 A 
ATOM     34  C   UNL A   1      38.173  29.780  27.741  1.00  0.00     0.010 A 
ATOM     35  C   UNL A   1      37.865  29.368  30.110  1.00  0.00     0.010 A 
ATOM     36  C   UNL A   1      38.701  29.392  28.982  1.00  0.00    -0.014 A 
BRANCH  36  37
ATOM     37  C   UNL A   1      40.129  29.021  29.145  1.00  0.00     0.031 A 
ATOM     38  C   UNL A   1      41.132  30.072  29.527  1.00  0.00     0.074 A 
ATOM     39  C   UNL A   1      40.539  27.777  28.826  1.00  0.00     0.049 A 
ATOM     40  N   UNL A   1      42.438  29.998  29.554  1.00  0.00    -0.248 NA
ATOM     41  C   UNL A   1      40.595  31.392  29.891  1.00  0.00     0.031 C 
ATOM     42  C   UNL A   1      39.667  26.685  28.388  1.00  0.00     0.029 A 
ATOM     43  N   UNL A   1      41.798  27.232  28.790  1.00  0.00    -0.354 N 
ATOM     44  C   UNL A   1      42.878  31.271  29.896  1.00  0.00     0.074 A 
ATOM     45  C   UNL A   1      41.703  32.102  30.037  1.00  0.00     0.031 C 
ATOM     46  C   UNL A   1      40.418  25.603  28.122  1.00  0.00     0.029 A 
ATOM     47  C   UNL A   1      41.824  25.934  28.333  1.00  0.00     0.049 A 
ATOM     48  H   UNL A   1      42.606  27.723  29.063  1.00  0.00     0.167 HD
ATOM     49  C   UNL A   1      44.148  31.702  30.085  1.00  0.00     0.037 A 
ATOM     50  C   UNL A   1      42.863  25.110  28.090  1.00  0.00     0.037 A 
ATOM     51  C   UNL A   1      45.308  30.856  29.987  1.00  0.00     0.049 A 
ATOM     52  C   UNL A   1      44.262  25.594  28.351  1.00  0.00     0.074 A 
ATOM     53  C   UNL A   1      46.628  31.173  30.252  1.00  0.00     0.029 A 
ATOM     54  N   UNL A   1      45.286  29.526  29.592  1.00  0.00    -0.354 N 
ATOM     55  N   UNL A   1      44.660  26.779  28.747  1.00  0.00    -0.248 NA
ATOM     56  C   UNL A   1      45.353  24.633  28.136  1.00  0.00     0.031 C 
ATOM     57  C   UNL A   1      47.409  30.045  29.983  1.00  0.00     0.029 A 
ATOM     58  C   UNL A   1      46.571  29.013  29.588  1.00  0.00     0.049 A 
ATOM     59  H   UNL A   1      44.475  29.022  29.349  1.00  0.00     0.167 HD
ATOM     60  C   UNL A   1      46.044  26.701  28.853  1.00  0.00     0.074 A 
ATOM     61  C   UNL A   1      46.415  25.351  28.481  1.00  0.00     0.031 C 
ATOM     62  C   UNL A   1      46.923  27.661  29.229  1.00  0.00     0.037 A 
BRANCH  49  63
ATOM     63  C   UNL A   1      44.343  33.156  30.408  1.00  0.00     0.058 A 
ATOM     64  C   UNL A   1      44.414  33.617  31.732  1.00  0.00     0.135 A 
ATOM     65  C   UNL A   1      44.456  34.103  29.378  1.00  0.00     0.135 A 
ATOM     66  F   UNL A   1      44.297  32.755  32.755  1.00  0.00    -0.206 F 
ATOM     67  C   UNL A   1      44.546  34.970  32.024  1.00  0.00     0.059 A 
ATOM     68  C   UNL A   1      44.617  35.459  29.647  1.00  0.00     0.059 A 
ATOM     69  F   UNL A   1      44.398  33.716  28.094  1.00  0.00    -0.206 F 
ATOM     70  C   UNL A   1      44.637  35.884  30.975  1.00  0.00     0.060 A 
BRANCH  70  71
ATOM     71  S   UNL A   1      44.776  37.641  31.366  1.00  0.00     0.124 S 
ATOM     72  O   UNL A   1      43.607  37.840  32.217  1.00  0.00    -0.237 OA
ATOM     73  O   UNL A   1      46.068  37.715  32.039  1.00  0.00    -0.237 OA
ATOM     74  O   UNL A   1      44.716  38.286  30.058  1.00  0.00    -0.744 OA
ENDBRANCH  70  71
ENDBRANCH  49  63
BRANCH  50  75
ATOM     75  C   UNL A   1      42.602  23.737  27.586  1.00  0.00     0.058 A 
ATOM     76  C   UNL A   1      42.598  23.464  26.211  1.00  0.00     0.135 A 
ATOM     77  C   UNL A   1      42.413  22.662  28.469  1.00  0.00     0.135 A 
ATOM     78  F   UNL A   1      42.768  24.461  25.329  1.00  0.00    -0.206 F 
ATOM     79  C   UNL A   1      42.422  22.173  25.726  1.00  0.00     0.059 A 
ATOM     80  C   UNL A   1      42.253  21.359  28.009  1.00  0.00     0.059 A 
ATOM     81  F   UNL A   1      42.425  22.871  29.794  1.00  0.00    -0.206 F 
ATOM     82  C   UNL A   1      42.259  21.124  26.633  1.00  0.00     0.060 A 
BRANCH  82  83
ATOM     83  S   UNL A   1      42.123  19.439  25.997  1.00  0.00     0.124 S 
ATOM     84  O   UNL A   1      43.016  19.488  24.845  1.00  0.00    -0.237 OA
ATOM     85  O   UNL A   1      42.585  18.644  27.131  1.00  0.00    -0.237 OA
ATOM     86  O   UNL A   1      40.701  19.311  25.690  1.00  0.00    -0.744 OA
ENDBRANCH  82  83
ENDBRANCH  50  75
BRANCH  62  87
ATOM     87  C   UNL A   1      48.378  27.293  29.293  1.00  0.00     0.058 A 
ATOM     88  C   UNL A   1      49.241  27.525  28.213  1.00  0.00     0.135 A 
ATOM     89  C   UNL A   1      48.931  26.804  30.487  1.00  0.00     0.135 A 
ATOM     90  F   UNL A   1      48.759  27.984  27.048  1.00  0.00    -0.206 F 
ATOM     91  C   UNL A   1      50.609  27.289  28.316  1.00  0.00     0.059 A 
ATOM     92  C   UNL A   1      50.297  26.580  30.619  1.00  0.00     0.059 A 
ATOM     93  F   UNL A   1      48.145  26.574  31.551  1.00  0.00    -0.206 F 
ATOM     94  C   UNL A   1      51.128  26.826  29.527  1.00  0.00     0.060 A 
BRANCH  94  95
ATOM     95  S   UNL A   1      52.914  26.605  29.676  1.00  0.00     0.124 S 
ATOM     96  O   UNL A   1      53.013  25.835  30.912  1.00  0.00    -0.237 OA
ATOM     97  O   UNL A   1      53.244  25.882  28.451  1.00  0.00    -0.237 OA
ATOM     98  O   UNL A   1      53.421  27.972  29.745  1.00  0.00    -0.744 OA
ENDBRANCH  94  95
ENDBRANCH  62  87
ENDBRANCH  36  37
ENDBRANCH  28  31
ENDBRANCH  26  27
ENDBRANCH  25  26
ENDBRANCH   1  25
TORSDOF 18
ENDMDL
MODEL 3
REMARK VINA RESULT:     -11.1      0.920      1.738
REMARK SMILES Cc1cc(C(=O)N[C@@H](C)C(=O)NCCCCNC(=O)c2ccc(-c3c4nc(c(-c5c(F)cc(S(=O)(=O)[O-])cc5F)c5ccc([nH]5)c(-c5c(F)cc(S(=O)(=O)[O-])cc5F)c5nc(c(-c6c(F)cc(S(=O)(=O)[O-])cc6F)c6ccc3[nH]6)C=C5)C=C4)cc2)cc(C)c1OC(F)F
REMARK SMILES IDX 14 1 13 2 12 3 10 4 11 5 8 7 9 8 7 9 5 10 6 11 4 13 1 14
REMARK SMILES IDX 2 15 3 16 89 17 87 18 86 19 88 20 90 21 91 22 92 23 93 24
REMARK SMILES IDX 15 25 16 26 17 27 18 28 19 30 20 31 21 32 85 33 22 34 84 35
REMARK SMILES IDX 23 36 24 37 25 38 78 39 26 40 83 41 77 42 79 43 27 44 82 45
REMARK SMILES IDX 76 46 75 47 28 49 62 50 41 51 61 52 42 53 45 54 60 55 80 56
REMARK SMILES IDX 43 57 44 58 59 60 81 61 46 62 29 63 30 64 39 65 31 66 32 67
REMARK SMILES IDX 38 68 40 69 33 70 34 71 35 72 36 73 37 74 63 75 64 76 73 77
REMARK SMILES IDX 65 78 66 79 72 80 74 81 67 82 68 83 69 84 70 85 71 86 47 87
REMARK SMILES IDX 48 88 57 89 49 90 50 91 56 92 58 93 51 94 52 95 53 96 54 97
REMARK SMILES IDX 55 98
REMARK H PARENT 12 6 7 12 17 29 79 48 45 59
REMARK Flexibility Score: inf
ROOT
ATOM      1  C   UNL A   1      31.582  28.067  26.350  1.00  0.00     0.023 C 
ENDROOT
BRANCH   1   2
ATOM      2  C   UNL A   1      31.064  26.927  25.482  1.00  0.00     0.116 C 
BRANCH   2   3
ATOM      3  N   UNL A   1      30.515  27.371  24.214  1.00  0.00    -0.354 N 
ATOM      4  C   UNL A   1      31.118  27.563  23.003  1.00  0.00     0.242 C 
ATOM      5  O   UNL A   1      30.398  27.813  22.032  1.00  0.00    -0.273 OA
ATOM      6  H   UNL A   1      29.550  27.567  24.230  1.00  0.00     0.163 HD
BRANCH   4   7
ATOM      7  C   UNL A   1      32.647  27.467  22.832  1.00  0.00     0.168 C 
ATOM      8  C   UNL A   1      33.348  28.819  22.891  1.00  0.00     0.041 C 
BRANCH   7   9
ATOM      9  N   UNL A   1      32.932  26.699  21.619  1.00  0.00    -0.341 N 
ATOM     10  C   UNL A   1      33.077  25.355  21.381  1.00  0.00     0.251 C 
ATOM     11  O   UNL A   1      33.136  24.999  20.204  1.00  0.00    -0.269 OA
ATOM     12  H   UNL A   1      33.042  27.257  20.815  1.00  0.00     0.164 HD
BRANCH  10  13
ATOM     13  C   UNL A   1      33.293  24.342  22.452  1.00  0.00     0.040 A 
ATOM     14  C   UNL A   1      36.084  23.919  24.966  1.00  0.00     0.048 C 
ATOM     15  C   UNL A   1      34.755  23.641  24.321  1.00  0.00    -0.008 A 
ATOM     16  C   UNL A   1      34.486  24.436  23.181  1.00  0.00     0.021 A 
ATOM     17  C   UNL A   1      33.744  22.780  24.778  1.00  0.00     0.131 A 
ATOM     18  C   UNL A   1      32.580  22.607  23.986  1.00  0.00    -0.008 A 
ATOM     19  C   UNL A   1      32.400  23.343  22.800  1.00  0.00     0.021 A 
ATOM     20  C   UNL A   1      31.439  21.715  24.413  1.00  0.00     0.048 C 
BRANCH  17  21
ATOM     21  O   UNL A   1      33.659  22.150  25.985  1.00  0.00    -0.434 OA
BRANCH  21  22
ATOM     22  C   UNL A   1      33.442  22.853  27.191  1.00  0.00     0.542 C 
ATOM     23  F   UNL A   1      34.587  22.997  27.894  1.00  0.00    -0.167 F 
ATOM     24  F   UNL A   1      32.927  24.074  26.913  1.00  0.00    -0.167 F 
ENDBRANCH  21  22
ENDBRANCH  17  21
ENDBRANCH  10  13
ENDBRANCH   7   9
ENDBRANCH   4   7
ENDBRANCH   2   3
ENDBRANCH   1   2
BRANCH   1  25
ATOM     25  C   UNL A   1      33.030  27.932  26.818  1.00  0.00     0.023 C 
BRANCH  25  26
ATOM     26  C   UNL A   1      34.017  28.921  26.208  1.00  0.00     0.116 C 
BRANCH  26  27
ATOM     27  N   UNL A   1      33.850  30.285  26.691  1.00  0.00    -0.352 N 
ATOM     28  C   UNL A   1      34.634  30.987  27.577  1.00  0.00     0.251 C 
ATOM     29  H   UNL A   1      33.070  30.770  26.335  1.00  0.00     0.163 HD
ATOM     30  O   UNL A   1      34.304  32.106  27.946  1.00  0.00    -0.269 OA
BRANCH  28  31
ATOM     31  C   UNL A   1      35.858  30.352  28.110  1.00  0.00     0.039 A 
ATOM     32  C   UNL A   1      37.072  30.559  27.449  1.00  0.00     0.014 A 
ATOM     33  C   UNL A   1      35.811  29.611  29.293  1.00  0.00     0.014 A 
ATOM     34  C   UNL A   1      38.257  30.093  28.023  1.00  0.00     0.010 A 
ATOM     35  C   UNL A   1      36.998  29.208  29.896  1.00  0.00     0.010 A 
ATOM     36  C   UNL A   1      38.232  29.454  29.272  1.00  0.00    -0.014 A 
BRANCH  36  37
ATOM     37  C   UNL A   1      39.478  29.044  29.968  1.00  0.00     0.031 A 
ATOM     38  C   UNL A   1      39.979  29.850  31.133  1.00  0.00     0.074 A 
ATOM     39  C   UNL A   1      40.218  28.031  29.476  1.00  0.00     0.049 A 
ATOM     40  N   UNL A   1      41.121  29.767  31.765  1.00  0.00    -0.248 NA
ATOM     41  C   UNL A   1      39.092  30.915  31.625  1.00  0.00     0.031 C 
ATOM     42  C   UNL A   1      39.864  27.209  28.316  1.00  0.00     0.029 A 
ATOM     43  N   UNL A   1      41.439  27.542  29.869  1.00  0.00    -0.354 N 
ATOM     44  C   UNL A   1      41.107  30.794  32.700  1.00  0.00     0.074 A 
ATOM     45  C   UNL A   1      39.858  31.503  32.532  1.00  0.00     0.031 C 
ATOM     46  C   UNL A   1      40.846  26.322  28.089  1.00  0.00     0.029 A 
ATOM     47  C   UNL A   1      41.916  26.536  29.061  1.00  0.00     0.049 A 
ATOM     48  H   UNL A   1      41.927  27.879  30.654  1.00  0.00     0.167 HD
ATOM     49  C   UNL A   1      42.048  31.109  33.622  1.00  0.00     0.037 A 
ATOM     50  C   UNL A   1      43.090  25.875  29.083  1.00  0.00     0.037 A 
ATOM     51  C   UNL A   1      43.267  30.369  33.812  1.00  0.00     0.049 A 
ATOM     52  C   UNL A   1      44.102  26.209  30.144  1.00  0.00     0.074 A 
ATOM     53  C   UNL A   1      44.240  30.549  34.778  1.00  0.00     0.029 A 
ATOM     54  N   UNL A   1      43.681  29.309  33.017  1.00  0.00    -0.354 N 
ATOM     55  N   UNL A   1      44.043  27.134  31.071  1.00  0.00    -0.248 NA
ATOM     56  C   UNL A   1      45.336  25.410  30.167  1.00  0.00     0.031 C 
ATOM     57  C   UNL A   1      45.260  29.620  34.548  1.00  0.00     0.029 A 
ATOM     58  C   UNL A   1      44.904  28.836  33.461  1.00  0.00     0.049 A 
ATOM     59  H   UNL A   1      43.180  28.948  32.251  1.00  0.00     0.167 HD
ATOM     60  C   UNL A   1      45.219  27.016  31.803  1.00  0.00     0.074 A 
ATOM     61  C   UNL A   1      45.970  25.927  31.212  1.00  0.00     0.031 C 
ATOM     62  C   UNL A   1      45.633  27.741  32.870  1.00  0.00     0.037 A 
BRANCH  49  63
ATOM     63  C   UNL A   1      41.793  32.310  34.487  1.00  0.00     0.058 A 
ATOM     64  C   UNL A   1      41.103  32.213  35.705  1.00  0.00     0.135 A 
ATOM     65  C   UNL A   1      42.242  33.580  34.088  1.00  0.00     0.135 A 
ATOM     66  F   UNL A   1      40.639  31.025  36.126  1.00  0.00    -0.206 F 
ATOM     67  C   UNL A   1      40.829  33.337  36.477  1.00  0.00     0.059 A 
ATOM     68  C   UNL A   1      42.003  34.714  34.859  1.00  0.00     0.059 A 
ATOM     69  F   UNL A   1      42.910  33.729  32.933  1.00  0.00    -0.206 F 
ATOM     70  C   UNL A   1      41.274  34.584  36.040  1.00  0.00     0.060 A 
BRANCH  70  71
ATOM     71  S   UNL A   1      40.884  36.040  37.033  1.00  0.00     0.124 S 
ATOM     72  O   UNL A   1      40.451  35.427  38.286  1.00  0.00    -0.237 OA
ATOM     73  O   UNL A   1      42.162  36.742  37.082  1.00  0.00    -0.237 OA
ATOM     74  O   UNL A   1      39.836  36.704  36.265  1.00  0.00    -0.744 OA
ENDBRANCH  70  71
ENDBRANCH  49  63
BRANCH  50  75
ATOM     75  C   UNL A   1      43.353  24.820  28.070  1.00  0.00     0.058 A 
ATOM     76  C   UNL A   1      43.946  25.136  26.840  1.00  0.00     0.135 A 
ATOM     77  C   UNL A   1      43.074  23.470  28.337  1.00  0.00     0.135 A 
ATOM     78  F   UNL A   1      44.224  26.414  26.538  1.00  0.00    -0.206 F 
ATOM     79  C   UNL A   1      44.259  24.151  25.909  1.00  0.00     0.059 A 
ATOM     80  C   UNL A   1      43.395  22.466  27.430  1.00  0.00     0.059 A 
ATOM     81  F   UNL A   1      42.522  23.117  29.508  1.00  0.00    -0.206 F 
ATOM     82  C   UNL A   1      43.988  22.817  26.216  1.00  0.00     0.060 A 
BRANCH  82  83
ATOM     83  S   UNL A   1      44.482  21.538  25.040  1.00  0.00     0.124 S 
ATOM     84  O   UNL A   1      45.819  21.202  25.517  1.00  0.00    -0.237 OA
ATOM     85  O   UNL A   1      43.456  20.519  25.246  1.00  0.00    -0.237 OA
ATOM     86  O   UNL A   1      44.422  22.225  23.754  1.00  0.00    -0.744 OA
ENDBRANCH  82  83
ENDBRANCH  50  75
BRANCH  62  87
ATOM     87  C   UNL A   1      46.945  27.373  33.502  1.00  0.00     0.058 A 
ATOM     88  C   UNL A   1      48.153  27.938  33.066  1.00  0.00     0.135 A 
ATOM     89  C   UNL A   1      46.978  26.529  34.623  1.00  0.00     0.135 A 
ATOM     90  F   UNL A   1      48.174  28.744  31.994  1.00  0.00    -0.206 F 
ATOM     91  C   UNL A   1      49.351  27.683  33.727  1.00  0.00     0.059 A 
ATOM     92  C   UNL A   1      48.160  26.276  35.310  1.00  0.00     0.059 A 
ATOM     93  F   UNL A   1      45.846  25.970  35.081  1.00  0.00    -0.206 F 
ATOM     94  C   UNL A   1      49.342  26.858  34.854  1.00  0.00     0.060 A 
BRANCH  94  95
ATOM     95  S   UNL A   1      50.887  26.602  35.753  1.00  0.00     0.124 S 
ATOM     96  O   UNL A   1      50.968  27.820  36.553  1.00  0.00    -0.237 OA
ATOM     97  O   UNL A   1      50.619  25.373  36.494  1.00  0.00    -0.237 OA
ATOM     98  O   UNL A   1      51.881  26.481  34.691  1.00  0.00    -0.744 OA
ENDBRANCH  94  95
ENDBRANCH  62  87
ENDBRANCH  36  37
ENDBRANCH  28  31
ENDBRANCH  26  27
ENDBRANCH  25  26
ENDBRANCH   1  25
TORSDOF 18
ENDMDL
