MODEL 1
REMARK VINA RESULT:     -10.8      0.000      0.000
REMARK SMILES O=C(CCC(=O)Nc1ccc2nc(-c3ccccc3)oc2c1)NCCCCNC(=O)c1ccc(-c2c3nc(c(-c4c(F)cc(S(=O)(=O)[O-])cc4F)c4ccc([nH]4)c(-c4c(F)cc(S(=O)(=O)[O-])cc4F)c4nc(c(-c5c(F)cc(S(=O)(=O)[O-])cc5F)c5ccc2[nH]5)C=C4)C=C3)cc1
REMARK SMILES IDX 25 1 24 2 23 3 1 4 2 5 3 7 4 8 5 9 6 10 7 11 8 13 9 14 22 15
REMARK SMILES IDX 10 16 21 17 11 18 20 19 12 20 13 21 14 22 15 23 19 24 16 25
REMARK SMILES IDX 18 26 17 27 26 28 27 29 28 30 29 31 30 33 31 34 32 35 96 36
REMARK SMILES IDX 33 37 95 38 34 39 35 40 36 41 89 42 37 43 94 44 88 45 90 46
REMARK SMILES IDX 38 47 93 48 87 49 86 50 39 52 73 53 52 54 72 55 53 56 56 57
REMARK SMILES IDX 71 58 91 59 54 60 55 61 70 63 92 64 57 65 40 66 41 67 50 68
REMARK SMILES IDX 42 69 43 70 49 71 51 72 44 73 45 74 46 75 47 76 48 77 74 78
REMARK SMILES IDX 75 79 84 80 76 81 77 82 83 83 85 84 78 85 79 86 80 87 81 88
REMARK SMILES IDX 82 89 58 90 59 91 68 92 60 93 61 94 67 95 69 96 62 97 63 98
REMARK SMILES IDX 64 99 65 100 66 101
REMARK H PARENT 23 6 7 12 28 32 90 51 56 62
REMARK Flexibility Score: inf
ROOT
ATOM      1  C   UNL A   1      34.933  34.465  27.950  1.00  0.00     0.023 C 
ENDROOT
BRANCH   1   2
ATOM      2  C   UNL A   1      34.402  35.862  27.647  1.00  0.00     0.116 C 
BRANCH   2   3
ATOM      3  N   UNL A   1      34.242  36.712  28.815  1.00  0.00    -0.356 N 
ATOM      4  O   UNL A   1      32.085  36.074  29.298  1.00  0.00    -0.275 OA
ATOM      5  C   UNL A   1      33.120  36.656  29.611  1.00  0.00     0.220 C 
ATOM      6  H   UNL A   1      34.958  37.348  29.043  1.00  0.00     0.163 HD
BRANCH   5   7
ATOM      7  C   UNL A   1      33.278  37.304  30.972  1.00  0.00     0.110 C 
BRANCH   7   8
ATOM      8  C   UNL A   1      32.899  36.410  32.154  1.00  0.00     0.110 C 
BRANCH   8   9
ATOM      9  C   UNL A   1      33.708  36.661  33.405  1.00  0.00     0.224 C 
ATOM     10  O   UNL A   1      33.778  37.814  33.847  1.00  0.00    -0.275 OA
ATOM     11  N   UNL A   1      34.408  35.705  34.080  1.00  0.00    -0.326 N 
ATOM     12  H   UNL A   1      34.638  35.978  34.997  1.00  0.00     0.169 HD
BRANCH  11  13
ATOM     13  C   UNL A   1      34.876  34.413  33.761  1.00  0.00     0.045 A 
ATOM     14  C   UNL A   1      34.209  33.524  32.914  1.00  0.00     0.028 A 
ATOM     15  C   UNL A   1      36.169  34.087  34.230  1.00  0.00     0.075 A 
ATOM     16  C   UNL A   1      34.836  32.403  32.359  1.00  0.00     0.034 A 
ATOM     17  C   UNL A   1      36.746  32.933  33.699  1.00  0.00     0.157 A 
ATOM     18  C   UNL A   1      36.139  32.130  32.749  1.00  0.00     0.110 A 
ATOM     19  O   UNL A   1      37.963  32.371  33.988  1.00  0.00    -0.436 OA
ATOM     20  N   UNL A   1      36.975  31.134  32.358  1.00  0.00    -0.209 NA
ATOM     21  C   UNL A   1      38.010  31.278  33.159  1.00  0.00     0.227 A 
BRANCH  21  22
ATOM     22  C   UNL A   1      39.048  30.290  33.373  1.00  0.00     0.037 A 
ATOM     23  C   UNL A   1      40.306  30.690  33.842  1.00  0.00     0.014 A 
ATOM     24  C   UNL A   1      38.879  28.993  32.875  1.00  0.00     0.014 A 
ATOM     25  C   UNL A   1      41.390  29.815  33.781  1.00  0.00     0.001 A 
ATOM     26  C   UNL A   1      39.968  28.125  32.796  1.00  0.00     0.001 A 
ATOM     27  C   UNL A   1      41.223  28.540  33.239  1.00  0.00     0.000 A 
ENDBRANCH  21  22
ENDBRANCH  11  13
ENDBRANCH   8   9
ENDBRANCH   7   8
ENDBRANCH   5   7
ENDBRANCH   2   3
ENDBRANCH   1   2
BRANCH   1  28
ATOM     28  C   UNL A   1      33.876  33.361  28.023  1.00  0.00     0.023 C 
BRANCH  28  29
ATOM     29  C   UNL A   1      34.281  32.111  28.802  1.00  0.00     0.116 C 
BRANCH  29  30
ATOM     30  N   UNL A   1      33.842  30.877  28.165  1.00  0.00    -0.352 N 
ATOM     31  C   UNL A   1      34.571  29.776  27.780  1.00  0.00     0.251 C 
ATOM     32  H   UNL A   1      32.876  30.822  27.983  1.00  0.00     0.163 HD
ATOM     33  O   UNL A   1      34.036  28.897  27.104  1.00  0.00    -0.269 OA
BRANCH  31  34
ATOM     34  C   UNL A   1      36.003  29.650  28.143  1.00  0.00     0.039 A 
ATOM     35  C   UNL A   1      36.342  29.180  29.416  1.00  0.00     0.014 A 
ATOM     36  C   UNL A   1      37.011  29.995  27.240  1.00  0.00     0.014 A 
ATOM     37  C   UNL A   1      37.686  28.970  29.746  1.00  0.00     0.010 A 
ATOM     38  C   UNL A   1      38.343  29.706  27.540  1.00  0.00     0.010 A 
ATOM     39  C   UNL A   1      38.697  29.183  28.793  1.00  0.00    -0.014 A 
BRANCH  39  40
ATOM     40  C   UNL A   1      40.118  28.842  29.080  1.00  0.00     0.031 A 
ATOM     41  C   UNL A   1      41.035  29.857  29.713  1.00  0.00     0.074 A 
ATOM     42  C   UNL A   1      40.606  27.642  28.707  1.00  0.00     0.049 A 
ATOM     43  N   UNL A   1      42.315  29.767  29.972  1.00  0.00    -0.248 NA
ATOM     44  C   UNL A   1      40.443  31.154  30.079  1.00  0.00     0.031 C 
ATOM     45  C   UNL A   1      39.838  26.585  28.043  1.00  0.00     0.029 A 
ATOM     46  N   UNL A   1      41.867  27.107  28.820  1.00  0.00    -0.354 N 
ATOM     47  C   UNL A   1      42.683  30.993  30.515  1.00  0.00     0.074 A 
ATOM     48  C   UNL A   1      41.503  31.828  30.500  1.00  0.00     0.031 C 
ATOM     49  C   UNL A   1      40.634  25.525  27.834  1.00  0.00     0.029 A 
ATOM     50  C   UNL A   1      41.980  25.837  28.303  1.00  0.00     0.049 A 
ATOM     51  H   UNL A   1      42.620  27.589  29.233  1.00  0.00     0.167 HD
ATOM     52  C   UNL A   1      43.888  31.380  30.999  1.00  0.00     0.037 A 
ATOM     53  C   UNL A   1      43.046  25.018  28.207  1.00  0.00     0.037 A 
ATOM     54  C   UNL A   1      45.055  30.537  31.033  1.00  0.00     0.049 A 
ATOM     55  C   UNL A   1      44.377  25.476  28.741  1.00  0.00     0.074 A 
ATOM     56  C   UNL A   1      46.303  30.817  31.564  1.00  0.00     0.029 A 
ATOM     57  N   UNL A   1      45.125  29.253  30.510  1.00  0.00    -0.354 N 
ATOM     58  N   UNL A   1      44.687  26.614  29.316  1.00  0.00    -0.248 NA
ATOM     59  C   UNL A   1      45.503  24.540  28.617  1.00  0.00     0.031 C 
ATOM     60  C   UNL A   1      47.141  29.727  31.312  1.00  0.00     0.029 A 
ATOM     61  C   UNL A   1      46.401  28.741  30.680  1.00  0.00     0.049 A 
ATOM     62  H   UNL A   1      44.378  28.778  30.081  1.00  0.00     0.167 HD
ATOM     63  C   UNL A   1      46.034  26.516  29.652  1.00  0.00     0.074 A 
ATOM     64  C   UNL A   1      46.475  25.204  29.226  1.00  0.00     0.031 C 
ATOM     65  C   UNL A   1      46.830  27.430  30.261  1.00  0.00     0.037 A 
BRANCH  52  66
ATOM     66  C   UNL A   1      44.012  32.782  31.535  1.00  0.00     0.058 A 
ATOM     67  C   UNL A   1      44.182  33.887  30.686  1.00  0.00     0.135 A 
ATOM     68  C   UNL A   1      43.910  33.029  32.914  1.00  0.00     0.135 A 
ATOM     69  F   UNL A   1      44.300  33.711  29.361  1.00  0.00    -0.206 F 
ATOM     70  C   UNL A   1      44.277  35.183  31.186  1.00  0.00     0.059 A 
ATOM     71  C   UNL A   1      43.968  34.320  33.434  1.00  0.00     0.059 A 
ATOM     72  F   UNL A   1      43.744  32.011  33.773  1.00  0.00    -0.206 F 
ATOM     73  C   UNL A   1      44.167  35.388  32.562  1.00  0.00     0.060 A 
BRANCH  73  74
ATOM     74  S   UNL A   1      44.281  37.077  33.192  1.00  0.00     0.124 S 
ATOM     75  O   UNL A   1      44.727  37.800  32.004  1.00  0.00    -0.237 OA
ATOM     76  O   UNL A   1      42.912  37.345  33.619  1.00  0.00    -0.237 OA
ATOM     77  O   UNL A   1      45.262  36.974  34.268  1.00  0.00    -0.744 OA
ENDBRANCH  73  74
ENDBRANCH  52  66
BRANCH  53  78
ATOM     78  C   UNL A   1      42.898  23.667  27.597  1.00  0.00     0.058 A 
ATOM     79  C   UNL A   1      42.671  22.536  28.396  1.00  0.00     0.135 A 
ATOM     80  C   UNL A   1      42.983  23.478  26.209  1.00  0.00     0.135 A 
ATOM     81  F   UNL A   1      42.591  22.662  29.729  1.00  0.00    -0.206 F 
ATOM     82  C   UNL A   1      42.553  21.264  27.843  1.00  0.00     0.059 A 
ATOM     83  C   UNL A   1      42.839  22.220  25.630  1.00  0.00     0.059 A 
ATOM     84  F   UNL A   1      43.185  24.528  25.397  1.00  0.00    -0.206 F 
ATOM     85  C   UNL A   1      42.636  21.117  26.458  1.00  0.00     0.060 A 
BRANCH  85  86
ATOM     86  S   UNL A   1      42.440  19.467  25.751  1.00  0.00     0.124 S 
ATOM     87  O   UNL A   1      41.031  19.472  25.377  1.00  0.00    -0.237 OA
ATOM     88  O   UNL A   1      43.395  19.492  24.648  1.00  0.00    -0.237 OA
ATOM     89  O   UNL A   1      42.796  18.583  26.858  1.00  0.00    -0.744 OA
ENDBRANCH  85  86
ENDBRANCH  53  78
BRANCH  65  90
ATOM     90  C   UNL A   1      48.254  27.033  30.546  1.00  0.00     0.058 A 
ATOM     91  C   UNL A   1      49.303  27.349  29.669  1.00  0.00     0.135 A 
ATOM     92  C   UNL A   1      48.580  26.372  31.743  1.00  0.00     0.135 A 
ATOM     93  F   UNL A   1      49.049  27.973  28.507  1.00  0.00    -0.206 F 
ATOM     94  C   UNL A   1      50.620  27.002  29.956  1.00  0.00     0.059 A 
ATOM     95  C   UNL A   1      49.893  26.045  32.065  1.00  0.00     0.059 A 
ATOM     96  F   UNL A   1      47.617  26.055  32.623  1.00  0.00    -0.206 F 
ATOM     97  C   UNL A   1      50.905  26.355  31.159  1.00  0.00     0.060 A 
BRANCH  97  98
ATOM     98  S   UNL A   1      52.623  25.944  31.535  1.00  0.00     0.124 S 
ATOM     99  O   UNL A   1      52.989  27.020  32.452  1.00  0.00    -0.237 OA
ATOM    100  O   UNL A   1      52.504  24.617  32.129  1.00  0.00    -0.237 OA
ATOM    101  O   UNL A   1      53.276  25.984  30.231  1.00  0.00    -0.744 OA
ENDBRANCH  97  98
ENDBRANCH  65  90
ENDBRANCH  39  40
ENDBRANCH  31  34
ENDBRANCH  29  30
ENDBRANCH  28  29
ENDBRANCH   1  28
TORSDOF 18
ENDMDL
MODEL 2
REMARK VINA RESULT:     -10.8      3.046      4.331
REMARK SMILES O=C(CCC(=O)Nc1ccc2nc(-c3ccccc3)oc2c1)NCCCCNC(=O)c1ccc(-c2c3nc(c(-c4c(F)cc(S(=O)(=O)[O-])cc4F)c4ccc([nH]4)c(-c4c(F)cc(S(=O)(=O)[O-])cc4F)c4nc(c(-c5c(F)cc(S(=O)(=O)[O-])cc5F)c5ccc2[nH]5)C=C4)C=C3)cc1
REMARK SMILES IDX 25 1 24 2 23 3 1 4 2 5 3 7 4 8 5 9 6 10 7 11 8 13 9 14 22 15
REMARK SMILES IDX 10 16 21 17 11 18 20 19 12 20 13 21 14 22 15 23 19 24 16 25
REMARK SMILES IDX 18 26 17 27 26 28 27 29 28 30 29 31 30 33 31 34 32 35 96 36
REMARK SMILES IDX 33 37 95 38 34 39 35 40 36 41 89 42 37 43 94 44 88 45 90 46
REMARK SMILES IDX 38 47 93 48 87 49 86 50 39 52 73 53 52 54 72 55 53 56 56 57
REMARK SMILES IDX 71 58 91 59 54 60 55 61 70 63 92 64 57 65 40 66 41 67 50 68
REMARK SMILES IDX 42 69 43 70 49 71 51 72 44 73 45 74 46 75 47 76 48 77 74 78
REMARK SMILES IDX 75 79 84 80 76 81 77 82 83 83 85 84 78 85 79 86 80 87 81 88
REMARK SMILES IDX 82 89 58 90 59 91 68 92 60 93 61 94 67 95 69 96 62 97 63 98
REMARK SMILES IDX 64 99 65 100 66 101
REMARK H PARENT 23 6 7 12 28 32 90 51 56 62
REMARK Flexibility Score: inf
ROOT
ATOM      1  C   UNL A   1      34.429  34.326  28.047  1.00  0.00     0.023 C 
ENDROOT
BRANCH   1   2
ATOM      2  C   UNL A   1      33.469  34.782  29.139  1.00  0.00     0.116 C 
BRANCH   2   3
ATOM      3  N   UNL A   1      34.084  35.578  30.189  1.00  0.00    -0.356 N 
ATOM      4  O   UNL A   1      32.228  35.682  31.546  1.00  0.00    -0.275 OA
ATOM      5  C   UNL A   1      33.429  35.864  31.366  1.00  0.00     0.220 C 
ATOM      6  H   UNL A   1      34.995  35.923  30.053  1.00  0.00     0.163 HD
BRANCH   5   7
ATOM      7  C   UNL A   1      34.327  36.353  32.485  1.00  0.00     0.110 C 
BRANCH   7   8
ATOM      8  C   UNL A   1      34.509  35.363  33.637  1.00  0.00     0.110 C 
BRANCH   8   9
ATOM      9  C   UNL A   1      34.576  33.916  33.206  1.00  0.00     0.224 C 
ATOM     10  O   UNL A   1      33.629  33.170  33.478  1.00  0.00    -0.275 OA
ATOM     11  N   UNL A   1      35.634  33.350  32.557  1.00  0.00    -0.326 N 
ATOM     12  H   UNL A   1      35.400  32.500  32.119  1.00  0.00     0.169 HD
BRANCH  11  13
ATOM     13  C   UNL A   1      36.986  33.706  32.374  1.00  0.00     0.045 A 
ATOM     14  C   UNL A   1      38.007  33.407  33.281  1.00  0.00     0.028 A 
ATOM     15  C   UNL A   1      37.316  34.274  31.122  1.00  0.00     0.075 A 
ATOM     16  C   UNL A   1      39.361  33.474  32.935  1.00  0.00     0.034 A 
ATOM     17  C   UNL A   1      38.675  34.378  30.829  1.00  0.00     0.157 A 
ATOM     18  C   UNL A   1      39.685  33.945  31.672  1.00  0.00     0.110 A 
ATOM     19  O   UNL A   1      39.275  34.903  29.713  1.00  0.00    -0.436 OA
ATOM     20  N   UNL A   1      40.899  34.093  31.082  1.00  0.00    -0.209 NA
ATOM     21  C   UNL A   1      40.613  34.719  29.959  1.00  0.00     0.227 A 
BRANCH  21  22
ATOM     22  C   UNL A   1      41.573  35.389  29.106  1.00  0.00     0.037 A 
ATOM     23  C   UNL A   1      41.335  35.486  27.729  1.00  0.00     0.014 A 
ATOM     24  C   UNL A   1      42.839  35.708  29.610  1.00  0.00     0.014 A 
ATOM     25  C   UNL A   1      42.361  35.863  26.863  1.00  0.00     0.001 A 
ATOM     26  C   UNL A   1      43.870  36.066  28.741  1.00  0.00     0.001 A 
ATOM     27  C   UNL A   1      43.632  36.133  27.369  1.00  0.00     0.000 A 
ENDBRANCH  21  22
ENDBRANCH  11  13
ENDBRANCH   8   9
ENDBRANCH   7   8
ENDBRANCH   5   7
ENDBRANCH   2   3
ENDBRANCH   1   2
BRANCH   1  28
ATOM     28  C   UNL A   1      34.600  32.812  27.910  1.00  0.00     0.023 C 
BRANCH  28  29
ATOM     29  C   UNL A   1      35.878  32.234  28.512  1.00  0.00     0.116 C 
BRANCH  29  30
ATOM     30  N   UNL A   1      35.642  31.484  29.738  1.00  0.00    -0.352 N 
ATOM     31  C   UNL A   1      36.446  30.573  30.383  1.00  0.00     0.251 C 
ATOM     32  H   UNL A   1      34.775  31.655  30.171  1.00  0.00     0.163 HD
ATOM     33  O   UNL A   1      35.993  29.922  31.325  1.00  0.00    -0.269 OA
BRANCH  31  34
ATOM     34  C   UNL A   1      37.841  30.346  29.939  1.00  0.00     0.039 A 
ATOM     35  C   UNL A   1      38.875  30.430  30.876  1.00  0.00     0.014 A 
ATOM     36  C   UNL A   1      38.137  30.053  28.605  1.00  0.00     0.014 A 
ATOM     37  C   UNL A   1      40.188  30.130  30.495  1.00  0.00     0.010 A 
ATOM     38  C   UNL A   1      39.431  29.675  28.246  1.00  0.00     0.010 A 
ATOM     39  C   UNL A   1      40.471  29.700  29.187  1.00  0.00    -0.014 A 
BRANCH  39  40
ATOM     40  C   UNL A   1      41.837  29.253  28.795  1.00  0.00     0.031 A 
ATOM     41  C   UNL A   1      42.976  30.237  28.733  1.00  0.00     0.074 A 
ATOM     42  C   UNL A   1      42.040  27.971  28.426  1.00  0.00     0.049 A 
ATOM     43  N   UNL A   1      44.212  30.048  28.347  1.00  0.00    -0.248 NA
ATOM     44  C   UNL A   1      42.682  31.623  29.132  1.00  0.00     0.031 C 
ATOM     45  C   UNL A   1      41.013  26.926  28.395  1.00  0.00     0.029 A 
ATOM     46  N   UNL A   1      43.174  27.327  27.993  1.00  0.00    -0.354 N 
ATOM     47  C   UNL A   1      44.837  31.287  28.442  1.00  0.00     0.074 A 
ATOM     48  C   UNL A   1      43.830  32.231  28.872  1.00  0.00     0.031 C 
ATOM     49  C   UNL A   1      41.569  25.772  27.995  1.00  0.00     0.029 A 
ATOM     50  C   UNL A   1      42.979  25.999  27.694  1.00  0.00     0.049 A 
ATOM     51  H   UNL A   1      44.047  27.776  27.906  1.00  0.00     0.167 HD
ATOM     52  C   UNL A   1      46.134  31.604  28.210  1.00  0.00     0.037 A 
ATOM     53  C   UNL A   1      43.832  25.069  27.221  1.00  0.00     0.037 A 
ATOM     54  C   UNL A   1      47.139  30.655  27.804  1.00  0.00     0.049 A 
ATOM     55  C   UNL A   1      45.264  25.450  26.960  1.00  0.00     0.074 A 
ATOM     56  C   UNL A   1      48.493  30.868  27.609  1.00  0.00     0.029 A 
ATOM     57  N   UNL A   1      46.902  29.317  27.522  1.00  0.00    -0.354 N 
ATOM     58  N   UNL A   1      45.852  26.611  27.125  1.00  0.00    -0.248 NA
ATOM     59  C   UNL A   1      46.153  24.394  26.453  1.00  0.00     0.031 C 
ATOM     60  C   UNL A   1      49.063  29.675  27.155  1.00  0.00     0.029 A 
ATOM     61  C   UNL A   1      48.079  28.700  27.128  1.00  0.00     0.049 A 
ATOM     62  H   UNL A   1      46.027  28.872  27.592  1.00  0.00     0.167 HD
ATOM     63  C   UNL A   1      47.185  26.416  26.773  1.00  0.00     0.074 A 
ATOM     64  C   UNL A   1      47.318  25.024  26.398  1.00  0.00     0.031 C 
ATOM     65  C   UNL A   1      48.204  27.311  26.765  1.00  0.00     0.037 A 
BRANCH  52  66
ATOM     66  C   UNL A   1      46.549  33.041  28.390  1.00  0.00     0.058 A 
ATOM     67  C   UNL A   1      46.884  33.562  29.650  1.00  0.00     0.135 A 
ATOM     68  C   UNL A   1      46.660  33.895  27.281  1.00  0.00     0.135 A 
ATOM     69  F   UNL A   1      46.784  32.796  30.748  1.00  0.00    -0.206 F 
ATOM     70  C   UNL A   1      47.286  34.886  29.808  1.00  0.00     0.059 A 
ATOM     71  C   UNL A   1      47.092  35.212  27.410  1.00  0.00     0.059 A 
ATOM     72  F   UNL A   1      46.355  33.450  26.052  1.00  0.00    -0.206 F 
ATOM     73  C   UNL A   1      47.388  35.702  28.680  1.00  0.00     0.060 A 
BRANCH  73  74
ATOM     74  S   UNL A   1      47.921  37.413  28.903  1.00  0.00     0.124 S 
ATOM     75  O   UNL A   1      46.717  38.022  29.460  1.00  0.00    -0.237 OA
ATOM     76  O   UNL A   1      49.044  37.272  29.825  1.00  0.00    -0.237 OA
ATOM     77  O   UNL A   1      48.272  37.839  27.552  1.00  0.00    -0.744 OA
ENDBRANCH  73  74
ENDBRANCH  52  66
BRANCH  53  78
ATOM     78  C   UNL A   1      43.361  23.676  26.981  1.00  0.00     0.058 A 
ATOM     79  C   UNL A   1      43.187  22.780  28.047  1.00  0.00     0.135 A 
ATOM     80  C   UNL A   1      43.080  23.212  25.687  1.00  0.00     0.135 A 
ATOM     81  F   UNL A   1      43.452  23.172  29.302  1.00  0.00    -0.206 F 
ATOM     82  C   UNL A   1      42.769  21.469  27.838  1.00  0.00     0.059 A 
ATOM     83  C   UNL A   1      42.632  21.914  25.455  1.00  0.00     0.059 A 
ATOM     84  F   UNL A   1      43.215  24.032  24.633  1.00  0.00    -0.206 F 
ATOM     85  C   UNL A   1      42.492  21.046  26.537  1.00  0.00     0.060 A 
BRANCH  85  86
ATOM     86  S   UNL A   1      41.912  19.355  26.283  1.00  0.00     0.124 S 
ATOM     87  O   UNL A   1      40.485  19.562  26.068  1.00  0.00    -0.237 OA
ATOM     88  O   UNL A   1      42.682  18.940  25.116  1.00  0.00    -0.237 OA
ATOM     89  O   UNL A   1      42.271  18.687  27.531  1.00  0.00    -0.744 OA
ENDBRANCH  85  86
ENDBRANCH  53  78
BRANCH  65  90
ATOM     90  C   UNL A   1      49.570  26.807  26.379  1.00  0.00     0.058 A 
ATOM     91  C   UNL A   1      50.418  26.176  27.303  1.00  0.00     0.135 A 
ATOM     92  C   UNL A   1      50.014  26.911  25.049  1.00  0.00     0.135 A 
ATOM     93  F   UNL A   1      50.048  26.056  28.587  1.00  0.00    -0.206 F 
ATOM     94  C   UNL A   1      51.667  25.689  26.928  1.00  0.00     0.059 A 
ATOM     95  C   UNL A   1      51.244  26.403  24.646  1.00  0.00     0.059 A 
ATOM     96  F   UNL A   1      49.239  27.497  24.122  1.00  0.00    -0.206 F 
ATOM     97  C   UNL A   1      52.069  25.804  25.596  1.00  0.00     0.060 A 
BRANCH  97  98
ATOM     98  S   UNL A   1      53.676  25.134  25.118  1.00  0.00     0.124 S 
ATOM     99  O   UNL A   1      53.465  23.701  25.302  1.00  0.00    -0.237 OA
ATOM    100  O   UNL A   1      53.801  25.583  23.734  1.00  0.00    -0.237 OA
ATOM    101  O   UNL A   1      54.599  25.758  26.059  1.00  0.00    -0.744 OA
ENDBRANCH  97  98
ENDBRANCH  65  90
ENDBRANCH  39  40
ENDBRANCH  31  34
ENDBRANCH  29  30
ENDBRANCH  28  29
ENDBRANCH   1  28
TORSDOF 18
ENDMDL
MODEL 3
REMARK VINA RESULT:     -10.7      4.375      7.980
REMARK SMILES O=C(CCC(=O)Nc1ccc2nc(-c3ccccc3)oc2c1)NCCCCNC(=O)c1ccc(-c2c3nc(c(-c4c(F)cc(S(=O)(=O)[O-])cc4F)c4ccc([nH]4)c(-c4c(F)cc(S(=O)(=O)[O-])cc4F)c4nc(c(-c5c(F)cc(S(=O)(=O)[O-])cc5F)c5ccc2[nH]5)C=C4)C=C3)cc1
REMARK SMILES IDX 25 1 24 2 23 3 1 4 2 5 3 7 4 8 5 9 6 10 7 11 8 13 9 14 22 15
REMARK SMILES IDX 10 16 21 17 11 18 20 19 12 20 13 21 14 22 15 23 19 24 16 25
REMARK SMILES IDX 18 26 17 27 26 28 27 29 28 30 29 31 30 33 31 34 32 35 96 36
REMARK SMILES IDX 33 37 95 38 34 39 35 40 36 41 89 42 37 43 94 44 88 45 90 46
REMARK SMILES IDX 38 47 93 48 87 49 86 50 39 52 73 53 52 54 72 55 53 56 56 57
REMARK SMILES IDX 71 58 91 59 54 60 55 61 70 63 92 64 57 65 40 66 41 67 50 68
REMARK SMILES IDX 42 69 43 70 49 71 51 72 44 73 45 74 46 75 47 76 48 77 74 78
REMARK SMILES IDX 75 79 84 80 76 81 77 82 83 83 85 84 78 85 79 86 80 87 81 88
REMARK SMILES IDX 82 89 58 90 59 91 68 92 60 93 61 94 67 95 69 96 62 97 63 98
REMARK SMILES IDX 64 99 65 100 66 101
REMARK H PARENT 23 6 7 12 28 32 90 51 56 62
REMARK Flexibility Score: inf
ROOT
ATOM      1  C   UNL A   1      32.989  28.476  27.395  1.00  0.00     0.023 C 
ENDROOT
BRANCH   1   2
ATOM      2  C   UNL A   1      32.221  27.679  26.346  1.00  0.00     0.116 C 
BRANCH   2   3
ATOM      3  N   UNL A   1      32.802  26.386  26.027  1.00  0.00    -0.356 N 
ATOM      4  O   UNL A   1      34.000  27.092  24.194  1.00  0.00    -0.275 OA
ATOM      5  C   UNL A   1      33.741  26.233  25.031  1.00  0.00     0.220 C 
ATOM      6  H   UNL A   1      32.515  25.595  26.538  1.00  0.00     0.163 HD
BRANCH   5   7
ATOM      7  C   UNL A   1      34.516  24.931  25.088  1.00  0.00     0.110 C 
BRANCH   7   8
ATOM      8  C   UNL A   1      33.778  23.722  24.511  1.00  0.00     0.110 C 
BRANCH   8   9
ATOM      9  C   UNL A   1      33.694  23.711  23.002  1.00  0.00     0.224 C 
ATOM     10  O   UNL A   1      34.654  23.271  22.356  1.00  0.00    -0.275 OA
ATOM     11  N   UNL A   1      32.639  24.185  22.281  1.00  0.00    -0.326 N 
ATOM     12  H   UNL A   1      32.632  23.853  21.354  1.00  0.00     0.169 HD
BRANCH  11  13
ATOM     13  C   UNL A   1      31.557  25.044  22.562  1.00  0.00     0.045 A 
ATOM     14  C   UNL A   1      30.565  24.773  23.509  1.00  0.00     0.028 A 
ATOM     15  C   UNL A   1      31.586  26.310  21.933  1.00  0.00     0.075 A 
ATOM     16  C   UNL A   1      29.705  25.761  23.999  1.00  0.00     0.034 A 
ATOM     17  C   UNL A   1      30.679  27.257  22.406  1.00  0.00     0.157 A 
ATOM     18  C   UNL A   1      29.793  27.030  23.446  1.00  0.00     0.110 A 
ATOM     19  O   UNL A   1      30.473  28.541  21.970  1.00  0.00    -0.436 OA
ATOM     20  N   UNL A   1      29.103  28.160  23.743  1.00  0.00    -0.209 NA
ATOM     21  C   UNL A   1      29.490  29.005  22.809  1.00  0.00     0.227 A 
BRANCH  21  22
ATOM     22  C   UNL A   1      28.829  30.251  22.480  1.00  0.00     0.037 A 
ATOM     23  C   UNL A   1      28.429  30.501  21.161  1.00  0.00     0.014 A 
ATOM     24  C   UNL A   1      28.822  31.295  23.413  1.00  0.00     0.014 A 
ATOM     25  C   UNL A   1      28.061  31.789  20.772  1.00  0.00     0.001 A 
ATOM     26  C   UNL A   1      28.472  32.585  23.017  1.00  0.00     0.001 A 
ATOM     27  C   UNL A   1      28.102  32.833  21.696  1.00  0.00     0.000 A 
ENDBRANCH  21  22
ENDBRANCH  11  13
ENDBRANCH   8   9
ENDBRANCH   7   8
ENDBRANCH   5   7
ENDBRANCH   2   3
ENDBRANCH   1   2
BRANCH   1  28
ATOM     28  C   UNL A   1      34.097  29.381  26.853  1.00  0.00     0.023 C 
BRANCH  28  29
ATOM     29  C   UNL A   1      35.420  29.333  27.613  1.00  0.00     0.116 C 
BRANCH  29  30
ATOM     30  N   UNL A   1      35.296  29.767  28.998  1.00  0.00    -0.352 N 
ATOM     31  C   UNL A   1      36.259  29.884  29.974  1.00  0.00     0.251 C 
ATOM     32  H   UNL A   1      34.386  30.016  29.278  1.00  0.00     0.163 HD
ATOM     33  O   UNL A   1      35.922  30.113  31.136  1.00  0.00    -0.269 OA
BRANCH  31  34
ATOM     34  C   UNL A   1      37.694  29.706  29.649  1.00  0.00     0.039 A 
ATOM     35  C   UNL A   1      38.585  29.366  30.671  1.00  0.00     0.014 A 
ATOM     36  C   UNL A   1      38.166  29.876  28.345  1.00  0.00     0.014 A 
ATOM     37  C   UNL A   1      39.926  29.106  30.369  1.00  0.00     0.010 A 
ATOM     38  C   UNL A   1      39.483  29.536  28.033  1.00  0.00     0.010 A 
ATOM     39  C   UNL A   1      40.377  29.139  29.038  1.00  0.00    -0.014 A 
BRANCH  39  40
ATOM     40  C   UNL A   1      41.767  28.740  28.679  1.00  0.00     0.031 A 
ATOM     41  C   UNL A   1      42.871  29.766  28.637  1.00  0.00     0.074 A 
ATOM     42  C   UNL A   1      42.025  27.465  28.322  1.00  0.00     0.049 A 
ATOM     43  N   UNL A   1      44.121  29.620  28.279  1.00  0.00    -0.248 NA
ATOM     44  C   UNL A   1      42.517  31.141  29.021  1.00  0.00     0.031 C 
ATOM     45  C   UNL A   1      41.038  26.383  28.274  1.00  0.00     0.029 A 
ATOM     46  N   UNL A   1      43.192  26.861  27.918  1.00  0.00    -0.354 N 
ATOM     47  C   UNL A   1      44.697  30.881  28.381  1.00  0.00     0.074 A 
ATOM     48  C   UNL A   1      43.648  31.790  28.784  1.00  0.00     0.031 C 
ATOM     49  C   UNL A   1      41.645  25.248  27.893  1.00  0.00     0.029 A 
ATOM     50  C   UNL A   1      43.052  25.525  27.622  1.00  0.00     0.049 A 
ATOM     51  H   UNL A   1      44.049  27.341  27.847  1.00  0.00     0.167 HD
ATOM     52  C   UNL A   1      45.987  31.245  28.176  1.00  0.00     0.037 A 
ATOM     53  C   UNL A   1      43.949  24.625  27.174  1.00  0.00     0.037 A 
ATOM     54  C   UNL A   1      47.035  30.332  27.798  1.00  0.00     0.049 A 
ATOM     55  C   UNL A   1      45.372  25.057  26.942  1.00  0.00     0.074 A 
ATOM     56  C   UNL A   1      48.384  30.593  27.632  1.00  0.00     0.029 A 
ATOM     57  N   UNL A   1      46.854  28.985  27.519  1.00  0.00    -0.354 N 
ATOM     58  N   UNL A   1      45.913  26.240  27.113  1.00  0.00    -0.248 NA
ATOM     59  C   UNL A   1      46.310  24.032  26.461  1.00  0.00     0.031 C 
ATOM     60  C   UNL A   1      49.008  29.420  27.198  1.00  0.00     0.029 A 
ATOM     61  C   UNL A   1      48.061  28.410  27.154  1.00  0.00     0.049 A 
ATOM     62  H   UNL A   1      45.994  28.508  27.572  1.00  0.00     0.167 HD
ATOM     63  C   UNL A   1      47.259  26.093  26.792  1.00  0.00     0.074 A 
ATOM     64  C   UNL A   1      47.452  24.704  26.429  1.00  0.00     0.031 C 
ATOM     65  C   UNL A   1      48.245  27.024  26.802  1.00  0.00     0.037 A 
BRANCH  52  66
ATOM     66  C   UNL A   1      46.345  32.697  28.357  1.00  0.00     0.058 A 
ATOM     67  C   UNL A   1      46.253  33.619  27.303  1.00  0.00     0.135 A 
ATOM     68  C   UNL A   1      46.737  33.183  29.615  1.00  0.00     0.135 A 
ATOM     69  F   UNL A   1      45.896  33.210  26.075  1.00  0.00    -0.206 F 
ATOM     70  C   UNL A   1      46.566  34.964  27.480  1.00  0.00     0.059 A 
ATOM     71  C   UNL A   1      47.024  34.529  29.825  1.00  0.00     0.059 A 
ATOM     72  F   UNL A   1      46.841  32.347  30.661  1.00  0.00    -0.206 F 
ATOM     73  C   UNL A   1      46.949  35.409  28.747  1.00  0.00     0.060 A 
BRANCH  73  74
ATOM     74  S   UNL A   1      47.341  37.158  28.961  1.00  0.00     0.124 S 
ATOM     75  O   UNL A   1      47.646  37.215  30.388  1.00  0.00    -0.237 OA
ATOM     76  O   UNL A   1      48.478  37.335  28.063  1.00  0.00    -0.237 OA
ATOM     77  O   UNL A   1      46.113  37.835  28.555  1.00  0.00    -0.744 OA
ENDBRANCH  73  74
ENDBRANCH  52  66
BRANCH  53  78
ATOM     78  C   UNL A   1      43.535  23.214  26.931  1.00  0.00     0.058 A 
ATOM     79  C   UNL A   1      43.425  22.709  25.627  1.00  0.00     0.135 A 
ATOM     80  C   UNL A   1      43.240  22.346  27.993  1.00  0.00     0.135 A 
ATOM     81  F   UNL A   1      43.687  23.502  24.577  1.00  0.00    -0.206 F 
ATOM     82  C   UNL A   1      43.018  21.401  25.383  1.00  0.00     0.059 A 
ATOM     83  C   UNL A   1      42.860  21.025  27.776  1.00  0.00     0.059 A 
ATOM     84  F   UNL A   1      43.345  22.774  29.262  1.00  0.00    -0.206 F 
ATOM     85  C   UNL A   1      42.740  20.565  26.465  1.00  0.00     0.060 A 
BRANCH  85  86
ATOM     86  S   UNL A   1      42.252  18.858  26.136  1.00  0.00     0.124 S 
ATOM     87  O   UNL A   1      42.518  18.223  27.421  1.00  0.00    -0.237 OA
ATOM     88  O   UNL A   1      40.846  19.006  25.775  1.00  0.00    -0.237 OA
ATOM     89  O   UNL A   1      43.134  18.462  25.041  1.00  0.00    -0.744 OA
ENDBRANCH  85  86
ENDBRANCH  53  78
BRANCH  65  90
ATOM     90  C   UNL A   1      49.637  26.569  26.449  1.00  0.00     0.058 A 
ATOM     91  C   UNL A   1      50.155  26.700  25.151  1.00  0.00     0.135 A 
ATOM     92  C   UNL A   1      50.483  26.043  27.440  1.00  0.00     0.135 A 
ATOM     93  F   UNL A   1      49.388  27.189  24.164  1.00  0.00    -0.206 F 
ATOM     94  C   UNL A   1      51.452  26.302  24.843  1.00  0.00     0.059 A 
ATOM     95  C   UNL A   1      51.793  25.669  27.162  1.00  0.00     0.059 A 
ATOM     96  F   UNL A   1      50.043  25.904  28.701  1.00  0.00    -0.206 F 
ATOM     97  C   UNL A   1      52.265  25.792  25.856  1.00  0.00     0.060 A 
BRANCH  97  98
ATOM     98  S   UNL A   1      53.958  25.315  25.449  1.00  0.00     0.124 S 
ATOM     99  O   UNL A   1      53.743  24.105  24.662  1.00  0.00    -0.237 OA
ATOM    100  O   UNL A   1      54.440  26.477  24.708  1.00  0.00    -0.237 OA
ATOM    101  O   UNL A   1      54.578  25.111  26.754  1.00  0.00    -0.744 OA
ENDBRANCH  97  98
ENDBRANCH  65  90
ENDBRANCH  39  40
ENDBRANCH  31  34
ENDBRANCH  29  30
ENDBRANCH  28  29
ENDBRANCH   1  28
TORSDOF 18
ENDMDL
