MODEL 1
REMARK VINA RESULT:     -10.8      0.000      0.000
REMARK SMILES CN(C)C(=O)c1nnc(C(=O)NCCCCNC(=O)c2ccc(-c3c4nc(c(-c5c(F)cc(S(=O)(=O)[O-])cc5F)c5ccc([nH]5)c(-c5c(F)cc(S(=O)(=O)[O-])cc5F)c5nc(c(-c6c(F)cc(S(=O)(=O)[O-])cc6F)c6ccc3[nH]6)C=C5)C=C4)cc2)s1
REMARK SMILES IDX 15 1 14 2 13 3 12 4 10 5 11 6 9 8 6 9 7 10 86 11 8 12 4 13
REMARK SMILES IDX 1 14 2 15 3 16 5 17 16 18 17 19 18 20 19 22 20 23 21 24
REMARK SMILES IDX 85 25 22 26 84 27 23 28 24 29 25 30 78 31 26 32 83 33 77 34
REMARK SMILES IDX 79 35 27 36 82 37 76 38 75 39 28 41 62 42 41 43 61 44 42 45
REMARK SMILES IDX 45 46 60 47 80 48 43 49 44 50 59 52 81 53 46 54 29 55 30 56
REMARK SMILES IDX 39 57 31 58 32 59 38 60 40 61 33 62 34 63 35 64 36 65 37 66
REMARK SMILES IDX 63 67 64 68 73 69 65 70 66 71 72 72 74 73 67 74 68 75 69 76
REMARK SMILES IDX 70 77 71 78 47 79 48 80 57 81 49 82 50 83 56 84 58 85 51 86
REMARK SMILES IDX 52 87 53 88 54 89 55 90
REMARK H PARENT 12 7 17 21 79 40 45 51
REMARK Flexibility Score: inf
ROOT
ATOM      1  C   UNL A   1      34.608  33.793  29.510  1.00  0.00     0.023 C 
ENDROOT
BRANCH   1   2
ATOM      2  C   UNL A   1      33.439  34.756  29.269  1.00  0.00     0.023 C 
BRANCH   2   3
ATOM      3  C   UNL A   1      33.772  36.225  29.526  1.00  0.00     0.116 C 
BRANCH   3   4
ATOM      4  N   UNL A   1      32.929  36.774  30.572  1.00  0.00    -0.350 N 
ATOM      5  C   UNL A   1      32.805  36.440  31.908  1.00  0.00     0.282 C 
ATOM      6  O   UNL A   1      32.067  37.170  32.575  1.00  0.00    -0.266 OA
ATOM      7  H   UNL A   1      32.345  37.511  30.282  1.00  0.00     0.163 HD
BRANCH   5   8
ATOM      8  C   UNL A   1      33.555  35.337  32.485  1.00  0.00     0.205 A 
ATOM      9  C   UNL A   1      35.050  33.829  33.517  1.00  0.00     0.206 A 
ATOM     10  N   UNL A   1      33.870  33.280  33.323  1.00  0.00    -0.132 NA
ATOM     11  S   UNL A   1      35.229  35.404  32.870  1.00  0.00    -0.082 S 
ATOM     12  N   UNL A   1      33.007  34.153  32.692  1.00  0.00    -0.132 NA
BRANCH   9  13
ATOM     13  C   UNL A   1      36.097  33.213  34.307  1.00  0.00     0.284 C 
ATOM     14  C   UNL A   1      37.968  31.638  34.418  1.00  0.00     0.146 C 
ATOM     15  N   UNL A   1      36.951  32.318  33.637  1.00  0.00    -0.343 N 
ATOM     16  C   UNL A   1      36.837  31.979  32.225  1.00  0.00     0.146 C 
ATOM     17  O   UNL A   1      36.234  33.435  35.512  1.00  0.00    -0.266 OA
ENDBRANCH   9  13
ENDBRANCH   5   8
ENDBRANCH   3   4
ENDBRANCH   2   3
ENDBRANCH   1   2
BRANCH   1  18
ATOM     18  C   UNL A   1      35.028  32.955  28.303  1.00  0.00     0.116 C 
BRANCH  18  19
ATOM     19  N   UNL A   1      34.112  31.861  28.020  1.00  0.00    -0.352 N 
ATOM     20  C   UNL A   1      34.381  30.518  27.904  1.00  0.00     0.251 C 
ATOM     21  H   UNL A   1      33.170  32.117  27.894  1.00  0.00     0.163 HD
ATOM     22  O   UNL A   1      33.494  29.748  27.545  1.00  0.00    -0.269 OA
BRANCH  20  23
ATOM     23  C   UNL A   1      35.743  30.013  28.176  1.00  0.00     0.039 A 
ATOM     24  C   UNL A   1      36.691  30.043  27.150  1.00  0.00     0.014 A 
ATOM     25  C   UNL A   1      36.091  29.532  29.441  1.00  0.00     0.014 A 
ATOM     26  C   UNL A   1      38.008  29.656  27.413  1.00  0.00     0.010 A 
ATOM     27  C   UNL A   1      37.418  29.209  29.718  1.00  0.00     0.010 A 
ATOM     28  C   UNL A   1      38.390  29.273  28.708  1.00  0.00    -0.014 A 
BRANCH  28  29
ATOM     29  C   UNL A   1      39.804  28.950  29.031  1.00  0.00     0.031 A 
ATOM     30  C   UNL A   1      40.696  29.990  29.651  1.00  0.00     0.074 A 
ATOM     31  C   UNL A   1      40.301  27.742  28.700  1.00  0.00     0.049 A 
ATOM     32  N   UNL A   1      41.971  29.919  29.935  1.00  0.00    -0.248 NA
ATOM     33  C   UNL A   1      40.082  31.290  29.964  1.00  0.00     0.031 C 
ATOM     34  C   UNL A   1      39.550  26.667  28.049  1.00  0.00     0.029 A 
ATOM     35  N   UNL A   1      41.561  27.219  28.853  1.00  0.00    -0.354 N 
ATOM     36  C   UNL A   1      42.315  31.165  30.447  1.00  0.00     0.074 A 
ATOM     37  C   UNL A   1      41.126  31.988  30.386  1.00  0.00     0.031 C 
ATOM     38  C   UNL A   1      40.356  25.607  27.878  1.00  0.00     0.029 A 
ATOM     39  C   UNL A   1      41.690  25.936  28.372  1.00  0.00     0.049 A 
ATOM     40  H   UNL A   1      42.303  27.714  29.270  1.00  0.00     0.167 HD
ATOM     41  C   UNL A   1      43.506  31.578  30.944  1.00  0.00     0.037 A 
ATOM     42  C   UNL A   1      42.762  25.121  28.326  1.00  0.00     0.037 A 
ATOM     43  C   UNL A   1      44.678  30.746  31.025  1.00  0.00     0.049 A 
ATOM     44  C   UNL A   1      44.073  25.600  28.888  1.00  0.00     0.074 A 
ATOM     45  C   UNL A   1      45.914  31.052  31.568  1.00  0.00     0.029 A 
ATOM     46  N   UNL A   1      44.763  29.446  30.548  1.00  0.00    -0.354 N 
ATOM     47  N   UNL A   1      44.362  26.760  29.428  1.00  0.00    -0.248 NA
ATOM     48  C   UNL A   1      45.200  24.660  28.838  1.00  0.00     0.031 C 
ATOM     49  C   UNL A   1      46.758  29.951  31.383  1.00  0.00     0.029 A 
ATOM     50  C   UNL A   1      46.034  28.942  30.766  1.00  0.00     0.049 A 
ATOM     51  H   UNL A   1      44.026  28.953  30.118  1.00  0.00     0.167 HD
ATOM     52  C   UNL A   1      45.698  26.679  29.807  1.00  0.00     0.074 A 
ATOM     53  C   UNL A   1      46.155  25.354  29.443  1.00  0.00     0.031 C 
ATOM     54  C   UNL A   1      46.474  27.618  30.403  1.00  0.00     0.037 A 
BRANCH  41  55
ATOM     55  C   UNL A   1      43.597  32.995  31.442  1.00  0.00     0.058 A 
ATOM     56  C   UNL A   1      43.355  33.319  32.786  1.00  0.00     0.135 A 
ATOM     57  C   UNL A   1      43.956  34.037  30.572  1.00  0.00     0.135 A 
ATOM     58  F   UNL A   1      42.995  32.364  33.658  1.00  0.00    -0.206 F 
ATOM     59  C   UNL A   1      43.431  34.631  33.244  1.00  0.00     0.059 A 
ATOM     60  C   UNL A   1      44.065  35.353  31.013  1.00  0.00     0.059 A 
ATOM     61  F   UNL A   1      44.199  33.784  29.276  1.00  0.00    -0.206 F 
ATOM     62  C   UNL A   1      43.783  35.642  32.348  1.00  0.00     0.060 A 
BRANCH  62  63
ATOM     63  S   UNL A   1      43.870  37.340  32.956  1.00  0.00     0.124 S 
ATOM     64  O   UNL A   1      45.186  37.355  33.587  1.00  0.00    -0.237 OA
ATOM     65  O   UNL A   1      43.747  38.119  31.728  1.00  0.00    -0.237 OA
ATOM     66  O   UNL A   1      42.735  37.431  33.870  1.00  0.00    -0.744 OA
ENDBRANCH  62  63
ENDBRANCH  41  55
BRANCH  42  67
ATOM     67  C   UNL A   1      42.630  23.757  27.750  1.00  0.00     0.058 A 
ATOM     68  C   UNL A   1      42.424  22.643  28.578  1.00  0.00     0.135 A 
ATOM     69  C   UNL A   1      42.687  23.540  26.365  1.00  0.00     0.135 A 
ATOM     70  F   UNL A   1      42.369  22.799  29.909  1.00  0.00    -0.206 F 
ATOM     71  C   UNL A   1      42.290  21.361  28.055  1.00  0.00     0.059 A 
ATOM     72  C   UNL A   1      42.532  22.270  25.816  1.00  0.00     0.059 A 
ATOM     73  F   UNL A   1      42.866  24.575  25.529  1.00  0.00    -0.206 F 
ATOM     74  C   UNL A   1      42.343  21.186  26.671  1.00  0.00     0.060 A 
BRANCH  74  75
ATOM     75  S   UNL A   1      42.110  19.525  26.000  1.00  0.00     0.124 S 
ATOM     76  O   UNL A   1      42.524  18.693  27.124  1.00  0.00    -0.237 OA
ATOM     77  O   UNL A   1      40.683  19.517  25.690  1.00  0.00    -0.237 OA
ATOM     78  O   UNL A   1      42.995  19.506  24.839  1.00  0.00    -0.744 OA
ENDBRANCH  74  75
ENDBRANCH  42  67
BRANCH  54  79
ATOM     79  C   UNL A   1      47.892  27.238  30.728  1.00  0.00     0.058 A 
ATOM     80  C   UNL A   1      48.213  26.501  31.878  1.00  0.00     0.135 A 
ATOM     81  C   UNL A   1      48.936  27.573  29.850  1.00  0.00     0.135 A 
ATOM     82  F   UNL A   1      47.252  26.163  32.753  1.00  0.00    -0.206 F 
ATOM     83  C   UNL A   1      49.523  26.125  32.157  1.00  0.00     0.059 A 
ATOM     84  C   UNL A   1      50.249  27.184  30.096  1.00  0.00     0.059 A 
ATOM     85  F   UNL A   1      48.681  28.269  28.730  1.00  0.00    -0.206 F 
ATOM     86  C   UNL A   1      50.534  26.470  31.258  1.00  0.00     0.060 A 
BRANCH  86  87
ATOM     87  S   UNL A   1      52.225  25.945  31.614  1.00  0.00     0.124 S 
ATOM     88  O   UNL A   1      52.673  26.995  32.523  1.00  0.00    -0.237 OA
ATOM     89  O   UNL A   1      52.025  24.629  32.212  1.00  0.00    -0.237 OA
ATOM     90  O   UNL A   1      52.861  25.939  30.300  1.00  0.00    -0.744 OA
ENDBRANCH  86  87
ENDBRANCH  54  79
ENDBRANCH  28  29
ENDBRANCH  20  23
ENDBRANCH  18  19
ENDBRANCH   1  18
TORSDOF 15
ENDMDL
MODEL 2
REMARK VINA RESULT:     -10.7      3.122     12.039
REMARK SMILES CN(C)C(=O)c1nnc(C(=O)NCCCCNC(=O)c2ccc(-c3c4nc(c(-c5c(F)cc(S(=O)(=O)[O-])cc5F)c5ccc([nH]5)c(-c5c(F)cc(S(=O)(=O)[O-])cc5F)c5nc(c(-c6c(F)cc(S(=O)(=O)[O-])cc6F)c6ccc3[nH]6)C=C5)C=C4)cc2)s1
REMARK SMILES IDX 15 1 14 2 13 3 12 4 10 5 11 6 9 8 6 9 7 10 86 11 8 12 4 13
REMARK SMILES IDX 1 14 2 15 3 16 5 17 16 18 17 19 18 20 19 22 20 23 21 24
REMARK SMILES IDX 85 25 22 26 84 27 23 28 24 29 25 30 78 31 26 32 83 33 77 34
REMARK SMILES IDX 79 35 27 36 82 37 76 38 75 39 28 41 62 42 41 43 61 44 42 45
REMARK SMILES IDX 45 46 60 47 80 48 43 49 44 50 59 52 81 53 46 54 29 55 30 56
REMARK SMILES IDX 39 57 31 58 32 59 38 60 40 61 33 62 34 63 35 64 36 65 37 66
REMARK SMILES IDX 63 67 64 68 73 69 65 70 66 71 72 72 74 73 67 74 68 75 69 76
REMARK SMILES IDX 70 77 71 78 47 79 48 80 57 81 49 82 50 83 56 84 58 85 51 86
REMARK SMILES IDX 52 87 53 88 54 89 55 90
REMARK H PARENT 12 7 17 21 79 40 45 51
REMARK Flexibility Score: inf
ROOT
ATOM      1  C   UNL A   1      41.418  21.161  26.055  1.00  0.00     0.023 C 
ENDROOT
BRANCH   1   2
ATOM      2  C   UNL A   1      41.639  19.643  26.019  1.00  0.00     0.023 C 
BRANCH   2   3
ATOM      3  C   UNL A   1      43.084  19.212  26.266  1.00  0.00     0.116 C 
BRANCH   3   4
ATOM      4  N   UNL A   1      43.732  18.828  25.026  1.00  0.00    -0.350 N 
ATOM      5  C   UNL A   1      44.680  19.477  24.257  1.00  0.00     0.282 C 
ATOM      6  O   UNL A   1      45.118  18.838  23.297  1.00  0.00    -0.266 OA
ATOM      7  H   UNL A   1      43.448  17.955  24.670  1.00  0.00     0.163 HD
BRANCH   5   8
ATOM      8  C   UNL A   1      45.165  20.800  24.612  1.00  0.00     0.205 A 
ATOM      9  C   UNL A   1      45.622  23.085  24.993  1.00  0.00     0.206 A 
ATOM     10  N   UNL A   1      46.376  22.312  25.745  1.00  0.00    -0.132 NA
ATOM     11  S   UNL A   1      44.628  22.256  23.873  1.00  0.00    -0.082 S 
ATOM     12  N   UNL A   1      46.129  20.976  25.498  1.00  0.00    -0.132 NA
BRANCH   9  13
ATOM     13  C   UNL A   1      45.541  24.522  25.157  1.00  0.00     0.284 C 
ATOM     14  C   UNL A   1      44.409  26.443  26.170  1.00  0.00     0.146 C 
ATOM     15  N   UNL A   1      44.553  25.005  26.036  1.00  0.00    -0.343 N 
ATOM     16  C   UNL A   1      43.624  24.155  26.768  1.00  0.00     0.146 C 
ATOM     17  O   UNL A   1      46.279  25.300  24.549  1.00  0.00    -0.266 OA
ENDBRANCH   9  13
ENDBRANCH   5   8
ENDBRANCH   3   4
ENDBRANCH   2   3
ENDBRANCH   1   2
BRANCH   1  18
ATOM     18  C   UNL A   1      40.200  21.629  26.850  1.00  0.00     0.116 C 
BRANCH  18  19
ATOM     19  N   UNL A   1      39.136  22.156  26.008  1.00  0.00    -0.352 N 
ATOM     20  C   UNL A   1      38.618  23.428  25.969  1.00  0.00     0.251 C 
ATOM     21  H   UNL A   1      38.733  21.513  25.382  1.00  0.00     0.163 HD
ATOM     22  O   UNL A   1      37.636  23.664  25.270  1.00  0.00    -0.269 OA
BRANCH  20  23
ATOM     23  C   UNL A   1      39.221  24.496  26.794  1.00  0.00     0.039 A 
ATOM     24  C   UNL A   1      40.128  25.376  26.199  1.00  0.00     0.014 A 
ATOM     25  C   UNL A   1      38.880  24.641  28.142  1.00  0.00     0.014 A 
ATOM     26  C   UNL A   1      40.639  26.446  26.938  1.00  0.00     0.010 A 
ATOM     27  C   UNL A   1      39.339  25.745  28.856  1.00  0.00     0.010 A 
ATOM     28  C   UNL A   1      40.219  26.661  28.261  1.00  0.00    -0.014 A 
BRANCH  28  29
ATOM     29  C   UNL A   1      40.676  27.846  29.032  1.00  0.00     0.031 A 
ATOM     30  C   UNL A   1      42.030  27.848  29.686  1.00  0.00     0.074 A 
ATOM     31  C   UNL A   1      39.841  28.891  29.200  1.00  0.00     0.049 A 
ATOM     32  N   UNL A   1      42.572  28.756  30.457  1.00  0.00    -0.248 NA
ATOM     33  C   UNL A   1      42.873  26.662  29.470  1.00  0.00     0.031 C 
ATOM     34  C   UNL A   1      38.484  28.986  28.658  1.00  0.00     0.029 A 
ATOM     35  N   UNL A   1      40.006  30.068  29.887  1.00  0.00    -0.354 N 
ATOM     36  C   UNL A   1      43.811  28.247  30.829  1.00  0.00     0.074 A 
ATOM     37  C   UNL A   1      43.918  26.929  30.241  1.00  0.00     0.031 C 
ATOM     38  C   UNL A   1      37.949  30.164  29.014  1.00  0.00     0.029 A 
ATOM     39  C   UNL A   1      38.906  30.894  29.840  1.00  0.00     0.049 A 
ATOM     40  H   UNL A   1      40.834  30.301  30.366  1.00  0.00     0.167 HD
ATOM     41  C   UNL A   1      44.779  28.834  31.573  1.00  0.00     0.037 A 
ATOM     42  C   UNL A   1      38.691  32.098  30.404  1.00  0.00     0.037 A 
ATOM     43  C   UNL A   1      44.677  30.155  32.134  1.00  0.00     0.049 A 
ATOM     44  C   UNL A   1      39.783  32.731  31.222  1.00  0.00     0.074 A 
ATOM     45  C   UNL A   1      45.627  30.862  32.850  1.00  0.00     0.029 A 
ATOM     46  N   UNL A   1      43.557  30.969  32.046  1.00  0.00    -0.354 N 
ATOM     47  N   UNL A   1      40.974  32.263  31.508  1.00  0.00    -0.248 NA
ATOM     48  C   UNL A   1      39.505  34.057  31.790  1.00  0.00     0.031 C 
ATOM     49  C   UNL A   1      45.067  32.087  33.230  1.00  0.00     0.029 A 
ATOM     50  C   UNL A   1      43.784  32.163  32.711  1.00  0.00     0.049 A 
ATOM     51  H   UNL A   1      42.722  30.733  31.579  1.00  0.00     0.167 HD
ATOM     52  C   UNL A   1      41.597  33.248  32.268  1.00  0.00     0.074 A 
ATOM     53  C   UNL A   1      40.655  34.341  32.386  1.00  0.00     0.031 C 
ATOM     54  C   UNL A   1      42.838  33.246  32.816  1.00  0.00     0.037 A 
BRANCH  41  55
ATOM     55  C   UNL A   1      46.038  28.047  31.819  1.00  0.00     0.058 A 
ATOM     56  C   UNL A   1      47.162  28.177  30.988  1.00  0.00     0.135 A 
ATOM     57  C   UNL A   1      46.132  27.171  32.913  1.00  0.00     0.135 A 
ATOM     58  F   UNL A   1      47.123  28.990  29.920  1.00  0.00    -0.206 F 
ATOM     59  C   UNL A   1      48.322  27.443  31.212  1.00  0.00     0.059 A 
ATOM     60  C   UNL A   1      47.292  26.447  33.173  1.00  0.00     0.059 A 
ATOM     61  F   UNL A   1      45.088  27.008  33.741  1.00  0.00    -0.206 F 
ATOM     62  C   UNL A   1      48.376  26.577  32.305  1.00  0.00     0.060 A 
BRANCH  62  63
ATOM     63  S   UNL A   1      49.886  25.625  32.576  1.00  0.00     0.124 S 
ATOM     64  O   UNL A   1      49.385  24.507  33.371  1.00  0.00    -0.237 OA
ATOM     65  O   UNL A   1      50.300  25.300  31.215  1.00  0.00    -0.237 OA
ATOM     66  O   UNL A   1      50.754  26.560  33.287  1.00  0.00    -0.744 OA
ENDBRANCH  62  63
ENDBRANCH  41  55
BRANCH  42  67
ATOM     67  C   UNL A   1      37.395  32.795  30.190  1.00  0.00     0.058 A 
ATOM     68  C   UNL A   1      37.240  33.721  29.147  1.00  0.00     0.135 A 
ATOM     69  C   UNL A   1      36.283  32.537  31.005  1.00  0.00     0.135 A 
ATOM     70  F   UNL A   1      38.277  34.006  28.345  1.00  0.00    -0.206 F 
ATOM     71  C   UNL A   1      36.033  34.375  28.927  1.00  0.00     0.059 A 
ATOM     72  C   UNL A   1      35.058  33.161  30.790  1.00  0.00     0.059 A 
ATOM     73  F   UNL A   1      36.374  31.647  32.005  1.00  0.00    -0.206 F 
ATOM     74  C   UNL A   1      34.945  34.086  29.753  1.00  0.00     0.060 A 
BRANCH  74  75
ATOM     75  S   UNL A   1      33.366  34.897  29.422  1.00  0.00     0.124 S 
ATOM     76  O   UNL A   1      32.766  33.989  28.452  1.00  0.00    -0.237 OA
ATOM     77  O   UNL A   1      32.749  34.918  30.745  1.00  0.00    -0.237 OA
ATOM     78  O   UNL A   1      33.764  36.203  28.904  1.00  0.00    -0.744 OA
ENDBRANCH  74  75
ENDBRANCH  42  67
BRANCH  54  79
ATOM     79  C   UNL A   1      43.263  34.475  33.569  1.00  0.00     0.058 A 
ATOM     80  C   UNL A   1      43.879  35.559  32.925  1.00  0.00     0.135 A 
ATOM     81  C   UNL A   1      43.001  34.591  34.945  1.00  0.00     0.135 A 
ATOM     82  F   UNL A   1      44.158  35.495  31.613  1.00  0.00    -0.206 F 
ATOM     83  C   UNL A   1      44.242  36.707  33.622  1.00  0.00     0.059 A 
ATOM     84  C   UNL A   1      43.331  35.741  35.656  1.00  0.00     0.059 A 
ATOM     85  F   UNL A   1      42.404  33.587  35.606  1.00  0.00    -0.206 F 
ATOM     86  C   UNL A   1      43.961  36.789  34.987  1.00  0.00     0.060 A 
BRANCH  86  87
ATOM     87  S   UNL A   1      44.404  38.299  35.873  1.00  0.00     0.124 S 
ATOM     88  O   UNL A   1      45.861  38.245  35.835  1.00  0.00    -0.237 OA
ATOM     89  O   UNL A   1      43.785  39.336  35.054  1.00  0.00    -0.237 OA
ATOM     90  O   UNL A   1      43.803  38.107  37.190  1.00  0.00    -0.744 OA
ENDBRANCH  86  87
ENDBRANCH  54  79
ENDBRANCH  28  29
ENDBRANCH  20  23
ENDBRANCH  18  19
ENDBRANCH   1  18
TORSDOF 15
ENDMDL
MODEL 3
REMARK VINA RESULT:     -10.6      3.480      5.902
REMARK SMILES CN(C)C(=O)c1nnc(C(=O)NCCCCNC(=O)c2ccc(-c3c4nc(c(-c5c(F)cc(S(=O)(=O)[O-])cc5F)c5ccc([nH]5)c(-c5c(F)cc(S(=O)(=O)[O-])cc5F)c5nc(c(-c6c(F)cc(S(=O)(=O)[O-])cc6F)c6ccc3[nH]6)C=C5)C=C4)cc2)s1
REMARK SMILES IDX 15 1 14 2 13 3 12 4 10 5 11 6 9 8 6 9 7 10 86 11 8 12 4 13
REMARK SMILES IDX 1 14 2 15 3 16 5 17 16 18 17 19 18 20 19 22 20 23 21 24
REMARK SMILES IDX 85 25 22 26 84 27 23 28 24 29 25 30 78 31 26 32 83 33 77 34
REMARK SMILES IDX 79 35 27 36 82 37 76 38 75 39 28 41 62 42 41 43 61 44 42 45
REMARK SMILES IDX 45 46 60 47 80 48 43 49 44 50 59 52 81 53 46 54 29 55 30 56
REMARK SMILES IDX 39 57 31 58 32 59 38 60 40 61 33 62 34 63 35 64 36 65 37 66
REMARK SMILES IDX 63 67 64 68 73 69 65 70 66 71 72 72 74 73 67 74 68 75 69 76
REMARK SMILES IDX 70 77 71 78 47 79 48 80 57 81 49 82 50 83 56 84 58 85 51 86
REMARK SMILES IDX 52 87 53 88 54 89 55 90
REMARK H PARENT 12 7 17 21 79 40 45 51
REMARK Flexibility Score: inf
ROOT
ATOM      1  C   UNL A   1      33.839  28.129  25.713  1.00  0.00     0.023 C 
ENDROOT
BRANCH   1   2
ATOM      2  C   UNL A   1      33.235  29.144  24.735  1.00  0.00     0.023 C 
BRANCH   2   3
ATOM      3  C   UNL A   1      33.561  28.873  23.267  1.00  0.00     0.116 C 
BRANCH   3   4
ATOM      4  N   UNL A   1      32.388  28.404  22.552  1.00  0.00    -0.350 N 
ATOM      5  C   UNL A   1      31.942  27.124  22.281  1.00  0.00     0.282 C 
ATOM      6  O   UNL A   1      30.839  27.048  21.733  1.00  0.00    -0.266 OA
ATOM      7  H   UNL A   1      31.811  29.119  22.200  1.00  0.00     0.163 HD
BRANCH   5   8
ATOM      8  C   UNL A   1      32.707  25.955  22.681  1.00  0.00     0.205 A 
ATOM      9  C   UNL A   1      33.631  23.975  23.575  1.00  0.00     0.206 A 
ATOM     10  N   UNL A   1      34.293  24.377  22.510  1.00  0.00    -0.132 NA
ATOM     11  S   UNL A   1      32.391  25.033  24.097  1.00  0.00    -0.082 S 
ATOM     12  N   UNL A   1      33.769  25.551  22.007  1.00  0.00    -0.132 NA
BRANCH   9  13
ATOM     13  C   UNL A   1      33.846  22.690  24.209  1.00  0.00     0.284 C 
ATOM     14  C   UNL A   1      33.251  20.321  24.369  1.00  0.00     0.146 C 
ATOM     15  N   UNL A   1      33.102  21.605  23.710  1.00  0.00    -0.343 N 
ATOM     16  C   UNL A   1      32.143  21.705  22.619  1.00  0.00     0.146 C 
ATOM     17  O   UNL A   1      34.624  22.541  25.154  1.00  0.00    -0.266 OA
ENDBRANCH   9  13
ENDBRANCH   5   8
ENDBRANCH   3   4
ENDBRANCH   2   3
ENDBRANCH   1   2
BRANCH   1  18
ATOM     18  C   UNL A   1      33.514  28.363  27.187  1.00  0.00     0.116 C 
BRANCH  18  19
ATOM     19  N   UNL A   1      33.410  29.773  27.533  1.00  0.00    -0.352 N 
ATOM     20  C   UNL A   1      34.356  30.595  28.098  1.00  0.00     0.251 C 
ATOM     21  H   UNL A   1      32.544  30.195  27.336  1.00  0.00     0.163 HD
ATOM     22  O   UNL A   1      34.051  31.738  28.427  1.00  0.00    -0.269 OA
BRANCH  20  23
ATOM     23  C   UNL A   1      35.723  30.088  28.338  1.00  0.00     0.039 A 
ATOM     24  C   UNL A   1      36.640  30.096  27.284  1.00  0.00     0.014 A 
ATOM     25  C   UNL A   1      36.106  29.625  29.600  1.00  0.00     0.014 A 
ATOM     26  C   UNL A   1      37.962  29.706  27.514  1.00  0.00     0.010 A 
ATOM     27  C   UNL A   1      37.439  29.300  29.842  1.00  0.00     0.010 A 
ATOM     28  C   UNL A   1      38.381  29.342  28.804  1.00  0.00    -0.014 A 
BRANCH  28  29
ATOM     29  C   UNL A   1      39.802  29.018  29.090  1.00  0.00     0.031 A 
ATOM     30  C   UNL A   1      40.715  30.061  29.676  1.00  0.00     0.074 A 
ATOM     31  C   UNL A   1      40.287  27.806  28.755  1.00  0.00     0.049 A 
ATOM     32  N   UNL A   1      41.997  29.988  29.925  1.00  0.00    -0.248 NA
ATOM     33  C   UNL A   1      40.113  31.364  29.996  1.00  0.00     0.031 C 
ATOM     34  C   UNL A   1      39.515  26.728  28.133  1.00  0.00     0.029 A 
ATOM     35  N   UNL A   1      41.550  27.280  28.877  1.00  0.00    -0.354 N 
ATOM     36  C   UNL A   1      42.358  31.237  30.417  1.00  0.00     0.074 A 
ATOM     37  C   UNL A   1      41.171  32.063  30.383  1.00  0.00     0.031 C 
ATOM     38  C   UNL A   1      40.313  25.664  27.949  1.00  0.00     0.029 A 
ATOM     39  C   UNL A   1      41.661  25.993  28.403  1.00  0.00     0.049 A 
ATOM     40  H   UNL A   1      42.304  27.776  29.269  1.00  0.00     0.167 HD
ATOM     41  C   UNL A   1      43.564  31.650  30.877  1.00  0.00     0.037 A 
ATOM     42  C   UNL A   1      42.729  25.174  28.334  1.00  0.00     0.037 A 
ATOM     43  C   UNL A   1      44.736  30.815  30.933  1.00  0.00     0.049 A 
ATOM     44  C   UNL A   1      44.056  25.654  28.856  1.00  0.00     0.074 A 
ATOM     45  C   UNL A   1      45.987  31.121  31.439  1.00  0.00     0.029 A 
ATOM     46  N   UNL A   1      44.803  29.511  30.465  1.00  0.00    -0.354 N 
ATOM     47  N   UNL A   1      44.363  26.817  29.379  1.00  0.00    -0.248 NA
ATOM     48  C   UNL A   1      45.179  24.710  28.783  1.00  0.00     0.031 C 
ATOM     49  C   UNL A   1      46.822  30.016  31.239  1.00  0.00     0.029 A 
ATOM     50  C   UNL A   1      46.079  29.005  30.651  1.00  0.00     0.049 A 
ATOM     51  H   UNL A   1      44.054  29.017  30.059  1.00  0.00     0.167 HD
ATOM     52  C   UNL A   1      45.709  26.735  29.721  1.00  0.00     0.074 A 
ATOM     53  C   UNL A   1      46.152  25.405  29.355  1.00  0.00     0.031 C 
ATOM     54  C   UNL A   1      46.505  27.677  30.287  1.00  0.00     0.037 A 
BRANCH  41  55
ATOM     55  C   UNL A   1      43.673  33.071  31.361  1.00  0.00     0.058 A 
ATOM     56  C   UNL A   1      43.959  34.127  30.482  1.00  0.00     0.135 A 
ATOM     57  C   UNL A   1      43.465  33.383  32.714  1.00  0.00     0.135 A 
ATOM     58  F   UNL A   1      44.180  33.883  29.180  1.00  0.00    -0.206 F 
ATOM     59  C   UNL A   1      44.068  35.439  30.932  1.00  0.00     0.059 A 
ATOM     60  C   UNL A   1      43.542  34.692  33.182  1.00  0.00     0.059 A 
ATOM     61  F   UNL A   1      43.189  32.412  33.598  1.00  0.00    -0.206 F 
ATOM     62  C   UNL A   1      43.862  35.711  32.285  1.00  0.00     0.060 A 
BRANCH  62  63
ATOM     63  S   UNL A   1      44.016  37.418  32.854  1.00  0.00     0.124 S 
ATOM     64  O   UNL A   1      42.929  37.498  33.825  1.00  0.00    -0.237 OA
ATOM     65  O   UNL A   1      45.365  37.443  33.410  1.00  0.00    -0.237 OA
ATOM     66  O   UNL A   1      43.827  38.200  31.636  1.00  0.00    -0.744 OA
ENDBRANCH  62  63
ENDBRANCH  41  55
BRANCH  42  67
ATOM     67  C   UNL A   1      42.577  23.806  27.773  1.00  0.00     0.058 A 
ATOM     68  C   UNL A   1      42.470  22.690  28.617  1.00  0.00     0.135 A 
ATOM     69  C   UNL A   1      42.517  23.587  26.389  1.00  0.00     0.135 A 
ATOM     70  F   UNL A   1      42.528  22.849  29.948  1.00  0.00    -0.206 F 
ATOM     71  C   UNL A   1      42.319  21.404  28.109  1.00  0.00     0.059 A 
ATOM     72  C   UNL A   1      42.343  22.312  25.857  1.00  0.00     0.059 A 
ATOM     73  F   UNL A   1      42.599  24.622  25.540  1.00  0.00    -0.206 F 
ATOM     74  C   UNL A   1      42.253  21.226  26.726  1.00  0.00     0.060 A 
BRANCH  74  75
ATOM     75  S   UNL A   1      41.999  19.559  26.080  1.00  0.00     0.124 S 
ATOM     76  O   UNL A   1      42.891  19.552  24.926  1.00  0.00    -0.237 OA
ATOM     77  O   UNL A   1      42.408  18.727  27.208  1.00  0.00    -0.237 OA
ATOM     78  O   UNL A   1      40.572  19.532  25.776  1.00  0.00    -0.744 OA
ENDBRANCH  74  75
ENDBRANCH  42  67
BRANCH  54  79
ATOM     79  C   UNL A   1      47.930  27.295  30.576  1.00  0.00     0.058 A 
ATOM     80  C   UNL A   1      48.306  26.722  31.800  1.00  0.00     0.135 A 
ATOM     81  C   UNL A   1      48.921  27.458  29.594  1.00  0.00     0.135 A 
ATOM     82  F   UNL A   1      47.398  26.552  32.774  1.00  0.00    -0.206 F 
ATOM     83  C   UNL A   1      49.621  26.342  32.050  1.00  0.00     0.059 A 
ATOM     84  C   UNL A   1      50.237  27.060  29.812  1.00  0.00     0.059 A 
ATOM     85  F   UNL A   1      48.611  27.992  28.402  1.00  0.00    -0.206 F 
ATOM     86  C   UNL A   1      50.578  26.513  31.048  1.00  0.00     0.060 A 
BRANCH  86  87
ATOM     87  S   UNL A   1      52.274  25.982  31.371  1.00  0.00     0.124 S 
ATOM     88  O   UNL A   1      52.068  24.629  31.875  1.00  0.00    -0.237 OA
ATOM     89  O   UNL A   1      52.890  26.081  30.052  1.00  0.00    -0.237 OA
ATOM     90  O   UNL A   1      52.751  26.951  32.353  1.00  0.00    -0.744 OA
ENDBRANCH  86  87
ENDBRANCH  54  79
ENDBRANCH  28  29
ENDBRANCH  20  23
ENDBRANCH  18  19
ENDBRANCH   1  18
TORSDOF 15
ENDMDL
