MODEL 1
REMARK VINA RESULT:      -9.6      0.000      0.000
REMARK SMILES COC[C@@H](C)CC(=O)N1CC(CC(=O)NCCCCNC(=O)c2ccc(-c3c4nc(c(-c5c(F)cc(S(=O)(=O)[O-])cc5F)c5ccc([nH]5)c(-c5c(F)cc(S(=O)(=O)[O-])cc5F)c5nc(c(-c6c(F)cc(S(=O)(=O)[O-])cc6F)c6ccc3[nH]6)C=C5)C=C4)cc2)C1
REMARK SMILES IDX 16 1 15 2 13 3 14 4 12 6 11 7 7 8 8 9 9 10 10 11 89 12 6 13
REMARK SMILES IDX 4 14 5 15 3 16 2 17 1 18 17 19 18 20 19 21 20 22 21 23 22 25
REMARK SMILES IDX 23 26 24 27 88 28 25 29 87 30 26 31 27 32 28 33 81 34 29 35
REMARK SMILES IDX 86 36 80 37 82 38 30 39 85 40 79 41 78 42 31 44 65 45 44 46
REMARK SMILES IDX 64 47 45 48 48 49 63 50 83 51 46 52 47 53 62 55 84 56 49 57
REMARK SMILES IDX 32 58 33 59 42 60 34 61 35 62 41 63 43 64 36 65 37 66 38 67
REMARK SMILES IDX 39 68 40 69 66 70 67 71 76 72 68 73 69 74 75 75 77 76 70 77
REMARK SMILES IDX 71 78 72 79 73 80 74 81 50 82 51 83 60 84 52 85 53 86 59 87
REMARK SMILES IDX 61 88 54 89 55 90 56 91 57 92 58 93
REMARK H PARENT 15 5 20 24 82 43 48 54
REMARK Flexibility Score: inf
ROOT
ATOM      1  C   UNL A   1      33.256  34.924  29.447  1.00  0.00     0.116 C 
ENDROOT
BRANCH   1   2
ATOM      2  N   UNL A   1      33.113  36.170  30.176  1.00  0.00    -0.356 N 
ATOM      3  C   UNL A   1      33.087  36.416  31.515  1.00  0.00     0.220 C 
ATOM      4  O   UNL A   1      32.861  37.568  31.891  1.00  0.00    -0.275 OA
ATOM      5  H   UNL A   1      33.021  36.969  29.608  1.00  0.00     0.163 HD
BRANCH   3   6
ATOM      6  C   UNL A   1      33.301  35.306  32.533  1.00  0.00     0.107 C 
BRANCH   6   7
ATOM      7  C   UNL A   1      34.711  35.304  33.123  1.00  0.00     0.037 C 
ATOM      8  C   UNL A   1      37.385  33.445  33.800  1.00  0.00     0.222 C 
ATOM      9  O   UNL A   1      38.369  34.179  33.836  1.00  0.00    -0.275 OA
ATOM     10  N   UNL A   1      36.188  33.819  33.231  1.00  0.00    -0.342 N 
ATOM     11  C   UNL A   1      35.924  34.894  32.273  1.00  0.00     0.125 C 
ATOM     12  C   UNL A   1      34.990  34.093  33.997  1.00  0.00     0.125 C 
BRANCH   8  13
ATOM     13  C   UNL A   1      37.455  31.973  34.225  1.00  0.00     0.106 C 
BRANCH  13  14
ATOM     14  C   UNL A   1      38.405  31.009  33.483  1.00  0.00     0.021 C 
ATOM     15  C   UNL A   1      37.655  29.705  33.175  1.00  0.00     0.010 C 
BRANCH  14  16
ATOM     16  C   UNL A   1      39.660  30.680  34.299  1.00  0.00     0.163 C 
BRANCH  16  17
ATOM     17  O   UNL A   1      40.059  29.318  34.193  1.00  0.00    -0.384 OA
ATOM     18  C   UNL A   1      41.252  29.119  33.445  1.00  0.00     0.194 C 
ENDBRANCH  16  17
ENDBRANCH  14  16
ENDBRANCH  13  14
ENDBRANCH   8  13
ENDBRANCH   6   7
ENDBRANCH   3   6
ENDBRANCH   1   2
BRANCH   1  19
ATOM     19  C   UNL A   1      34.422  34.992  28.460  1.00  0.00     0.023 C 
BRANCH  19  20
ATOM     20  C   UNL A   1      35.279  33.744  28.334  1.00  0.00     0.023 C 
BRANCH  20  21
ATOM     21  C   UNL A   1      34.860  32.594  29.231  1.00  0.00     0.116 C 
BRANCH  21  22
ATOM     22  N   UNL A   1      34.057  31.585  28.549  1.00  0.00    -0.352 N 
ATOM     23  C   UNL A   1      34.456  30.383  28.012  1.00  0.00     0.251 C 
ATOM     24  H   UNL A   1      33.099  31.792  28.461  1.00  0.00     0.163 HD
ATOM     25  O   UNL A   1      33.675  29.715  27.341  1.00  0.00    -0.269 OA
BRANCH  23  26
ATOM     26  C   UNL A   1      35.841  29.925  28.233  1.00  0.00     0.039 A 
ATOM     27  C   UNL A   1      36.790  30.071  27.220  1.00  0.00     0.014 A 
ATOM     28  C   UNL A   1      36.200  29.389  29.473  1.00  0.00     0.014 A 
ATOM     29  C   UNL A   1      38.119  29.729  27.474  1.00  0.00     0.010 A 
ATOM     30  C   UNL A   1      37.536  29.157  29.757  1.00  0.00     0.010 A 
ATOM     31  C   UNL A   1      38.505  29.297  28.754  1.00  0.00    -0.014 A 
BRANCH  31  32
ATOM     32  C   UNL A   1      39.906  28.927  29.068  1.00  0.00     0.031 A 
ATOM     33  C   UNL A   1      40.812  29.951  29.700  1.00  0.00     0.074 A 
ATOM     34  C   UNL A   1      40.379  27.718  28.711  1.00  0.00     0.049 A 
ATOM     35  N   UNL A   1      42.092  29.882  29.954  1.00  0.00    -0.248 NA
ATOM     36  C   UNL A   1      40.203  31.246  30.054  1.00  0.00     0.031 C 
ATOM     37  C   UNL A   1      39.610  26.669  28.037  1.00  0.00     0.029 A 
ATOM     38  N   UNL A   1      41.628  27.170  28.856  1.00  0.00    -0.354 N 
ATOM     39  C   UNL A   1      42.443  31.126  30.467  1.00  0.00     0.074 A 
ATOM     40  C   UNL A   1      41.259  31.952  30.425  1.00  0.00     0.031 C 
ATOM     41  C   UNL A   1      40.397  25.597  27.849  1.00  0.00     0.029 A 
ATOM     42  C   UNL A   1      41.733  25.894  28.356  1.00  0.00     0.049 A 
ATOM     43  H   UNL A   1      42.380  27.647  29.278  1.00  0.00     0.167 HD
ATOM     44  C   UNL A   1      43.636  31.531  30.961  1.00  0.00     0.037 A 
ATOM     45  C   UNL A   1      42.791  25.062  28.312  1.00  0.00     0.037 A 
ATOM     46  C   UNL A   1      44.795  30.682  31.037  1.00  0.00     0.049 A 
ATOM     47  C   UNL A   1      44.099  25.523  28.896  1.00  0.00     0.074 A 
ATOM     48  C   UNL A   1      46.036  30.964  31.577  1.00  0.00     0.029 A 
ATOM     49  N   UNL A   1      44.850  29.378  30.563  1.00  0.00    -0.354 N 
ATOM     50  N   UNL A   1      44.401  26.682  29.434  1.00  0.00    -0.248 NA
ATOM     51  C   UNL A   1      45.207  24.559  28.881  1.00  0.00     0.031 C 
ATOM     52  C   UNL A   1      46.856  29.844  31.394  1.00  0.00     0.029 A 
ATOM     53  C   UNL A   1      46.109  28.847  30.785  1.00  0.00     0.049 A 
ATOM     54  H   UNL A   1      44.105  28.902  30.132  1.00  0.00     0.167 HD
ATOM     55  C   UNL A   1      45.725  26.579  29.843  1.00  0.00     0.074 A 
ATOM     56  C   UNL A   1      46.158  25.237  29.509  1.00  0.00     0.031 C 
ATOM     57  C   UNL A   1      46.515  27.507  30.440  1.00  0.00     0.037 A 
BRANCH  44  58
ATOM     58  C   UNL A   1      43.738  32.946  31.464  1.00  0.00     0.058 A 
ATOM     59  C   UNL A   1      44.134  34.003  30.626  1.00  0.00     0.135 A 
ATOM     60  C   UNL A   1      43.421  33.256  32.797  1.00  0.00     0.135 A 
ATOM     61  F   UNL A   1      44.470  33.764  29.348  1.00  0.00    -0.206 F 
ATOM     62  C   UNL A   1      44.244  35.306  31.098  1.00  0.00     0.059 A 
ATOM     63  C   UNL A   1      43.493  34.558  33.283  1.00  0.00     0.059 A 
ATOM     64  F   UNL A   1      43.041  32.286  33.644  1.00  0.00    -0.206 F 
ATOM     65  C   UNL A   1      43.921  35.575  32.430  1.00  0.00     0.060 A 
BRANCH  65  66
ATOM     66  S   UNL A   1      44.064  37.273  33.024  1.00  0.00     0.124 S 
ATOM     67  O   UNL A   1      42.875  37.388  33.863  1.00  0.00    -0.237 OA
ATOM     68  O   UNL A   1      45.340  37.249  33.732  1.00  0.00    -0.237 OA
ATOM     69  O   UNL A   1      44.045  38.065  31.799  1.00  0.00    -0.744 OA
ENDBRANCH  65  66
ENDBRANCH  44  58
BRANCH  45  70
ATOM     70  C   UNL A   1      42.646  23.701  27.727  1.00  0.00     0.058 A 
ATOM     71  C   UNL A   1      42.461  22.581  28.552  1.00  0.00     0.135 A 
ATOM     72  C   UNL A   1      42.671  23.492  26.340  1.00  0.00     0.135 A 
ATOM     73  F   UNL A   1      42.434  22.727  29.885  1.00  0.00    -0.206 F 
ATOM     74  C   UNL A   1      42.326  21.300  28.025  1.00  0.00     0.059 A 
ATOM     75  C   UNL A   1      42.511  22.225  25.787  1.00  0.00     0.059 A 
ATOM     76  F   UNL A   1      42.825  24.532  25.506  1.00  0.00    -0.206 F 
ATOM     77  C   UNL A   1      42.349  21.133  26.640  1.00  0.00     0.060 A 
BRANCH  77  78
ATOM     78  S   UNL A   1      42.125  19.472  25.965  1.00  0.00     0.124 S 
ATOM     79  O   UNL A   1      42.958  19.526  24.770  1.00  0.00    -0.237 OA
ATOM     80  O   UNL A   1      42.620  18.632  27.052  1.00  0.00    -0.237 OA
ATOM     81  O   UNL A   1      40.686  19.398  25.731  1.00  0.00    -0.744 OA
ENDBRANCH  77  78
ENDBRANCH  45  70
BRANCH  57  82
ATOM     82  C   UNL A   1      47.914  27.086  30.795  1.00  0.00     0.058 A 
ATOM     83  C   UNL A   1      48.997  27.320  29.933  1.00  0.00     0.135 A 
ATOM     84  C   UNL A   1      48.175  26.456  32.023  1.00  0.00     0.135 A 
ATOM     85  F   UNL A   1      48.800  27.917  28.747  1.00  0.00    -0.206 F 
ATOM     86  C   UNL A   1      50.284  26.905  30.257  1.00  0.00     0.059 A 
ATOM     87  C   UNL A   1      49.461  26.062  32.380  1.00  0.00     0.059 A 
ATOM     88  F   UNL A   1      47.178  26.224  32.891  1.00  0.00    -0.206 F 
ATOM     89  C   UNL A   1      50.504  26.272  31.481  1.00  0.00     0.060 A 
BRANCH  89  90
ATOM     90  S   UNL A   1      52.178  25.733  31.887  1.00  0.00     0.124 S 
ATOM     91  O   UNL A   1      51.961  24.327  32.214  1.00  0.00    -0.237 OA
ATOM     92  O   UNL A   1      52.900  25.992  30.646  1.00  0.00    -0.237 OA
ATOM     93  O   UNL A   1      52.547  26.590  33.010  1.00  0.00    -0.744 OA
ENDBRANCH  89  90
ENDBRANCH  57  82
ENDBRANCH  31  32
ENDBRANCH  23  26
ENDBRANCH  21  22
ENDBRANCH  20  21
ENDBRANCH  19  20
ENDBRANCH   1  19
TORSDOF 19
ENDMDL
MODEL 2
REMARK VINA RESULT:      -9.2      4.474     11.016
REMARK SMILES COC[C@@H](C)CC(=O)N1CC(CC(=O)NCCCCNC(=O)c2ccc(-c3c4nc(c(-c5c(F)cc(S(=O)(=O)[O-])cc5F)c5ccc([nH]5)c(-c5c(F)cc(S(=O)(=O)[O-])cc5F)c5nc(c(-c6c(F)cc(S(=O)(=O)[O-])cc6F)c6ccc3[nH]6)C=C5)C=C4)cc2)C1
REMARK SMILES IDX 16 1 15 2 13 3 14 4 12 6 11 7 7 8 8 9 9 10 10 11 89 12 6 13
REMARK SMILES IDX 4 14 5 15 3 16 2 17 1 18 17 19 18 20 19 21 20 22 21 23 22 25
REMARK SMILES IDX 23 26 24 27 88 28 25 29 87 30 26 31 27 32 28 33 81 34 29 35
REMARK SMILES IDX 86 36 80 37 82 38 30 39 85 40 79 41 78 42 31 44 65 45 44 46
REMARK SMILES IDX 64 47 45 48 48 49 63 50 83 51 46 52 47 53 62 55 84 56 49 57
REMARK SMILES IDX 32 58 33 59 42 60 34 61 35 62 41 63 43 64 36 65 37 66 38 67
REMARK SMILES IDX 39 68 40 69 66 70 67 71 76 72 68 73 69 74 75 75 77 76 70 77
REMARK SMILES IDX 71 78 72 79 73 80 74 81 50 82 51 83 60 84 52 85 53 86 59 87
REMARK SMILES IDX 61 88 54 89 55 90 56 91 57 92 58 93
REMARK H PARENT 15 5 20 24 82 43 48 54
REMARK Flexibility Score: inf
ROOT
ATOM      1  C   UNL A   1      33.329  21.741  26.226  1.00  0.00     0.116 C 
ENDROOT
BRANCH   1   2
ATOM      2  N   UNL A   1      32.172  22.205  26.966  1.00  0.00    -0.356 N 
ATOM      3  C   UNL A   1      31.095  22.935  26.562  1.00  0.00     0.220 C 
ATOM      4  O   UNL A   1      30.276  23.283  27.414  1.00  0.00    -0.275 OA
ATOM      5  H   UNL A   1      32.162  21.947  27.916  1.00  0.00     0.163 HD
BRANCH   3   6
ATOM      6  C   UNL A   1      30.910  23.342  25.108  1.00  0.00     0.107 C 
BRANCH   6   7
ATOM      7  C   UNL A   1      31.390  24.765  24.823  1.00  0.00     0.037 C 
ATOM      8  C   UNL A   1      30.461  27.835  23.940  1.00  0.00     0.222 C 
ATOM      9  O   UNL A   1      31.290  28.631  24.373  1.00  0.00    -0.275 OA
ATOM     10  N   UNL A   1      30.356  26.538  24.392  1.00  0.00    -0.342 N 
ATOM     11  C   UNL A   1      30.860  25.956  25.638  1.00  0.00     0.125 C 
ATOM     12  C   UNL A   1      30.731  25.384  23.602  1.00  0.00     0.125 C 
BRANCH   8  13
ATOM     13  C   UNL A   1      29.344  28.267  22.982  1.00  0.00     0.106 C 
BRANCH  13  14
ATOM     14  C   UNL A   1      28.859  29.733  22.988  1.00  0.00     0.021 C 
ATOM     15  C   UNL A   1      27.341  29.757  23.219  1.00  0.00     0.010 C 
BRANCH  14  16
ATOM     16  C   UNL A   1      29.173  30.459  21.675  1.00  0.00     0.163 C 
BRANCH  16  17
ATOM     17  O   UNL A   1      28.010  30.795  20.926  1.00  0.00    -0.384 OA
ATOM     18  C   UNL A   1      28.017  32.120  20.409  1.00  0.00     0.194 C 
ENDBRANCH  16  17
ENDBRANCH  14  16
ENDBRANCH  13  14
ENDBRANCH   8  13
ENDBRANCH   6   7
ENDBRANCH   3   6
ENDBRANCH   1   2
BRANCH   1  19
ATOM     19  C   UNL A   1      34.602  22.454  26.685  1.00  0.00     0.023 C 
BRANCH  19  20
ATOM     20  C   UNL A   1      35.014  23.684  25.894  1.00  0.00     0.023 C 
BRANCH  20  21
ATOM     21  C   UNL A   1      36.502  23.983  25.918  1.00  0.00     0.116 C 
BRANCH  21  22
ATOM     22  N   UNL A   1      37.335  22.789  26.018  1.00  0.00    -0.352 N 
ATOM     23  C   UNL A   1      38.675  22.694  26.309  1.00  0.00     0.251 C 
ATOM     24  H   UNL A   1      36.874  21.935  25.853  1.00  0.00     0.163 HD
ATOM     25  O   UNL A   1      39.256  21.617  26.210  1.00  0.00    -0.269 OA
BRANCH  23  26
ATOM     26  C   UNL A   1      39.407  23.909  26.718  1.00  0.00     0.039 A 
ATOM     27  C   UNL A   1      39.874  24.796  25.747  1.00  0.00     0.014 A 
ATOM     28  C   UNL A   1      39.586  24.182  28.077  1.00  0.00     0.014 A 
ATOM     29  C   UNL A   1      40.474  25.991  26.147  1.00  0.00     0.010 A 
ATOM     30  C   UNL A   1      40.079  25.415  28.468  1.00  0.00     0.010 A 
ATOM     31  C   UNL A   1      40.554  26.322  27.510  1.00  0.00    -0.014 A 
BRANCH  31  32
ATOM     32  C   UNL A   1      41.180  27.581  27.977  1.00  0.00     0.031 A 
ATOM     33  C   UNL A   1      42.677  27.731  27.896  1.00  0.00     0.074 A 
ATOM     34  C   UNL A   1      40.423  28.540  28.543  1.00  0.00     0.049 A 
ATOM     35  N   UNL A   1      43.439  28.692  28.349  1.00  0.00    -0.248 NA
ATOM     36  C   UNL A   1      43.420  26.628  27.261  1.00  0.00     0.031 C 
ATOM     37  C   UNL A   1      38.971  28.477  28.731  1.00  0.00     0.029 A 
ATOM     38  N   UNL A   1      40.772  29.754  29.078  1.00  0.00    -0.354 N 
ATOM     39  C   UNL A   1      44.744  28.296  28.077  1.00  0.00     0.074 A 
ATOM     40  C   UNL A   1      44.675  26.980  27.486  1.00  0.00     0.031 C 
ATOM     41  C   UNL A   1      38.552  29.612  29.315  1.00  0.00     0.029 A 
ATOM     42  C   UNL A   1      39.707  30.466  29.575  1.00  0.00     0.049 A 
ATOM     43  H   UNL A   1      41.700  30.084  29.103  1.00  0.00     0.167 HD
ATOM     44  C   UNL A   1      45.894  28.982  28.274  1.00  0.00     0.037 A 
ATOM     45  C   UNL A   1      39.671  31.671  30.175  1.00  0.00     0.037 A 
ATOM     46  C   UNL A   1      45.943  30.311  28.823  1.00  0.00     0.049 A 
ATOM     47  C   UNL A   1      40.958  32.430  30.352  1.00  0.00     0.074 A 
ATOM     48  C   UNL A   1      47.044  31.128  29.005  1.00  0.00     0.029 A 
ATOM     49  N   UNL A   1      44.838  31.020  29.273  1.00  0.00    -0.354 N 
ATOM     50  N   UNL A   1      42.180  32.069  30.036  1.00  0.00    -0.248 NA
ATOM     51  C   UNL A   1      40.861  33.766  30.955  1.00  0.00     0.031 C 
ATOM     52  C   UNL A   1      46.609  32.317  29.603  1.00  0.00     0.029 A 
ATOM     53  C   UNL A   1      45.231  32.260  29.746  1.00  0.00     0.049 A 
ATOM     54  H   UNL A   1      43.911  30.690  29.258  1.00  0.00     0.167 HD
ATOM     55  C   UNL A   1      42.995  33.141  30.378  1.00  0.00     0.074 A 
ATOM     56  C   UNL A   1      42.122  34.172  30.906  1.00  0.00     0.031 C 
ATOM     57  C   UNL A   1      44.341  33.266  30.269  1.00  0.00     0.037 A 
BRANCH  44  58
ATOM     58  C   UNL A   1      47.183  28.311  27.879  1.00  0.00     0.058 A 
ATOM     59  C   UNL A   1      47.698  28.407  26.575  1.00  0.00     0.135 A 
ATOM     60  C   UNL A   1      47.923  27.576  28.819  1.00  0.00     0.135 A 
ATOM     61  F   UNL A   1      47.024  29.080  25.629  1.00  0.00    -0.206 F 
ATOM     62  C   UNL A   1      48.879  27.772  26.209  1.00  0.00     0.059 A 
ATOM     63  C   UNL A   1      49.125  26.958  28.483  1.00  0.00     0.059 A 
ATOM     64  F   UNL A   1      47.477  27.446  30.079  1.00  0.00    -0.206 F 
ATOM     65  C   UNL A   1      49.587  27.048  27.171  1.00  0.00     0.060 A 
BRANCH  65  66
ATOM     66  S   UNL A   1      51.121  26.236  26.680  1.00  0.00     0.124 S 
ATOM     67  O   UNL A   1      51.063  26.358  25.227  1.00  0.00    -0.237 OA
ATOM     68  O   UNL A   1      52.132  27.051  27.345  1.00  0.00    -0.237 OA
ATOM     69  O   UNL A   1      50.971  24.881  27.201  1.00  0.00    -0.744 OA
ENDBRANCH  65  66
ENDBRANCH  44  58
BRANCH  45  70
ATOM     70  C   UNL A   1      38.371  32.247  30.615  1.00  0.00     0.058 A 
ATOM     71  C   UNL A   1      37.602  33.036  29.745  1.00  0.00     0.135 A 
ATOM     72  C   UNL A   1      37.860  32.008  31.900  1.00  0.00     0.135 A 
ATOM     73  F   UNL A   1      38.049  33.297  28.507  1.00  0.00    -0.206 F 
ATOM     74  C   UNL A   1      36.387  33.585  30.138  1.00  0.00     0.059 A 
ATOM     75  C   UNL A   1      36.634  32.524  32.308  1.00  0.00     0.059 A 
ATOM     76  F   UNL A   1      38.546  31.244  32.764  1.00  0.00    -0.206 F 
ATOM     77  C   UNL A   1      35.909  33.320  31.423  1.00  0.00     0.060 A 
BRANCH  77  78
ATOM     78  S   UNL A   1      34.306  33.999  31.906  1.00  0.00     0.124 S 
ATOM     79  O   UNL A   1      33.707  34.290  30.609  1.00  0.00    -0.237 OA
ATOM     80  O   UNL A   1      33.716  32.888  32.648  1.00  0.00    -0.237 OA
ATOM     81  O   UNL A   1      34.664  35.161  32.713  1.00  0.00    -0.744 OA
ENDBRANCH  77  78
ENDBRANCH  45  70
BRANCH  57  82
ATOM     82  C   UNL A   1      44.942  34.576  30.701  1.00  0.00     0.058 A 
ATOM     83  C   UNL A   1      45.387  34.786  32.016  1.00  0.00     0.135 A 
ATOM     84  C   UNL A   1      45.092  35.626  29.780  1.00  0.00     0.135 A 
ATOM     85  F   UNL A   1      45.265  33.815  32.934  1.00  0.00    -0.206 F 
ATOM     86  C   UNL A   1      45.918  36.009  32.414  1.00  0.00     0.059 A 
ATOM     87  C   UNL A   1      45.650  36.845  30.150  1.00  0.00     0.059 A 
ATOM     88  F   UNL A   1      44.699  35.471  28.506  1.00  0.00    -0.206 F 
ATOM     89  C   UNL A   1      46.040  37.033  31.475  1.00  0.00     0.060 A 
BRANCH  89  90
ATOM     90  S   UNL A   1      46.726  38.616  32.005  1.00  0.00     0.124 S 
ATOM     91  O   UNL A   1      45.628  39.159  32.799  1.00  0.00    -0.237 OA
ATOM     92  O   UNL A   1      47.911  38.208  32.754  1.00  0.00    -0.237 OA
ATOM     93  O   UNL A   1      46.994  39.308  30.748  1.00  0.00    -0.744 OA
ENDBRANCH  89  90
ENDBRANCH  57  82
ENDBRANCH  31  32
ENDBRANCH  23  26
ENDBRANCH  21  22
ENDBRANCH  20  21
ENDBRANCH  19  20
ENDBRANCH   1  19
TORSDOF 19
ENDMDL
MODEL 3
REMARK VINA RESULT:      -9.1      4.464      7.570
REMARK SMILES COC[C@@H](C)CC(=O)N1CC(CC(=O)NCCCCNC(=O)c2ccc(-c3c4nc(c(-c5c(F)cc(S(=O)(=O)[O-])cc5F)c5ccc([nH]5)c(-c5c(F)cc(S(=O)(=O)[O-])cc5F)c5nc(c(-c6c(F)cc(S(=O)(=O)[O-])cc6F)c6ccc3[nH]6)C=C5)C=C4)cc2)C1
REMARK SMILES IDX 16 1 15 2 13 3 14 4 12 6 11 7 7 8 8 9 9 10 10 11 89 12 6 13
REMARK SMILES IDX 4 14 5 15 3 16 2 17 1 18 17 19 18 20 19 21 20 22 21 23 22 25
REMARK SMILES IDX 23 26 24 27 88 28 25 29 87 30 26 31 27 32 28 33 81 34 29 35
REMARK SMILES IDX 86 36 80 37 82 38 30 39 85 40 79 41 78 42 31 44 65 45 44 46
REMARK SMILES IDX 64 47 45 48 48 49 63 50 83 51 46 52 47 53 62 55 84 56 49 57
REMARK SMILES IDX 32 58 33 59 42 60 34 61 35 62 41 63 43 64 36 65 37 66 38 67
REMARK SMILES IDX 39 68 40 69 66 70 67 71 76 72 68 73 69 74 75 75 77 76 70 77
REMARK SMILES IDX 71 78 72 79 73 80 74 81 50 82 51 83 60 84 52 85 53 86 59 87
REMARK SMILES IDX 61 88 54 89 55 90 56 91 57 92 58 93
REMARK H PARENT 15 5 20 24 82 43 48 54
REMARK Flexibility Score: inf
ROOT
ATOM      1  C   UNL A   1      30.791  27.419  24.576  1.00  0.00     0.116 C 
ENDROOT
BRANCH   1   2
ATOM      2  N   UNL A   1      30.718  26.526  25.715  1.00  0.00    -0.356 N 
ATOM      3  C   UNL A   1      30.951  25.187  25.809  1.00  0.00     0.220 C 
ATOM      4  O   UNL A   1      30.731  24.633  26.888  1.00  0.00    -0.275 OA
ATOM      5  H   UNL A   1      30.459  26.959  26.560  1.00  0.00     0.163 HD
BRANCH   3   6
ATOM      6  C   UNL A   1      31.443  24.379  24.618  1.00  0.00     0.107 C 
BRANCH   6   7
ATOM      7  C   UNL A   1      32.610  23.456  24.965  1.00  0.00     0.037 C 
ATOM      8  C   UNL A   1      33.827  20.371  24.691  1.00  0.00     0.222 C 
ATOM      9  O   UNL A   1      35.050  20.428  24.780  1.00  0.00    -0.275 OA
ATOM     10  N   UNL A   1      33.040  21.473  24.434  1.00  0.00    -0.342 N 
ATOM     11  C   UNL A   1      33.427  22.764  23.862  1.00  0.00     0.125 C 
ATOM     12  C   UNL A   1      32.164  22.076  25.418  1.00  0.00     0.125 C 
BRANCH   8  13
ATOM     13  C   UNL A   1      33.074  19.035  24.677  1.00  0.00     0.106 C 
BRANCH  13  14
ATOM     14  C   UNL A   1      33.867  17.715  24.563  1.00  0.00     0.021 C 
ATOM     15  C   UNL A   1      33.700  17.152  23.145  1.00  0.00     0.010 C 
BRANCH  14  16
ATOM     16  C   UNL A   1      33.398  16.662  25.575  1.00  0.00     0.163 C 
BRANCH  16  17
ATOM     17  O   UNL A   1      33.709  15.330  25.182  1.00  0.00    -0.384 OA
ATOM     18  C   UNL A   1      32.707  14.378  25.520  1.00  0.00     0.194 C 
ENDBRANCH  16  17
ENDBRANCH  14  16
ENDBRANCH  13  14
ENDBRANCH   8  13
ENDBRANCH   6   7
ENDBRANCH   3   6
ENDBRANCH   1   2
BRANCH   1  19
ATOM     19  C   UNL A   1      31.856  28.496  24.784  1.00  0.00     0.023 C 
BRANCH  19  20
ATOM     20  C   UNL A   1      33.292  28.017  24.907  1.00  0.00     0.023 C 
BRANCH  20  21
ATOM     21  C   UNL A   1      34.004  28.468  26.169  1.00  0.00     0.116 C 
BRANCH  21  22
ATOM     22  N   UNL A   1      33.744  29.860  26.519  1.00  0.00    -0.352 N 
ATOM     23  C   UNL A   1      34.432  30.674  27.389  1.00  0.00     0.251 C 
ATOM     24  H   UNL A   1      32.970  30.273  26.072  1.00  0.00     0.163 HD
ATOM     25  O   UNL A   1      33.991  31.782  27.679  1.00  0.00    -0.269 OA
BRANCH  23  26
ATOM     26  C   UNL A   1      35.691  30.185  27.983  1.00  0.00     0.039 A 
ATOM     27  C   UNL A   1      36.894  30.359  27.298  1.00  0.00     0.014 A 
ATOM     28  C   UNL A   1      35.671  29.592  29.248  1.00  0.00     0.014 A 
ATOM     29  C   UNL A   1      38.090  29.986  27.913  1.00  0.00     0.010 A 
ATOM     30  C   UNL A   1      36.865  29.327  29.898  1.00  0.00     0.010 A 
ATOM     31  C   UNL A   1      38.085  29.494  29.229  1.00  0.00    -0.014 A 
BRANCH  31  32
ATOM     32  C   UNL A   1      39.332  29.089  29.920  1.00  0.00     0.031 A 
ATOM     33  C   UNL A   1      39.768  29.843  31.150  1.00  0.00     0.074 A 
ATOM     34  C   UNL A   1      40.105  28.116  29.401  1.00  0.00     0.049 A 
ATOM     35  N   UNL A   1      40.872  29.735  31.841  1.00  0.00    -0.248 NA
ATOM     36  C   UNL A   1      38.856  30.891  31.642  1.00  0.00     0.031 C 
ATOM     37  C   UNL A   1      39.815  27.361  28.179  1.00  0.00     0.029 A 
ATOM     38  N   UNL A   1      41.303  27.603  29.829  1.00  0.00    -0.354 N 
ATOM     39  C   UNL A   1      40.798  30.714  32.825  1.00  0.00     0.074 A 
ATOM     40  C   UNL A   1      39.577  31.451  32.601  1.00  0.00     0.031 C 
ATOM     41  C   UNL A   1      40.794  26.465  27.972  1.00  0.00     0.029 A 
ATOM     42  C   UNL A   1      41.797  26.606  29.022  1.00  0.00     0.049 A 
ATOM     43  H   UNL A   1      41.765  27.920  30.639  1.00  0.00     0.167 HD
ATOM     44  C   UNL A   1      41.656  30.955  33.844  1.00  0.00     0.037 A 
ATOM     45  C   UNL A   1      42.934  25.891  29.122  1.00  0.00     0.037 A 
ATOM     46  C   UNL A   1      42.847  30.183  34.081  1.00  0.00     0.049 A 
ATOM     47  C   UNL A   1      43.855  26.155  30.281  1.00  0.00     0.074 A 
ATOM     48  C   UNL A   1      43.754  30.294  35.118  1.00  0.00     0.029 A 
ATOM     49  N   UNL A   1      43.292  29.150  33.268  1.00  0.00    -0.354 N 
ATOM     50  N   UNL A   1      43.743  27.044  31.240  1.00  0.00    -0.248 NA
ATOM     51  C   UNL A   1      45.051  25.308  30.382  1.00  0.00     0.031 C 
ATOM     52  C   UNL A   1      44.770  29.354  34.911  1.00  0.00     0.029 A 
ATOM     53  C   UNL A   1      44.468  28.623  33.773  1.00  0.00     0.049 A 
ATOM     54  H   UNL A   1      42.838  28.837  32.452  1.00  0.00     0.167 HD
ATOM     55  C   UNL A   1      44.839  26.849  32.071  1.00  0.00     0.074 A 
ATOM     56  C   UNL A   1      45.591  25.743  31.512  1.00  0.00     0.031 C 
ATOM     57  C   UNL A   1      45.197  27.522  33.194  1.00  0.00     0.037 A 
BRANCH  44  58
ATOM     58  C   UNL A   1      41.326  32.088  34.780  1.00  0.00     0.058 A 
ATOM     59  C   UNL A   1      40.489  31.907  35.895  1.00  0.00     0.135 A 
ATOM     60  C   UNL A   1      41.866  33.367  34.571  1.00  0.00     0.135 A 
ATOM     61  F   UNL A   1      39.928  30.710  36.132  1.00  0.00    -0.206 F 
ATOM     62  C   UNL A   1      40.172  32.958  36.747  1.00  0.00     0.059 A 
ATOM     63  C   UNL A   1      41.588  34.428  35.430  1.00  0.00     0.059 A 
ATOM     64  F   UNL A   1      42.668  33.600  33.520  1.00  0.00    -0.206 F 
ATOM     65  C   UNL A   1      40.727  34.217  36.506  1.00  0.00     0.060 A 
BRANCH  65  66
ATOM     66  S   UNL A   1      40.310  35.569  37.626  1.00  0.00     0.124 S 
ATOM     67  O   UNL A   1      39.902  36.609  36.688  1.00  0.00    -0.237 OA
ATOM     68  O   UNL A   1      39.242  34.987  38.433  1.00  0.00    -0.237 OA
ATOM     69  O   UNL A   1      41.560  35.821  38.336  1.00  0.00    -0.744 OA
ENDBRANCH  65  66
ENDBRANCH  44  58
BRANCH  45  70
ATOM     70  C   UNL A   1      43.242  24.837  28.117  1.00  0.00     0.058 A 
ATOM     71  C   UNL A   1      43.923  25.150  26.931  1.00  0.00     0.135 A 
ATOM     72  C   UNL A   1      42.880  23.497  28.326  1.00  0.00     0.135 A 
ATOM     73  F   UNL A   1      44.287  26.418  26.683  1.00  0.00    -0.206 F 
ATOM     74  C   UNL A   1      44.217  24.180  25.979  1.00  0.00     0.059 A 
ATOM     75  C   UNL A   1      43.186  22.503  27.401  1.00  0.00     0.059 A 
ATOM     76  F   UNL A   1      42.244  23.140  29.452  1.00  0.00    -0.206 F 
ATOM     77  C   UNL A   1      43.846  22.857  26.225  1.00  0.00     0.060 A 
BRANCH  77  78
ATOM     78  S   UNL A   1      44.276  21.597  25.004  1.00  0.00     0.124 S 
ATOM     79  O   UNL A   1      43.289  20.563  25.289  1.00  0.00    -0.237 OA
ATOM     80  O   UNL A   1      44.101  22.319  23.747  1.00  0.00    -0.237 OA
ATOM     81  O   UNL A   1      45.658  21.264  25.339  1.00  0.00    -0.744 OA
ENDBRANCH  77  78
ENDBRANCH  45  70
BRANCH  57  82
ATOM     82  C   UNL A   1      46.438  27.055  33.904  1.00  0.00     0.058 A 
ATOM     83  C   UNL A   1      47.699  27.604  33.625  1.00  0.00     0.135 A 
ATOM     84  C   UNL A   1      46.359  26.057  34.889  1.00  0.00     0.135 A 
ATOM     85  F   UNL A   1      47.830  28.558  32.690  1.00  0.00    -0.206 F 
ATOM     86  C   UNL A   1      48.846  27.148  34.267  1.00  0.00     0.059 A 
ATOM     87  C   UNL A   1      47.489  25.610  35.566  1.00  0.00     0.059 A 
ATOM     88  F   UNL A   1      45.174  25.511  35.206  1.00  0.00    -0.206 F 
ATOM     89  C   UNL A   1      48.730  26.147  35.232  1.00  0.00     0.060 A 
BRANCH  89  90
ATOM     90  S   UNL A   1      50.226  25.561  36.055  1.00  0.00     0.124 S 
ATOM     91  O   UNL A   1      51.226  26.491  35.542  1.00  0.00    -0.237 OA
ATOM     92  O   UNL A   1      49.885  25.709  37.466  1.00  0.00    -0.237 OA
ATOM     93  O   UNL A   1      50.352  24.183  35.588  1.00  0.00    -0.744 OA
ENDBRANCH  89  90
ENDBRANCH  57  82
ENDBRANCH  31  32
ENDBRANCH  23  26
ENDBRANCH  21  22
ENDBRANCH  20  21
ENDBRANCH  19  20
ENDBRANCH   1  19
TORSDOF 19
ENDMDL
