MODEL 1
REMARK VINA RESULT:     -10.4      0.000      0.000
REMARK SMILES O=C(Cc1ccc(=O)n(C(F)F)c1)NCCCCNC(=O)c1ccc(-c2c3nc(c(-c4c(F)cc(S(=O)(=O)[O-])cc4F)c4ccc([nH]4)c(-c4c(F)cc(S(=O)(=O)[O-])cc4F)c4nc(c(-c5c(F)cc(S(=O)(=O)[O-])cc5F)c5ccc2[nH]5)C=C4)C=C3)cc1
REMARK SMILES IDX 17 1 16 2 15 3 14 4 1 5 2 6 3 8 4 9 5 10 13 11 6 12 9 13
REMARK SMILES IDX 7 14 8 15 10 16 11 17 12 18 18 19 19 20 20 21 21 23 22 24
REMARK SMILES IDX 23 25 87 26 24 27 86 28 25 29 26 30 27 31 80 32 28 33 85 34
REMARK SMILES IDX 79 35 81 36 29 37 84 38 78 39 77 40 30 42 64 43 43 44 63 45
REMARK SMILES IDX 44 46 47 47 62 48 82 49 45 50 46 51 61 53 83 54 48 55 31 56
REMARK SMILES IDX 32 57 41 58 33 59 34 60 40 61 42 62 35 63 36 64 37 65 38 66
REMARK SMILES IDX 39 67 65 68 66 69 75 70 67 71 68 72 74 73 76 74 69 75 70 76
REMARK SMILES IDX 71 77 72 78 73 79 49 80 50 81 59 82 51 83 52 84 58 85 60 86
REMARK SMILES IDX 53 87 54 88 55 89 56 90 57 91
REMARK H PARENT 14 7 19 22 81 41 47 52
REMARK Flexibility Score: inf
ROOT
ATOM      1  C   UNL A   1      33.499  33.456  28.163  1.00  0.00     0.023 C 
ENDROOT
BRANCH   1   2
ATOM      2  C   UNL A   1      34.069  34.876  28.204  1.00  0.00     0.023 C 
BRANCH   2   3
ATOM      3  C   UNL A   1      33.218  35.903  28.953  1.00  0.00     0.116 C 
BRANCH   3   4
ATOM      4  N   UNL A   1      33.824  36.312  30.203  1.00  0.00    -0.356 N 
ATOM      5  O   UNL A   1      32.465  35.057  31.574  1.00  0.00    -0.275 OA
ATOM      6  C   UNL A   1      33.415  35.819  31.425  1.00  0.00     0.224 C 
ATOM      7  H   UNL A   1      34.558  36.967  30.179  1.00  0.00     0.163 HD
BRANCH   6   8
ATOM      8  C   UNL A   1      34.284  36.282  32.590  1.00  0.00     0.137 C 
BRANCH   8   9
ATOM      9  C   UNL A   1      35.171  35.158  33.061  1.00  0.00    -0.022 A 
ATOM     10  C   UNL A   1      35.090  34.738  34.446  1.00  0.00     0.011 A 
ATOM     11  C   UNL A   1      36.021  34.513  32.245  1.00  0.00     0.099 A 
ATOM     12  C   UNL A   1      35.897  33.784  34.927  1.00  0.00     0.072 A 
ATOM     13  N   UNL A   1      36.839  33.495  32.706  1.00  0.00    -0.258 N 
ATOM     14  C   UNL A   1      36.876  33.109  34.036  1.00  0.00     0.254 A 
ATOM     15  O   UNL A   1      37.628  32.267  34.518  1.00  0.00    -0.269 OA
BRANCH  13  16
ATOM     16  C   UNL A   1      37.741  32.819  31.811  1.00  0.00     0.451 C 
ATOM     17  F   UNL A   1      37.123  32.492  30.650  1.00  0.00    -0.185 F 
ATOM     18  F   UNL A   1      38.814  33.593  31.512  1.00  0.00    -0.185 F 
ENDBRANCH  13  16
ENDBRANCH   8   9
ENDBRANCH   6   8
ENDBRANCH   3   4
ENDBRANCH   2   3
ENDBRANCH   1   2
BRANCH   1  19
ATOM     19  C   UNL A   1      34.477  32.347  28.532  1.00  0.00     0.116 C 
BRANCH  19  20
ATOM     20  N   UNL A   1      33.986  31.019  28.193  1.00  0.00    -0.352 N 
ATOM     21  C   UNL A   1      34.683  29.839  28.045  1.00  0.00     0.251 C 
ATOM     22  H   UNL A   1      33.015  30.955  28.047  1.00  0.00     0.163 HD
ATOM     23  O   UNL A   1      34.113  28.842  27.611  1.00  0.00    -0.269 OA
BRANCH  21  24
ATOM     24  C   UNL A   1      36.128  29.789  28.369  1.00  0.00     0.039 A 
ATOM     25  C   UNL A   1      37.086  30.100  27.405  1.00  0.00     0.014 A 
ATOM     26  C   UNL A   1      36.530  29.388  29.647  1.00  0.00     0.014 A 
ATOM     27  C   UNL A   1      38.426  29.816  27.647  1.00  0.00     0.010 A 
ATOM     28  C   UNL A   1      37.889  29.194  29.920  1.00  0.00     0.010 A 
ATOM     29  C   UNL A   1      38.845  29.345  28.904  1.00  0.00    -0.014 A 
BRANCH  29  30
ATOM     30  C   UNL A   1      40.278  28.994  29.117  1.00  0.00     0.031 A 
ATOM     31  C   UNL A   1      40.805  27.635  28.720  1.00  0.00     0.074 A 
ATOM     32  C   UNL A   1      41.124  29.922  29.609  1.00  0.00     0.049 A 
ATOM     33  N   UNL A   1      42.021  27.162  28.823  1.00  0.00    -0.248 NA
ATOM     34  C   UNL A   1      39.847  26.684  28.132  1.00  0.00     0.031 C 
ATOM     35  C   UNL A   1      40.744  31.277  30.018  1.00  0.00     0.029 A 
ATOM     36  N   UNL A   1      42.478  29.880  29.830  1.00  0.00    -0.354 N 
ATOM     37  C   UNL A   1      41.973  25.862  28.330  1.00  0.00     0.074 A 
ATOM     38  C   UNL A   1      40.600  25.606  27.955  1.00  0.00     0.031 C 
ATOM     39  C   UNL A   1      41.841  31.949  30.395  1.00  0.00     0.029 A 
ATOM     40  C   UNL A   1      42.993  31.057  30.322  1.00  0.00     0.049 A 
ATOM     41  H   UNL A   1      43.029  29.084  29.653  1.00  0.00     0.167 HD
ATOM     42  C   UNL A   1      42.983  24.970  28.186  1.00  0.00     0.037 A 
ATOM     43  C   UNL A   1      44.247  31.381  30.695  1.00  0.00     0.037 A 
ATOM     44  C   UNL A   1      44.356  25.238  28.532  1.00  0.00     0.049 A 
ATOM     45  C   UNL A   1      45.337  30.351  30.573  1.00  0.00     0.074 A 
ATOM     46  C   UNL A   1      45.452  24.401  28.398  1.00  0.00     0.029 A 
ATOM     47  N   UNL A   1      44.824  26.424  29.074  1.00  0.00    -0.354 N 
ATOM     48  N   UNL A   1      45.269  29.133  30.092  1.00  0.00    -0.248 NA
ATOM     49  C   UNL A   1      46.673  30.736  31.052  1.00  0.00     0.031 C 
ATOM     50  C   UNL A   1      46.573  25.064  28.902  1.00  0.00     0.029 A 
ATOM     51  C   UNL A   1      46.188  26.333  29.301  1.00  0.00     0.049 A 
ATOM     52  H   UNL A   1      44.271  27.215  29.268  1.00  0.00     0.167 HD
ATOM     53  C   UNL A   1      46.556  28.614  30.194  1.00  0.00     0.074 A 
ATOM     54  C   UNL A   1      47.385  29.657  30.761  1.00  0.00     0.031 C 
ATOM     55  C   UNL A   1      47.006  27.382  29.855  1.00  0.00     0.037 A 
BRANCH  42  56
ATOM     56  C   UNL A   1      42.666  23.612  27.620  1.00  0.00     0.058 A 
ATOM     57  C   UNL A   1      42.736  23.357  26.242  1.00  0.00     0.135 A 
ATOM     58  C   UNL A   1      42.406  22.527  28.475  1.00  0.00     0.135 A 
ATOM     59  F   UNL A   1      42.963  24.360  25.380  1.00  0.00    -0.206 F 
ATOM     60  C   UNL A   1      42.566  22.074  25.731  1.00  0.00     0.059 A 
ATOM     61  C   UNL A   1      42.255  21.232  27.988  1.00  0.00     0.059 A 
ATOM     62  F   UNL A   1      42.325  22.717  29.801  1.00  0.00    -0.206 F 
ATOM     63  C   UNL A   1      42.339  21.016  26.614  1.00  0.00     0.060 A 
BRANCH  63  64
ATOM     64  S   UNL A   1      42.179  19.351  25.931  1.00  0.00     0.124 S 
ATOM     65  O   UNL A   1      42.998  19.449  24.728  1.00  0.00    -0.237 OA
ATOM     66  O   UNL A   1      42.725  18.525  27.003  1.00  0.00    -0.237 OA
ATOM     67  O   UNL A   1      40.744  19.211  25.702  1.00  0.00    -0.744 OA
ENDBRANCH  63  64
ENDBRANCH  42  56
BRANCH  43  68
ATOM     68  C   UNL A   1      44.538  32.734  31.242  1.00  0.00     0.058 A 
ATOM     69  C   UNL A   1      44.398  33.010  32.610  1.00  0.00     0.135 A 
ATOM     70  C   UNL A   1      44.954  33.782  30.403  1.00  0.00     0.135 A 
ATOM     71  F   UNL A   1      43.997  32.044  33.451  1.00  0.00    -0.206 F 
ATOM     72  C   UNL A   1      44.636  34.280  33.124  1.00  0.00     0.059 A 
ATOM     73  C   UNL A   1      45.229  35.052  30.899  1.00  0.00     0.059 A 
ATOM     74  F   UNL A   1      45.118  33.568  29.089  1.00  0.00    -0.206 F 
ATOM     75  C   UNL A   1      45.050  35.295  32.260  1.00  0.00     0.060 A 
BRANCH  75  76
ATOM     76  S   UNL A   1      45.373  36.936  32.941  1.00  0.00     0.124 S 
ATOM     77  O   UNL A   1      45.426  37.749  31.732  1.00  0.00    -0.237 OA
ATOM     78  O   UNL A   1      44.211  37.143  33.800  1.00  0.00    -0.237 OA
ATOM     79  O   UNL A   1      46.640  36.764  33.644  1.00  0.00    -0.744 OA
ENDBRANCH  75  76
ENDBRANCH  43  68
BRANCH  55  80
ATOM     80  C   UNL A   1      48.467  27.090  30.062  1.00  0.00     0.058 A 
ATOM     81  C   UNL A   1      49.427  27.429  29.097  1.00  0.00     0.135 A 
ATOM     82  C   UNL A   1      48.918  26.529  31.269  1.00  0.00     0.135 A 
ATOM     83  F   UNL A   1      49.048  27.960  27.924  1.00  0.00    -0.206 F 
ATOM     84  C   UNL A   1      50.783  27.209  29.314  1.00  0.00     0.059 A 
ATOM     85  C   UNL A   1      50.272  26.328  31.519  1.00  0.00     0.059 A 
ATOM     86  F   UNL A   1      48.041  26.197  32.229  1.00  0.00    -0.206 F 
ATOM     87  C   UNL A   1      51.197  26.664  30.531  1.00  0.00     0.060 A 
BRANCH  87  88
ATOM     88  S   UNL A   1      52.964  26.429  30.814  1.00  0.00     0.124 S 
ATOM     89  O   UNL A   1      52.970  25.254  31.679  1.00  0.00    -0.237 OA
ATOM     90  O   UNL A   1      53.470  26.222  29.460  1.00  0.00    -0.237 OA
ATOM     91  O   UNL A   1      53.377  27.677  31.449  1.00  0.00    -0.744 OA
ENDBRANCH  87  88
ENDBRANCH  55  80
ENDBRANCH  29  30
ENDBRANCH  21  24
ENDBRANCH  19  20
ENDBRANCH   1  19
TORSDOF 16
ENDMDL
MODEL 2
REMARK VINA RESULT:     -10.1      5.705     12.399
REMARK SMILES O=C(Cc1ccc(=O)n(C(F)F)c1)NCCCCNC(=O)c1ccc(-c2c3nc(c(-c4c(F)cc(S(=O)(=O)[O-])cc4F)c4ccc([nH]4)c(-c4c(F)cc(S(=O)(=O)[O-])cc4F)c4nc(c(-c5c(F)cc(S(=O)(=O)[O-])cc5F)c5ccc2[nH]5)C=C4)C=C3)cc1
REMARK SMILES IDX 17 1 16 2 15 3 14 4 1 5 2 6 3 8 4 9 5 10 13 11 6 12 9 13
REMARK SMILES IDX 7 14 8 15 10 16 11 17 12 18 18 19 19 20 20 21 21 23 22 24
REMARK SMILES IDX 23 25 87 26 24 27 86 28 25 29 26 30 27 31 80 32 28 33 85 34
REMARK SMILES IDX 79 35 81 36 29 37 84 38 78 39 77 40 30 42 64 43 43 44 63 45
REMARK SMILES IDX 44 46 47 47 62 48 82 49 45 50 46 51 61 53 83 54 48 55 31 56
REMARK SMILES IDX 32 57 41 58 33 59 34 60 40 61 42 62 35 63 36 64 37 65 38 66
REMARK SMILES IDX 39 67 65 68 66 69 75 70 67 71 68 72 74 73 76 74 69 75 70 76
REMARK SMILES IDX 71 77 72 78 73 79 49 80 50 81 59 82 51 83 52 84 58 85 60 86
REMARK SMILES IDX 53 87 54 88 55 89 56 90 57 91
REMARK H PARENT 14 7 19 22 81 41 47 52
REMARK Flexibility Score: inf
ROOT
ATOM      1  C   UNL A   1      41.777  21.890  26.970  1.00  0.00     0.023 C 
ENDROOT
BRANCH   1   2
ATOM      2  C   UNL A   1      40.271  22.022  27.212  1.00  0.00     0.023 C 
BRANCH   2   3
ATOM      3  C   UNL A   1      39.383  21.713  26.005  1.00  0.00     0.116 C 
BRANCH   3   4
ATOM      4  N   UNL A   1      37.974  21.841  26.314  1.00  0.00    -0.356 N 
ATOM      5  O   UNL A   1      37.209  21.549  24.162  1.00  0.00    -0.275 OA
ATOM      6  C   UNL A   1      36.987  21.710  25.358  1.00  0.00     0.224 C 
ATOM      7  H   UNL A   1      37.709  22.029  27.243  1.00  0.00     0.163 HD
BRANCH   6   8
ATOM      8  C   UNL A   1      35.575  21.746  25.932  1.00  0.00     0.137 C 
BRANCH   8   9
ATOM      9  C   UNL A   1      34.651  20.892  25.100  1.00  0.00    -0.022 A 
ATOM     10  C   UNL A   1      33.548  21.530  24.406  1.00  0.00     0.011 A 
ATOM     11  C   UNL A   1      34.817  19.568  24.958  1.00  0.00     0.099 A 
ATOM     12  C   UNL A   1      32.667  20.809  23.702  1.00  0.00     0.072 A 
ATOM     13  N   UNL A   1      33.943  18.803  24.203  1.00  0.00    -0.258 N 
ATOM     14  C   UNL A   1      32.820  19.335  23.591  1.00  0.00     0.254 A 
ATOM     15  O   UNL A   1      31.971  18.699  22.971  1.00  0.00    -0.269 OA
BRANCH  13  16
ATOM     16  C   UNL A   1      34.144  17.384  24.066  1.00  0.00     0.451 C 
ATOM     17  F   UNL A   1      34.496  17.061  22.799  1.00  0.00    -0.185 F 
ATOM     18  F   UNL A   1      35.117  16.939  24.899  1.00  0.00    -0.185 F 
ENDBRANCH  13  16
ENDBRANCH   8   9
ENDBRANCH   6   8
ENDBRANCH   3   4
ENDBRANCH   2   3
ENDBRANCH   1   2
BRANCH   1  19
ATOM     19  C   UNL A   1      42.556  23.200  26.959  1.00  0.00     0.116 C 
BRANCH  19  20
ATOM     20  N   UNL A   1      42.139  24.101  25.894  1.00  0.00    -0.352 N 
ATOM     21  C   UNL A   1      41.636  25.381  25.977  1.00  0.00     0.251 C 
ATOM     22  H   UNL A   1      42.229  23.743  24.982  1.00  0.00     0.163 HD
ATOM     23  O   UNL A   1      41.202  25.935  24.971  1.00  0.00    -0.269 OA
BRANCH  21  24
ATOM     24  C   UNL A   1      41.580  26.069  27.289  1.00  0.00     0.039 A 
ATOM     25  C   UNL A   1      40.511  25.859  28.159  1.00  0.00     0.014 A 
ATOM     26  C   UNL A   1      42.594  26.968  27.634  1.00  0.00     0.014 A 
ATOM     27  C   UNL A   1      40.350  26.686  29.266  1.00  0.00     0.010 A 
ATOM     28  C   UNL A   1      42.477  27.734  28.800  1.00  0.00     0.010 A 
ATOM     29  C   UNL A   1      41.324  27.646  29.594  1.00  0.00    -0.014 A 
BRANCH  29  30
ATOM     30  C   UNL A   1      41.097  28.557  30.751  1.00  0.00     0.031 A 
ATOM     31  C   UNL A   1      41.992  28.498  31.965  1.00  0.00     0.074 A 
ATOM     32  C   UNL A   1      40.122  29.487  30.683  1.00  0.00     0.049 A 
ATOM     33  N   UNL A   1      41.949  29.220  33.057  1.00  0.00    -0.248 NA
ATOM     34  C   UNL A   1      43.078  27.503  31.957  1.00  0.00     0.031 C 
ATOM     35  C   UNL A   1      39.196  29.659  29.560  1.00  0.00     0.029 A 
ATOM     36  N   UNL A   1      39.758  30.477  31.562  1.00  0.00    -0.354 N 
ATOM     37  C   UNL A   1      42.983  28.760  33.866  1.00  0.00     0.074 A 
ATOM     38  C   UNL A   1      43.621  27.674  33.155  1.00  0.00     0.031 C 
ATOM     39  C   UNL A   1      38.405  30.715  29.797  1.00  0.00     0.029 A 
ATOM     40  C   UNL A   1      38.716  31.256  31.116  1.00  0.00     0.049 A 
ATOM     41  H   UNL A   1      40.200  30.616  32.431  1.00  0.00     0.167 HD
ATOM     42  C   UNL A   1      43.375  29.212  35.081  1.00  0.00     0.037 A 
ATOM     43  C   UNL A   1      38.065  32.278  31.706  1.00  0.00     0.037 A 
ATOM     44  C   UNL A   1      42.758  30.314  35.775  1.00  0.00     0.049 A 
ATOM     45  C   UNL A   1      38.490  32.723  33.079  1.00  0.00     0.074 A 
ATOM     46  C   UNL A   1      43.105  30.858  37.000  1.00  0.00     0.029 A 
ATOM     47  N   UNL A   1      41.674  31.041  35.308  1.00  0.00    -0.354 N 
ATOM     48  N   UNL A   1      39.479  32.280  33.818  1.00  0.00    -0.248 NA
ATOM     49  C   UNL A   1      37.707  33.799  33.702  1.00  0.00     0.031 C 
ATOM     50  C   UNL A   1      42.202  31.882  37.296  1.00  0.00     0.029 A 
ATOM     51  C   UNL A   1      41.326  32.013  36.232  1.00  0.00     0.049 A 
ATOM     52  H   UNL A   1      41.219  30.891  34.448  1.00  0.00     0.167 HD
ATOM     53  C   UNL A   1      39.447  33.037  34.984  1.00  0.00     0.074 A 
ATOM     54  C   UNL A   1      38.356  33.979  34.843  1.00  0.00     0.031 C 
ATOM     55  C   UNL A   1      40.245  32.953  36.076  1.00  0.00     0.037 A 
BRANCH  42  56
ATOM     56  C   UNL A   1      44.538  28.536  35.757  1.00  0.00     0.058 A 
ATOM     57  C   UNL A   1      45.848  29.019  35.620  1.00  0.00     0.135 A 
ATOM     58  C   UNL A   1      44.322  27.468  36.645  1.00  0.00     0.135 A 
ATOM     59  F   UNL A   1      46.113  30.024  34.772  1.00  0.00    -0.206 F 
ATOM     60  C   UNL A   1      46.903  28.471  36.343  1.00  0.00     0.059 A 
ATOM     61  C   UNL A   1      45.359  26.921  37.396  1.00  0.00     0.059 A 
ATOM     62  F   UNL A   1      43.089  26.967  36.812  1.00  0.00    -0.206 F 
ATOM     63  C   UNL A   1      46.646  27.430  37.239  1.00  0.00     0.060 A 
BRANCH  63  64
ATOM     64  S   UNL A   1      48.022  26.775  38.209  1.00  0.00     0.124 S 
ATOM     65  O   UNL A   1      48.750  26.010  37.202  1.00  0.00    -0.237 OA
ATOM     66  O   UNL A   1      48.678  27.993  38.674  1.00  0.00    -0.237 OA
ATOM     67  O   UNL A   1      47.365  25.983  39.243  1.00  0.00    -0.744 OA
ENDBRANCH  63  64
ENDBRANCH  42  56
BRANCH  43  68
ATOM     68  C   UNL A   1      36.925  32.937  31.013  1.00  0.00     0.058 A 
ATOM     69  C   UNL A   1      35.597  32.637  31.350  1.00  0.00     0.135 A 
ATOM     70  C   UNL A   1      37.143  33.876  29.990  1.00  0.00     0.135 A 
ATOM     71  F   UNL A   1      35.337  31.742  32.316  1.00  0.00    -0.206 F 
ATOM     72  C   UNL A   1      34.527  33.225  30.685  1.00  0.00     0.059 A 
ATOM     73  C   UNL A   1      36.089  34.501  29.333  1.00  0.00     0.059 A 
ATOM     74  F   UNL A   1      38.394  34.211  29.639  1.00  0.00    -0.206 F 
ATOM     75  C   UNL A   1      34.783  34.155  29.676  1.00  0.00     0.060 A 
BRANCH  75  76
ATOM     76  S   UNL A   1      33.386  34.924  28.831  1.00  0.00     0.124 S 
ATOM     77  O   UNL A   1      34.024  36.068  28.191  1.00  0.00    -0.237 OA
ATOM     78  O   UNL A   1      32.944  33.857  27.939  1.00  0.00    -0.237 OA
ATOM     79  O   UNL A   1      32.467  35.241  29.921  1.00  0.00    -0.744 OA
ENDBRANCH  75  76
ENDBRANCH  43  68
BRANCH  55  80
ATOM     80  C   UNL A   1      39.993  33.918  37.203  1.00  0.00     0.058 A 
ATOM     81  C   UNL A   1      40.502  35.225  37.178  1.00  0.00     0.135 A 
ATOM     82  C   UNL A   1      39.173  33.552  38.284  1.00  0.00     0.135 A 
ATOM     83  F   UNL A   1      41.297  35.622  36.172  1.00  0.00    -0.206 F 
ATOM     84  C   UNL A   1      40.221  36.132  38.194  1.00  0.00     0.059 A 
ATOM     85  C   UNL A   1      38.855  34.453  39.295  1.00  0.00     0.059 A 
ATOM     86  F   UNL A   1      38.652  32.317  38.349  1.00  0.00    -0.206 F 
ATOM     87  C   UNL A   1      39.391  35.740  39.245  1.00  0.00     0.060 A 
BRANCH  87  88
ATOM     88  S   UNL A   1      38.999  36.944  40.530  1.00  0.00     0.124 S 
ATOM     89  O   UNL A   1      38.059  36.197  41.359  1.00  0.00    -0.237 OA
ATOM     90  O   UNL A   1      40.307  37.198  41.127  1.00  0.00    -0.237 OA
ATOM     91  O   UNL A   1      38.428  38.064  39.787  1.00  0.00    -0.744 OA
ENDBRANCH  87  88
ENDBRANCH  55  80
ENDBRANCH  29  30
ENDBRANCH  21  24
ENDBRANCH  19  20
ENDBRANCH   1  19
TORSDOF 16
ENDMDL
MODEL 3
REMARK VINA RESULT:     -10.1      3.175     11.833
REMARK SMILES O=C(Cc1ccc(=O)n(C(F)F)c1)NCCCCNC(=O)c1ccc(-c2c3nc(c(-c4c(F)cc(S(=O)(=O)[O-])cc4F)c4ccc([nH]4)c(-c4c(F)cc(S(=O)(=O)[O-])cc4F)c4nc(c(-c5c(F)cc(S(=O)(=O)[O-])cc5F)c5ccc2[nH]5)C=C4)C=C3)cc1
REMARK SMILES IDX 17 1 16 2 15 3 14 4 1 5 2 6 3 8 4 9 5 10 13 11 6 12 9 13
REMARK SMILES IDX 7 14 8 15 10 16 11 17 12 18 18 19 19 20 20 21 21 23 22 24
REMARK SMILES IDX 23 25 87 26 24 27 86 28 25 29 26 30 27 31 80 32 28 33 85 34
REMARK SMILES IDX 79 35 81 36 29 37 84 38 78 39 77 40 30 42 64 43 43 44 63 45
REMARK SMILES IDX 44 46 47 47 62 48 82 49 45 50 46 51 61 53 83 54 48 55 31 56
REMARK SMILES IDX 32 57 41 58 33 59 34 60 40 61 42 62 35 63 36 64 37 65 38 66
REMARK SMILES IDX 39 67 65 68 66 69 75 70 67 71 68 72 74 73 76 74 69 75 70 76
REMARK SMILES IDX 71 77 72 78 73 79 49 80 50 81 59 82 51 83 52 84 58 85 60 86
REMARK SMILES IDX 53 87 54 88 55 89 56 90 57 91
REMARK H PARENT 14 7 19 22 81 41 47 52
REMARK Flexibility Score: inf
ROOT
ATOM      1  C   UNL A   1      41.935  20.749  27.246  1.00  0.00     0.023 C 
ENDROOT
BRANCH   1   2
ATOM      2  C   UNL A   1      41.703  19.556  26.316  1.00  0.00     0.023 C 
BRANCH   2   3
ATOM      3  C   UNL A   1      42.964  18.803  25.889  1.00  0.00     0.116 C 
BRANCH   3   4
ATOM      4  N   UNL A   1      44.107  19.681  25.750  1.00  0.00    -0.356 N 
ATOM      5  O   UNL A   1      44.923  18.742  23.813  1.00  0.00    -0.275 OA
ATOM      6  C   UNL A   1      44.985  19.600  24.688  1.00  0.00     0.224 C 
ATOM      7  H   UNL A   1      44.265  20.364  26.442  1.00  0.00     0.163 HD
BRANCH   6   8
ATOM      8  C   UNL A   1      46.031  20.709  24.676  1.00  0.00     0.137 C 
BRANCH   8   9
ATOM      9  C   UNL A   1      45.427  22.003  25.161  1.00  0.00    -0.022 A 
ATOM     10  C   UNL A   1      44.565  22.750  24.265  1.00  0.00     0.011 A 
ATOM     11  C   UNL A   1      45.638  22.484  26.397  1.00  0.00     0.099 A 
ATOM     12  C   UNL A   1      44.052  23.932  24.627  1.00  0.00     0.072 A 
ATOM     13  N   UNL A   1      45.086  23.685  26.812  1.00  0.00    -0.258 N 
ATOM     14  C   UNL A   1      44.330  24.491  25.976  1.00  0.00     0.254 A 
ATOM     15  O   UNL A   1      43.877  25.595  26.261  1.00  0.00    -0.269 OA
BRANCH  13  16
ATOM     16  C   UNL A   1      45.327  24.178  28.143  1.00  0.00     0.451 C 
ATOM     17  F   UNL A   1      44.893  23.297  29.076  1.00  0.00    -0.185 F 
ATOM     18  F   UNL A   1      46.647  24.402  28.357  1.00  0.00    -0.185 F 
ENDBRANCH  13  16
ENDBRANCH   8   9
ENDBRANCH   6   8
ENDBRANCH   3   4
ENDBRANCH   2   3
ENDBRANCH   1   2
BRANCH   1  19
ATOM     19  C   UNL A   1      41.528  22.107  26.685  1.00  0.00     0.116 C 
BRANCH  19  20
ATOM     20  N   UNL A   1      40.237  22.080  26.013  1.00  0.00    -0.352 N 
ATOM     21  C   UNL A   1      39.210  22.998  26.055  1.00  0.00     0.251 C 
ATOM     22  H   UNL A   1      40.074  21.292  25.448  1.00  0.00     0.163 HD
ATOM     23  O   UNL A   1      38.130  22.733  25.533  1.00  0.00    -0.269 OA
BRANCH  21  24
ATOM     24  C   UNL A   1      39.396  24.284  26.768  1.00  0.00     0.039 A 
ATOM     25  C   UNL A   1      40.101  25.332  26.176  1.00  0.00     0.014 A 
ATOM     26  C   UNL A   1      38.893  24.427  28.064  1.00  0.00     0.014 A 
ATOM     27  C   UNL A   1      40.475  26.431  26.943  1.00  0.00     0.010 A 
ATOM     28  C   UNL A   1      39.190  25.578  28.803  1.00  0.00     0.010 A 
ATOM     29  C   UNL A   1      40.037  26.563  28.272  1.00  0.00    -0.014 A 
BRANCH  29  30
ATOM     30  C   UNL A   1      40.501  27.721  29.087  1.00  0.00     0.031 A 
ATOM     31  C   UNL A   1      39.605  28.918  29.305  1.00  0.00     0.074 A 
ATOM     32  C   UNL A   1      41.706  27.670  29.689  1.00  0.00     0.049 A 
ATOM     33  N   UNL A   1      39.840  30.007  29.991  1.00  0.00    -0.248 NA
ATOM     34  C   UNL A   1      38.276  28.891  28.672  1.00  0.00     0.031 C 
ATOM     35  C   UNL A   1      42.662  26.565  29.571  1.00  0.00     0.029 A 
ATOM     36  N   UNL A   1      42.329  28.553  30.536  1.00  0.00    -0.354 N 
ATOM     37  C   UNL A   1      38.701  30.797  29.863  1.00  0.00     0.074 A 
ATOM     38  C   UNL A   1      37.785  30.078  29.006  1.00  0.00     0.031 C 
ATOM     39  C   UNL A   1      43.724  26.814  30.350  1.00  0.00     0.029 A 
ATOM     40  C   UNL A   1      43.563  28.124  30.970  1.00  0.00     0.049 A 
ATOM     41  H   UNL A   1      41.932  29.412  30.807  1.00  0.00     0.167 HD
ATOM     42  C   UNL A   1      38.437  32.003  30.421  1.00  0.00     0.037 A 
ATOM     43  C   UNL A   1      44.474  28.724  31.762  1.00  0.00     0.037 A 
ATOM     44  C   UNL A   1      39.339  32.705  31.299  1.00  0.00     0.049 A 
ATOM     45  C   UNL A   1      44.174  30.086  32.324  1.00  0.00     0.074 A 
ATOM     46  C   UNL A   1      39.145  33.921  31.932  1.00  0.00     0.029 A 
ATOM     47  N   UNL A   1      40.597  32.258  31.672  1.00  0.00    -0.354 N 
ATOM     48  N   UNL A   1      43.085  30.808  32.198  1.00  0.00    -0.248 NA
ATOM     49  C   UNL A   1      45.227  30.721  33.129  1.00  0.00     0.031 C 
ATOM     50  C   UNL A   1      40.303  34.232  32.649  1.00  0.00     0.029 A 
ATOM     51  C   UNL A   1      41.198  33.185  32.507  1.00  0.00     0.049 A 
ATOM     52  H   UNL A   1      41.003  31.408  31.387  1.00  0.00     0.167 HD
ATOM     53  C   UNL A   1      43.317  31.972  32.923  1.00  0.00     0.074 A 
ATOM     54  C   UNL A   1      44.639  31.849  33.502  1.00  0.00     0.031 C 
ATOM     55  C   UNL A   1      42.510  33.048  33.087  1.00  0.00     0.037 A 
BRANCH  42  56
ATOM     56  C   UNL A   1      37.116  32.658  30.123  1.00  0.00     0.058 A 
ATOM     57  C   UNL A   1      35.992  32.450  30.938  1.00  0.00     0.135 A 
ATOM     58  C   UNL A   1      37.004  33.595  29.081  1.00  0.00     0.135 A 
ATOM     59  F   UNL A   1      36.038  31.553  31.935  1.00  0.00    -0.206 F 
ATOM     60  C   UNL A   1      34.808  33.151  30.735  1.00  0.00     0.059 A 
ATOM     61  C   UNL A   1      35.837  34.325  28.875  1.00  0.00     0.059 A 
ATOM     62  F   UNL A   1      38.047  33.830  28.270  1.00  0.00    -0.206 F 
ATOM     63  C   UNL A   1      34.744  34.096  29.709  1.00  0.00     0.060 A 
BRANCH  63  64
ATOM     64  S   UNL A   1      33.215  35.035  29.503  1.00  0.00     0.124 S 
ATOM     65  O   UNL A   1      33.727  36.346  29.117  1.00  0.00    -0.237 OA
ATOM     66  O   UNL A   1      32.534  34.287  28.451  1.00  0.00    -0.237 OA
ATOM     67  O   UNL A   1      32.593  34.970  30.821  1.00  0.00    -0.744 OA
ENDBRANCH  63  64
ENDBRANCH  42  56
BRANCH  43  68
ATOM     68  C   UNL A   1      45.769  28.052  32.051  1.00  0.00     0.058 A 
ATOM     69  C   UNL A   1      46.907  28.297  31.268  1.00  0.00     0.135 A 
ATOM     70  C   UNL A   1      45.893  27.140  33.114  1.00  0.00     0.135 A 
ATOM     71  F   UNL A   1      46.839  29.155  30.238  1.00  0.00    -0.206 F 
ATOM     72  C   UNL A   1      48.112  27.648  31.512  1.00  0.00     0.059 A 
ATOM     73  C   UNL A   1      47.096  26.503  33.397  1.00  0.00     0.059 A 
ATOM     74  F   UNL A   1      44.839  26.880  33.903  1.00  0.00    -0.206 F 
ATOM     75  C   UNL A   1      48.196  26.752  32.579  1.00  0.00     0.060 A 
BRANCH  75  76
ATOM     76  S   UNL A   1      49.771  25.928  32.896  1.00  0.00     0.124 S 
ATOM     77  O   UNL A   1      49.328  24.640  33.416  1.00  0.00    -0.237 OA
ATOM     78  O   UNL A   1      50.377  25.907  31.568  1.00  0.00    -0.237 OA
ATOM     79  O   UNL A   1      50.422  26.808  33.861  1.00  0.00    -0.744 OA
ENDBRANCH  75  76
ENDBRANCH  43  68
BRANCH  55  80
ATOM     80  C   UNL A   1      43.014  34.176  33.945  1.00  0.00     0.058 A 
ATOM     81  C   UNL A   1      42.882  34.152  35.341  1.00  0.00     0.135 A 
ATOM     82  C   UNL A   1      43.700  35.258  33.369  1.00  0.00     0.135 A 
ATOM     83  F   UNL A   1      42.229  33.144  35.942  1.00  0.00    -0.206 F 
ATOM     84  C   UNL A   1      43.398  35.169  36.137  1.00  0.00     0.059 A 
ATOM     85  C   UNL A   1      44.250  36.271  34.148  1.00  0.00     0.059 A 
ATOM     86  F   UNL A   1      43.863  35.323  32.038  1.00  0.00    -0.206 F 
ATOM     87  C   UNL A   1      44.087  36.221  35.531  1.00  0.00     0.060 A 
BRANCH  87  88
ATOM     88  S   UNL A   1      44.791  37.509  36.582  1.00  0.00     0.124 S 
ATOM     89  O   UNL A   1      45.398  38.396  35.595  1.00  0.00    -0.237 OA
ATOM     90  O   UNL A   1      43.611  38.032  37.264  1.00  0.00    -0.237 OA
ATOM     91  O   UNL A   1      45.729  36.781  37.433  1.00  0.00    -0.744 OA
ENDBRANCH  87  88
ENDBRANCH  55  80
ENDBRANCH  29  30
ENDBRANCH  21  24
ENDBRANCH  19  20
ENDBRANCH   1  19
TORSDOF 16
ENDMDL
