MODEL 1
REMARK VINA RESULT:     -12.3      0.000      0.000
REMARK SMILES COc1cc(C(=O)NC2(C(=O)NCCCCNC(=O)c3ccc(-c4c5nc(c(-c6c(F)cc(S(=O)(=O)[O-])cc6F)c6ccc([nH]6)c(-c6c(F)cc(S(=O)(=O)[O-])cc6F)c6nc(c(-c7c(F)cc(S(=O)(=O)[O-])cc7F)c7ccc4[nH]7)C=C6)C=C5)cc3)CCCCC2)cc2c1OCCO2
REMARK SMILES IDX 14 1 13 2 12 3 10 4 11 5 9 7 86 8 90 9 87 10 89 11 88 12
REMARK SMILES IDX 8 13 6 14 7 15 5 17 3 18 4 19 93 20 92 21 94 22 91 23 97 24
REMARK SMILES IDX 95 25 96 26 2 27 1 28 15 29 16 30 17 31 18 32 19 34 20 35
REMARK SMILES IDX 21 36 85 37 22 38 84 39 23 40 24 41 25 42 78 43 26 44 83 45
REMARK SMILES IDX 77 46 79 47 27 48 82 49 76 50 75 51 28 53 62 54 41 55 61 56
REMARK SMILES IDX 42 57 45 58 60 59 80 60 43 61 44 62 59 64 81 65 46 66 29 67
REMARK SMILES IDX 30 68 39 69 31 70 32 71 38 72 40 73 33 74 34 75 35 76 36 77
REMARK SMILES IDX 37 78 63 79 64 80 73 81 65 82 66 83 72 84 74 85 67 86 68 87
REMARK SMILES IDX 69 88 70 89 71 90 47 91 48 92 57 93 49 94 50 95 56 96 58 97
REMARK SMILES IDX 51 98 52 99 53 100 54 101 55 102
REMARK H PARENT 12 6 8 16 17 33 79 52 45 63
REMARK Flexibility Score: inf
ROOT
ATOM      1  C   UNL A   1      32.524  30.445  25.913  1.00  0.00     0.023 C 
ENDROOT
BRANCH   1   2
ATOM      2  C   UNL A   1      31.308  29.689  25.383  1.00  0.00     0.116 C 
BRANCH   2   3
ATOM      3  N   UNL A   1      31.272  29.477  23.956  1.00  0.00    -0.354 N 
ATOM      4  C   UNL A   1      31.354  28.355  23.191  1.00  0.00     0.245 C 
ATOM      5  O   UNL A   1      30.804  28.451  22.082  1.00  0.00    -0.272 OA
ATOM      6  H   UNL A   1      31.169  30.305  23.434  1.00  0.00     0.163 HD
BRANCH   4   7
ATOM      7  C   UNL A   1      32.052  27.007  23.606  1.00  0.00     0.119 C 
ATOM      8  C   UNL A   1      30.918  26.019  23.985  1.00  0.00     0.038 C 
ATOM      9  C   UNL A   1      33.157  26.955  24.681  1.00  0.00     0.038 C 
ATOM     10  C   UNL A   1      30.365  26.230  25.384  1.00  0.00     0.003 C 
ATOM     11  C   UNL A   1      32.762  26.797  26.151  1.00  0.00     0.003 C 
ATOM     12  C   UNL A   1      31.447  26.083  26.445  1.00  0.00     0.000 C 
BRANCH   7  13
ATOM     13  N   UNL A   1      32.685  26.439  22.353  1.00  0.00    -0.338 N 
ATOM     14  C   UNL A   1      33.110  25.206  21.923  1.00  0.00     0.252 C 
ATOM     15  O   UNL A   1      33.225  25.057  20.703  1.00  0.00    -0.269 OA
ATOM     16  H   UNL A   1      32.830  27.134  21.669  1.00  0.00     0.164 HD
BRANCH  14  17
ATOM     17  C   UNL A   1      33.566  24.102  22.810  1.00  0.00     0.047 A 
ATOM     18  C   UNL A   1      35.231  22.895  24.086  1.00  0.00     0.165 A 
ATOM     19  C   UNL A   1      34.789  24.070  23.472  1.00  0.00     0.064 A 
ATOM     20  C   UNL A   1      34.373  21.803  24.225  1.00  0.00     0.203 A 
ATOM     21  C   UNL A   1      33.084  21.882  23.693  1.00  0.00     0.166 A 
ATOM     22  O   UNL A   1      34.826  20.702  24.905  1.00  0.00    -0.483 OA
ATOM     23  C   UNL A   1      32.699  23.005  22.955  1.00  0.00     0.064 A 
ATOM     24  O   UNL A   1      32.154  20.881  23.829  1.00  0.00    -0.486 OA
ATOM     25  C   UNL A   1      33.989  19.563  24.704  1.00  0.00     0.271 C 
ATOM     26  C   UNL A   1      32.532  19.957  24.859  1.00  0.00     0.271 C 
BRANCH  18  27
ATOM     27  O   UNL A   1      36.540  22.897  24.500  1.00  0.00    -0.493 OA
ATOM     28  C   UNL A   1      36.690  23.467  25.806  1.00  0.00     0.278 C 
ENDBRANCH  18  27
ENDBRANCH  14  17
ENDBRANCH   7  13
ENDBRANCH   4   7
ENDBRANCH   2   3
ENDBRANCH   1   2
BRANCH   1  29
ATOM     29  C   UNL A   1      32.322  31.351  27.125  1.00  0.00     0.023 C 
BRANCH  29  30
ATOM     30  C   UNL A   1      33.394  32.399  27.376  1.00  0.00     0.116 C 
BRANCH  30  31
ATOM     31  N   UNL A   1      32.860  33.726  27.644  1.00  0.00    -0.352 N 
ATOM     32  C   UNL A   1      33.265  34.616  28.614  1.00  0.00     0.251 C 
ATOM     33  H   UNL A   1      32.121  34.022  27.064  1.00  0.00     0.163 HD
ATOM     34  O   UNL A   1      32.690  35.683  28.765  1.00  0.00    -0.269 OA
BRANCH  32  35
ATOM     35  C   UNL A   1      34.375  34.219  29.503  1.00  0.00     0.039 A 
ATOM     36  C   UNL A   1      34.079  33.519  30.673  1.00  0.00     0.014 A 
ATOM     37  C   UNL A   1      35.700  34.437  29.115  1.00  0.00     0.014 A 
ATOM     38  C   UNL A   1      35.118  32.966  31.421  1.00  0.00     0.010 A 
ATOM     39  C   UNL A   1      36.728  33.827  29.825  1.00  0.00     0.010 A 
ATOM     40  C   UNL A   1      36.447  33.078  30.979  1.00  0.00    -0.014 A 
BRANCH  40  41
ATOM     41  C   UNL A   1      37.557  32.405  31.699  1.00  0.00     0.031 A 
ATOM     42  C   UNL A   1      38.033  32.951  33.017  1.00  0.00     0.074 A 
ATOM     43  C   UNL A   1      38.190  31.362  31.126  1.00  0.00     0.049 A 
ATOM     44  N   UNL A   1      39.042  32.566  33.753  1.00  0.00    -0.248 NA
ATOM     45  C   UNL A   1      37.298  34.105  33.562  1.00  0.00     0.031 C 
ATOM     46  C   UNL A   1      37.864  30.786  29.819  1.00  0.00     0.029 A 
ATOM     47  N   UNL A   1      39.252  30.609  31.562  1.00  0.00    -0.354 N 
ATOM     48  C   UNL A   1      39.082  33.442  34.830  1.00  0.00     0.074 A 
ATOM     49  C   UNL A   1      38.022  34.407  34.630  1.00  0.00     0.031 C 
ATOM     50  C   UNL A   1      38.700  29.764  29.565  1.00  0.00     0.029 A 
ATOM     51  C   UNL A   1      39.638  29.632  30.675  1.00  0.00     0.049 A 
ATOM     52  H   UNL A   1      39.696  30.756  32.428  1.00  0.00     0.167 HD
ATOM     53  C   UNL A   1      39.913  33.431  35.899  1.00  0.00     0.037 A 
ATOM     54  C   UNL A   1      40.642  28.735  30.744  1.00  0.00     0.037 A 
ATOM     55  C   UNL A   1      40.931  32.438  36.115  1.00  0.00     0.049 A 
ATOM     56  C   UNL A   1      41.521  28.713  31.964  1.00  0.00     0.074 A 
ATOM     57  C   UNL A   1      41.760  32.284  37.212  1.00  0.00     0.029 A 
ATOM     58  N   UNL A   1      41.256  31.430  35.221  1.00  0.00    -0.354 N 
ATOM     59  N   UNL A   1      41.490  29.499  33.015  1.00  0.00    -0.248 NA
ATOM     60  C   UNL A   1      42.567  27.682  32.016  1.00  0.00     0.031 C 
ATOM     61  C   UNL A   1      42.613  31.203  36.964  1.00  0.00     0.029 A 
ATOM     62  C   UNL A   1      42.287  30.660  35.731  1.00  0.00     0.049 A 
ATOM     63  H   UNL A   1      40.819  31.283  34.351  1.00  0.00     0.167 HD
ATOM     64  C   UNL A   1      42.495  29.044  33.860  1.00  0.00     0.074 A 
ATOM     65  C   UNL A   1      43.108  27.906  33.205  1.00  0.00     0.031 C 
ATOM     66  C   UNL A   1      42.878  29.524  35.069  1.00  0.00     0.037 A 
BRANCH  53  67
ATOM     67  C   UNL A   1      39.748  34.518  36.922  1.00  0.00     0.058 A 
ATOM     68  C   UNL A   1      38.887  34.370  38.022  1.00  0.00     0.135 A 
ATOM     69  C   UNL A   1      40.488  35.707  36.824  1.00  0.00     0.135 A 
ATOM     70  F   UNL A   1      38.143  33.261  38.153  1.00  0.00    -0.206 F 
ATOM     71  C   UNL A   1      38.746  35.373  38.975  1.00  0.00     0.059 A 
ATOM     72  C   UNL A   1      40.383  36.713  37.781  1.00  0.00     0.059 A 
ATOM     73  F   UNL A   1      41.323  35.901  35.792  1.00  0.00    -0.206 F 
ATOM     74  C   UNL A   1      39.499  36.541  38.846  1.00  0.00     0.060 A 
BRANCH  74  75
ATOM     75  S   UNL A   1      39.316  37.829  40.098  1.00  0.00     0.124 S 
ATOM     76  O   UNL A   1      39.093  37.033  41.300  1.00  0.00    -0.237 OA
ATOM     77  O   UNL A   1      40.600  38.519  40.026  1.00  0.00    -0.237 OA
ATOM     78  O   UNL A   1      38.168  38.598  39.630  1.00  0.00    -0.744 OA
ENDBRANCH  74  75
ENDBRANCH  53  67
BRANCH  54  79
ATOM     79  C   UNL A   1      40.859  27.770  29.633  1.00  0.00     0.058 A 
ATOM     80  C   UNL A   1      39.987  26.688  29.435  1.00  0.00     0.135 A 
ATOM     81  C   UNL A   1      41.936  27.913  28.744  1.00  0.00     0.135 A 
ATOM     82  F   UNL A   1      38.947  26.507  30.262  1.00  0.00    -0.206 F 
ATOM     83  C   UNL A   1      40.187  25.770  28.410  1.00  0.00     0.059 A 
ATOM     84  C   UNL A   1      42.142  27.020  27.697  1.00  0.00     0.059 A 
ATOM     85  F   UNL A   1      42.787  28.941  28.879  1.00  0.00    -0.206 F 
ATOM     86  C   UNL A   1      41.269  25.943  27.546  1.00  0.00     0.060 A 
BRANCH  86  87
ATOM     87  S   UNL A   1      41.496  24.770  26.191  1.00  0.00     0.124 S 
ATOM     88  O   UNL A   1      41.440  25.649  25.030  1.00  0.00    -0.237 OA
ATOM     89  O   UNL A   1      42.803  24.197  26.496  1.00  0.00    -0.237 OA
ATOM     90  O   UNL A   1      40.368  23.856  26.349  1.00  0.00    -0.744 OA
ENDBRANCH  86  87
ENDBRANCH  54  79
BRANCH  66  91
ATOM     91  C   UNL A   1      43.991  28.809  35.779  1.00  0.00     0.058 A 
ATOM     92  C   UNL A   1      45.329  29.204  35.630  1.00  0.00     0.135 A 
ATOM     93  C   UNL A   1      43.710  27.757  36.664  1.00  0.00     0.135 A 
ATOM     94  F   UNL A   1      45.650  30.200  34.789  1.00  0.00    -0.206 F 
ATOM     95  C   UNL A   1      46.354  28.571  36.326  1.00  0.00     0.059 A 
ATOM     96  C   UNL A   1      44.715  27.126  37.388  1.00  0.00     0.059 A 
ATOM     97  F   UNL A   1      42.444  27.348  36.848  1.00  0.00    -0.206 F 
ATOM     98  C   UNL A   1      46.035  27.534  37.206  1.00  0.00     0.060 A 
BRANCH  98  99
ATOM     99  S   UNL A   1      47.368  26.748  38.137  1.00  0.00     0.124 S 
ATOM    100  O   UNL A   1      46.663  26.291  39.329  1.00  0.00    -0.237 OA
ATOM    101  O   UNL A   1      47.814  25.700  37.223  1.00  0.00    -0.237 OA
ATOM    102  O   UNL A   1      48.320  27.834  38.347  1.00  0.00    -0.744 OA
ENDBRANCH  98  99
ENDBRANCH  66  91
ENDBRANCH  40  41
ENDBRANCH  32  35
ENDBRANCH  30  31
ENDBRANCH  29  30
ENDBRANCH   1  29
TORSDOF 17
ENDMDL
MODEL 2
REMARK VINA RESULT:     -12.1      4.773      5.967
REMARK SMILES COc1cc(C(=O)NC2(C(=O)NCCCCNC(=O)c3ccc(-c4c5nc(c(-c6c(F)cc(S(=O)(=O)[O-])cc6F)c6ccc([nH]6)c(-c6c(F)cc(S(=O)(=O)[O-])cc6F)c6nc(c(-c7c(F)cc(S(=O)(=O)[O-])cc7F)c7ccc4[nH]7)C=C6)C=C5)cc3)CCCCC2)cc2c1OCCO2
REMARK SMILES IDX 14 1 13 2 12 3 10 4 11 5 9 7 86 8 90 9 87 10 89 11 88 12
REMARK SMILES IDX 8 13 6 14 7 15 5 17 3 18 4 19 93 20 92 21 94 22 91 23 97 24
REMARK SMILES IDX 95 25 96 26 2 27 1 28 15 29 16 30 17 31 18 32 19 34 20 35
REMARK SMILES IDX 21 36 85 37 22 38 84 39 23 40 24 41 25 42 78 43 26 44 83 45
REMARK SMILES IDX 77 46 79 47 27 48 82 49 76 50 75 51 28 53 62 54 41 55 61 56
REMARK SMILES IDX 42 57 45 58 60 59 80 60 43 61 44 62 59 64 81 65 46 66 29 67
REMARK SMILES IDX 30 68 39 69 31 70 32 71 38 72 40 73 33 74 34 75 35 76 36 77
REMARK SMILES IDX 37 78 63 79 64 80 73 81 65 82 66 83 72 84 74 85 67 86 68 87
REMARK SMILES IDX 69 88 70 89 71 90 47 91 48 92 57 93 49 94 50 95 56 96 58 97
REMARK SMILES IDX 51 98 52 99 53 100 54 101 55 102
REMARK H PARENT 12 6 8 16 17 33 79 52 45 63
REMARK Flexibility Score: inf
ROOT
ATOM      1  C   UNL A   1      32.654  30.101  25.451  1.00  0.00     0.023 C 
ENDROOT
BRANCH   1   2
ATOM      2  C   UNL A   1      31.249  29.635  25.078  1.00  0.00     0.116 C 
BRANCH   2   3
ATOM      3  N   UNL A   1      31.018  29.395  23.675  1.00  0.00    -0.354 N 
ATOM      4  C   UNL A   1      30.822  28.256  22.956  1.00  0.00     0.245 C 
ATOM      5  O   UNL A   1      30.175  28.417  21.909  1.00  0.00    -0.272 OA
ATOM      6  H   UNL A   1      31.000  30.214  23.129  1.00  0.00     0.163 HD
BRANCH   4   7
ATOM      7  C   UNL A   1      31.321  26.819  23.356  1.00  0.00     0.119 C 
ATOM      8  C   UNL A   1      30.090  25.880  23.269  1.00  0.00     0.038 C 
ATOM      9  C   UNL A   1      32.076  26.552  24.674  1.00  0.00     0.038 C 
ATOM     10  C   UNL A   1      29.174  25.960  24.479  1.00  0.00     0.003 C 
ATOM     11  C   UNL A   1      31.278  26.246  25.943  1.00  0.00     0.003 C 
ATOM     12  C   UNL A   1      29.907  25.603  25.764  1.00  0.00     0.000 C 
BRANCH   7  13
ATOM     13  N   UNL A   1      32.259  26.362  22.257  1.00  0.00    -0.338 N 
ATOM     14  C   UNL A   1      32.897  25.195  21.914  1.00  0.00     0.252 C 
ATOM     15  O   UNL A   1      33.279  25.098  20.744  1.00  0.00    -0.269 OA
ATOM     16  H   UNL A   1      32.464  27.090  21.626  1.00  0.00     0.164 HD
BRANCH  14  17
ATOM     17  C   UNL A   1      33.280  24.118  22.867  1.00  0.00     0.047 A 
ATOM     18  C   UNL A   1      34.723  23.100  24.522  1.00  0.00     0.165 A 
ATOM     19  C   UNL A   1      34.269  24.231  23.837  1.00  0.00     0.064 A 
ATOM     20  C   UNL A   1      34.054  21.882  24.396  1.00  0.00     0.203 A 
ATOM     21  C   UNL A   1      32.959  21.796  23.535  1.00  0.00     0.166 A 
ATOM     22  O   UNL A   1      34.489  20.821  25.149  1.00  0.00    -0.483 OA
ATOM     23  C   UNL A   1      32.602  22.892  22.745  1.00  0.00     0.064 A 
ATOM     24  O   UNL A   1      32.208  20.656  23.388  1.00  0.00    -0.486 OA
ATOM     25  C   UNL A   1      33.937  19.582  24.700  1.00  0.00     0.271 C 
ATOM     26  C   UNL A   1      32.447  19.735  24.460  1.00  0.00     0.271 C 
BRANCH  18  27
ATOM     27  O   UNL A   1      35.855  23.278  25.278  1.00  0.00    -0.493 OA
ATOM     28  C   UNL A   1      37.050  23.122  24.502  1.00  0.00     0.278 C 
ENDBRANCH  18  27
ENDBRANCH  14  17
ENDBRANCH   7  13
ENDBRANCH   4   7
ENDBRANCH   2   3
ENDBRANCH   1   2
BRANCH   1  29
ATOM     29  C   UNL A   1      33.687  29.031  25.801  1.00  0.00     0.023 C 
BRANCH  29  30
ATOM     30  C   UNL A   1      34.047  28.890  27.270  1.00  0.00     0.116 C 
BRANCH  30  31
ATOM     31  N   UNL A   1      33.937  30.134  28.018  1.00  0.00    -0.352 N 
ATOM     32  C   UNL A   1      34.917  30.762  28.756  1.00  0.00     0.251 C 
ATOM     33  H   UNL A   1      33.059  30.580  27.994  1.00  0.00     0.163 HD
ATOM     34  O   UNL A   1      34.672  31.781  29.383  1.00  0.00    -0.269 OA
BRANCH  32  35
ATOM     35  C   UNL A   1      36.252  30.135  28.815  1.00  0.00     0.039 A 
ATOM     36  C   UNL A   1      37.066  30.185  27.682  1.00  0.00     0.014 A 
ATOM     37  C   UNL A   1      36.731  29.608  30.018  1.00  0.00     0.014 A 
ATOM     38  C   UNL A   1      38.396  29.775  27.777  1.00  0.00     0.010 A 
ATOM     39  C   UNL A   1      38.074  29.266  30.127  1.00  0.00     0.010 A 
ATOM     40  C   UNL A   1      38.922  29.355  29.010  1.00  0.00    -0.014 A 
BRANCH  40  41
ATOM     41  C   UNL A   1      40.360  29.020  29.160  1.00  0.00     0.031 A 
ATOM     42  C   UNL A   1      41.331  30.074  29.616  1.00  0.00     0.074 A 
ATOM     43  C   UNL A   1      40.802  27.798  28.803  1.00  0.00     0.049 A 
ATOM     44  N   UNL A   1      42.632  30.007  29.721  1.00  0.00    -0.248 NA
ATOM     45  C   UNL A   1      40.766  31.388  29.968  1.00  0.00     0.031 C 
ATOM     46  C   UNL A   1      39.967  26.713  28.280  1.00  0.00     0.029 A 
ATOM     47  N   UNL A   1      42.067  27.265  28.807  1.00  0.00    -0.354 N 
ATOM     48  C   UNL A   1      43.044  31.272  30.122  1.00  0.00     0.074 A 
ATOM     49  C   UNL A   1      41.860  32.099  30.200  1.00  0.00     0.031 C 
ATOM     50  C   UNL A   1      40.739  25.643  28.027  1.00  0.00     0.029 A 
ATOM     51  C   UNL A   1      42.126  25.973  28.339  1.00  0.00     0.049 A 
ATOM     52  H   UNL A   1      42.858  27.762  29.117  1.00  0.00     0.167 HD
ATOM     53  C   UNL A   1      44.295  31.698  30.418  1.00  0.00     0.037 A 
ATOM     54  C   UNL A   1      43.180  25.151  28.172  1.00  0.00     0.037 A 
ATOM     55  C   UNL A   1      45.460  30.856  30.387  1.00  0.00     0.049 A 
ATOM     56  C   UNL A   1      44.553  25.634  28.554  1.00  0.00     0.074 A 
ATOM     57  C   UNL A   1      46.755  31.167  30.761  1.00  0.00     0.029 A 
ATOM     58  N   UNL A   1      45.472  29.537  29.961  1.00  0.00    -0.354 N 
ATOM     59  N   UNL A   1      44.914  26.809  29.012  1.00  0.00    -0.248 NA
ATOM     60  C   UNL A   1      45.662  24.681  28.403  1.00  0.00     0.031 C 
ATOM     61  C   UNL A   1      47.558  30.045  30.526  1.00  0.00     0.029 A 
ATOM     62  C   UNL A   1      46.755  29.024  30.044  1.00  0.00     0.049 A 
ATOM     63  H   UNL A   1      44.684  29.037  29.645  1.00  0.00     0.167 HD
ATOM     64  C   UNL A   1      46.285  26.729  29.226  1.00  0.00     0.074 A 
ATOM     65  C   UNL A   1      46.687  25.387  28.858  1.00  0.00     0.031 C 
ATOM     66  C   UNL A   1      47.135  27.681  29.683  1.00  0.00     0.037 A 
BRANCH  53  67
ATOM     67  C   UNL A   1      44.465  33.137  30.814  1.00  0.00     0.058 A 
ATOM     68  C   UNL A   1      44.777  34.129  29.870  1.00  0.00     0.135 A 
ATOM     69  C   UNL A   1      44.277  33.537  32.147  1.00  0.00     0.135 A 
ATOM     70  F   UNL A   1      44.984  33.798  28.586  1.00  0.00    -0.206 F 
ATOM     71  C   UNL A   1      44.921  35.463  30.237  1.00  0.00     0.059 A 
ATOM     72  C   UNL A   1      44.389  34.869  32.532  1.00  0.00     0.059 A 
ATOM     73  F   UNL A   1      43.980  32.629  33.089  1.00  0.00    -0.206 F 
ATOM     74  C   UNL A   1      44.725  35.823  31.571  1.00  0.00     0.060 A 
BRANCH  74  75
ATOM     75  S   UNL A   1      44.902  37.560  32.031  1.00  0.00     0.124 S 
ATOM     76  O   UNL A   1      43.647  38.119  31.538  1.00  0.00    -0.237 OA
ATOM     77  O   UNL A   1      45.034  37.487  33.483  1.00  0.00    -0.237 OA
ATOM     78  O   UNL A   1      46.102  37.980  31.316  1.00  0.00    -0.744 OA
ENDBRANCH  74  75
ENDBRANCH  53  67
BRANCH  54  79
ATOM     79  C   UNL A   1      42.978  23.778  27.635  1.00  0.00     0.058 A 
ATOM     80  C   UNL A   1      42.656  22.710  28.486  1.00  0.00     0.135 A 
ATOM     81  C   UNL A   1      43.098  23.509  26.263  1.00  0.00     0.135 A 
ATOM     82  F   UNL A   1      42.537  22.918  29.806  1.00  0.00    -0.206 F 
ATOM     83  C   UNL A   1      42.480  21.419  27.999  1.00  0.00     0.059 A 
ATOM     84  C   UNL A   1      42.902  22.230  25.750  1.00  0.00     0.059 A 
ATOM     85  F   UNL A   1      43.386  24.500  25.405  1.00  0.00    -0.206 F 
ATOM     86  C   UNL A   1      42.606  21.188  26.629  1.00  0.00     0.060 A 
BRANCH  86  87
ATOM     87  S   UNL A   1      42.334  19.516  26.000  1.00  0.00     0.124 S 
ATOM     88  O   UNL A   1      43.264  19.471  24.878  1.00  0.00    -0.237 OA
ATOM     89  O   UNL A   1      42.684  18.693  27.153  1.00  0.00    -0.237 OA
ATOM     90  O   UNL A   1      40.917  19.518  25.648  1.00  0.00    -0.744 OA
ENDBRANCH  86  87
ENDBRANCH  54  79
BRANCH  66  91
ATOM     91  C   UNL A   1      48.580  27.303  29.840  1.00  0.00     0.058 A 
ATOM     92  C   UNL A   1      49.485  27.404  28.773  1.00  0.00     0.135 A 
ATOM     93  C   UNL A   1      49.076  26.894  31.088  1.00  0.00     0.135 A 
ATOM     94  F   UNL A   1      49.057  27.783  27.558  1.00  0.00    -0.206 F 
ATOM     95  C   UNL A   1      50.833  27.099  28.935  1.00  0.00     0.059 A 
ATOM     96  C   UNL A   1      50.423  26.608  31.278  1.00  0.00     0.059 A 
ATOM     97  F   UNL A   1      48.252  26.791  32.143  1.00  0.00    -0.206 F 
ATOM     98  C   UNL A   1      51.292  26.704  30.193  1.00  0.00     0.060 A 
BRANCH  98  99
ATOM     99  S   UNL A   1      53.051  26.353  30.401  1.00  0.00     0.124 S 
ATOM    100  O   UNL A   1      53.548  27.629  30.906  1.00  0.00    -0.237 OA
ATOM    101  O   UNL A   1      53.040  25.252  31.361  1.00  0.00    -0.237 OA
ATOM    102  O   UNL A   1      53.488  25.997  29.055  1.00  0.00    -0.744 OA
ENDBRANCH  98  99
ENDBRANCH  66  91
ENDBRANCH  40  41
ENDBRANCH  32  35
ENDBRANCH  30  31
ENDBRANCH  29  30
ENDBRANCH   1  29
TORSDOF 17
ENDMDL
MODEL 3
REMARK VINA RESULT:     -11.9      5.931      8.144
REMARK SMILES COc1cc(C(=O)NC2(C(=O)NCCCCNC(=O)c3ccc(-c4c5nc(c(-c6c(F)cc(S(=O)(=O)[O-])cc6F)c6ccc([nH]6)c(-c6c(F)cc(S(=O)(=O)[O-])cc6F)c6nc(c(-c7c(F)cc(S(=O)(=O)[O-])cc7F)c7ccc4[nH]7)C=C6)C=C5)cc3)CCCCC2)cc2c1OCCO2
REMARK SMILES IDX 14 1 13 2 12 3 10 4 11 5 9 7 86 8 90 9 87 10 89 11 88 12
REMARK SMILES IDX 8 13 6 14 7 15 5 17 3 18 4 19 93 20 92 21 94 22 91 23 97 24
REMARK SMILES IDX 95 25 96 26 2 27 1 28 15 29 16 30 17 31 18 32 19 34 20 35
REMARK SMILES IDX 21 36 85 37 22 38 84 39 23 40 24 41 25 42 78 43 26 44 83 45
REMARK SMILES IDX 77 46 79 47 27 48 82 49 76 50 75 51 28 53 62 54 41 55 61 56
REMARK SMILES IDX 42 57 45 58 60 59 80 60 43 61 44 62 59 64 81 65 46 66 29 67
REMARK SMILES IDX 30 68 39 69 31 70 32 71 38 72 40 73 33 74 34 75 35 76 36 77
REMARK SMILES IDX 37 78 63 79 64 80 73 81 65 82 66 83 72 84 74 85 67 86 68 87
REMARK SMILES IDX 69 88 70 89 71 90 47 91 48 92 57 93 49 94 50 95 56 96 58 97
REMARK SMILES IDX 51 98 52 99 53 100 54 101 55 102
REMARK H PARENT 12 6 8 16 17 33 79 52 45 63
REMARK Flexibility Score: inf
ROOT
ATOM      1  C   UNL A   1      33.256  29.620  26.933  1.00  0.00     0.023 C 
ENDROOT
BRANCH   1   2
ATOM      2  C   UNL A   1      33.715  28.962  25.634  1.00  0.00     0.116 C 
BRANCH   2   3
ATOM      3  N   UNL A   1      32.858  29.163  24.491  1.00  0.00    -0.354 N 
ATOM      4  C   UNL A   1      31.977  28.350  23.848  1.00  0.00     0.245 C 
ATOM      5  O   UNL A   1      31.070  28.951  23.250  1.00  0.00    -0.272 OA
ATOM      6  H   UNL A   1      32.925  30.064  24.098  1.00  0.00     0.163 HD
BRANCH   4   7
ATOM      7  C   UNL A   1      32.022  26.778  23.828  1.00  0.00     0.119 C 
ATOM      8  C   UNL A   1      30.553  26.292  23.721  1.00  0.00     0.038 C 
ATOM      9  C   UNL A   1      32.752  25.966  24.918  1.00  0.00     0.038 C 
ATOM     10  C   UNL A   1      29.806  26.310  25.044  1.00  0.00     0.003 C 
ATOM     11  C   UNL A   1      31.997  25.579  26.191  1.00  0.00     0.003 C 
ATOM     12  C   UNL A   1      30.483  25.431  26.085  1.00  0.00     0.000 C 
BRANCH   7  13
ATOM     13  N   UNL A   1      32.679  26.377  22.523  1.00  0.00    -0.338 N 
ATOM     14  C   UNL A   1      33.110  25.208  21.942  1.00  0.00     0.252 C 
ATOM     15  O   UNL A   1      33.249  25.221  20.716  1.00  0.00    -0.269 OA
ATOM     16  H   UNL A   1      32.838  27.155  21.939  1.00  0.00     0.164 HD
BRANCH  14  17
ATOM     17  C   UNL A   1      33.547  23.996  22.685  1.00  0.00     0.047 A 
ATOM     18  C   UNL A   1      33.160  22.014  24.019  1.00  0.00     0.165 A 
ATOM     19  C   UNL A   1      32.699  22.987  23.128  1.00  0.00     0.064 A 
ATOM     20  C   UNL A   1      34.519  21.915  24.317  1.00  0.00     0.203 A 
ATOM     21  C   UNL A   1      35.405  22.836  23.755  1.00  0.00     0.166 A 
ATOM     22  O   UNL A   1      34.933  20.895  25.136  1.00  0.00    -0.483 OA
ATOM     23  C   UNL A   1      34.918  23.893  22.981  1.00  0.00     0.064 A 
ATOM     24  O   UNL A   1      36.764  22.784  23.948  1.00  0.00    -0.486 OA
ATOM     25  C   UNL A   1      36.266  21.092  25.608  1.00  0.00     0.271 C 
ATOM     26  C   UNL A   1      37.167  21.507  24.459  1.00  0.00     0.271 C 
BRANCH  18  27
ATOM     27  O   UNL A   1      32.193  21.213  24.576  1.00  0.00    -0.493 OA
ATOM     28  C   UNL A   1      31.355  21.935  25.486  1.00  0.00     0.278 C 
ENDBRANCH  18  27
ENDBRANCH  14  17
ENDBRANCH   7  13
ENDBRANCH   4   7
ENDBRANCH   2   3
ENDBRANCH   1   2
BRANCH   1  29
ATOM     29  C   UNL A   1      34.079  30.793  27.462  1.00  0.00     0.023 C 
BRANCH  29  30
ATOM     30  C   UNL A   1      35.357  30.445  28.207  1.00  0.00     0.116 C 
BRANCH  30  31
ATOM     31  N   UNL A   1      35.434  31.031  29.537  1.00  0.00    -0.352 N 
ATOM     32  C   UNL A   1      36.498  30.997  30.412  1.00  0.00     0.251 C 
ATOM     33  H   UNL A   1      34.630  31.508  29.849  1.00  0.00     0.163 HD
ATOM     34  O   UNL A   1      36.408  31.487  31.527  1.00  0.00    -0.269 OA
BRANCH  32  35
ATOM     35  C   UNL A   1      37.727  30.300  29.985  1.00  0.00     0.039 A 
ATOM     36  C   UNL A   1      38.077  30.327  28.634  1.00  0.00     0.014 A 
ATOM     37  C   UNL A   1      38.579  29.729  30.934  1.00  0.00     0.014 A 
ATOM     38  C   UNL A   1      39.326  29.846  28.241  1.00  0.00     0.010 A 
ATOM     39  C   UNL A   1      39.850  29.315  30.550  1.00  0.00     0.010 A 
ATOM     40  C   UNL A   1      40.239  29.379  29.201  1.00  0.00    -0.014 A 
BRANCH  40  41
ATOM     41  C   UNL A   1      41.613  28.966  28.821  1.00  0.00     0.031 A 
ATOM     42  C   UNL A   1      42.709  29.994  28.745  1.00  0.00     0.074 A 
ATOM     43  C   UNL A   1      41.852  27.690  28.460  1.00  0.00     0.049 A 
ATOM     44  N   UNL A   1      43.946  29.852  28.346  1.00  0.00    -0.248 NA
ATOM     45  C   UNL A   1      42.357  31.369  29.138  1.00  0.00     0.031 C 
ATOM     46  C   UNL A   1      40.854  26.617  28.426  1.00  0.00     0.029 A 
ATOM     47  N   UNL A   1      43.006  27.079  28.035  1.00  0.00    -0.354 N 
ATOM     48  C   UNL A   1      44.511  31.120  28.412  1.00  0.00     0.074 A 
ATOM     49  C   UNL A   1      43.471  32.026  28.848  1.00  0.00     0.031 C 
ATOM     50  C   UNL A   1      41.441  25.480  28.016  1.00  0.00     0.029 A 
ATOM     51  C   UNL A   1      42.847  25.747  27.729  1.00  0.00     0.049 A 
ATOM     52  H   UNL A   1      43.866  27.550  27.957  1.00  0.00     0.167 HD
ATOM     53  C   UNL A   1      45.788  31.490  28.153  1.00  0.00     0.037 A 
ATOM     54  C   UNL A   1      43.732  24.846  27.261  1.00  0.00     0.037 A 
ATOM     55  C   UNL A   1      46.828  30.574  27.768  1.00  0.00     0.049 A 
ATOM     56  C   UNL A   1      45.156  25.273  27.026  1.00  0.00     0.074 A 
ATOM     57  C   UNL A   1      48.173  30.834  27.576  1.00  0.00     0.029 A 
ATOM     58  N   UNL A   1      46.642  29.223  27.522  1.00  0.00    -0.354 N 
ATOM     59  N   UNL A   1      45.694  26.460  27.175  1.00  0.00    -0.248 NA
ATOM     60  C   UNL A   1      46.096  24.240  26.567  1.00  0.00     0.031 C 
ATOM     61  C   UNL A   1      48.794  29.646  27.177  1.00  0.00     0.029 A 
ATOM     62  C   UNL A   1      47.843  28.638  27.160  1.00  0.00     0.049 A 
ATOM     63  H   UNL A   1      45.782  28.748  27.593  1.00  0.00     0.167 HD
ATOM     64  C   UNL A   1      47.038  26.312  26.850  1.00  0.00     0.074 A 
ATOM     65  C   UNL A   1      47.233  24.918  26.508  1.00  0.00     0.031 C 
ATOM     66  C   UNL A   1      48.020  27.245  26.833  1.00  0.00     0.037 A 
BRANCH  53  67
ATOM     67  C   UNL A   1      46.133  32.945  28.288  1.00  0.00     0.058 A 
ATOM     68  C   UNL A   1      46.039  33.829  27.200  1.00  0.00     0.135 A 
ATOM     69  C   UNL A   1      46.523  33.473  29.529  1.00  0.00     0.135 A 
ATOM     70  F   UNL A   1      45.688  33.373  25.988  1.00  0.00    -0.206 F 
ATOM     71  C   UNL A   1      46.347  35.179  27.332  1.00  0.00     0.059 A 
ATOM     72  C   UNL A   1      46.809  34.825  29.690  1.00  0.00     0.059 A 
ATOM     73  F   UNL A   1      46.630  32.672  30.600  1.00  0.00    -0.206 F 
ATOM     74  C   UNL A   1      46.731  35.668  28.581  1.00  0.00     0.060 A 
BRANCH  74  75
ATOM     75  S   UNL A   1      47.113  37.425  28.740  1.00  0.00     0.124 S 
ATOM     76  O   UNL A   1      47.402  37.784  27.355  1.00  0.00    -0.237 OA
ATOM     77  O   UNL A   1      45.873  37.966  29.288  1.00  0.00    -0.237 OA
ATOM     78  O   UNL A   1      48.256  37.444  29.646  1.00  0.00    -0.744 OA
ENDBRANCH  74  75
ENDBRANCH  53  67
BRANCH  54  79
ATOM     79  C   UNL A   1      43.305  23.445  27.001  1.00  0.00     0.058 A 
ATOM     80  C   UNL A   1      43.067  22.555  28.059  1.00  0.00     0.135 A 
ATOM     81  C   UNL A   1      43.121  22.971  25.693  1.00  0.00     0.135 A 
ATOM     82  F   UNL A   1      43.235  22.961  29.326  1.00  0.00    -0.206 F 
ATOM     83  C   UNL A   1      42.682  21.238  27.830  1.00  0.00     0.059 A 
ATOM     84  C   UNL A   1      42.714  21.665  25.440  1.00  0.00     0.059 A 
ATOM     85  F   UNL A   1      43.319  23.789  24.647  1.00  0.00    -0.206 F 
ATOM     86  C   UNL A   1      42.508  20.801  26.516  1.00  0.00     0.060 A 
BRANCH  86  87
ATOM     87  S   UNL A   1      41.968  19.102  26.229  1.00  0.00     0.124 S 
ATOM     88  O   UNL A   1      42.201  18.496  27.535  1.00  0.00    -0.237 OA
ATOM     89  O   UNL A   1      40.570  19.283  25.850  1.00  0.00    -0.237 OA
ATOM     90  O   UNL A   1      42.847  18.648  25.155  1.00  0.00    -0.744 OA
ENDBRANCH  86  87
ENDBRANCH  54  79
BRANCH  66  91
ATOM     91  C   UNL A   1      49.403  26.790  26.462  1.00  0.00     0.058 A 
ATOM     92  C   UNL A   1      50.268  26.223  27.410  1.00  0.00     0.135 A 
ATOM     93  C   UNL A   1      49.843  26.866  25.131  1.00  0.00     0.135 A 
ATOM     94  F   UNL A   1      49.896  26.135  28.697  1.00  0.00    -0.206 F 
ATOM     95  C   UNL A   1      51.530  25.758  27.052  1.00  0.00     0.059 A 
ATOM     96  C   UNL A   1      51.090  26.386  24.747  1.00  0.00     0.059 A 
ATOM     97  F   UNL A   1      49.048  27.393  24.185  1.00  0.00    -0.206 F 
ATOM     98  C   UNL A   1      51.930  25.842  25.717  1.00  0.00     0.060 A 
BRANCH  98  99
ATOM     99  S   UNL A   1      53.552  25.196  25.257  1.00  0.00     0.124 S 
ATOM    100  O   UNL A   1      53.720  25.749  23.918  1.00  0.00    -0.237 OA
ATOM    101  O   UNL A   1      54.419  25.759  26.289  1.00  0.00    -0.237 OA
ATOM    102  O   UNL A   1      53.372  23.749  25.322  1.00  0.00    -0.744 OA
ENDBRANCH  98  99
ENDBRANCH  66  91
ENDBRANCH  40  41
ENDBRANCH  32  35
ENDBRANCH  30  31
ENDBRANCH  29  30
ENDBRANCH   1  29
TORSDOF 17
ENDMDL
