MODEL 1
REMARK VINA RESULT:     -13.8      0.000      0.000
REMARK SMILES Cc1ccc(C(c2ccccc2)(c2ccccc2)n2cnc(C[C@H]([NH3+])C(=O)NCCCCNC(=O)c3ccc(-c4c5nc(c(-c6c(F)cc(S(=O)(=O)[O-])cc6F)c6ccc([nH]6)c(-c6c(F)cc(S(=O)(=O)[O-])cc6F)c6nc(c(-c7c(F)cc(S(=O)(=O)[O-])cc7F)c7ccc4[nH]7)C=C6)C=C5)cc3)c2)cc1
REMARK SMILES IDX 30 1 29 2 28 3 26 4 27 5 24 7 23 8 22 9 19 10 20 11 102 12
REMARK SMILES IDX 21 13 6 14 5 15 1 16 2 17 3 18 104 19 4 20 103 21 7 22 8 23
REMARK SMILES IDX 12 24 9 25 11 26 10 27 13 28 14 29 18 30 15 31 17 32 16 33
REMARK SMILES IDX 25 34 31 38 32 39 33 40 34 41 35 43 36 44 37 45 101 46 38 47
REMARK SMILES IDX 100 48 39 49 40 50 41 51 94 52 42 53 99 54 93 55 95 56 43 57
REMARK SMILES IDX 98 58 92 59 91 60 44 62 78 63 57 64 77 65 58 66 61 67 76 68
REMARK SMILES IDX 96 69 59 70 60 71 75 73 97 74 62 75 45 76 46 77 55 78 47 79
REMARK SMILES IDX 48 80 54 81 56 82 49 83 50 84 51 85 52 86 53 87 79 88 80 89
REMARK SMILES IDX 89 90 81 91 82 92 88 93 90 94 83 95 84 96 85 97 86 98 87 99
REMARK SMILES IDX 63 100 64 101 73 102 65 103 66 104 72 105 74 106 67 107
REMARK SMILES IDX 68 108 69 109 70 110 71 111
REMARK H PARENT 28 6 25 35 25 36 25 37 33 42 95 61 61 72
REMARK Flexibility Score: inf
ROOT
ATOM      1  C   UNL A   1      32.674  28.488  25.861  1.00  0.00     0.023 C 
ENDROOT
BRANCH   1   2
ATOM      2  C   UNL A   1      32.406  29.479  24.720  1.00  0.00     0.116 C 
BRANCH   2   3
ATOM      3  N   UNL A   1      33.302  29.294  23.589  1.00  0.00    -0.351 N 
ATOM      4  C   UNL A   1      33.265  28.466  22.505  1.00  0.00     0.278 C 
ATOM      5  O   UNL A   1      34.270  28.445  21.784  1.00  0.00    -0.268 OA
ATOM      6  H   UNL A   1      34.090  29.883  23.610  1.00  0.00     0.163 HD
BRANCH   4   7
ATOM      7  C   UNL A   1      32.066  27.534  22.220  1.00  0.00     0.276 C 
BRANCH   7   8
ATOM      8  C   UNL A   1      32.368  26.410  21.214  1.00  0.00     0.133 C 
BRANCH   8   9
ATOM      9  C   UNL A   1      32.724  25.107  21.845  1.00  0.00     0.065 A 
ATOM     10  N   UNL A   1      33.084  23.463  23.263  1.00  0.00    -0.319 N 
ATOM     11  C   UNL A   1      33.483  23.114  21.991  1.00  0.00     0.201 A 
ATOM     12  C   UNL A   1      32.528  24.717  23.151  1.00  0.00     0.112 A 
ATOM     13  N   UNL A   1      33.289  24.088  21.131  1.00  0.00    -0.241 NA
BRANCH  10  14
ATOM     14  C   UNL A   1      33.290  22.642  24.505  1.00  0.00     0.121 C 
BRANCH  14  15
ATOM     15  C   UNL A   1      33.212  21.104  24.143  1.00  0.00    -0.013 A 
ATOM     16  C   UNL A   1      33.165  16.858  23.185  1.00  0.00     0.044 C 
ATOM     17  C   UNL A   1      33.176  18.314  23.547  1.00  0.00    -0.051 A 
ATOM     18  C   UNL A   1      32.274  19.190  22.937  1.00  0.00     0.004 A 
ATOM     19  C   UNL A   1      34.076  18.822  24.483  1.00  0.00     0.004 A 
ATOM     20  C   UNL A   1      32.288  20.561  23.230  1.00  0.00     0.007 A 
ATOM     21  C   UNL A   1      34.084  20.187  24.786  1.00  0.00     0.007 A 
ENDBRANCH  14  15
BRANCH  14  22
ATOM     22  C   UNL A   1      34.729  23.033  25.075  1.00  0.00    -0.013 A 
ATOM     23  C   UNL A   1      34.917  23.328  26.448  1.00  0.00     0.007 A 
ATOM     24  C   UNL A   1      35.865  23.213  24.256  1.00  0.00     0.007 A 
ATOM     25  C   UNL A   1      36.165  23.677  26.976  1.00  0.00     0.000 A 
ATOM     26  C   UNL A   1      37.114  23.574  24.781  1.00  0.00     0.000 A 
ATOM     27  C   UNL A   1      37.269  23.787  26.143  1.00  0.00     0.000 A 
ENDBRANCH  14  22
BRANCH  14  28
ATOM     28  C   UNL A   1      32.107  23.009  25.518  1.00  0.00    -0.013 A 
ATOM     29  C   UNL A   1      31.229  22.010  26.010  1.00  0.00     0.007 A 
ATOM     30  C   UNL A   1      31.752  24.341  25.827  1.00  0.00     0.007 A 
ATOM     31  C   UNL A   1      30.097  22.320  26.772  1.00  0.00     0.000 A 
ATOM     32  C   UNL A   1      30.601  24.652  26.564  1.00  0.00     0.000 A 
ATOM     33  C   UNL A   1      29.776  23.643  27.039  1.00  0.00     0.000 A 
ENDBRANCH  14  28
ENDBRANCH  10  14
ENDBRANCH   8   9
ENDBRANCH   7   8
BRANCH   7  34
ATOM     34  N   UNL A   1      30.877  28.350  21.844  1.00  0.00    -0.347 N 
ATOM     35  H   UNL A   1      30.070  27.739  21.719  1.00  0.00     0.345 HD
ATOM     36  H   UNL A   1      31.067  28.845  20.972  1.00  0.00     0.345 HD
ATOM     37  H   UNL A   1      30.681  29.027  22.582  1.00  0.00     0.345 HD
ENDBRANCH   7  34
ENDBRANCH   4   7
ENDBRANCH   2   3
ENDBRANCH   1   2
BRANCH   1  38
ATOM     38  C   UNL A   1      33.981  28.688  26.632  1.00  0.00     0.023 C 
BRANCH  38  39
ATOM     39  C   UNL A   1      34.035  29.952  27.473  1.00  0.00     0.116 C 
BRANCH  39  40
ATOM     40  N   UNL A   1      35.015  30.946  27.066  1.00  0.00    -0.352 N 
ATOM     41  C   UNL A   1      36.129  31.194  27.880  1.00  0.00     0.251 C 
ATOM     42  H   UNL A   1      34.898  31.441  26.224  1.00  0.00     0.163 HD
ATOM     43  O   UNL A   1      36.334  32.216  28.479  1.00  0.00    -0.269 OA
BRANCH  41  44
ATOM     44  C   UNL A   1      37.047  30.029  27.994  1.00  0.00     0.039 A 
ATOM     45  C   UNL A   1      37.044  29.237  29.143  1.00  0.00     0.014 A 
ATOM     46  C   UNL A   1      38.050  29.900  27.037  1.00  0.00     0.014 A 
ATOM     47  C   UNL A   1      38.142  28.410  29.402  1.00  0.00     0.010 A 
ATOM     48  C   UNL A   1      39.176  29.170  27.344  1.00  0.00     0.010 A 
ATOM     49  C   UNL A   1      39.239  28.441  28.538  1.00  0.00    -0.014 A 
BRANCH  49  50
ATOM     50  C   UNL A   1      40.534  27.824  28.809  1.00  0.00     0.031 A 
ATOM     51  C   UNL A   1      40.810  26.423  28.405  1.00  0.00     0.074 A 
ATOM     52  C   UNL A   1      41.556  28.584  29.263  1.00  0.00     0.049 A 
ATOM     53  N   UNL A   1      41.769  25.709  28.891  1.00  0.00    -0.248 NA
ATOM     54  C   UNL A   1      40.010  25.705  27.417  1.00  0.00     0.031 C 
ATOM     55  C   UNL A   1      42.980  28.267  29.199  1.00  0.00     0.029 A 
ATOM     56  N   UNL A   1      41.495  29.738  30.041  1.00  0.00    -0.354 N 
ATOM     57  C   UNL A   1      41.905  24.594  28.097  1.00  0.00     0.074 A 
ATOM     58  C   UNL A   1      40.749  24.607  27.229  1.00  0.00     0.031 C 
ATOM     59  C   UNL A   1      43.638  29.025  30.087  1.00  0.00     0.029 A 
ATOM     60  C   UNL A   1      42.644  29.750  30.855  1.00  0.00     0.049 A 
ATOM     61  H   UNL A   1      40.783  30.418  30.026  1.00  0.00     0.167 HD
ATOM     62  C   UNL A   1      43.047  23.853  28.153  1.00  0.00     0.037 A 
ATOM     63  C   UNL A   1      42.546  29.722  32.218  1.00  0.00     0.037 A 
ATOM     64  C   UNL A   1      43.991  24.389  29.129  1.00  0.00     0.049 A 
ATOM     65  C   UNL A   1      43.183  28.511  32.861  1.00  0.00     0.074 A 
ATOM     66  C   UNL A   1      45.111  25.196  29.006  1.00  0.00     0.029 A 
ATOM     67  N   UNL A   1      43.674  24.366  30.482  1.00  0.00    -0.354 N 
ATOM     68  N   UNL A   1      43.529  27.434  32.211  1.00  0.00    -0.248 NA
ATOM     69  C   UNL A   1      43.485  28.413  34.285  1.00  0.00     0.031 C 
ATOM     70  C   UNL A   1      45.460  25.673  30.292  1.00  0.00     0.029 A 
ATOM     71  C   UNL A   1      44.553  25.155  31.199  1.00  0.00     0.049 A 
ATOM     72  H   UNL A   1      42.928  23.858  30.876  1.00  0.00     0.167 HD
ATOM     73  C   UNL A   1      44.054  26.507  33.080  1.00  0.00     0.074 A 
ATOM     74  C   UNL A   1      44.034  27.186  34.362  1.00  0.00     0.031 C 
ATOM     75  C   UNL A   1      44.450  25.269  32.650  1.00  0.00     0.037 A 
BRANCH  62  76
ATOM     76  C   UNL A   1      43.405  22.820  27.107  1.00  0.00     0.058 A 
ATOM     77  C   UNL A   1      42.769  21.560  27.070  1.00  0.00     0.135 A 
ATOM     78  C   UNL A   1      44.408  23.005  26.133  1.00  0.00     0.135 A 
ATOM     79  F   UNL A   1      41.740  21.267  27.874  1.00  0.00    -0.206 F 
ATOM     80  C   UNL A   1      43.170  20.531  26.219  1.00  0.00     0.059 A 
ATOM     81  C   UNL A   1      44.865  21.973  25.305  1.00  0.00     0.059 A 
ATOM     82  F   UNL A   1      44.965  24.210  25.939  1.00  0.00    -0.206 F 
ATOM     83  C   UNL A   1      44.245  20.731  25.365  1.00  0.00     0.060 A 
BRANCH  83  84
ATOM     84  S   UNL A   1      44.817  19.349  24.359  1.00  0.00     0.124 S 
ATOM     85  O   UNL A   1      44.080  18.224  24.929  1.00  0.00    -0.237 OA
ATOM     86  O   UNL A   1      44.410  19.759  23.020  1.00  0.00    -0.237 OA
ATOM     87  O   UNL A   1      46.257  19.327  24.600  1.00  0.00    -0.744 OA
ENDBRANCH  83  84
ENDBRANCH  62  76
BRANCH  63  88
ATOM     88  C   UNL A   1      41.367  30.481  32.722  1.00  0.00     0.058 A 
ATOM     89  C   UNL A   1      40.198  29.736  32.977  1.00  0.00     0.135 A 
ATOM     90  C   UNL A   1      41.529  31.691  33.412  1.00  0.00     0.135 A 
ATOM     91  F   UNL A   1      39.981  28.586  32.319  1.00  0.00    -0.206 F 
ATOM     92  C   UNL A   1      39.340  30.061  34.021  1.00  0.00     0.059 A 
ATOM     93  C   UNL A   1      40.671  32.043  34.457  1.00  0.00     0.059 A 
ATOM     94  F   UNL A   1      42.613  32.451  33.198  1.00  0.00    -0.206 F 
ATOM     95  C   UNL A   1      39.640  31.169  34.812  1.00  0.00     0.060 A 
BRANCH  95  96
ATOM     96  S   UNL A   1      38.780  31.339  36.396  1.00  0.00     0.124 S 
ATOM     97  O   UNL A   1      38.461  29.954  36.723  1.00  0.00    -0.237 OA
ATOM     98  O   UNL A   1      39.807  31.966  37.234  1.00  0.00    -0.237 OA
ATOM     99  O   UNL A   1      37.641  32.188  36.067  1.00  0.00    -0.744 OA
ENDBRANCH  95  96
ENDBRANCH  63  88
BRANCH  75 100
ATOM    100  C   UNL A   1      44.878  24.073  33.490  1.00  0.00     0.058 A 
ATOM    101  C   UNL A   1      44.096  22.931  33.728  1.00  0.00     0.135 A 
ATOM    102  C   UNL A   1      46.203  24.000  34.005  1.00  0.00     0.135 A 
ATOM    103  F   UNL A   1      42.868  22.799  33.210  1.00  0.00    -0.206 F 
ATOM    104  C   UNL A   1      44.559  21.836  34.468  1.00  0.00     0.059 A 
ATOM    105  C   UNL A   1      46.704  22.896  34.693  1.00  0.00     0.059 A 
ATOM    106  F   UNL A   1      47.081  25.001  33.846  1.00  0.00    -0.206 F 
ATOM    107  C   UNL A   1      45.865  21.826  34.945  1.00  0.00     0.060 A 
BRANCH 107 108
ATOM    108  S   UNL A   1      46.489  20.386  35.831  1.00  0.00     0.124 S 
ATOM    109  O   UNL A   1      47.919  20.468  35.547  1.00  0.00    -0.237 OA
ATOM    110  O   UNL A   1      46.103  20.666  37.212  1.00  0.00    -0.237 OA
ATOM    111  O   UNL A   1      45.782  19.274  35.205  1.00  0.00    -0.744 OA
ENDBRANCH 107 108
ENDBRANCH  75 100
ENDBRANCH  49  50
ENDBRANCH  41  44
ENDBRANCH  39  40
ENDBRANCH  38  39
ENDBRANCH   1  38
TORSDOF 21
ENDMDL
MODEL 2
REMARK VINA RESULT:     -13.6      1.144      2.883
REMARK SMILES Cc1ccc(C(c2ccccc2)(c2ccccc2)n2cnc(C[C@H]([NH3+])C(=O)NCCCCNC(=O)c3ccc(-c4c5nc(c(-c6c(F)cc(S(=O)(=O)[O-])cc6F)c6ccc([nH]6)c(-c6c(F)cc(S(=O)(=O)[O-])cc6F)c6nc(c(-c7c(F)cc(S(=O)(=O)[O-])cc7F)c7ccc4[nH]7)C=C6)C=C5)cc3)c2)cc1
REMARK SMILES IDX 30 1 29 2 28 3 26 4 27 5 24 7 23 8 22 9 19 10 20 11 102 12
REMARK SMILES IDX 21 13 6 14 5 15 1 16 2 17 3 18 104 19 4 20 103 21 7 22 8 23
REMARK SMILES IDX 12 24 9 25 11 26 10 27 13 28 14 29 18 30 15 31 17 32 16 33
REMARK SMILES IDX 25 34 31 38 32 39 33 40 34 41 35 43 36 44 37 45 101 46 38 47
REMARK SMILES IDX 100 48 39 49 40 50 41 51 94 52 42 53 99 54 93 55 95 56 43 57
REMARK SMILES IDX 98 58 92 59 91 60 44 62 78 63 57 64 77 65 58 66 61 67 76 68
REMARK SMILES IDX 96 69 59 70 60 71 75 73 97 74 62 75 45 76 46 77 55 78 47 79
REMARK SMILES IDX 48 80 54 81 56 82 49 83 50 84 51 85 52 86 53 87 79 88 80 89
REMARK SMILES IDX 89 90 81 91 82 92 88 93 90 94 83 95 84 96 85 97 86 98 87 99
REMARK SMILES IDX 63 100 64 101 73 102 65 103 66 104 72 105 74 106 67 107
REMARK SMILES IDX 68 108 69 109 70 110 71 111
REMARK H PARENT 28 6 25 35 25 36 25 37 33 42 95 61 61 72
REMARK Flexibility Score: inf
ROOT
ATOM      1  C   UNL A   1      32.972  28.336  25.925  1.00  0.00     0.023 C 
ENDROOT
BRANCH   1   2
ATOM      2  C   UNL A   1      32.703  29.344  24.799  1.00  0.00     0.116 C 
BRANCH   2   3
ATOM      3  N   UNL A   1      33.469  29.065  23.595  1.00  0.00    -0.351 N 
ATOM      4  C   UNL A   1      33.224  28.285  22.501  1.00  0.00     0.278 C 
ATOM      5  O   UNL A   1      34.155  28.140  21.700  1.00  0.00    -0.268 OA
ATOM      6  H   UNL A   1      34.335  29.531  23.561  1.00  0.00     0.163 HD
BRANCH   4   7
ATOM      7  C   UNL A   1      31.881  27.547  22.299  1.00  0.00     0.276 C 
BRANCH   7   8
ATOM      8  C   UNL A   1      31.923  26.447  21.225  1.00  0.00     0.133 C 
BRANCH   8   9
ATOM      9  C   UNL A   1      32.416  25.131  21.720  1.00  0.00     0.065 A 
ATOM     10  N   UNL A   1      32.819  23.328  22.916  1.00  0.00    -0.319 N 
ATOM     11  C   UNL A   1      33.552  23.320  21.750  1.00  0.00     0.201 A 
ATOM     12  C   UNL A   1      32.034  24.458  22.859  1.00  0.00     0.112 A 
ATOM     13  N   UNL A   1      33.336  24.396  21.027  1.00  0.00    -0.241 NA
BRANCH  10  14
ATOM     14  C   UNL A   1      32.929  22.326  24.031  1.00  0.00     0.121 C 
BRANCH  14  15
ATOM     15  C   UNL A   1      34.417  22.288  24.566  1.00  0.00    -0.013 A 
ATOM     16  C   UNL A   1      38.562  22.273  25.897  1.00  0.00     0.044 C 
ATOM     17  C   UNL A   1      37.129  22.307  25.452  1.00  0.00    -0.051 A 
ATOM     18  C   UNL A   1      36.257  21.286  25.835  1.00  0.00     0.004 A 
ATOM     19  C   UNL A   1      36.643  23.342  24.654  1.00  0.00     0.004 A 
ATOM     20  C   UNL A   1      34.923  21.276  25.403  1.00  0.00     0.007 A 
ATOM     21  C   UNL A   1      35.310  23.340  24.231  1.00  0.00     0.007 A 
ENDBRANCH  14  15
BRANCH  14  22
ATOM     22  C   UNL A   1      31.913  22.797  25.169  1.00  0.00    -0.013 A 
ATOM     23  C   UNL A   1      32.153  23.972  25.922  1.00  0.00     0.007 A 
ATOM     24  C   UNL A   1      30.790  22.040  25.569  1.00  0.00     0.007 A 
ATOM     25  C   UNL A   1      31.283  24.409  26.928  1.00  0.00     0.000 A 
ATOM     26  C   UNL A   1      29.924  22.469  26.584  1.00  0.00     0.000 A 
ATOM     27  C   UNL A   1      30.159  23.663  27.250  1.00  0.00     0.000 A 
ENDBRANCH  14  22
BRANCH  14  28
ATOM     28  C   UNL A   1      32.548  20.895  23.422  1.00  0.00    -0.013 A 
ATOM     29  C   UNL A   1      32.871  19.699  24.111  1.00  0.00     0.007 A 
ATOM     30  C   UNL A   1      32.055  20.730  22.109  1.00  0.00     0.007 A 
ATOM     31  C   UNL A   1      32.691  18.435  23.538  1.00  0.00     0.000 A 
ATOM     32  C   UNL A   1      31.904  19.465  21.524  1.00  0.00     0.000 A 
ATOM     33  C   UNL A   1      32.218  18.318  22.239  1.00  0.00     0.000 A 
ENDBRANCH  14  28
ENDBRANCH  10  14
ENDBRANCH   8   9
ENDBRANCH   7   8
BRANCH   7  34
ATOM     34  N   UNL A   1      30.794  28.542  22.075  1.00  0.00    -0.347 N 
ATOM     35  H   UNL A   1      30.526  28.960  22.966  1.00  0.00     0.345 HD
ATOM     36  H   UNL A   1      29.987  28.076  21.662  1.00  0.00     0.345 HD
ATOM     37  H   UNL A   1      31.124  29.272  21.443  1.00  0.00     0.345 HD
ENDBRANCH   7  34
ENDBRANCH   4   7
ENDBRANCH   2   3
ENDBRANCH   1   2
BRANCH   1  38
ATOM     38  C   UNL A   1      34.265  28.545  26.718  1.00  0.00     0.023 C 
BRANCH  38  39
ATOM     39  C   UNL A   1      34.280  29.789  27.589  1.00  0.00     0.116 C 
BRANCH  39  40
ATOM     40  N   UNL A   1      35.277  30.791  27.250  1.00  0.00    -0.352 N 
ATOM     41  C   UNL A   1      36.346  31.029  28.125  1.00  0.00     0.251 C 
ATOM     42  H   UNL A   1      35.202  31.300  26.411  1.00  0.00     0.163 HD
ATOM     43  O   UNL A   1      36.516  32.042  28.750  1.00  0.00    -0.269 OA
BRANCH  41  44
ATOM     44  C   UNL A   1      37.260  29.864  28.268  1.00  0.00     0.039 A 
ATOM     45  C   UNL A   1      37.312  29.149  29.466  1.00  0.00     0.014 A 
ATOM     46  C   UNL A   1      38.211  29.663  27.270  1.00  0.00     0.014 A 
ATOM     47  C   UNL A   1      38.416  28.330  29.720  1.00  0.00     0.010 A 
ATOM     48  C   UNL A   1      39.347  28.943  27.567  1.00  0.00     0.010 A 
ATOM     49  C   UNL A   1      39.467  28.292  28.801  1.00  0.00    -0.014 A 
BRANCH  49  50
ATOM     50  C   UNL A   1      40.770  27.681  29.045  1.00  0.00     0.031 A 
ATOM     51  C   UNL A   1      41.064  26.304  28.577  1.00  0.00     0.074 A 
ATOM     52  C   UNL A   1      41.781  28.433  29.534  1.00  0.00     0.049 A 
ATOM     53  N   UNL A   1      42.033  25.581  29.031  1.00  0.00    -0.248 NA
ATOM     54  C   UNL A   1      40.275  25.622  27.556  1.00  0.00     0.031 C 
ATOM     55  C   UNL A   1      43.209  28.138  29.457  1.00  0.00     0.029 A 
ATOM     56  N   UNL A   1      41.704  29.549  30.365  1.00  0.00    -0.354 N 
ATOM     57  C   UNL A   1      42.184  24.507  28.186  1.00  0.00     0.074 A 
ATOM     58  C   UNL A   1      41.029  24.543  27.319  1.00  0.00     0.031 C 
ATOM     59  C   UNL A   1      43.857  28.864  30.380  1.00  0.00     0.029 A 
ATOM     60  C   UNL A   1      42.853  29.539  31.180  1.00  0.00     0.049 A 
ATOM     61  H   UNL A   1      40.983  30.219  30.380  1.00  0.00     0.167 HD
ATOM     62  C   UNL A   1      43.336  23.778  28.209  1.00  0.00     0.037 A 
ATOM     63  C   UNL A   1      42.755  29.447  32.539  1.00  0.00     0.037 A 
ATOM     64  C   UNL A   1      44.272  24.282  29.210  1.00  0.00     0.049 A 
ATOM     65  C   UNL A   1      43.408  28.217  33.127  1.00  0.00     0.074 A 
ATOM     66  C   UNL A   1      45.382  25.109  29.125  1.00  0.00     0.029 A 
ATOM     67  N   UNL A   1      43.955  24.192  30.560  1.00  0.00    -0.354 N 
ATOM     68  N   UNL A   1      43.768  27.175  32.428  1.00  0.00    -0.248 NA
ATOM     69  C   UNL A   1      43.710  28.056  34.545  1.00  0.00     0.031 C 
ATOM     70  C   UNL A   1      45.724  25.531  30.432  1.00  0.00     0.029 A 
ATOM     71  C   UNL A   1      44.824  24.959  31.314  1.00  0.00     0.049 A 
ATOM     72  H   UNL A   1      43.216  23.657  30.929  1.00  0.00     0.167 HD
ATOM     73  C   UNL A   1      44.305  26.216  33.254  1.00  0.00     0.074 A 
ATOM     74  C   UNL A   1      44.276  26.835  34.566  1.00  0.00     0.031 C 
ATOM     75  C   UNL A   1      44.718  25.004  32.768  1.00  0.00     0.037 A 
BRANCH  62  76
ATOM     76  C   UNL A   1      43.708  22.800  27.117  1.00  0.00     0.058 A 
ATOM     77  C   UNL A   1      42.962  21.622  26.900  1.00  0.00     0.135 A 
ATOM     78  C   UNL A   1      44.828  22.954  26.274  1.00  0.00     0.135 A 
ATOM     79  F   UNL A   1      41.824  21.377  27.561  1.00  0.00    -0.206 F 
ATOM     80  C   UNL A   1      43.355  20.627  26.006  1.00  0.00     0.059 A 
ATOM     81  C   UNL A   1      45.274  21.948  25.409  1.00  0.00     0.059 A 
ATOM     82  F   UNL A   1      45.518  24.105  26.249  1.00  0.00    -0.206 F 
ATOM     83  C   UNL A   1      44.533  20.778  25.290  1.00  0.00     0.060 A 
BRANCH  83  84
ATOM     84  S   UNL A   1      45.079  19.428  24.228  1.00  0.00     0.124 S 
ATOM     85  O   UNL A   1      46.531  19.594  24.237  1.00  0.00    -0.237 OA
ATOM     86  O   UNL A   1      44.571  18.260  24.938  1.00  0.00    -0.237 OA
ATOM     87  O   UNL A   1      44.434  19.718  22.951  1.00  0.00    -0.744 OA
ENDBRANCH  83  84
ENDBRANCH  62  76
BRANCH  63  88
ATOM     88  C   UNL A   1      41.566  30.166  33.077  1.00  0.00     0.058 A 
ATOM     89  C   UNL A   1      41.668  31.568  33.180  1.00  0.00     0.135 A 
ATOM     90  C   UNL A   1      40.280  29.616  32.968  1.00  0.00     0.135 A 
ATOM     91  F   UNL A   1      42.874  32.142  33.317  1.00  0.00    -0.206 F 
ATOM     92  C   UNL A   1      40.573  32.397  32.967  1.00  0.00     0.059 A 
ATOM     93  C   UNL A   1      39.164  30.432  32.766  1.00  0.00     0.059 A 
ATOM     94  F   UNL A   1      40.119  28.288  32.883  1.00  0.00    -0.206 F 
ATOM     95  C   UNL A   1      39.342  31.814  32.671  1.00  0.00     0.060 A 
BRANCH  95  96
ATOM     96  S   UNL A   1      38.044  32.876  31.988  1.00  0.00     0.124 S 
ATOM     97  O   UNL A   1      37.860  33.859  33.050  1.00  0.00    -0.237 OA
ATOM     98  O   UNL A   1      38.674  33.378  30.763  1.00  0.00    -0.237 OA
ATOM     99  O   UNL A   1      36.933  31.953  31.784  1.00  0.00    -0.744 OA
ENDBRANCH  95  96
ENDBRANCH  63  88
BRANCH  75 100
ATOM    100  C   UNL A   1      45.161  23.777  33.552  1.00  0.00     0.058 A 
ATOM    101  C   UNL A   1      46.430  23.600  34.128  1.00  0.00     0.135 A 
ATOM    102  C   UNL A   1      44.226  22.748  33.855  1.00  0.00     0.135 A 
ATOM    103  F   UNL A   1      47.382  24.536  34.032  1.00  0.00    -0.206 F 
ATOM    104  C   UNL A   1      46.768  22.471  34.885  1.00  0.00     0.059 A 
ATOM    105  C   UNL A   1      44.523  21.645  34.655  1.00  0.00     0.059 A 
ATOM    106  F   UNL A   1      42.966  22.779  33.396  1.00  0.00    -0.206 F 
ATOM    107  C   UNL A   1      45.808  21.500  35.145  1.00  0.00     0.060 A 
BRANCH 107 108
ATOM    108  S   UNL A   1      46.216  20.085  36.183  1.00  0.00     0.124 S 
ATOM    109  O   UNL A   1      45.777  20.548  37.495  1.00  0.00    -0.237 OA
ATOM    110  O   UNL A   1      45.418  19.012  35.593  1.00  0.00    -0.237 OA
ATOM    111  O   UNL A   1      47.659  19.946  36.010  1.00  0.00    -0.744 OA
ENDBRANCH 107 108
ENDBRANCH  75 100
ENDBRANCH  49  50
ENDBRANCH  41  44
ENDBRANCH  39  40
ENDBRANCH  38  39
ENDBRANCH   1  38
TORSDOF 21
ENDMDL
MODEL 3
REMARK VINA RESULT:     -13.3      4.707     11.109
REMARK SMILES Cc1ccc(C(c2ccccc2)(c2ccccc2)n2cnc(C[C@H]([NH3+])C(=O)NCCCCNC(=O)c3ccc(-c4c5nc(c(-c6c(F)cc(S(=O)(=O)[O-])cc6F)c6ccc([nH]6)c(-c6c(F)cc(S(=O)(=O)[O-])cc6F)c6nc(c(-c7c(F)cc(S(=O)(=O)[O-])cc7F)c7ccc4[nH]7)C=C6)C=C5)cc3)c2)cc1
REMARK SMILES IDX 30 1 29 2 28 3 26 4 27 5 24 7 23 8 22 9 19 10 20 11 102 12
REMARK SMILES IDX 21 13 6 14 5 15 1 16 2 17 3 18 104 19 4 20 103 21 7 22 8 23
REMARK SMILES IDX 12 24 9 25 11 26 10 27 13 28 14 29 18 30 15 31 17 32 16 33
REMARK SMILES IDX 25 34 31 38 32 39 33 40 34 41 35 43 36 44 37 45 101 46 38 47
REMARK SMILES IDX 100 48 39 49 40 50 41 51 94 52 42 53 99 54 93 55 95 56 43 57
REMARK SMILES IDX 98 58 92 59 91 60 44 62 78 63 57 64 77 65 58 66 61 67 76 68
REMARK SMILES IDX 96 69 59 70 60 71 75 73 97 74 62 75 45 76 46 77 55 78 47 79
REMARK SMILES IDX 48 80 54 81 56 82 49 83 50 84 51 85 52 86 53 87 79 88 80 89
REMARK SMILES IDX 89 90 81 91 82 92 88 93 90 94 83 95 84 96 85 97 86 98 87 99
REMARK SMILES IDX 63 100 64 101 73 102 65 103 66 104 72 105 74 106 67 107
REMARK SMILES IDX 68 108 69 109 70 110 71 111
REMARK H PARENT 28 6 25 35 25 36 25 37 33 42 95 61 61 72
REMARK Flexibility Score: inf
ROOT
ATOM      1  C   UNL A   1      35.854  22.629  25.043  1.00  0.00     0.023 C 
ENDROOT
BRANCH   1   2
ATOM      2  C   UNL A   1      35.455  21.414  25.893  1.00  0.00     0.116 C 
BRANCH   2   3
ATOM      3  N   UNL A   1      34.621  21.770  27.030  1.00  0.00    -0.351 N 
ATOM      4  C   UNL A   1      33.274  21.935  27.175  1.00  0.00     0.278 C 
ATOM      5  O   UNL A   1      32.881  22.391  28.256  1.00  0.00    -0.268 OA
ATOM      6  H   UNL A   1      35.130  21.922  27.860  1.00  0.00     0.163 HD
BRANCH   4   7
ATOM      7  C   UNL A   1      32.280  21.645  26.028  1.00  0.00     0.276 C 
BRANCH   7   8
ATOM      8  C   UNL A   1      30.855  22.163  26.285  1.00  0.00     0.133 C 
BRANCH   8   9
ATOM      9  C   UNL A   1      30.664  23.605  25.960  1.00  0.00     0.065 A 
ATOM     10  N   UNL A   1      30.674  25.585  24.998  1.00  0.00    -0.319 N 
ATOM     11  C   UNL A   1      30.104  25.648  26.250  1.00  0.00     0.201 A 
ATOM     12  C   UNL A   1      30.966  24.256  24.785  1.00  0.00     0.112 A 
ATOM     13  N   UNL A   1      30.100  24.478  26.848  1.00  0.00    -0.241 NA
BRANCH  10  14
ATOM     14  C   UNL A   1      30.964  26.757  24.103  1.00  0.00     0.121 C 
BRANCH  14  15
ATOM     15  C   UNL A   1      31.781  27.848  24.905  1.00  0.00    -0.013 A 
ATOM     16  C   UNL A   1      34.124  30.723  27.185  1.00  0.00     0.044 C 
ATOM     17  C   UNL A   1      33.339  29.732  26.376  1.00  0.00    -0.051 A 
ATOM     18  C   UNL A   1      32.025  30.024  26.003  1.00  0.00     0.004 A 
ATOM     19  C   UNL A   1      33.893  28.513  25.987  1.00  0.00     0.004 A 
ATOM     20  C   UNL A   1      31.258  29.101  25.278  1.00  0.00     0.007 A 
ATOM     21  C   UNL A   1      33.134  27.595  25.254  1.00  0.00     0.007 A 
ENDBRANCH  14  15
BRANCH  14  22
ATOM     22  C   UNL A   1      31.804  26.191  22.869  1.00  0.00    -0.013 A 
ATOM     23  C   UNL A   1      31.317  26.294  21.543  1.00  0.00     0.007 A 
ATOM     24  C   UNL A   1      33.010  25.471  23.017  1.00  0.00     0.007 A 
ATOM     25  C   UNL A   1      32.030  25.805  20.442  1.00  0.00     0.000 A 
ATOM     26  C   UNL A   1      33.720  24.970  21.917  1.00  0.00     0.000 A 
ATOM     27  C   UNL A   1      33.240  25.153  20.628  1.00  0.00     0.000 A 
ENDBRANCH  14  22
BRANCH  14  28
ATOM     28  C   UNL A   1      29.556  27.372  23.656  1.00  0.00    -0.013 A 
ATOM     29  C   UNL A   1      29.468  28.679  23.113  1.00  0.00     0.007 A 
ATOM     30  C   UNL A   1      28.323  26.747  23.945  1.00  0.00     0.007 A 
ATOM     31  C   UNL A   1      28.241  29.301  22.856  1.00  0.00     0.000 A 
ATOM     32  C   UNL A   1      27.094  27.383  23.717  1.00  0.00     0.000 A 
ATOM     33  C   UNL A   1      27.053  28.657  23.170  1.00  0.00     0.000 A 
ENDBRANCH  14  28
ENDBRANCH  10  14
ENDBRANCH   8   9
ENDBRANCH   7   8
BRANCH   7  34
ATOM     34  N   UNL A   1      32.322  20.194  25.687  1.00  0.00    -0.347 N 
ATOM     35  H   UNL A   1      33.257  19.830  25.866  1.00  0.00     0.345 HD
ATOM     36  H   UNL A   1      32.093  20.071  24.700  1.00  0.00     0.345 HD
ATOM     37  H   UNL A   1      31.644  19.690  26.258  1.00  0.00     0.345 HD
ENDBRANCH   7  34
ENDBRANCH   4   7
ENDBRANCH   2   3
ENDBRANCH   1   2
BRANCH   1  38
ATOM     38  C   UNL A   1      36.738  23.671  25.733  1.00  0.00     0.023 C 
BRANCH  38  39
ATOM     39  C   UNL A   1      38.224  23.359  25.707  1.00  0.00     0.116 C 
BRANCH  39  40
ATOM     40  N   UNL A   1      38.840  23.089  26.996  1.00  0.00    -0.352 N 
ATOM     41  C   UNL A   1      39.970  23.819  27.390  1.00  0.00     0.251 C 
ATOM     42  H   UNL A   1      38.466  22.399  27.588  1.00  0.00     0.163 HD
ATOM     43  O   UNL A   1      41.076  23.365  27.521  1.00  0.00    -0.269 OA
BRANCH  41  44
ATOM     44  C   UNL A   1      39.697  25.268  27.587  1.00  0.00     0.039 A 
ATOM     45  C   UNL A   1      40.299  26.220  26.764  1.00  0.00     0.014 A 
ATOM     46  C   UNL A   1      39.020  25.645  28.745  1.00  0.00     0.014 A 
ATOM     47  C   UNL A   1      40.347  27.552  27.188  1.00  0.00     0.010 A 
ATOM     48  C   UNL A   1      39.162  26.934  29.210  1.00  0.00     0.010 A 
ATOM     49  C   UNL A   1      39.846  27.887  28.447  1.00  0.00    -0.014 A 
BRANCH  49  50
ATOM     50  C   UNL A   1      40.045  29.173  29.111  1.00  0.00     0.031 A 
ATOM     51  C   UNL A   1      38.975  30.200  29.117  1.00  0.00     0.074 A 
ATOM     52  C   UNL A   1      41.136  29.364  29.886  1.00  0.00     0.049 A 
ATOM     53  N   UNL A   1      39.178  31.450  29.372  1.00  0.00    -0.248 NA
ATOM     54  C   UNL A   1      37.577  29.899  28.822  1.00  0.00     0.031 C 
ATOM     55  C   UNL A   1      41.306  30.374  30.927  1.00  0.00     0.029 A 
ATOM     56  N   UNL A   1      42.396  28.780  29.764  1.00  0.00    -0.354 N 
ATOM     57  C   UNL A   1      37.952  32.040  29.573  1.00  0.00     0.074 A 
ATOM     58  C   UNL A   1      36.984  31.049  29.160  1.00  0.00     0.031 C 
ATOM     59  C   UNL A   1      42.613  30.527  31.180  1.00  0.00     0.029 A 
ATOM     60  C   UNL A   1      43.337  29.729  30.208  1.00  0.00     0.049 A 
ATOM     61  H   UNL A   1      42.592  27.875  29.430  1.00  0.00     0.167 HD
ATOM     62  C   UNL A   1      37.871  33.248  30.199  1.00  0.00     0.037 A 
ATOM     63  C   UNL A   1      44.301  30.215  29.371  1.00  0.00     0.037 A 
ATOM     64  C   UNL A   1      39.192  33.759  30.556  1.00  0.00     0.049 A 
ATOM     65  C   UNL A   1      44.226  31.706  29.137  1.00  0.00     0.074 A 
ATOM     66  C   UNL A   1      39.912  33.751  31.740  1.00  0.00     0.029 A 
ATOM     67  N   UNL A   1      40.089  34.114  29.556  1.00  0.00    -0.354 N 
ATOM     68  N   UNL A   1      43.190  32.443  29.432  1.00  0.00    -0.248 NA
ATOM     69  C   UNL A   1      45.309  32.493  28.554  1.00  0.00     0.031 C 
ATOM     70  C   UNL A   1      41.255  34.088  31.447  1.00  0.00     0.029 A 
ATOM     71  C   UNL A   1      41.352  34.304  30.084  1.00  0.00     0.049 A 
ATOM     72  H   UNL A   1      39.858  34.216  28.604  1.00  0.00     0.167 HD
ATOM     73  C   UNL A   1      43.423  33.749  29.074  1.00  0.00     0.074 A 
ATOM     74  C   UNL A   1      44.779  33.730  28.560  1.00  0.00     0.031 C 
ATOM     75  C   UNL A   1      42.467  34.716  29.238  1.00  0.00     0.037 A 
BRANCH  62  76
ATOM     76  C   UNL A   1      36.572  33.807  30.736  1.00  0.00     0.058 A 
ATOM     77  C   UNL A   1      35.536  34.218  29.871  1.00  0.00     0.135 A 
ATOM     78  C   UNL A   1      36.310  34.002  32.108  1.00  0.00     0.135 A 
ATOM     79  F   UNL A   1      35.600  34.019  28.549  1.00  0.00    -0.206 F 
ATOM     80  C   UNL A   1      34.388  34.872  30.317  1.00  0.00     0.059 A 
ATOM     81  C   UNL A   1      35.193  34.702  32.577  1.00  0.00     0.059 A 
ATOM     82  F   UNL A   1      37.128  33.494  33.043  1.00  0.00    -0.206 F 
ATOM     83  C   UNL A   1      34.239  35.145  31.669  1.00  0.00     0.060 A 
BRANCH  83  84
ATOM     84  S   UNL A   1      32.803  36.093  32.207  1.00  0.00     0.124 S 
ATOM     85  O   UNL A   1      31.859  35.041  32.577  1.00  0.00    -0.237 OA
ATOM     86  O   UNL A   1      33.349  36.871  33.311  1.00  0.00    -0.237 OA
ATOM     87  O   UNL A   1      32.437  36.858  31.018  1.00  0.00    -0.744 OA
ENDBRANCH  83  84
ENDBRANCH  62  76
BRANCH  63  88
ATOM     88  C   UNL A   1      44.796  29.187  28.413  1.00  0.00     0.058 A 
ATOM     89  C   UNL A   1      45.696  28.230  28.922  1.00  0.00     0.135 A 
ATOM     90  C   UNL A   1      44.046  28.834  27.281  1.00  0.00     0.135 A 
ATOM     91  F   UNL A   1      46.460  28.529  29.985  1.00  0.00    -0.206 F 
ATOM     92  C   UNL A   1      45.696  26.915  28.469  1.00  0.00     0.059 A 
ATOM     93  C   UNL A   1      44.041  27.522  26.802  1.00  0.00     0.059 A 
ATOM     94  F   UNL A   1      43.186  29.711  26.742  1.00  0.00    -0.206 F 
ATOM     95  C   UNL A   1      44.796  26.554  27.469  1.00  0.00     0.060 A 
BRANCH  95  96
ATOM     96  S   UNL A   1      44.506  24.789  27.186  1.00  0.00     0.124 S 
ATOM     97  O   UNL A   1      43.515  24.808  26.116  1.00  0.00    -0.237 OA
ATOM     98  O   UNL A   1      45.841  24.319  26.803  1.00  0.00    -0.237 OA
ATOM     99  O   UNL A   1      44.028  24.319  28.481  1.00  0.00    -0.744 OA
ENDBRANCH  95  96
ENDBRANCH  63  88
BRANCH  75 100
ATOM    100  C   UNL A   1      42.487  36.154  28.737  1.00  0.00     0.058 A 
ATOM    101  C   UNL A   1      43.006  37.250  29.445  1.00  0.00     0.135 A 
ATOM    102  C   UNL A   1      42.065  36.453  27.411  1.00  0.00     0.135 A 
ATOM    103  F   UNL A   1      43.549  37.107  30.661  1.00  0.00    -0.206 F 
ATOM    104  C   UNL A   1      43.046  38.545  28.915  1.00  0.00     0.059 A 
ATOM    105  C   UNL A   1      42.150  37.723  26.842  1.00  0.00     0.059 A 
ATOM    106  F   UNL A   1      41.563  35.513  26.598  1.00  0.00    -0.206 F 
ATOM    107  C   UNL A   1      42.618  38.773  27.612  1.00  0.00     0.060 A 
BRANCH 107 108
ATOM    108  S   UNL A   1      42.739  40.423  26.899  1.00  0.00     0.124 S 
ATOM    109  O   UNL A   1      43.408  41.155  27.970  1.00  0.00    -0.237 OA
ATOM    110  O   UNL A   1      43.537  40.196  25.696  1.00  0.00    -0.237 OA
ATOM    111  O   UNL A   1      41.347  40.787  26.656  1.00  0.00    -0.744 OA
ENDBRANCH 107 108
ENDBRANCH  75 100
ENDBRANCH  49  50
ENDBRANCH  41  44
ENDBRANCH  39  40
ENDBRANCH  38  39
ENDBRANCH   1  38
TORSDOF 21
ENDMDL
