MODEL 1
REMARK VINA RESULT:     -10.1      0.000      0.000
REMARK SMILES CC[C@@](O)(C(=O)NCCCCNC(=O)c1ccc(-c2c3nc(c(-c4c(F)cc(S(=O)(=O)[O-])cc4F)c4ccc([nH]4)c(-c4c(F)cc(S(=O)(=O)[O-])cc4F)c4nc(c(-c5c(F)cc(S(=O)(=O)[O-])cc5F)c5ccc2[nH]5)C=C4)C=C3)cc1)[C@@H]1CCOc2ccccc21
REMARK SMILES IDX 10 1 9 2 8 3 7 4 5 5 6 6 3 8 2 9 1 10 4 11 81 13 82 14 90 15
REMARK SMILES IDX 83 16 85 17 89 18 84 19 86 20 88 21 87 22 11 23 12 24 13 25
REMARK SMILES IDX 14 27 15 28 16 29 80 30 17 31 79 32 18 33 19 34 20 35 73 36
REMARK SMILES IDX 21 37 78 38 72 39 74 40 22 41 77 42 71 43 70 44 23 46 57 47
REMARK SMILES IDX 36 48 56 49 37 50 40 51 55 52 75 53 38 54 39 55 54 57 76 58
REMARK SMILES IDX 41 59 24 60 25 61 34 62 26 63 27 64 33 65 35 66 28 67 29 68
REMARK SMILES IDX 30 69 31 70 32 71 58 72 59 73 68 74 60 75 61 76 67 77 69 78
REMARK SMILES IDX 62 79 63 80 64 81 65 82 66 83 42 84 43 85 52 86 44 87 45 88
REMARK SMILES IDX 51 89 53 90 46 91 47 92 48 93 49 94 50 95
REMARK H PARENT 7 7 4 12 12 26 74 45 40 56
REMARK Flexibility Score: inf
ROOT
ATOM      1  C   UNL A   1      33.261  33.260  28.259  1.00  0.00     0.023 C 
ENDROOT
BRANCH   1   2
ATOM      2  C   UNL A   1      33.744  34.699  28.442  1.00  0.00     0.023 C 
BRANCH   2   3
ATOM      3  C   UNL A   1      34.352  35.005  29.805  1.00  0.00     0.116 C 
BRANCH   3   4
ATOM      4  N   UNL A   1      33.794  34.159  30.844  1.00  0.00    -0.354 N 
ATOM      5  C   UNL A   1      34.423  33.473  31.841  1.00  0.00     0.252 C 
ATOM      6  O   UNL A   1      33.708  32.797  32.587  1.00  0.00    -0.272 OA
ATOM      7  H   UNL A   1      32.814  34.067  30.826  1.00  0.00     0.163 HD
BRANCH   5   8
ATOM      8  C   UNL A   1      35.988  33.485  31.981  1.00  0.00     0.149 C 
BRANCH   8   9
ATOM      9  C   UNL A   1      36.508  32.629  30.793  1.00  0.00     0.043 C 
ATOM     10  C   UNL A   1      37.498  33.283  29.835  1.00  0.00     0.007 C 
ENDBRANCH   8   9
BRANCH   8  11
ATOM     11  O   UNL A   1      36.501  34.820  31.865  1.00  0.00    -0.379 OA
ATOM     12  H   UNL A   1      37.458  34.786  31.711  1.00  0.00     0.212 HD
ENDBRANCH   8  11
BRANCH   8  13
ATOM     13  C   UNL A   1      36.300  32.919  33.425  1.00  0.00     0.068 C 
ATOM     14  C   UNL A   1      36.402  34.096  34.441  1.00  0.00     0.053 C 
ATOM     15  C   UNL A   1      37.553  32.069  33.495  1.00  0.00     0.001 A 
ATOM     16  C   UNL A   1      37.781  34.270  35.060  1.00  0.00     0.230 C 
ATOM     17  C   UNL A   1      38.781  32.681  33.769  1.00  0.00     0.122 A 
ATOM     18  C   UNL A   1      37.532  30.693  33.248  1.00  0.00     0.008 A 
ATOM     19  O   UNL A   1      38.824  34.006  34.113  1.00  0.00    -0.493 OA
ATOM     20  C   UNL A   1      39.977  31.981  33.678  1.00  0.00     0.047 A 
ATOM     21  C   UNL A   1      38.728  29.975  33.184  1.00  0.00     0.001 A 
ATOM     22  C   UNL A   1      39.950  30.622  33.377  1.00  0.00     0.004 A 
ENDBRANCH   8  13
ENDBRANCH   5   8
ENDBRANCH   3   4
ENDBRANCH   2   3
ENDBRANCH   1   2
BRANCH   1  23
ATOM     23  C   UNL A   1      34.354  32.250  27.928  1.00  0.00     0.116 C 
BRANCH  23  24
ATOM     24  N   UNL A   1      33.838  30.899  27.746  1.00  0.00    -0.352 N 
ATOM     25  C   UNL A   1      34.510  29.700  27.799  1.00  0.00     0.251 C 
ATOM     26  H   UNL A   1      32.874  30.836  27.560  1.00  0.00     0.163 HD
ATOM     27  O   UNL A   1      33.955  28.657  27.482  1.00  0.00    -0.269 OA
BRANCH  25  28
ATOM     28  C   UNL A   1      35.926  29.700  28.215  1.00  0.00     0.039 A 
ATOM     29  C   UNL A   1      36.247  29.339  29.525  1.00  0.00     0.014 A 
ATOM     30  C   UNL A   1      36.928  29.978  27.282  1.00  0.00     0.014 A 
ATOM     31  C   UNL A   1      37.586  29.159  29.876  1.00  0.00     0.010 A 
ATOM     32  C   UNL A   1      38.256  29.738  27.617  1.00  0.00     0.010 A 
ATOM     33  C   UNL A   1      38.594  29.305  28.909  1.00  0.00    -0.014 A 
BRANCH  33  34
ATOM     34  C   UNL A   1      40.007  28.953  29.200  1.00  0.00     0.031 A 
ATOM     35  C   UNL A   1      40.957  30.007  29.693  1.00  0.00     0.074 A 
ATOM     36  C   UNL A   1      40.453  27.716  28.901  1.00  0.00     0.049 A 
ATOM     37  N   UNL A   1      42.251  29.934  29.860  1.00  0.00    -0.248 NA
ATOM     38  C   UNL A   1      40.383  31.324  30.011  1.00  0.00     0.031 C 
ATOM     39  C   UNL A   1      39.636  26.628  28.354  1.00  0.00     0.029 A 
ATOM     40  N   UNL A   1      41.712  27.173  28.979  1.00  0.00    -0.354 N 
ATOM     41  C   UNL A   1      42.650  31.199  30.272  1.00  0.00     0.074 A 
ATOM     42  C   UNL A   1      41.466  32.028  30.308  1.00  0.00     0.031 C 
ATOM     43  C   UNL A   1      40.414  25.554  28.142  1.00  0.00     0.029 A 
ATOM     44  C   UNL A   1      41.789  25.885  28.500  1.00  0.00     0.049 A 
ATOM     45  H   UNL A   1      42.486  27.659  29.344  1.00  0.00     0.167 HD
ATOM     46  C   UNL A   1      43.893  31.621  30.604  1.00  0.00     0.037 A 
ATOM     47  C   UNL A   1      42.852  25.073  28.339  1.00  0.00     0.037 A 
ATOM     48  C   UNL A   1      45.056  30.775  30.616  1.00  0.00     0.049 A 
ATOM     49  C   UNL A   1      44.218  25.567  28.733  1.00  0.00     0.074 A 
ATOM     50  C   UNL A   1      46.332  31.078  31.056  1.00  0.00     0.029 A 
ATOM     51  N   UNL A   1      45.087  29.464  30.165  1.00  0.00    -0.354 N 
ATOM     52  N   UNL A   1      44.561  26.735  29.220  1.00  0.00    -0.248 NA
ATOM     53  C   UNL A   1      45.341  24.635  28.555  1.00  0.00     0.031 C 
ATOM     54  C   UNL A   1      47.147  29.964  30.831  1.00  0.00     0.029 A 
ATOM     55  C   UNL A   1      46.370  28.956  30.284  1.00  0.00     0.049 A 
ATOM     56  H   UNL A   1      44.313  28.969  29.812  1.00  0.00     0.167 HD
ATOM     57  C   UNL A   1      45.935  26.675  29.416  1.00  0.00     0.074 A 
ATOM     58  C   UNL A   1      46.359  25.350  29.015  1.00  0.00     0.031 C 
ATOM     59  C   UNL A   1      46.772  27.633  29.882  1.00  0.00     0.037 A 
BRANCH  46  60
ATOM     60  C   UNL A   1      44.070  33.060  30.995  1.00  0.00     0.058 A 
ATOM     61  C   UNL A   1      44.354  34.050  30.043  1.00  0.00     0.135 A 
ATOM     62  C   UNL A   1      43.867  33.463  32.325  1.00  0.00     0.135 A 
ATOM     63  F   UNL A   1      44.573  33.714  28.762  1.00  0.00    -0.206 F 
ATOM     64  C   UNL A   1      44.438  35.392  30.396  1.00  0.00     0.059 A 
ATOM     65  C   UNL A   1      43.925  34.802  32.697  1.00  0.00     0.059 A 
ATOM     66  F   UNL A   1      43.598  32.552  33.274  1.00  0.00    -0.206 F 
ATOM     67  C   UNL A   1      44.215  35.760  31.725  1.00  0.00     0.060 A 
BRANCH  67  68
ATOM     68  S   UNL A   1      44.277  37.512  32.157  1.00  0.00     0.124 S 
ATOM     69  O   UNL A   1      43.332  37.571  33.267  1.00  0.00    -0.237 OA
ATOM     70  O   UNL A   1      45.681  37.697  32.511  1.00  0.00    -0.237 OA
ATOM     71  O   UNL A   1      43.849  38.179  30.932  1.00  0.00    -0.744 OA
ENDBRANCH  67  68
ENDBRANCH  46  60
BRANCH  47  72
ATOM     72  C   UNL A   1      42.678  23.716  27.757  1.00  0.00     0.058 A 
ATOM     73  C   UNL A   1      42.502  22.594  28.579  1.00  0.00     0.135 A 
ATOM     74  C   UNL A   1      42.704  23.512  26.368  1.00  0.00     0.135 A 
ATOM     75  F   UNL A   1      42.477  22.738  29.913  1.00  0.00    -0.206 F 
ATOM     76  C   UNL A   1      42.385  21.313  28.048  1.00  0.00     0.059 A 
ATOM     77  C   UNL A   1      42.566  22.244  25.813  1.00  0.00     0.059 A 
ATOM     78  F   UNL A   1      42.852  24.556  25.538  1.00  0.00    -0.206 F 
ATOM     79  C   UNL A   1      42.424  21.148  26.663  1.00  0.00     0.060 A 
BRANCH  79  80
ATOM     80  S   UNL A   1      42.251  19.486  25.978  1.00  0.00     0.124 S 
ATOM     81  O   UNL A   1      42.701  18.662  27.095  1.00  0.00    -0.237 OA
ATOM     82  O   UNL A   1      40.825  19.422  25.672  1.00  0.00    -0.237 OA
ATOM     83  O   UNL A   1      43.133  19.512  24.815  1.00  0.00    -0.744 OA
ENDBRANCH  79  80
ENDBRANCH  47  72
BRANCH  59  84
ATOM     84  C   UNL A   1      48.228  27.285  29.996  1.00  0.00     0.058 A 
ATOM     85  C   UNL A   1      49.112  27.491  28.926  1.00  0.00     0.135 A 
ATOM     86  C   UNL A   1      48.756  26.808  31.206  1.00  0.00     0.135 A 
ATOM     87  F   UNL A   1      48.652  27.936  27.746  1.00  0.00    -0.206 F 
ATOM     88  C   UNL A   1      50.472  27.229  29.049  1.00  0.00     0.059 A 
ATOM     89  C   UNL A   1      50.116  26.561  31.358  1.00  0.00     0.059 A 
ATOM     90  F   UNL A   1      47.951  26.602  32.261  1.00  0.00    -0.206 F 
ATOM     91  C   UNL A   1      50.966  26.767  30.272  1.00  0.00     0.060 A 
BRANCH  91  92
ATOM     92  S   UNL A   1      52.740  26.483  30.436  1.00  0.00     0.124 S 
ATOM     93  O   UNL A   1      52.771  25.314  31.308  1.00  0.00    -0.237 OA
ATOM     94  O   UNL A   1      53.152  26.255  29.055  1.00  0.00    -0.237 OA
ATOM     95  O   UNL A   1      53.229  27.723  31.032  1.00  0.00    -0.744 OA
ENDBRANCH  91  92
ENDBRANCH  59  84
ENDBRANCH  33  34
ENDBRANCH  25  28
ENDBRANCH  23  24
ENDBRANCH   1  23
TORSDOF 17
ENDMDL
MODEL 2
REMARK VINA RESULT:     -10.0      5.305     12.030
REMARK SMILES CC[C@@](O)(C(=O)NCCCCNC(=O)c1ccc(-c2c3nc(c(-c4c(F)cc(S(=O)(=O)[O-])cc4F)c4ccc([nH]4)c(-c4c(F)cc(S(=O)(=O)[O-])cc4F)c4nc(c(-c5c(F)cc(S(=O)(=O)[O-])cc5F)c5ccc2[nH]5)C=C4)C=C3)cc1)[C@@H]1CCOc2ccccc21
REMARK SMILES IDX 10 1 9 2 8 3 7 4 5 5 6 6 3 8 2 9 1 10 4 11 81 13 82 14 90 15
REMARK SMILES IDX 83 16 85 17 89 18 84 19 86 20 88 21 87 22 11 23 12 24 13 25
REMARK SMILES IDX 14 27 15 28 16 29 80 30 17 31 79 32 18 33 19 34 20 35 73 36
REMARK SMILES IDX 21 37 78 38 72 39 74 40 22 41 77 42 71 43 70 44 23 46 57 47
REMARK SMILES IDX 36 48 56 49 37 50 40 51 55 52 75 53 38 54 39 55 54 57 76 58
REMARK SMILES IDX 41 59 24 60 25 61 34 62 26 63 27 64 33 65 35 66 28 67 29 68
REMARK SMILES IDX 30 69 31 70 32 71 58 72 59 73 68 74 60 75 61 76 67 77 69 78
REMARK SMILES IDX 62 79 63 80 64 81 65 82 66 83 42 84 43 85 52 86 44 87 45 88
REMARK SMILES IDX 51 89 53 90 46 91 47 92 48 93 49 94 50 95
REMARK H PARENT 7 7 4 12 12 26 74 45 40 56
REMARK Flexibility Score: inf
ROOT
ATOM      1  C   UNL A   1      40.025  22.028  26.926  1.00  0.00     0.023 C 
ENDROOT
BRANCH   1   2
ATOM      2  C   UNL A   1      38.815  22.658  26.238  1.00  0.00     0.023 C 
BRANCH   2   3
ATOM      3  C   UNL A   1      37.968  21.694  25.415  1.00  0.00     0.116 C 
BRANCH   3   4
ATOM      4  N   UNL A   1      37.448  22.326  24.217  1.00  0.00    -0.354 N 
ATOM      5  C   UNL A   1      36.157  22.511  23.819  1.00  0.00     0.252 C 
ATOM      6  O   UNL A   1      35.985  23.063  22.728  1.00  0.00    -0.272 OA
ATOM      7  H   UNL A   1      38.130  22.675  23.599  1.00  0.00     0.163 HD
BRANCH   5   8
ATOM      8  C   UNL A   1      34.953  21.977  24.677  1.00  0.00     0.149 C 
BRANCH   8   9
ATOM      9  C   UNL A   1      33.700  22.164  23.778  1.00  0.00     0.043 C 
ATOM     10  C   UNL A   1      32.616  21.095  23.851  1.00  0.00     0.007 C 
ENDBRANCH   8   9
BRANCH   8  11
ATOM     11  O   UNL A   1      35.118  20.584  24.979  1.00  0.00    -0.379 OA
ATOM     12  H   UNL A   1      35.868  20.231  24.475  1.00  0.00     0.212 HD
ENDBRANCH   8  11
BRANCH   8  13
ATOM     13  C   UNL A   1      34.969  22.816  26.018  1.00  0.00     0.068 C 
ATOM     14  C   UNL A   1      34.554  21.908  27.214  1.00  0.00     0.053 C 
ATOM     15  C   UNL A   1      34.090  24.051  25.982  1.00  0.00     0.001 A 
ATOM     16  C   UNL A   1      33.252  22.316  27.887  1.00  0.00     0.230 C 
ATOM     17  C   UNL A   1      32.754  23.952  26.382  1.00  0.00     0.122 A 
ATOM     18  C   UNL A   1      34.559  25.283  25.514  1.00  0.00     0.008 A 
ATOM     19  O   UNL A   1      32.289  22.789  26.937  1.00  0.00    -0.493 OA
ATOM     20  C   UNL A   1      31.863  25.004  26.208  1.00  0.00     0.047 A 
ATOM     21  C   UNL A   1      33.677  26.356  25.364  1.00  0.00     0.001 A 
ATOM     22  C   UNL A   1      32.328  26.211  25.691  1.00  0.00     0.004 A 
ENDBRANCH   8  13
ENDBRANCH   5   8
ENDBRANCH   3   4
ENDBRANCH   2   3
ENDBRANCH   1   2
BRANCH   1  23
ATOM     23  C   UNL A   1      41.188  22.981  27.184  1.00  0.00     0.116 C 
BRANCH  23  24
ATOM     24  N   UNL A   1      41.438  23.882  26.066  1.00  0.00    -0.352 N 
ATOM     25  C   UNL A   1      41.524  25.255  26.062  1.00  0.00     0.251 C 
ATOM     26  H   UNL A   1      41.564  23.447  25.193  1.00  0.00     0.163 HD
ATOM     27  O   UNL A   1      41.599  25.873  25.009  1.00  0.00    -0.269 OA
BRANCH  25  28
ATOM     28  C   UNL A   1      41.492  25.970  27.352  1.00  0.00     0.039 A 
ATOM     29  C   UNL A   1      42.639  26.635  27.787  1.00  0.00     0.014 A 
ATOM     30  C   UNL A   1      40.301  26.043  28.080  1.00  0.00     0.014 A 
ATOM     31  C   UNL A   1      42.566  27.463  28.909  1.00  0.00     0.010 A 
ATOM     32  C   UNL A   1      40.216  26.916  29.160  1.00  0.00     0.010 A 
ATOM     33  C   UNL A   1      41.341  27.649  29.569  1.00  0.00    -0.014 A 
BRANCH  33  34
ATOM     34  C   UNL A   1      41.186  28.651  30.654  1.00  0.00     0.031 A 
ATOM     35  C   UNL A   1      41.994  28.525  31.913  1.00  0.00     0.074 A 
ATOM     36  C   UNL A   1      40.231  29.597  30.546  1.00  0.00     0.049 A 
ATOM     37  N   UNL A   1      41.896  29.206  33.025  1.00  0.00    -0.248 NA
ATOM     38  C   UNL A   1      43.026  27.475  31.939  1.00  0.00     0.031 C 
ATOM     39  C   UNL A   1      39.340  29.776  29.395  1.00  0.00     0.029 A 
ATOM     40  N   UNL A   1      39.823  30.566  31.430  1.00  0.00    -0.354 N 
ATOM     41  C   UNL A   1      42.829  28.650  33.891  1.00  0.00     0.074 A 
ATOM     42  C   UNL A   1      43.468  27.561  33.186  1.00  0.00     0.031 C 
ATOM     43  C   UNL A   1      38.490  30.786  29.647  1.00  0.00     0.029 A 
ATOM     44  C   UNL A   1      38.747  31.301  30.987  1.00  0.00     0.049 A 
ATOM     45  H   UNL A   1      40.260  30.719  32.299  1.00  0.00     0.167 HD
ATOM     46  C   UNL A   1      43.132  29.029  35.155  1.00  0.00     0.037 A 
ATOM     47  C   UNL A   1      38.030  32.261  31.603  1.00  0.00     0.037 A 
ATOM     48  C   UNL A   1      42.528  30.147  35.828  1.00  0.00     0.049 A 
ATOM     49  C   UNL A   1      38.403  32.671  33.002  1.00  0.00     0.074 A 
ATOM     50  C   UNL A   1      42.856  30.685  37.060  1.00  0.00     0.029 A 
ATOM     51  N   UNL A   1      41.471  30.895  35.332  1.00  0.00    -0.354 N 
ATOM     52  N   UNL A   1      39.358  32.203  33.768  1.00  0.00    -0.248 NA
ATOM     53  C   UNL A   1      37.601  33.736  33.621  1.00  0.00     0.031 C 
ATOM     54  C   UNL A   1      41.968  31.732  37.329  1.00  0.00     0.029 A 
ATOM     55  C   UNL A   1      41.112  31.868  36.249  1.00  0.00     0.049 A 
ATOM     56  H   UNL A   1      41.041  30.754  34.458  1.00  0.00     0.167 HD
ATOM     57  C   UNL A   1      39.279  32.923  34.954  1.00  0.00     0.074 A 
ATOM     58  C   UNL A   1      38.197  33.872  34.798  1.00  0.00     0.031 C 
ATOM     59  C   UNL A   1      40.033  32.806  36.074  1.00  0.00     0.037 A 
BRANCH  46  60
ATOM     60  C   UNL A   1      44.171  28.241  35.899  1.00  0.00     0.058 A 
ATOM     61  C   UNL A   1      45.516  28.638  35.923  1.00  0.00     0.135 A 
ATOM     62  C   UNL A   1      43.800  27.126  36.667  1.00  0.00     0.135 A 
ATOM     63  F   UNL A   1      45.925  29.688  35.193  1.00  0.00    -0.206 F 
ATOM     64  C   UNL A   1      46.461  27.953  36.679  1.00  0.00     0.059 A 
ATOM     65  C   UNL A   1      44.723  26.438  37.447  1.00  0.00     0.059 A 
ATOM     66  F   UNL A   1      42.525  26.704  36.673  1.00  0.00    -0.206 F 
ATOM     67  C   UNL A   1      46.053  26.857  37.444  1.00  0.00     0.060 A 
BRANCH  67  68
ATOM     68  S   UNL A   1      47.282  26.009  38.458  1.00  0.00     0.124 S 
ATOM     69  O   UNL A   1      47.190  24.645  37.947  1.00  0.00    -0.237 OA
ATOM     70  O   UNL A   1      48.510  26.727  38.127  1.00  0.00    -0.237 OA
ATOM     71  O   UNL A   1      46.793  26.204  39.819  1.00  0.00    -0.744 OA
ENDBRANCH  67  68
ENDBRANCH  46  60
BRANCH  47  72
ATOM     72  C   UNL A   1      36.871  32.889  30.915  1.00  0.00     0.058 A 
ATOM     73  C   UNL A   1      37.054  33.930  29.994  1.00  0.00     0.135 A 
ATOM     74  C   UNL A   1      35.556  32.474  31.181  1.00  0.00     0.135 A 
ATOM     75  F   UNL A   1      38.292  34.365  29.713  1.00  0.00    -0.206 F 
ATOM     76  C   UNL A   1      35.976  34.557  29.379  1.00  0.00     0.059 A 
ATOM     77  C   UNL A   1      34.463  33.070  30.561  1.00  0.00     0.059 A 
ATOM     78  F   UNL A   1      35.329  31.470  32.041  1.00  0.00    -0.206 F 
ATOM     79  C   UNL A   1      34.682  34.123  29.674  1.00  0.00     0.060 A 
BRANCH  79  80
ATOM     80  S   UNL A   1      33.286  34.927  28.857  1.00  0.00     0.124 S 
ATOM     81  O   UNL A   1      32.446  35.279  29.996  1.00  0.00    -0.237 OA
ATOM     82  O   UNL A   1      33.929  36.042  28.169  1.00  0.00    -0.237 OA
ATOM     83  O   UNL A   1      32.763  33.879  27.985  1.00  0.00    -0.744 OA
ENDBRANCH  79  80
ENDBRANCH  47  72
BRANCH  59  84
ATOM     84  C   UNL A   1      39.724  33.730  37.217  1.00  0.00     0.058 A 
ATOM     85  C   UNL A   1      38.830  33.359  38.232  1.00  0.00     0.135 A 
ATOM     86  C   UNL A   1      40.380  34.966  37.333  1.00  0.00     0.135 A 
ATOM     87  F   UNL A   1      38.171  32.192  38.159  1.00  0.00    -0.206 F 
ATOM     88  C   UNL A   1      38.590  34.187  39.323  1.00  0.00     0.059 A 
ATOM     89  C   UNL A   1      40.172  35.798  38.427  1.00  0.00     0.059 A 
ATOM     90  F   UNL A   1      41.251  35.361  36.391  1.00  0.00    -0.206 F 
ATOM     91  C   UNL A   1      39.270  35.404  39.414  1.00  0.00     0.060 A 
BRANCH  91  92
ATOM     92  S   UNL A   1      38.991  36.444  40.862  1.00  0.00     0.124 S 
ATOM     93  O   UNL A   1      40.320  36.475  41.463  1.00  0.00    -0.237 OA
ATOM     94  O   UNL A   1      38.536  37.697  40.267  1.00  0.00    -0.237 OA
ATOM     95  O   UNL A   1      37.978  35.711  41.616  1.00  0.00    -0.744 OA
ENDBRANCH  91  92
ENDBRANCH  59  84
ENDBRANCH  33  34
ENDBRANCH  25  28
ENDBRANCH  23  24
ENDBRANCH   1  23
TORSDOF 17
ENDMDL
MODEL 3
REMARK VINA RESULT:     -10.0      3.253      6.281
REMARK SMILES CC[C@@](O)(C(=O)NCCCCNC(=O)c1ccc(-c2c3nc(c(-c4c(F)cc(S(=O)(=O)[O-])cc4F)c4ccc([nH]4)c(-c4c(F)cc(S(=O)(=O)[O-])cc4F)c4nc(c(-c5c(F)cc(S(=O)(=O)[O-])cc5F)c5ccc2[nH]5)C=C4)C=C3)cc1)[C@@H]1CCOc2ccccc21
REMARK SMILES IDX 10 1 9 2 8 3 7 4 5 5 6 6 3 8 2 9 1 10 4 11 81 13 82 14 90 15
REMARK SMILES IDX 83 16 85 17 89 18 84 19 86 20 88 21 87 22 11 23 12 24 13 25
REMARK SMILES IDX 14 27 15 28 16 29 80 30 17 31 79 32 18 33 19 34 20 35 73 36
REMARK SMILES IDX 21 37 78 38 72 39 74 40 22 41 77 42 71 43 70 44 23 46 57 47
REMARK SMILES IDX 36 48 56 49 37 50 40 51 55 52 75 53 38 54 39 55 54 57 76 58
REMARK SMILES IDX 41 59 24 60 25 61 34 62 26 63 27 64 33 65 35 66 28 67 29 68
REMARK SMILES IDX 30 69 31 70 32 71 58 72 59 73 68 74 60 75 61 76 67 77 69 78
REMARK SMILES IDX 62 79 63 80 64 81 65 82 66 83 42 84 43 85 52 86 44 87 45 88
REMARK SMILES IDX 51 89 53 90 46 91 47 92 48 93 49 94 50 95
REMARK H PARENT 7 7 4 12 12 26 74 45 40 56
REMARK Flexibility Score: inf
ROOT
ATOM      1  C   UNL A   1      32.212  28.337  26.556  1.00  0.00     0.023 C 
ENDROOT
BRANCH   1   2
ATOM      2  C   UNL A   1      31.923  28.557  25.072  1.00  0.00     0.023 C 
BRANCH   2   3
ATOM      3  C   UNL A   1      31.543  27.301  24.297  1.00  0.00     0.116 C 
BRANCH   3   4
ATOM      4  N   UNL A   1      32.513  26.995  23.263  1.00  0.00    -0.354 N 
ATOM      5  C   UNL A   1      33.133  25.816  22.969  1.00  0.00     0.252 C 
ATOM      6  O   UNL A   1      33.947  25.832  22.041  1.00  0.00    -0.272 OA
ATOM      7  H   UNL A   1      32.761  27.753  22.685  1.00  0.00     0.163 HD
BRANCH   5   8
ATOM      8  C   UNL A   1      32.874  24.522  23.823  1.00  0.00     0.149 C 
BRANCH   8   9
ATOM      9  C   UNL A   1      33.613  24.770  25.167  1.00  0.00     0.043 C 
ATOM     10  C   UNL A   1      32.843  24.494  26.455  1.00  0.00     0.007 C 
ENDBRANCH   8   9
BRANCH   8  11
ATOM     11  O   UNL A   1      31.473  24.347  24.076  1.00  0.00    -0.379 OA
ATOM     12  H   UNL A   1      31.058  25.215  24.205  1.00  0.00     0.212 HD
ENDBRANCH   8  11
BRANCH   8  13
ATOM     13  C   UNL A   1      33.412  23.314  22.955  1.00  0.00     0.068 C 
ATOM     14  C   UNL A   1      32.256  22.307  22.680  1.00  0.00     0.053 C 
ATOM     15  C   UNL A   1      34.590  22.587  23.575  1.00  0.00     0.001 A 
ATOM     16  C   UNL A   1      32.459  20.934  23.304  1.00  0.00     0.230 C 
ATOM     17  C   UNL A   1      34.354  21.508  24.432  1.00  0.00     0.122 A 
ATOM     18  C   UNL A   1      35.911  22.991  23.354  1.00  0.00     0.008 A 
ATOM     19  O   UNL A   1      33.082  21.025  24.592  1.00  0.00    -0.493 OA
ATOM     20  C   UNL A   1      35.381  20.918  25.157  1.00  0.00     0.047 A 
ATOM     21  C   UNL A   1      36.954  22.382  24.057  1.00  0.00     0.001 A 
ATOM     22  C   UNL A   1      36.688  21.363  24.972  1.00  0.00     0.004 A 
ENDBRANCH   8  13
ENDBRANCH   5   8
ENDBRANCH   3   4
ENDBRANCH   2   3
ENDBRANCH   1   2
BRANCH   1  23
ATOM     23  C   UNL A   1      33.594  28.788  27.018  1.00  0.00     0.116 C 
BRANCH  23  24
ATOM     24  N   UNL A   1      33.583  30.115  27.622  1.00  0.00    -0.352 N 
ATOM     25  C   UNL A   1      34.558  30.738  28.364  1.00  0.00     0.251 C 
ATOM     26  H   UNL A   1      32.762  30.638  27.477  1.00  0.00     0.163 HD
ATOM     27  O   UNL A   1      34.335  31.804  28.922  1.00  0.00    -0.269 OA
BRANCH  25  28
ATOM     28  C   UNL A   1      35.872  30.079  28.503  1.00  0.00     0.039 A 
ATOM     29  C   UNL A   1      36.744  30.073  27.413  1.00  0.00     0.014 A 
ATOM     30  C   UNL A   1      36.258  29.544  29.734  1.00  0.00     0.014 A 
ATOM     31  C   UNL A   1      38.052  29.617  27.588  1.00  0.00     0.010 A 
ATOM     32  C   UNL A   1      37.578  29.149  29.921  1.00  0.00     0.010 A 
ATOM     33  C   UNL A   1      38.492  29.203  28.856  1.00  0.00    -0.014 A 
BRANCH  33  34
ATOM     34  C   UNL A   1      39.916  28.878  29.118  1.00  0.00     0.031 A 
ATOM     35  C   UNL A   1      40.859  29.952  29.579  1.00  0.00     0.074 A 
ATOM     36  C   UNL A   1      40.376  27.645  28.820  1.00  0.00     0.049 A 
ATOM     37  N   UNL A   1      42.158  29.902  29.717  1.00  0.00    -0.248 NA
ATOM     38  C   UNL A   1      40.270  31.263  29.898  1.00  0.00     0.031 C 
ATOM     39  C   UNL A   1      39.566  26.539  28.302  1.00  0.00     0.029 A 
ATOM     40  N   UNL A   1      41.646  27.124  28.874  1.00  0.00    -0.354 N 
ATOM     41  C   UNL A   1      42.545  31.178  30.108  1.00  0.00     0.074 A 
ATOM     42  C   UNL A   1      41.348  31.987  30.163  1.00  0.00     0.031 C 
ATOM     43  C   UNL A   1      40.357  25.476  28.083  1.00  0.00     0.029 A 
ATOM     44  C   UNL A   1      41.734  25.833  28.405  1.00  0.00     0.049 A 
ATOM     45  H   UNL A   1      42.420  27.627  29.217  1.00  0.00     0.167 HD
ATOM     46  C   UNL A   1      43.787  31.624  30.407  1.00  0.00     0.037 A 
ATOM     47  C   UNL A   1      42.807  25.038  28.228  1.00  0.00     0.037 A 
ATOM     48  C   UNL A   1      44.964  30.798  30.401  1.00  0.00     0.049 A 
ATOM     49  C   UNL A   1      44.172  25.558  28.586  1.00  0.00     0.074 A 
ATOM     50  C   UNL A   1      46.245  31.126  30.808  1.00  0.00     0.029 A 
ATOM     51  N   UNL A   1      45.008  29.483  29.961  1.00  0.00    -0.354 N 
ATOM     52  N   UNL A   1      44.506  26.737  29.053  1.00  0.00    -0.248 NA
ATOM     53  C   UNL A   1      45.306  24.644  28.391  1.00  0.00     0.031 C 
ATOM     54  C   UNL A   1      47.074  30.024  30.574  1.00  0.00     0.029 A 
ATOM     55  C   UNL A   1      46.301  28.998  30.055  1.00  0.00     0.049 A 
ATOM     56  H   UNL A   1      44.235  28.972  29.631  1.00  0.00     0.167 HD
ATOM     57  C   UNL A   1      45.886  26.702  29.218  1.00  0.00     0.074 A 
ATOM     58  C   UNL A   1      46.323  25.380  28.820  1.00  0.00     0.031 C 
ATOM     59  C   UNL A   1      46.717  27.678  29.657  1.00  0.00     0.037 A 
BRANCH  46  60
ATOM     60  C   UNL A   1      43.949  33.069  30.781  1.00  0.00     0.058 A 
ATOM     61  C   UNL A   1      43.911  33.491  32.118  1.00  0.00     0.135 A 
ATOM     62  C   UNL A   1      44.230  34.029  29.795  1.00  0.00     0.135 A 
ATOM     63  F   UNL A   1      43.629  32.615  33.096  1.00  0.00    -0.206 F 
ATOM     64  C   UNL A   1      44.141  34.817  32.467  1.00  0.00     0.059 A 
ATOM     65  C   UNL A   1      44.484  35.357  30.123  1.00  0.00     0.059 A 
ATOM     66  F   UNL A   1      44.273  33.676  28.501  1.00  0.00    -0.206 F 
ATOM     67  C   UNL A   1      44.434  35.742  31.462  1.00  0.00     0.060 A 
BRANCH  67  68
ATOM     68  S   UNL A   1      44.780  37.449  31.937  1.00  0.00     0.124 S 
ATOM     69  O   UNL A   1      44.209  37.499  33.279  1.00  0.00    -0.237 OA
ATOM     70  O   UNL A   1      46.236  37.505  31.867  1.00  0.00    -0.237 OA
ATOM     71  O   UNL A   1      44.076  38.232  30.926  1.00  0.00    -0.744 OA
ENDBRANCH  67  68
ENDBRANCH  46  60
BRANCH  47  72
ATOM     72  C   UNL A   1      42.642  23.672  27.662  1.00  0.00     0.058 A 
ATOM     73  C   UNL A   1      42.402  22.570  28.494  1.00  0.00     0.135 A 
ATOM     74  C   UNL A   1      42.743  23.441  26.281  1.00  0.00     0.135 A 
ATOM     75  F   UNL A   1      42.304  22.741  29.822  1.00  0.00    -0.206 F 
ATOM     76  C   UNL A   1      42.292  21.281  27.982  1.00  0.00     0.059 A 
ATOM     77  C   UNL A   1      42.614  22.164  25.743  1.00  0.00     0.059 A 
ATOM     78  F   UNL A   1      42.955  24.466  25.441  1.00  0.00    -0.206 F 
ATOM     79  C   UNL A   1      42.406  21.088  26.604  1.00  0.00     0.060 A 
BRANCH  79  80
ATOM     80  S   UNL A   1      42.244  19.415  25.943  1.00  0.00     0.124 S 
ATOM     81  O   UNL A   1      42.753  18.613  27.049  1.00  0.00    -0.237 OA
ATOM     82  O   UNL A   1      40.810  19.318  25.691  1.00  0.00    -0.237 OA
ATOM     83  O   UNL A   1      43.081  19.448  24.747  1.00  0.00    -0.744 OA
ENDBRANCH  79  80
ENDBRANCH  47  72
BRANCH  59  84
ATOM     84  C   UNL A   1      48.181  27.356  29.740  1.00  0.00     0.058 A 
ATOM     85  C   UNL A   1      49.060  27.686  28.697  1.00  0.00     0.135 A 
ATOM     86  C   UNL A   1      48.719  26.776  30.899  1.00  0.00     0.135 A 
ATOM     87  F   UNL A   1      48.590  28.233  27.565  1.00  0.00    -0.206 F 
ATOM     88  C   UNL A   1      50.425  27.446  28.798  1.00  0.00     0.059 A 
ATOM     89  C   UNL A   1      50.085  26.547  31.030  1.00  0.00     0.059 A 
ATOM     90  F   UNL A   1      47.920  26.449  31.927  1.00  0.00    -0.206 F 
ATOM     91  C   UNL A   1      50.930  26.879  29.972  1.00  0.00     0.060 A 
BRANCH  91  92
ATOM     92  S   UNL A   1      52.710  26.623  30.113  1.00  0.00     0.124 S 
ATOM     93  O   UNL A   1      53.051  26.174  28.767  1.00  0.00    -0.237 OA
ATOM     94  O   UNL A   1      53.192  27.951  30.479  1.00  0.00    -0.237 OA
ATOM     95  O   UNL A   1      52.825  25.611  31.160  1.00  0.00    -0.744 OA
ENDBRANCH  91  92
ENDBRANCH  59  84
ENDBRANCH  33  34
ENDBRANCH  25  28
ENDBRANCH  23  24
ENDBRANCH   1  23
TORSDOF 17
ENDMDL
