MODEL 1
REMARK VINA RESULT:     -12.0      0.000      0.000
REMARK SMILES O=C(Cn1cnnn1)Nc1cccc(F)c1C(=O)NCCCCNC(=O)c1ccc(-c2c3nc(c(-c4c(F)cc(S(=O)(=O)[O-])cc4F)c4ccc([nH]4)c(-c4c(F)cc(S(=O)(=O)[O-])cc4F)c4nc(c(-c5c(F)cc(S(=O)(=O)[O-])cc5F)c5ccc2[nH]5)C=C4)C=C3)cc1
REMARK SMILES IDX 21 1 20 2 19 3 17 4 18 5 16 7 10 8 11 9 12 10 14 11 13 12
REMARK SMILES IDX 15 13 9 14 1 15 2 16 3 18 4 19 5 20 8 21 6 22 7 23 22 24
REMARK SMILES IDX 23 25 24 26 25 27 26 29 27 30 28 31 92 32 29 33 91 34 30 35
REMARK SMILES IDX 31 36 32 37 85 38 33 39 90 40 84 41 86 42 34 43 89 44 83 45
REMARK SMILES IDX 82 46 35 48 69 49 48 50 68 51 49 52 52 53 67 54 87 55 50 56
REMARK SMILES IDX 51 57 66 59 88 60 53 61 36 62 37 63 46 64 38 65 39 66 45 67
REMARK SMILES IDX 47 68 40 69 41 70 42 71 43 72 44 73 70 74 71 75 80 76 72 77
REMARK SMILES IDX 73 78 79 79 81 80 74 81 75 82 76 83 77 84 78 85 54 86 55 87
REMARK SMILES IDX 64 88 56 89 57 90 63 91 65 92 58 93 59 94 60 95 61 96 62 97
REMARK H PARENT 19 6 9 17 24 28 86 47 52 58
REMARK Flexibility Score: inf
ROOT
ATOM      1  C   UNL A   1      35.001  30.700  27.960  1.00  0.00     0.023 C 
ENDROOT
BRANCH   1   2
ATOM      2  C   UNL A   1      34.582  29.496  27.113  1.00  0.00     0.116 C 
BRANCH   2   3
ATOM      3  N   UNL A   1      33.433  28.782  27.642  1.00  0.00    -0.352 N 
ATOM      4  C   UNL A   1      32.212  28.357  27.177  1.00  0.00     0.256 C 
ATOM      5  O   UNL A   1      31.496  27.865  28.058  1.00  0.00    -0.269 OA
ATOM      6  H   UNL A   1      33.565  28.536  28.585  1.00  0.00     0.163 HD
BRANCH   4   7
ATOM      7  C   UNL A   1      31.611  28.506  25.807  1.00  0.00     0.099 A 
ATOM      8  C   UNL A   1      31.347  27.337  25.034  1.00  0.00     0.057 A 
ATOM      9  C   UNL A   1      30.525  27.416  23.892  1.00  0.00     0.027 A 
ATOM     10  C   UNL A   1      30.055  28.634  23.424  1.00  0.00     0.005 A 
ATOM     11  C   UNL A   1      31.281  29.718  25.195  1.00  0.00     0.138 A 
ATOM     12  C   UNL A   1      30.483  29.789  24.047  1.00  0.00     0.040 A 
ATOM     13  F   UNL A   1      31.817  30.882  25.563  1.00  0.00    -0.206 F 
BRANCH   8  14
ATOM     14  N   UNL A   1      31.954  26.086  25.352  1.00  0.00    -0.324 N 
ATOM     15  O   UNL A   1      33.916  26.313  24.134  1.00  0.00    -0.273 OA
ATOM     16  C   UNL A   1      33.181  25.652  24.872  1.00  0.00     0.246 C 
ATOM     17  H   UNL A   1      31.465  25.485  25.959  1.00  0.00     0.170 HD
BRANCH  16  18
ATOM     18  C   UNL A   1      33.559  24.220  25.173  1.00  0.00     0.248 C 
BRANCH  18  19
ATOM     19  N   UNL A   1      33.058  23.644  26.395  1.00  0.00    -0.223 N 
ATOM     20  C   UNL A   1      33.779  22.930  27.302  1.00  0.00     0.246 A 
ATOM     21  N   UNL A   1      31.754  23.537  26.672  1.00  0.00    -0.045 NA
ATOM     22  N   UNL A   1      32.946  22.380  28.152  1.00  0.00    -0.117 NA
ATOM     23  N   UNL A   1      31.693  22.784  27.762  1.00  0.00    -0.024 NA
ENDBRANCH  18  19
ENDBRANCH  16  18
ENDBRANCH   8  14
ENDBRANCH   4   7
ENDBRANCH   2   3
ENDBRANCH   1   2
BRANCH   1  24
ATOM     24  C   UNL A   1      34.036  31.890  28.002  1.00  0.00     0.023 C 
BRANCH  24  25
ATOM     25  C   UNL A   1      34.686  33.247  28.254  1.00  0.00     0.116 C 
BRANCH  25  26
ATOM     26  N   UNL A   1      34.203  33.916  29.462  1.00  0.00    -0.352 N 
ATOM     27  C   UNL A   1      34.524  33.614  30.779  1.00  0.00     0.251 C 
ATOM     28  H   UNL A   1      33.580  34.665  29.327  1.00  0.00     0.163 HD
ATOM     29  O   UNL A   1      33.809  33.963  31.699  1.00  0.00    -0.269 OA
BRANCH  27  30
ATOM     30  C   UNL A   1      35.771  32.868  31.033  1.00  0.00     0.039 A 
ATOM     31  C   UNL A   1      35.767  31.502  31.337  1.00  0.00     0.014 A 
ATOM     32  C   UNL A   1      36.964  33.571  30.903  1.00  0.00     0.014 A 
ATOM     33  C   UNL A   1      36.986  30.828  31.419  1.00  0.00     0.010 A 
ATOM     34  C   UNL A   1      38.148  32.883  30.841  1.00  0.00     0.010 A 
ATOM     35  C   UNL A   1      38.173  31.523  31.150  1.00  0.00    -0.014 A 
BRANCH  35  36
ATOM     36  C   UNL A   1      39.457  30.831  31.034  1.00  0.00     0.031 A 
ATOM     37  C   UNL A   1      40.133  30.562  32.342  1.00  0.00     0.074 A 
ATOM     38  C   UNL A   1      39.811  30.218  29.880  1.00  0.00     0.049 A 
ATOM     39  N   UNL A   1      41.308  30.932  32.738  1.00  0.00    -0.248 NA
ATOM     40  C   UNL A   1      39.340  29.908  33.402  1.00  0.00     0.031 C 
ATOM     41  C   UNL A   1      39.031  30.137  28.635  1.00  0.00     0.029 A 
ATOM     42  N   UNL A   1      40.863  29.401  29.609  1.00  0.00    -0.354 N 
ATOM     43  C   UNL A   1      41.490  30.345  33.993  1.00  0.00     0.074 A 
ATOM     44  C   UNL A   1      40.187  29.928  34.432  1.00  0.00     0.031 C 
ATOM     45  C   UNL A   1      39.492  29.120  27.874  1.00  0.00     0.029 A 
ATOM     46  C   UNL A   1      40.697  28.594  28.483  1.00  0.00     0.049 A 
ATOM     47  H   UNL A   1      41.677  29.379  30.163  1.00  0.00     0.167 HD
ATOM     48  C   UNL A   1      42.730  30.001  34.446  1.00  0.00     0.037 A 
ATOM     49  C   UNL A   1      41.468  27.539  28.113  1.00  0.00     0.037 A 
ATOM     50  C   UNL A   1      43.756  30.691  33.705  1.00  0.00     0.049 A 
ATOM     51  C   UNL A   1      42.751  27.674  28.852  1.00  0.00     0.074 A 
ATOM     52  C   UNL A   1      44.053  32.020  33.467  1.00  0.00     0.029 A 
ATOM     53  N   UNL A   1      44.440  29.981  32.749  1.00  0.00    -0.354 N 
ATOM     54  N   UNL A   1      43.597  28.655  28.678  1.00  0.00    -0.248 NA
ATOM     55  C   UNL A   1      42.868  26.965  30.116  1.00  0.00     0.031 C 
ATOM     56  C   UNL A   1      44.471  32.063  32.105  1.00  0.00     0.029 A 
ATOM     57  C   UNL A   1      44.489  30.755  31.619  1.00  0.00     0.049 A 
ATOM     58  H   UNL A   1      44.823  29.080  32.857  1.00  0.00     0.167 HD
ATOM     59  C   UNL A   1      44.050  28.961  29.953  1.00  0.00     0.074 A 
ATOM     60  C   UNL A   1      43.625  27.836  30.785  1.00  0.00     0.031 C 
ATOM     61  C   UNL A   1      44.467  30.221  30.273  1.00  0.00     0.037 A 
BRANCH  48  62
ATOM     62  C   UNL A   1      43.028  28.767  35.281  1.00  0.00     0.058 A 
ATOM     63  C   UNL A   1      42.849  27.438  34.835  1.00  0.00     0.135 A 
ATOM     64  C   UNL A   1      43.789  28.902  36.464  1.00  0.00     0.135 A 
ATOM     65  F   UNL A   1      42.223  27.137  33.692  1.00  0.00    -0.206 F 
ATOM     66  C   UNL A   1      43.388  26.337  35.491  1.00  0.00     0.059 A 
ATOM     67  C   UNL A   1      44.387  27.814  37.108  1.00  0.00     0.059 A 
ATOM     68  F   UNL A   1      44.034  30.116  36.985  1.00  0.00    -0.206 F 
ATOM     69  C   UNL A   1      44.185  26.535  36.606  1.00  0.00     0.060 A 
BRANCH  69  70
ATOM     70  S   UNL A   1      45.012  25.099  37.308  1.00  0.00     0.124 S 
ATOM     71  O   UNL A   1      46.413  25.411  37.040  1.00  0.00    -0.237 OA
ATOM     72  O   UNL A   1      44.601  25.169  38.706  1.00  0.00    -0.237 OA
ATOM     73  O   UNL A   1      44.458  23.985  36.546  1.00  0.00    -0.744 OA
ENDBRANCH  69  70
ENDBRANCH  48  62
BRANCH  49  74
ATOM     74  C   UNL A   1      41.047  26.248  27.492  1.00  0.00     0.058 A 
ATOM     75  C   UNL A   1      40.015  25.459  28.041  1.00  0.00     0.135 A 
ATOM     76  C   UNL A   1      41.856  25.617  26.527  1.00  0.00     0.135 A 
ATOM     77  F   UNL A   1      39.201  25.944  28.989  1.00  0.00    -0.206 F 
ATOM     78  C   UNL A   1      39.841  24.115  27.709  1.00  0.00     0.059 A 
ATOM     79  C   UNL A   1      41.705  24.267  26.182  1.00  0.00     0.059 A 
ATOM     80  F   UNL A   1      42.866  26.289  25.953  1.00  0.00    -0.206 F 
ATOM     81  C   UNL A   1      40.713  23.515  26.806  1.00  0.00     0.060 A 
BRANCH  81  82
ATOM     82  S   UNL A   1      40.578  21.730  26.545  1.00  0.00     0.124 S 
ATOM     83  O   UNL A   1      39.268  21.619  25.911  1.00  0.00    -0.237 OA
ATOM     84  O   UNL A   1      41.723  21.459  25.680  1.00  0.00    -0.237 OA
ATOM     85  O   UNL A   1      40.672  21.178  27.892  1.00  0.00    -0.744 OA
ENDBRANCH  81  82
ENDBRANCH  49  74
BRANCH  61  86
ATOM     86  C   UNL A   1      44.718  31.210  29.160  1.00  0.00     0.058 A 
ATOM     87  C   UNL A   1      43.657  32.045  28.784  1.00  0.00     0.135 A 
ATOM     88  C   UNL A   1      45.870  31.238  28.352  1.00  0.00     0.135 A 
ATOM     89  F   UNL A   1      42.509  32.029  29.482  1.00  0.00    -0.206 F 
ATOM     90  C   UNL A   1      43.720  32.859  27.657  1.00  0.00     0.059 A 
ATOM     91  C   UNL A   1      45.970  32.074  27.235  1.00  0.00     0.059 A 
ATOM     92  F   UNL A   1      46.896  30.409  28.581  1.00  0.00    -0.206 F 
ATOM     93  C   UNL A   1      44.880  32.869  26.887  1.00  0.00     0.060 A 
BRANCH  93  94
ATOM     94  S   UNL A   1      44.911  33.916  25.417  1.00  0.00     0.124 S 
ATOM     95  O   UNL A   1      44.363  33.024  24.399  1.00  0.00    -0.237 OA
ATOM     96  O   UNL A   1      44.049  35.027  25.809  1.00  0.00    -0.237 OA
ATOM     97  O   UNL A   1      46.322  34.252  25.256  1.00  0.00    -0.744 OA
ENDBRANCH  93  94
ENDBRANCH  61  86
ENDBRANCH  35  36
ENDBRANCH  27  30
ENDBRANCH  25  26
ENDBRANCH  24  25
ENDBRANCH   1  24
TORSDOF 17
ENDMDL
MODEL 2
REMARK VINA RESULT:     -11.7      3.344      9.303
REMARK SMILES O=C(Cn1cnnn1)Nc1cccc(F)c1C(=O)NCCCCNC(=O)c1ccc(-c2c3nc(c(-c4c(F)cc(S(=O)(=O)[O-])cc4F)c4ccc([nH]4)c(-c4c(F)cc(S(=O)(=O)[O-])cc4F)c4nc(c(-c5c(F)cc(S(=O)(=O)[O-])cc5F)c5ccc2[nH]5)C=C4)C=C3)cc1
REMARK SMILES IDX 21 1 20 2 19 3 17 4 18 5 16 7 10 8 11 9 12 10 14 11 13 12
REMARK SMILES IDX 15 13 9 14 1 15 2 16 3 18 4 19 5 20 8 21 6 22 7 23 22 24
REMARK SMILES IDX 23 25 24 26 25 27 26 29 27 30 28 31 92 32 29 33 91 34 30 35
REMARK SMILES IDX 31 36 32 37 85 38 33 39 90 40 84 41 86 42 34 43 89 44 83 45
REMARK SMILES IDX 82 46 35 48 69 49 48 50 68 51 49 52 52 53 67 54 87 55 50 56
REMARK SMILES IDX 51 57 66 59 88 60 53 61 36 62 37 63 46 64 38 65 39 66 45 67
REMARK SMILES IDX 47 68 40 69 41 70 42 71 43 72 44 73 70 74 71 75 80 76 72 77
REMARK SMILES IDX 73 78 79 79 81 80 74 81 75 82 76 83 77 84 78 85 54 86 55 87
REMARK SMILES IDX 64 88 56 89 57 90 63 91 65 92 58 93 59 94 60 95 61 96 62 97
REMARK H PARENT 19 6 9 17 24 28 86 47 52 58
REMARK Flexibility Score: inf
ROOT
ATOM      1  C   UNL A   1      35.838  22.935  23.431  1.00  0.00     0.023 C 
ENDROOT
BRANCH   1   2
ATOM      2  C   UNL A   1      34.812  23.841  22.747  1.00  0.00     0.116 C 
BRANCH   2   3
ATOM      3  N   UNL A   1      33.495  23.240  22.618  1.00  0.00    -0.352 N 
ATOM      4  C   UNL A   1      32.564  22.670  23.453  1.00  0.00     0.256 C 
ATOM      5  O   UNL A   1      31.600  22.181  22.850  1.00  0.00    -0.269 OA
ATOM      6  H   UNL A   1      33.188  23.243  21.684  1.00  0.00     0.163 HD
BRANCH   4   7
ATOM      7  C   UNL A   1      32.615  22.473  24.942  1.00  0.00     0.099 A 
ATOM      8  C   UNL A   1      33.255  21.312  25.467  1.00  0.00     0.057 A 
ATOM      9  C   UNL A   1      33.581  21.243  26.837  1.00  0.00     0.027 A 
ATOM     10  C   UNL A   1      33.186  22.234  27.724  1.00  0.00     0.005 A 
ATOM     11  C   UNL A   1      32.074  23.342  25.893  1.00  0.00     0.138 A 
ATOM     12  C   UNL A   1      32.383  23.254  27.255  1.00  0.00     0.040 A 
ATOM     13  F   UNL A   1      31.113  24.220  25.604  1.00  0.00    -0.206 F 
BRANCH   8  14
ATOM     14  N   UNL A   1      33.520  20.176  24.645  1.00  0.00    -0.324 N 
ATOM     15  O   UNL A   1      32.058  18.667  25.629  1.00  0.00    -0.273 OA
ATOM     16  C   UNL A   1      32.922  18.933  24.789  1.00  0.00     0.246 C 
ATOM     17  H   UNL A   1      34.176  20.283  23.920  1.00  0.00     0.170 HD
BRANCH  16  18
ATOM     18  C   UNL A   1      33.477  17.811  23.944  1.00  0.00     0.248 C 
BRANCH  18  19
ATOM     19  N   UNL A   1      33.865  16.599  24.621  1.00  0.00    -0.223 N 
ATOM     20  C   UNL A   1      35.132  16.245  24.972  1.00  0.00     0.246 A 
ATOM     21  N   UNL A   1      33.046  15.554  24.775  1.00  0.00    -0.045 NA
ATOM     22  N   UNL A   1      35.120  14.991  25.355  1.00  0.00    -0.117 NA
ATOM     23  N   UNL A   1      33.812  14.580  25.248  1.00  0.00    -0.024 NA
ENDBRANCH  18  19
ENDBRANCH  16  18
ENDBRANCH   8  14
ENDBRANCH   4   7
ENDBRANCH   2   3
ENDBRANCH   1   2
BRANCH   1  24
ATOM     24  C   UNL A   1      36.265  23.318  24.852  1.00  0.00     0.023 C 
BRANCH  24  25
ATOM     25  C   UNL A   1      37.762  23.541  25.043  1.00  0.00     0.116 C 
BRANCH  25  26
ATOM     26  N   UNL A   1      38.417  22.497  25.831  1.00  0.00    -0.352 N 
ATOM     27  C   UNL A   1      39.545  22.625  26.630  1.00  0.00     0.251 C 
ATOM     28  H   UNL A   1      38.011  21.601  25.792  1.00  0.00     0.163 HD
ATOM     29  O   UNL A   1      40.216  21.657  26.936  1.00  0.00    -0.269 OA
BRANCH  27  30
ATOM     30  C   UNL A   1      39.901  23.972  27.113  1.00  0.00     0.039 A 
ATOM     31  C   UNL A   1      38.964  25.010  27.168  1.00  0.00     0.014 A 
ATOM     32  C   UNL A   1      41.203  24.157  27.567  1.00  0.00     0.014 A 
ATOM     33  C   UNL A   1      39.327  26.213  27.772  1.00  0.00     0.010 A 
ATOM     34  C   UNL A   1      41.512  25.282  28.285  1.00  0.00     0.010 A 
ATOM     35  C   UNL A   1      40.599  26.335  28.347  1.00  0.00    -0.014 A 
BRANCH  35  36
ATOM     36  C   UNL A   1      40.968  27.497  29.156  1.00  0.00     0.031 A 
ATOM     37  C   UNL A   1      42.063  28.333  28.572  1.00  0.00     0.074 A 
ATOM     38  C   UNL A   1      40.161  27.929  30.154  1.00  0.00     0.049 A 
ATOM     39  N   UNL A   1      43.207  28.648  29.090  1.00  0.00    -0.248 NA
ATOM     40  C   UNL A   1      41.923  28.764  27.166  1.00  0.00     0.031 C 
ATOM     41  C   UNL A   1      38.870  27.359  30.570  1.00  0.00     0.029 A 
ATOM     42  N   UNL A   1      40.230  29.057  30.910  1.00  0.00    -0.354 N 
ATOM     43  C   UNL A   1      43.812  29.517  28.178  1.00  0.00     0.074 A 
ATOM     44  C   UNL A   1      43.090  29.369  26.945  1.00  0.00     0.031 C 
ATOM     45  C   UNL A   1      38.177  28.274  31.281  1.00  0.00     0.029 A 
ATOM     46  C   UNL A   1      39.031  29.420  31.522  1.00  0.00     0.049 A 
ATOM     47  H   UNL A   1      41.060  29.575  31.017  1.00  0.00     0.167 HD
ATOM     48  C   UNL A   1      44.680  30.487  28.586  1.00  0.00     0.037 A 
ATOM     49  C   UNL A   1      38.750  30.599  32.135  1.00  0.00     0.037 A 
ATOM     50  C   UNL A   1      45.179  30.205  29.909  1.00  0.00     0.049 A 
ATOM     51  C   UNL A   1      40.058  31.243  32.431  1.00  0.00     0.074 A 
ATOM     52  C   UNL A   1      45.863  29.149  30.482  1.00  0.00     0.029 A 
ATOM     53  N   UNL A   1      44.649  30.917  30.957  1.00  0.00    -0.354 N 
ATOM     54  N   UNL A   1      40.944  30.754  33.257  1.00  0.00    -0.248 NA
ATOM     55  C   UNL A   1      40.570  32.187  31.451  1.00  0.00     0.031 C 
ATOM     56  C   UNL A   1      45.288  29.002  31.778  1.00  0.00     0.029 A 
ATOM     57  C   UNL A   1      44.354  30.024  31.953  1.00  0.00     0.049 A 
ATOM     58  H   UNL A   1      44.508  31.891  30.985  1.00  0.00     0.167 HD
ATOM     59  C   UNL A   1      42.166  30.987  32.641  1.00  0.00     0.074 A 
ATOM     60  C   UNL A   1      41.876  31.940  31.572  1.00  0.00     0.031 C 
ATOM     61  C   UNL A   1      43.238  30.170  32.865  1.00  0.00     0.037 A 
BRANCH  48  62
ATOM     62  C   UNL A   1      44.777  31.870  27.965  1.00  0.00     0.058 A 
ATOM     63  C   UNL A   1      43.885  32.932  28.236  1.00  0.00     0.135 A 
ATOM     64  C   UNL A   1      45.963  32.244  27.294  1.00  0.00     0.135 A 
ATOM     65  F   UNL A   1      42.754  32.768  28.931  1.00  0.00    -0.206 F 
ATOM     66  C   UNL A   1      44.149  34.253  27.890  1.00  0.00     0.059 A 
ATOM     67  C   UNL A   1      46.274  33.572  26.988  1.00  0.00     0.059 A 
ATOM     68  F   UNL A   1      46.893  31.324  26.986  1.00  0.00    -0.206 F 
ATOM     69  C   UNL A   1      45.360  34.571  27.298  1.00  0.00     0.060 A 
BRANCH  69  70
ATOM     70  S   UNL A   1      45.734  36.312  27.041  1.00  0.00     0.124 S 
ATOM     71  O   UNL A   1      46.519  36.262  25.811  1.00  0.00    -0.237 OA
ATOM     72  O   UNL A   1      44.401  36.892  26.923  1.00  0.00    -0.237 OA
ATOM     73  O   UNL A   1      46.472  36.679  28.245  1.00  0.00    -0.744 OA
ENDBRANCH  69  70
ENDBRANCH  48  62
BRANCH  49  74
ATOM     74  C   UNL A   1      37.473  31.373  32.130  1.00  0.00     0.058 A 
ATOM     75  C   UNL A   1      36.950  31.941  30.950  1.00  0.00     0.135 A 
ATOM     76  C   UNL A   1      36.904  31.828  33.335  1.00  0.00     0.135 A 
ATOM     77  F   UNL A   1      37.435  31.604  29.745  1.00  0.00    -0.206 F 
ATOM     78  C   UNL A   1      35.981  32.943  30.965  1.00  0.00     0.059 A 
ATOM     79  C   UNL A   1      35.934  32.840  33.376  1.00  0.00     0.059 A 
ATOM     80  F   UNL A   1      37.341  31.348  34.509  1.00  0.00    -0.206 F 
ATOM     81  C   UNL A   1      35.503  33.414  32.184  1.00  0.00     0.060 A 
BRANCH  81  82
ATOM     82  S   UNL A   1      34.392  34.841  32.172  1.00  0.00     0.124 S 
ATOM     83  O   UNL A   1      33.198  34.297  32.810  1.00  0.00    -0.237 OA
ATOM     84  O   UNL A   1      35.139  35.819  32.959  1.00  0.00    -0.237 OA
ATOM     85  O   UNL A   1      34.256  35.158  30.754  1.00  0.00    -0.744 OA
ENDBRANCH  81  82
ENDBRANCH  49  74
BRANCH  61  86
ATOM     86  C   UNL A   1      43.181  29.190  34.011  1.00  0.00     0.058 A 
ATOM     87  C   UNL A   1      42.701  27.901  33.738  1.00  0.00     0.135 A 
ATOM     88  C   UNL A   1      43.400  29.517  35.362  1.00  0.00     0.135 A 
ATOM     89  F   UNL A   1      42.422  27.541  32.474  1.00  0.00    -0.206 F 
ATOM     90  C   UNL A   1      42.435  26.982  34.748  1.00  0.00     0.059 A 
ATOM     91  C   UNL A   1      43.173  28.598  36.392  1.00  0.00     0.059 A 
ATOM     92  F   UNL A   1      43.769  30.752  35.724  1.00  0.00    -0.206 F 
ATOM     93  C   UNL A   1      42.673  27.337  36.073  1.00  0.00     0.060 A 
BRANCH  93  94
ATOM     94  S   UNL A   1      42.287  26.127  37.356  1.00  0.00     0.124 S 
ATOM     95  O   UNL A   1      43.205  26.515  38.423  1.00  0.00    -0.237 OA
ATOM     96  O   UNL A   1      40.875  26.389  37.614  1.00  0.00    -0.237 OA
ATOM     97  O   UNL A   1      42.575  24.842  36.725  1.00  0.00    -0.744 OA
ENDBRANCH  93  94
ENDBRANCH  61  86
ENDBRANCH  35  36
ENDBRANCH  27  30
ENDBRANCH  25  26
ENDBRANCH  24  25
ENDBRANCH   1  24
TORSDOF 17
ENDMDL
MODEL 3
REMARK VINA RESULT:     -11.5      3.760      8.721
REMARK SMILES O=C(Cn1cnnn1)Nc1cccc(F)c1C(=O)NCCCCNC(=O)c1ccc(-c2c3nc(c(-c4c(F)cc(S(=O)(=O)[O-])cc4F)c4ccc([nH]4)c(-c4c(F)cc(S(=O)(=O)[O-])cc4F)c4nc(c(-c5c(F)cc(S(=O)(=O)[O-])cc5F)c5ccc2[nH]5)C=C4)C=C3)cc1
REMARK SMILES IDX 21 1 20 2 19 3 17 4 18 5 16 7 10 8 11 9 12 10 14 11 13 12
REMARK SMILES IDX 15 13 9 14 1 15 2 16 3 18 4 19 5 20 8 21 6 22 7 23 22 24
REMARK SMILES IDX 23 25 24 26 25 27 26 29 27 30 28 31 92 32 29 33 91 34 30 35
REMARK SMILES IDX 31 36 32 37 85 38 33 39 90 40 84 41 86 42 34 43 89 44 83 45
REMARK SMILES IDX 82 46 35 48 69 49 48 50 68 51 49 52 52 53 67 54 87 55 50 56
REMARK SMILES IDX 51 57 66 59 88 60 53 61 36 62 37 63 46 64 38 65 39 66 45 67
REMARK SMILES IDX 47 68 40 69 41 70 42 71 43 72 44 73 70 74 71 75 80 76 72 77
REMARK SMILES IDX 73 78 79 79 81 80 74 81 75 82 76 83 77 84 78 85 54 86 55 87
REMARK SMILES IDX 64 88 56 89 57 90 63 91 65 92 58 93 59 94 60 95 61 96 62 97
REMARK H PARENT 19 6 9 17 24 28 86 47 52 58
REMARK Flexibility Score: inf
ROOT
ATOM      1  C   UNL A   1      36.784  21.438  24.319  1.00  0.00     0.023 C 
ENDROOT
BRANCH   1   2
ATOM      2  C   UNL A   1      36.711  22.532  25.388  1.00  0.00     0.116 C 
BRANCH   2   3
ATOM      3  N   UNL A   1      35.852  22.195  26.510  1.00  0.00    -0.352 N 
ATOM      4  C   UNL A   1      34.529  22.352  26.848  1.00  0.00     0.256 C 
ATOM      5  O   UNL A   1      34.270  21.987  28.001  1.00  0.00    -0.269 OA
ATOM      6  H   UNL A   1      36.351  21.729  27.219  1.00  0.00     0.163 HD
BRANCH   4   7
ATOM      7  C   UNL A   1      33.417  22.990  26.063  1.00  0.00     0.099 A 
ATOM      8  C   UNL A   1      32.273  22.210  25.720  1.00  0.00     0.057 A 
ATOM      9  C   UNL A   1      31.101  22.841  25.256  1.00  0.00     0.027 A 
ATOM     10  C   UNL A   1      31.066  24.205  25.005  1.00  0.00     0.005 A 
ATOM     11  C   UNL A   1      33.396  24.314  25.616  1.00  0.00     0.138 A 
ATOM     12  C   UNL A   1      32.235  24.928  25.133  1.00  0.00     0.040 A 
ATOM     13  F   UNL A   1      34.503  25.045  25.473  1.00  0.00    -0.206 F 
BRANCH   8  14
ATOM     14  N   UNL A   1      32.305  20.785  25.775  1.00  0.00    -0.324 N 
ATOM     15  O   UNL A   1      32.568  20.341  23.512  1.00  0.00    -0.273 OA
ATOM     16  C   UNL A   1      32.432  19.949  24.675  1.00  0.00     0.246 C 
ATOM     17  H   UNL A   1      32.232  20.362  26.660  1.00  0.00     0.170 HD
BRANCH  16  18
ATOM     18  C   UNL A   1      32.252  18.470  24.922  1.00  0.00     0.248 C 
BRANCH  18  19
ATOM     19  N   UNL A   1      33.239  17.579  24.365  1.00  0.00    -0.223 N 
ATOM     20  C   UNL A   1      33.441  17.330  23.042  1.00  0.00     0.246 A 
ATOM     21  N   UNL A   1      33.925  16.697  25.099  1.00  0.00    -0.045 NA
ATOM     22  N   UNL A   1      34.254  16.307  22.933  1.00  0.00    -0.117 NA
ATOM     23  N   UNL A   1      34.564  15.937  24.220  1.00  0.00    -0.024 NA
ENDBRANCH  18  19
ENDBRANCH  16  18
ENDBRANCH   8  14
ENDBRANCH   4   7
ENDBRANCH   2   3
ENDBRANCH   1   2
BRANCH   1  24
ATOM     24  C   UNL A   1      37.621  20.198  24.650  1.00  0.00     0.023 C 
BRANCH  24  25
ATOM     25  C   UNL A   1      38.709  20.409  25.698  1.00  0.00     0.116 C 
BRANCH  25  26
ATOM     26  N   UNL A   1      39.647  19.290  25.805  1.00  0.00    -0.352 N 
ATOM     27  C   UNL A   1      41.023  19.357  25.977  1.00  0.00     0.251 C 
ATOM     28  H   UNL A   1      39.258  18.388  25.750  1.00  0.00     0.163 HD
ATOM     29  O   UNL A   1      41.742  18.419  25.686  1.00  0.00    -0.269 OA
BRANCH  27  30
ATOM     30  C   UNL A   1      41.590  20.596  26.541  1.00  0.00     0.039 A 
ATOM     31  C   UNL A   1      42.283  21.519  25.750  1.00  0.00     0.014 A 
ATOM     32  C   UNL A   1      41.358  20.840  27.891  1.00  0.00     0.014 A 
ATOM     33  C   UNL A   1      42.663  22.737  26.314  1.00  0.00     0.010 A 
ATOM     34  C   UNL A   1      41.602  22.088  28.401  1.00  0.00     0.010 A 
ATOM     35  C   UNL A   1      42.301  23.022  27.637  1.00  0.00    -0.014 A 
BRANCH  35  36
ATOM     36  C   UNL A   1      42.502  24.350  28.219  1.00  0.00     0.031 A 
ATOM     37  C   UNL A   1      41.347  25.285  28.038  1.00  0.00     0.074 A 
ATOM     38  C   UNL A   1      43.499  24.571  29.108  1.00  0.00     0.049 A 
ATOM     39  N   UNL A   1      41.326  26.446  27.468  1.00  0.00    -0.248 NA
ATOM     40  C   UNL A   1      40.006  24.801  28.422  1.00  0.00     0.031 C 
ATOM     41  C   UNL A   1      44.478  23.597  29.614  1.00  0.00     0.029 A 
ATOM     42  N   UNL A   1      43.762  25.663  29.875  1.00  0.00    -0.354 N 
ATOM     43  C   UNL A   1      40.030  26.936  27.648  1.00  0.00     0.074 A 
ATOM     44  C   UNL A   1      39.226  25.809  28.031  1.00  0.00     0.031 C 
ATOM     45  C   UNL A   1      45.021  24.053  30.764  1.00  0.00     0.029 A 
ATOM     46  C   UNL A   1      44.569  25.413  30.984  1.00  0.00     0.049 A 
ATOM     47  H   UNL A   1      43.411  26.559  29.664  1.00  0.00     0.167 HD
ATOM     48  C   UNL A   1      39.780  28.274  27.737  1.00  0.00     0.037 A 
ATOM     49  C   UNL A   1      44.802  26.247  32.030  1.00  0.00     0.037 A 
ATOM     50  C   UNL A   1      40.881  29.038  27.206  1.00  0.00     0.049 A 
ATOM     51  C   UNL A   1      44.420  27.610  31.577  1.00  0.00     0.074 A 
ATOM     52  C   UNL A   1      41.523  29.092  25.982  1.00  0.00     0.029 A 
ATOM     53  N   UNL A   1      41.738  29.631  28.101  1.00  0.00    -0.354 N 
ATOM     54  N   UNL A   1      45.027  28.260  30.619  1.00  0.00    -0.248 NA
ATOM     55  C   UNL A   1      43.069  28.056  31.875  1.00  0.00     0.031 C 
ATOM     56  C   UNL A   1      42.904  29.245  26.301  1.00  0.00     0.029 A 
ATOM     57  C   UNL A   1      43.016  29.362  27.687  1.00  0.00     0.049 A 
ATOM     58  H   UNL A   1      41.479  30.153  28.894  1.00  0.00     0.167 HD
ATOM     59  C   UNL A   1      44.008  28.889  29.918  1.00  0.00     0.074 A 
ATOM     60  C   UNL A   1      42.835  28.789  30.785  1.00  0.00     0.031 C 
ATOM     61  C   UNL A   1      44.134  29.172  28.588  1.00  0.00     0.037 A 
BRANCH  48  62
ATOM     62  C   UNL A   1      38.731  28.894  28.645  1.00  0.00     0.058 A 
ATOM     63  C   UNL A   1      38.739  28.800  30.055  1.00  0.00     0.135 A 
ATOM     64  C   UNL A   1      37.843  29.857  28.116  1.00  0.00     0.135 A 
ATOM     65  F   UNL A   1      39.574  27.997  30.722  1.00  0.00    -0.206 F 
ATOM     66  C   UNL A   1      37.950  29.599  30.874  1.00  0.00     0.059 A 
ATOM     67  C   UNL A   1      37.083  30.710  28.922  1.00  0.00     0.059 A 
ATOM     68  F   UNL A   1      37.750  30.046  26.789  1.00  0.00    -0.206 F 
ATOM     69  C   UNL A   1      37.151  30.576  30.303  1.00  0.00     0.060 A 
BRANCH  69  70
ATOM     70  S   UNL A   1      36.293  31.708  31.409  1.00  0.00     0.124 S 
ATOM     71  O   UNL A   1      37.194  32.857  31.403  1.00  0.00    -0.237 OA
ATOM     72  O   UNL A   1      35.020  31.893  30.722  1.00  0.00    -0.237 OA
ATOM     73  O   UNL A   1      36.227  30.966  32.663  1.00  0.00    -0.744 OA
ENDBRANCH  69  70
ENDBRANCH  48  62
BRANCH  49  74
ATOM     74  C   UNL A   1      44.950  25.909  33.478  1.00  0.00     0.058 A 
ATOM     75  C   UNL A   1      43.970  25.174  34.176  1.00  0.00     0.135 A 
ATOM     76  C   UNL A   1      45.909  26.566  34.274  1.00  0.00     0.135 A 
ATOM     77  F   UNL A   1      42.990  24.532  33.524  1.00  0.00    -0.206 F 
ATOM     78  C   UNL A   1      43.901  25.149  35.569  1.00  0.00     0.059 A 
ATOM     79  C   UNL A   1      45.856  26.562  35.675  1.00  0.00     0.059 A 
ATOM     80  F   UNL A   1      46.877  27.294  33.698  1.00  0.00    -0.206 F 
ATOM     81  C   UNL A   1      44.827  25.876  36.312  1.00  0.00     0.060 A 
BRANCH  81  82
ATOM     82  S   UNL A   1      44.593  25.975  38.103  1.00  0.00     0.124 S 
ATOM     83  O   UNL A   1      45.697  26.843  38.502  1.00  0.00    -0.237 OA
ATOM     84  O   UNL A   1      43.259  26.561  38.207  1.00  0.00    -0.237 OA
ATOM     85  O   UNL A   1      44.697  24.587  38.540  1.00  0.00    -0.744 OA
ENDBRANCH  81  82
ENDBRANCH  49  74
BRANCH  61  86
ATOM     86  C   UNL A   1      45.497  29.071  27.947  1.00  0.00     0.058 A 
ATOM     87  C   UNL A   1      45.873  27.829  27.417  1.00  0.00     0.135 A 
ATOM     88  C   UNL A   1      46.487  30.070  27.998  1.00  0.00     0.135 A 
ATOM     89  F   UNL A   1      44.991  26.816  27.386  1.00  0.00    -0.206 F 
ATOM     90  C   UNL A   1      47.166  27.576  26.972  1.00  0.00     0.059 A 
ATOM     91  C   UNL A   1      47.784  29.850  27.524  1.00  0.00     0.059 A 
ATOM     92  F   UNL A   1      46.244  31.255  28.571  1.00  0.00    -0.206 F 
ATOM     93  C   UNL A   1      48.118  28.592  27.028  1.00  0.00     0.060 A 
BRANCH  93  94
ATOM     94  S   UNL A   1      49.792  28.215  26.468  1.00  0.00     0.124 S 
ATOM     95  O   UNL A   1      50.018  26.898  27.057  1.00  0.00    -0.237 OA
ATOM     96  O   UNL A   1      49.646  28.238  25.016  1.00  0.00    -0.237 OA
ATOM     97  O   UNL A   1      50.600  29.294  27.028  1.00  0.00    -0.744 OA
ENDBRANCH  93  94
ENDBRANCH  61  86
ENDBRANCH  35  36
ENDBRANCH  27  30
ENDBRANCH  25  26
ENDBRANCH  24  25
ENDBRANCH   1  24
TORSDOF 17
ENDMDL
