MODEL 1
REMARK VINA RESULT:     -11.2      0.000      0.000
REMARK SMILES O=C(NCCCCNC(=O)[C@H]1C=C[C@H](N2C(=O)[C@H]3C[C@H]3C2=O)C1)c1ccc(-c2c3nc(c(-c4c(F)cc(S(=O)(=O)[O-])cc4F)c4ccc([nH]4)c(-c4c(F)cc(S(=O)(=O)[O-])cc4F)c4nc(c(-c5c(F)cc(S(=O)(=O)[O-])cc5F)c5ccc2[nH]5)C=C4)C=C3)cc1
REMARK SMILES IDX 4 1 3 2 1 3 2 4 24 6 25 7 89 8 26 9 88 10 27 11 28 12 29 13
REMARK SMILES IDX 82 14 30 15 87 16 81 17 83 18 31 19 86 20 80 21 79 22 32 24
REMARK SMILES IDX 66 25 45 26 65 27 46 28 49 29 64 30 84 31 47 32 48 33 63 35
REMARK SMILES IDX 85 36 50 37 33 38 34 39 43 40 35 41 36 42 42 43 44 44 37 45
REMARK SMILES IDX 38 46 39 47 40 48 41 49 67 50 68 51 77 52 69 53 70 54 76 55
REMARK SMILES IDX 78 56 71 57 72 58 73 59 74 60 75 61 51 62 52 63 61 64 53 65
REMARK SMILES IDX 54 66 60 67 62 68 55 69 56 70 57 71 58 72 59 73 5 74 6 75
REMARK SMILES IDX 7 76 8 77 9 78 10 80 11 81 12 82 23 83 13 84 14 85 15 86
REMARK SMILES IDX 16 87 21 88 17 89 18 90 20 91 22 92 19 93
REMARK H PARENT 3 5 83 23 49 34 8 79
REMARK Flexibility Score: inf
ROOT
ATOM      1  C   UNL A   1      34.638  32.520  28.004  1.00  0.00     0.116 C 
ENDROOT
BRANCH   1   2
ATOM      2  N   UNL A   1      33.928  31.258  27.839  1.00  0.00    -0.352 N 
ATOM      3  O   UNL A   1      33.764  29.007  27.652  1.00  0.00    -0.269 OA
ATOM      4  C   UNL A   1      34.454  29.987  27.910  1.00  0.00     0.251 C 
ATOM      5  H   UNL A   1      32.964  31.322  27.656  1.00  0.00     0.163 HD
BRANCH   4   6
ATOM      6  C   UNL A   1      35.881  29.838  28.266  1.00  0.00     0.039 A 
ATOM      7  C   UNL A   1      36.858  30.053  27.294  1.00  0.00     0.014 A 
ATOM      8  C   UNL A   1      36.236  29.394  29.542  1.00  0.00     0.014 A 
ATOM      9  C   UNL A   1      38.162  29.657  27.539  1.00  0.00     0.010 A 
ATOM     10  C   UNL A   1      37.575  29.101  29.823  1.00  0.00     0.010 A 
ATOM     11  C   UNL A   1      38.544  29.195  28.812  1.00  0.00    -0.014 A 
BRANCH  11  12
ATOM     12  C   UNL A   1      39.980  28.898  29.051  1.00  0.00     0.031 A 
ATOM     13  C   UNL A   1      40.590  27.576  28.672  1.00  0.00     0.074 A 
ATOM     14  C   UNL A   1      40.749  29.883  29.556  1.00  0.00     0.049 A 
ATOM     15  N   UNL A   1      41.839  27.195  28.761  1.00  0.00    -0.248 NA
ATOM     16  C   UNL A   1      39.689  26.545  28.132  1.00  0.00     0.031 C 
ATOM     17  C   UNL A   1      40.256  31.197  29.982  1.00  0.00     0.029 A 
ATOM     18  N   UNL A   1      42.100  29.954  29.769  1.00  0.00    -0.354 N 
ATOM     19  C   UNL A   1      41.877  25.885  28.299  1.00  0.00     0.074 A 
ATOM     20  C   UNL A   1      40.517  25.522  27.960  1.00  0.00     0.031 C 
ATOM     21  C   UNL A   1      41.294  31.963  30.343  1.00  0.00     0.029 A 
ATOM     22  C   UNL A   1      42.516  31.174  30.247  1.00  0.00     0.049 A 
ATOM     23  H   UNL A   1      42.715  29.205  29.594  1.00  0.00     0.167 HD
ATOM     24  C   UNL A   1      42.951  25.068  28.159  1.00  0.00     0.037 A 
ATOM     25  C   UNL A   1      43.740  31.609  30.593  1.00  0.00     0.037 A 
ATOM     26  C   UNL A   1      44.302  25.445  28.496  1.00  0.00     0.049 A 
ATOM     27  C   UNL A   1      44.907  30.682  30.435  1.00  0.00     0.074 A 
ATOM     28  C   UNL A   1      45.460  24.692  28.391  1.00  0.00     0.029 A 
ATOM     29  N   UNL A   1      44.681  26.683  29.001  1.00  0.00    -0.354 N 
ATOM     30  N   UNL A   1      44.921  29.449  29.985  1.00  0.00    -0.248 NA
ATOM     31  C   UNL A   1      46.221  31.199  30.828  1.00  0.00     0.031 C 
ATOM     32  C   UNL A   1      46.530  25.459  28.866  1.00  0.00     0.029 A 
ATOM     33  C   UNL A   1      46.050  26.708  29.222  1.00  0.00     0.049 A 
ATOM     34  H   UNL A   1      44.067  27.432  29.175  1.00  0.00     0.167 HD
ATOM     35  C   UNL A   1      46.249  29.045  30.038  1.00  0.00     0.074 A 
ATOM     36  C   UNL A   1      47.010  30.175  30.529  1.00  0.00     0.031 C 
ATOM     37  C   UNL A   1      46.788  27.841  29.720  1.00  0.00     0.037 A 
BRANCH  24  38
ATOM     38  C   UNL A   1      42.717  23.681  27.621  1.00  0.00     0.058 A 
ATOM     39  C   UNL A   1      42.756  23.410  26.244  1.00  0.00     0.135 A 
ATOM     40  C   UNL A   1      42.519  22.598  28.493  1.00  0.00     0.135 A 
ATOM     41  F   UNL A   1      42.928  24.408  25.363  1.00  0.00    -0.206 F 
ATOM     42  C   UNL A   1      42.590  22.118  25.749  1.00  0.00     0.059 A 
ATOM     43  C   UNL A   1      42.375  21.294  28.022  1.00  0.00     0.059 A 
ATOM     44  F   UNL A   1      42.473  22.797  29.819  1.00  0.00    -0.206 F 
ATOM     45  C   UNL A   1      42.403  21.067  26.647  1.00  0.00     0.060 A 
BRANCH  45  46
ATOM     46  S   UNL A   1      42.209  19.396  25.989  1.00  0.00     0.124 S 
ATOM     47  O   UNL A   1      42.705  18.587  27.097  1.00  0.00    -0.237 OA
ATOM     48  O   UNL A   1      40.772  19.322  25.745  1.00  0.00    -0.237 OA
ATOM     49  O   UNL A   1      43.045  19.402  24.792  1.00  0.00    -0.744 OA
ENDBRANCH  45  46
ENDBRANCH  24  38
BRANCH  25  50
ATOM     50  C   UNL A   1      43.905  32.978  31.150  1.00  0.00     0.058 A 
ATOM     51  C   UNL A   1      44.194  34.074  30.326  1.00  0.00     0.135 A 
ATOM     52  C   UNL A   1      43.754  33.216  32.526  1.00  0.00     0.135 A 
ATOM     53  F   UNL A   1      44.346  33.898  29.004  1.00  0.00    -0.206 F 
ATOM     54  C   UNL A   1      44.351  35.354  30.847  1.00  0.00     0.059 A 
ATOM     55  C   UNL A   1      43.872  34.490  33.066  1.00  0.00     0.059 A 
ATOM     56  F   UNL A   1      43.454  32.203  33.355  1.00  0.00    -0.206 F 
ATOM     57  C   UNL A   1      44.188  35.551  32.220  1.00  0.00     0.060 A 
BRANCH  57  58
ATOM     58  S   UNL A   1      44.360  37.219  32.887  1.00  0.00     0.124 S 
ATOM     59  O   UNL A   1      45.694  37.162  33.474  1.00  0.00    -0.237 OA
ATOM     60  O   UNL A   1      44.221  38.046  31.692  1.00  0.00    -0.237 OA
ATOM     61  O   UNL A   1      43.255  37.315  33.836  1.00  0.00    -0.744 OA
ENDBRANCH  57  58
ENDBRANCH  25  50
BRANCH  37  62
ATOM     62  C   UNL A   1      48.277  27.705  29.882  1.00  0.00     0.058 A 
ATOM     63  C   UNL A   1      49.164  28.061  28.852  1.00  0.00     0.135 A 
ATOM     64  C   UNL A   1      48.823  27.213  31.078  1.00  0.00     0.135 A 
ATOM     65  F   UNL A   1      48.692  28.528  27.685  1.00  0.00    -0.206 F 
ATOM     66  C   UNL A   1      50.537  27.897  28.989  1.00  0.00     0.059 A 
ATOM     67  C   UNL A   1      50.196  27.069  31.247  1.00  0.00     0.059 A 
ATOM     68  F   UNL A   1      48.019  26.868  32.096  1.00  0.00    -0.206 F 
ATOM     69  C   UNL A   1      51.044  27.395  30.189  1.00  0.00     0.060 A 
BRANCH  69  70
ATOM     70  S   UNL A   1      52.829  27.184  30.355  1.00  0.00     0.124 S 
ATOM     71  O   UNL A   1      53.126  26.312  29.224  1.00  0.00    -0.237 OA
ATOM     72  O   UNL A   1      53.317  28.555  30.245  1.00  0.00    -0.237 OA
ATOM     73  O   UNL A   1      52.977  26.577  31.674  1.00  0.00    -0.744 OA
ENDBRANCH  69  70
ENDBRANCH  37  62
ENDBRANCH  11  12
ENDBRANCH   4   6
ENDBRANCH   1   2
BRANCH   1  74
ATOM     74  C   UNL A   1      34.013  33.448  29.033  1.00  0.00     0.023 C 
BRANCH  74  75
ATOM     75  C   UNL A   1      33.109  34.533  28.450  1.00  0.00     0.023 C 
BRANCH  75  76
ATOM     76  C   UNL A   1      33.375  35.939  29.000  1.00  0.00     0.116 C 
BRANCH  76  77
ATOM     77  N   UNL A   1      32.535  36.234  30.146  1.00  0.00    -0.356 N 
ATOM     78  C   UNL A   1      32.739  36.061  31.483  1.00  0.00     0.227 C 
ATOM     79  H   UNL A   1      31.663  36.629  29.918  1.00  0.00     0.163 HD
ATOM     80  O   UNL A   1      31.804  36.359  32.233  1.00  0.00    -0.274 OA
BRANCH  78  81
ATOM     81  C   UNL A   1      34.081  35.607  32.079  1.00  0.00     0.103 C 
ATOM     82  C   UNL A   1      34.440  36.189  33.410  1.00  0.00    -0.016 C 
ATOM     83  C   UNL A   1      34.095  34.089  32.348  1.00  0.00     0.047 C 
ATOM     84  C   UNL A   1      34.784  35.242  34.286  1.00  0.00    -0.005 C 
ATOM     85  C   UNL A   1      34.906  33.886  33.639  1.00  0.00     0.117 C 
BRANCH  85  86
ATOM     86  N   UNL A   1      36.340  33.660  33.544  1.00  0.00    -0.275 N 
ATOM     87  C   UNL A   1      37.062  33.385  34.682  1.00  0.00     0.233 C 
ATOM     88  C   UNL A   1      37.143  33.924  32.471  1.00  0.00     0.233 C 
ATOM     89  O   UNL A   1      36.659  33.050  35.780  1.00  0.00    -0.274 OA
ATOM     90  C   UNL A   1      38.493  33.668  34.417  1.00  0.00     0.092 C 
ATOM     91  C   UNL A   1      38.555  34.006  32.935  1.00  0.00     0.092 C 
ATOM     92  O   UNL A   1      36.852  34.119  31.302  1.00  0.00    -0.274 OA
ATOM     93  C   UNL A   1      39.327  32.839  33.488  1.00  0.00     0.028 C 
ENDBRANCH  85  86
ENDBRANCH  78  81
ENDBRANCH  76  77
ENDBRANCH  75  76
ENDBRANCH  74  75
ENDBRANCH   1  74
TORSDOF 15
ENDMDL
MODEL 2
REMARK VINA RESULT:     -10.8      0.649      8.431
REMARK SMILES O=C(NCCCCNC(=O)[C@H]1C=C[C@H](N2C(=O)[C@H]3C[C@H]3C2=O)C1)c1ccc(-c2c3nc(c(-c4c(F)cc(S(=O)(=O)[O-])cc4F)c4ccc([nH]4)c(-c4c(F)cc(S(=O)(=O)[O-])cc4F)c4nc(c(-c5c(F)cc(S(=O)(=O)[O-])cc5F)c5ccc2[nH]5)C=C4)C=C3)cc1
REMARK SMILES IDX 4 1 3 2 1 3 2 4 24 6 25 7 89 8 26 9 88 10 27 11 28 12 29 13
REMARK SMILES IDX 82 14 30 15 87 16 81 17 83 18 31 19 86 20 80 21 79 22 32 24
REMARK SMILES IDX 66 25 45 26 65 27 46 28 49 29 64 30 84 31 47 32 48 33 63 35
REMARK SMILES IDX 85 36 50 37 33 38 34 39 43 40 35 41 36 42 42 43 44 44 37 45
REMARK SMILES IDX 38 46 39 47 40 48 41 49 67 50 68 51 77 52 69 53 70 54 76 55
REMARK SMILES IDX 78 56 71 57 72 58 73 59 74 60 75 61 51 62 52 63 61 64 53 65
REMARK SMILES IDX 54 66 60 67 62 68 55 69 56 70 57 71 58 72 59 73 5 74 6 75
REMARK SMILES IDX 7 76 8 77 9 78 10 80 11 81 12 82 23 83 13 84 14 85 15 86
REMARK SMILES IDX 16 87 21 88 17 89 18 90 20 91 22 92 19 93
REMARK H PARENT 3 5 83 23 49 34 8 79
REMARK Flexibility Score: inf
ROOT
ATOM      1  C   UNL A   1      34.597  32.444  27.953  1.00  0.00     0.116 C 
ENDROOT
BRANCH   1   2
ATOM      2  N   UNL A   1      33.929  31.156  27.815  1.00  0.00    -0.352 N 
ATOM      3  O   UNL A   1      33.839  28.898  27.668  1.00  0.00    -0.269 OA
ATOM      4  C   UNL A   1      34.498  29.904  27.904  1.00  0.00     0.251 C 
ATOM      5  H   UNL A   1      32.962  31.184  27.638  1.00  0.00     0.163 HD
BRANCH   4   6
ATOM      6  C   UNL A   1      35.931  29.809  28.251  1.00  0.00     0.039 A 
ATOM      7  C   UNL A   1      36.894  30.073  27.278  1.00  0.00     0.014 A 
ATOM      8  C   UNL A   1      36.310  29.367  29.522  1.00  0.00     0.014 A 
ATOM      9  C   UNL A   1      38.214  29.727  27.513  1.00  0.00     0.010 A 
ATOM     10  C   UNL A   1      37.661  29.125  29.793  1.00  0.00     0.010 A 
ATOM     11  C   UNL A   1      38.620  29.268  28.779  1.00  0.00    -0.014 A 
BRANCH  11  12
ATOM     12  C   UNL A   1      40.068  29.026  29.008  1.00  0.00     0.031 A 
ATOM     13  C   UNL A   1      40.945  30.045  29.683  1.00  0.00     0.074 A 
ATOM     14  C   UNL A   1      40.567  27.824  28.657  1.00  0.00     0.049 A 
ATOM     15  N   UNL A   1      42.209  29.950  30.009  1.00  0.00    -0.248 NA
ATOM     16  C   UNL A   1      40.335  31.337  30.034  1.00  0.00     0.031 C 
ATOM     17  C   UNL A   1      39.810  26.769  27.972  1.00  0.00     0.029 A 
ATOM     18  N   UNL A   1      41.804  27.269  28.849  1.00  0.00    -0.354 N 
ATOM     19  C   UNL A   1      42.551  31.163  30.593  1.00  0.00     0.074 A 
ATOM     20  C   UNL A   1      41.367  31.995  30.547  1.00  0.00     0.031 C 
ATOM     21  C   UNL A   1      40.577  25.677  27.860  1.00  0.00     0.029 A 
ATOM     22  C   UNL A   1      41.901  25.975  28.394  1.00  0.00     0.049 A 
ATOM     23  H   UNL A   1      42.552  27.749  29.273  1.00  0.00     0.167 HD
ATOM     24  C   UNL A   1      43.738  31.542  31.127  1.00  0.00     0.037 A 
ATOM     25  C   UNL A   1      42.942  25.125  28.384  1.00  0.00     0.037 A 
ATOM     26  C   UNL A   1      44.909  30.699  31.169  1.00  0.00     0.049 A 
ATOM     27  C   UNL A   1      44.245  25.572  28.975  1.00  0.00     0.074 A 
ATOM     28  C   UNL A   1      46.161  30.987  31.689  1.00  0.00     0.029 A 
ATOM     29  N   UNL A   1      44.976  29.402  30.677  1.00  0.00    -0.354 N 
ATOM     30  N   UNL A   1      44.542  26.722  29.532  1.00  0.00    -0.248 NA
ATOM     31  C   UNL A   1      45.352  24.612  28.939  1.00  0.00     0.031 C 
ATOM     32  C   UNL A   1      46.992  29.881  31.478  1.00  0.00     0.029 A 
ATOM     33  C   UNL A   1      46.247  28.883  30.871  1.00  0.00     0.049 A 
ATOM     34  H   UNL A   1      44.228  28.922  30.253  1.00  0.00     0.167 HD
ATOM     35  C   UNL A   1      45.873  26.622  29.917  1.00  0.00     0.074 A 
ATOM     36  C   UNL A   1      46.309  25.287  29.561  1.00  0.00     0.031 C 
ATOM     37  C   UNL A   1      46.666  27.555  30.501  1.00  0.00     0.037 A 
BRANCH  24  38
ATOM     38  C   UNL A   1      43.842  32.926  31.710  1.00  0.00     0.058 A 
ATOM     39  C   UNL A   1      43.630  33.167  33.077  1.00  0.00     0.135 A 
ATOM     40  C   UNL A   1      44.222  34.015  30.908  1.00  0.00     0.135 A 
ATOM     41  F   UNL A   1      43.251  32.167  33.888  1.00  0.00    -0.206 F 
ATOM     42  C   UNL A   1      43.775  34.439  33.625  1.00  0.00     0.059 A 
ATOM     43  C   UNL A   1      44.397  35.291  31.439  1.00  0.00     0.059 A 
ATOM     44  F   UNL A   1      44.439  33.844  29.594  1.00  0.00    -0.206 F 
ATOM     45  C   UNL A   1      44.162  35.495  32.797  1.00  0.00     0.060 A 
BRANCH  45  46
ATOM     46  S   UNL A   1      44.364  37.134  33.529  1.00  0.00     0.124 S 
ATOM     47  O   UNL A   1      42.977  37.571  33.652  1.00  0.00    -0.237 OA
ATOM     48  O   UNL A   1      45.046  36.833  34.784  1.00  0.00    -0.237 OA
ATOM     49  O   UNL A   1      45.163  37.852  32.541  1.00  0.00    -0.744 OA
ENDBRANCH  45  46
ENDBRANCH  24  38
BRANCH  25  50
ATOM     50  C   UNL A   1      42.790  23.781  27.765  1.00  0.00     0.058 A 
ATOM     51  C   UNL A   1      42.916  23.594  26.382  1.00  0.00     0.135 A 
ATOM     52  C   UNL A   1      42.537  22.650  28.558  1.00  0.00     0.135 A 
ATOM     53  F   UNL A   1      43.160  24.643  25.581  1.00  0.00    -0.206 F 
ATOM     54  C   UNL A   1      42.772  22.337  25.802  1.00  0.00     0.059 A 
ATOM     55  C   UNL A   1      42.423  21.380  28.007  1.00  0.00     0.059 A 
ATOM     56  F   UNL A   1      42.431  22.773  29.891  1.00  0.00    -0.206 F 
ATOM     57  C   UNL A   1      42.526  21.237  26.625  1.00  0.00     0.060 A 
BRANCH  57  58
ATOM     58  S   UNL A   1      42.373  19.603  25.872  1.00  0.00     0.124 S 
ATOM     59  O   UNL A   1      42.695  18.733  26.997  1.00  0.00    -0.237 OA
ATOM     60  O   UNL A   1      40.982  19.594  25.432  1.00  0.00    -0.237 OA
ATOM     61  O   UNL A   1      43.361  19.638  24.797  1.00  0.00    -0.744 OA
ENDBRANCH  57  58
ENDBRANCH  25  50
BRANCH  37  62
ATOM     62  C   UNL A   1      48.080  27.144  30.804  1.00  0.00     0.058 A 
ATOM     63  C   UNL A   1      48.410  26.457  31.984  1.00  0.00     0.135 A 
ATOM     64  C   UNL A   1      49.117  27.441  29.905  1.00  0.00     0.135 A 
ATOM     65  F   UNL A   1      47.457  26.157  32.880  1.00  0.00    -0.206 F 
ATOM     66  C   UNL A   1      49.724  26.114  32.279  1.00  0.00     0.059 A 
ATOM     67  C   UNL A   1      50.434  27.080  30.167  1.00  0.00     0.059 A 
ATOM     68  F   UNL A   1      48.853  28.087  28.758  1.00  0.00    -0.206 F 
ATOM     69  C   UNL A   1      50.731  26.434  31.367  1.00  0.00     0.060 A 
BRANCH  69  70
ATOM     70  S   UNL A   1      52.433  25.986  31.763  1.00  0.00     0.124 S 
ATOM     71  O   UNL A   1      53.073  26.083  30.456  1.00  0.00    -0.237 OA
ATOM     72  O   UNL A   1      52.809  27.009  32.733  1.00  0.00    -0.237 OA
ATOM     73  O   UNL A   1      52.311  24.635  32.304  1.00  0.00    -0.744 OA
ENDBRANCH  69  70
ENDBRANCH  37  62
ENDBRANCH  11  12
ENDBRANCH   4   6
ENDBRANCH   1   2
BRANCH   1  74
ATOM     74  C   UNL A   1      33.966  33.357  28.991  1.00  0.00     0.023 C 
BRANCH  74  75
ATOM     75  C   UNL A   1      33.053  34.440  28.419  1.00  0.00     0.023 C 
BRANCH  75  76
ATOM     76  C   UNL A   1      33.365  35.856  28.915  1.00  0.00     0.116 C 
BRANCH  76  77
ATOM     77  N   UNL A   1      32.549  36.214  30.061  1.00  0.00    -0.356 N 
ATOM     78  C   UNL A   1      32.749  36.046  31.398  1.00  0.00     0.227 C 
ATOM     79  H   UNL A   1      31.701  36.657  29.831  1.00  0.00     0.163 HD
ATOM     80  O   UNL A   1      31.837  36.409  32.149  1.00  0.00    -0.274 OA
BRANCH  78  81
ATOM     81  C   UNL A   1      34.065  35.523  31.996  1.00  0.00     0.103 C 
ATOM     82  C   UNL A   1      34.508  36.162  33.274  1.00  0.00    -0.016 C 
ATOM     83  C   UNL A   1      33.961  34.031  32.370  1.00  0.00     0.047 C 
ATOM     84  C   UNL A   1      34.797  35.251  34.207  1.00  0.00    -0.005 C 
ATOM     85  C   UNL A   1      34.788  33.849  33.654  1.00  0.00     0.117 C 
BRANCH  85  86
ATOM     86  N   UNL A   1      36.195  33.496  33.543  1.00  0.00    -0.275 N 
ATOM     87  C   UNL A   1      36.934  33.282  34.683  1.00  0.00     0.233 C 
ATOM     88  C   UNL A   1      36.977  33.580  32.426  1.00  0.00     0.233 C 
ATOM     89  O   UNL A   1      36.546  33.097  35.821  1.00  0.00    -0.274 OA
ATOM     90  C   UNL A   1      38.373  33.417  34.349  1.00  0.00     0.092 C 
ATOM     91  C   UNL A   1      38.407  33.592  32.838  1.00  0.00     0.092 C 
ATOM     92  O   UNL A   1      36.660  33.676  31.252  1.00  0.00    -0.274 OA
ATOM     93  C   UNL A   1      39.104  32.429  33.491  1.00  0.00     0.028 C 
ENDBRANCH  85  86
ENDBRANCH  78  81
ENDBRANCH  76  77
ENDBRANCH  75  76
ENDBRANCH  74  75
ENDBRANCH   1  74
TORSDOF 15
ENDMDL
MODEL 3
REMARK VINA RESULT:     -10.7      5.177     11.753
REMARK SMILES O=C(NCCCCNC(=O)[C@H]1C=C[C@H](N2C(=O)[C@H]3C[C@H]3C2=O)C1)c1ccc(-c2c3nc(c(-c4c(F)cc(S(=O)(=O)[O-])cc4F)c4ccc([nH]4)c(-c4c(F)cc(S(=O)(=O)[O-])cc4F)c4nc(c(-c5c(F)cc(S(=O)(=O)[O-])cc5F)c5ccc2[nH]5)C=C4)C=C3)cc1
REMARK SMILES IDX 4 1 3 2 1 3 2 4 24 6 25 7 89 8 26 9 88 10 27 11 28 12 29 13
REMARK SMILES IDX 82 14 30 15 87 16 81 17 83 18 31 19 86 20 80 21 79 22 32 24
REMARK SMILES IDX 66 25 45 26 65 27 46 28 49 29 64 30 84 31 47 32 48 33 63 35
REMARK SMILES IDX 85 36 50 37 33 38 34 39 43 40 35 41 36 42 42 43 44 44 37 45
REMARK SMILES IDX 38 46 39 47 40 48 41 49 67 50 68 51 77 52 69 53 70 54 76 55
REMARK SMILES IDX 78 56 71 57 72 58 73 59 74 60 75 61 51 62 52 63 61 64 53 65
REMARK SMILES IDX 54 66 60 67 62 68 55 69 56 70 57 71 58 72 59 73 5 74 6 75
REMARK SMILES IDX 7 76 8 77 9 78 10 80 11 81 12 82 23 83 13 84 14 85 15 86
REMARK SMILES IDX 16 87 21 88 17 89 18 90 20 91 22 92 19 93
REMARK H PARENT 3 5 83 23 49 34 8 79
REMARK Flexibility Score: inf
ROOT
ATOM      1  C   UNL A   1      41.177  23.035  27.438  1.00  0.00     0.116 C 
ENDROOT
BRANCH   1   2
ATOM      2  N   UNL A   1      41.323  23.844  26.235  1.00  0.00    -0.352 N 
ATOM      3  O   UNL A   1      41.382  25.780  25.060  1.00  0.00    -0.269 OA
ATOM      4  C   UNL A   1      41.355  25.219  26.150  1.00  0.00     0.251 C 
ATOM      5  H   UNL A   1      41.408  23.353  25.387  1.00  0.00     0.163 HD
BRANCH   4   6
ATOM      6  C   UNL A   1      41.316  25.999  27.405  1.00  0.00     0.039 A 
ATOM      7  C   UNL A   1      40.226  25.865  28.264  1.00  0.00     0.014 A 
ATOM      8  C   UNL A   1      42.321  26.931  27.675  1.00  0.00     0.014 A 
ATOM      9  C   UNL A   1      40.050  26.778  29.290  1.00  0.00     0.010 A 
ATOM     10  C   UNL A   1      42.196  27.780  28.781  1.00  0.00     0.010 A 
ATOM     11  C   UNL A   1      41.041  27.734  29.576  1.00  0.00    -0.014 A 
BRANCH  11  12
ATOM     12  C   UNL A   1      40.853  28.609  30.762  1.00  0.00     0.031 A 
ATOM     13  C   UNL A   1      41.762  28.529  31.959  1.00  0.00     0.074 A 
ATOM     14  C   UNL A   1      39.879  29.539  30.708  1.00  0.00     0.049 A 
ATOM     15  N   UNL A   1      41.761  29.269  33.038  1.00  0.00    -0.248 NA
ATOM     16  C   UNL A   1      42.799  27.486  31.952  1.00  0.00     0.031 C 
ATOM     17  C   UNL A   1      38.923  29.689  29.605  1.00  0.00     0.029 A 
ATOM     18  N   UNL A   1      39.546  30.550  31.571  1.00  0.00    -0.354 N 
ATOM     19  C   UNL A   1      42.784  28.782  33.842  1.00  0.00     0.074 A 
ATOM     20  C   UNL A   1      43.366  27.657  33.139  1.00  0.00     0.031 C 
ATOM     21  C   UNL A   1      38.157  30.765  29.827  1.00  0.00     0.029 A 
ATOM     22  C   UNL A   1      38.514  31.337  31.120  1.00  0.00     0.049 A 
ATOM     23  H   UNL A   1      40.004  30.699  32.430  1.00  0.00     0.167 HD
ATOM     24  C   UNL A   1      43.206  29.239  35.047  1.00  0.00     0.037 A 
ATOM     25  C   UNL A   1      37.902  32.391  31.688  1.00  0.00     0.037 A 
ATOM     26  C   UNL A   1      42.618  30.365  35.733  1.00  0.00     0.049 A 
ATOM     27  C   UNL A   1      38.384  32.870  33.025  1.00  0.00     0.074 A 
ATOM     28  C   UNL A   1      42.971  30.909  36.958  1.00  0.00     0.029 A 
ATOM     29  N   UNL A   1      41.557  31.124  35.256  1.00  0.00    -0.354 N 
ATOM     30  N   UNL A   1      39.362  32.400  33.762  1.00  0.00    -0.248 NA
ATOM     31  C   UNL A   1      37.684  34.020  33.607  1.00  0.00     0.031 C 
ATOM     32  C   UNL A   1      42.102  31.970  37.236  1.00  0.00     0.029 A 
ATOM     33  C   UNL A   1      41.238  32.121  36.165  1.00  0.00     0.049 A 
ATOM     34  H   UNL A   1      41.100  30.975  34.397  1.00  0.00     0.167 HD
ATOM     35  C   UNL A   1      39.397  33.201  34.896  1.00  0.00     0.074 A 
ATOM     36  C   UNL A   1      38.367  34.206  34.729  1.00  0.00     0.031 C 
ATOM     37  C   UNL A   1      40.202  33.106  35.984  1.00  0.00     0.037 A 
BRANCH  24  38
ATOM     38  C   UNL A   1      44.354  28.528  35.711  1.00  0.00     0.058 A 
ATOM     39  C   UNL A   1      44.145  27.445  36.580  1.00  0.00     0.135 A 
ATOM     40  C   UNL A   1      45.682  28.886  35.425  1.00  0.00     0.135 A 
ATOM     41  F   UNL A   1      42.898  27.067  36.902  1.00  0.00    -0.206 F 
ATOM     42  C   UNL A   1      45.210  26.755  37.155  1.00  0.00     0.059 A 
ATOM     43  C   UNL A   1      46.762  28.194  35.969  1.00  0.00     0.059 A 
ATOM     44  F   UNL A   1      45.942  29.913  34.600  1.00  0.00    -0.206 F 
ATOM     45  C   UNL A   1      46.515  27.136  36.840  1.00  0.00     0.060 A 
BRANCH  45  46
ATOM     46  S   UNL A   1      47.883  26.216  37.580  1.00  0.00     0.124 S 
ATOM     47  O   UNL A   1      48.604  27.277  38.276  1.00  0.00    -0.237 OA
ATOM     48  O   UNL A   1      47.189  25.257  38.434  1.00  0.00    -0.237 OA
ATOM     49  O   UNL A   1      48.571  25.642  36.427  1.00  0.00    -0.744 OA
ENDBRANCH  45  46
ENDBRANCH  24  38
BRANCH  25  50
ATOM     50  C   UNL A   1      36.751  33.033  31.002  1.00  0.00     0.058 A 
ATOM     51  C   UNL A   1      35.433  32.828  31.433  1.00  0.00     0.135 A 
ATOM     52  C   UNL A   1      36.955  33.888  29.907  1.00  0.00     0.135 A 
ATOM     53  F   UNL A   1      35.186  32.021  32.476  1.00  0.00    -0.206 F 
ATOM     54  C   UNL A   1      34.356  33.428  30.789  1.00  0.00     0.059 A 
ATOM     55  C   UNL A   1      35.899  34.526  29.268  1.00  0.00     0.059 A 
ATOM     56  F   UNL A   1      38.200  34.137  29.469  1.00  0.00    -0.206 F 
ATOM     57  C   UNL A   1      34.600  34.275  29.707  1.00  0.00     0.060 A 
BRANCH  57  58
ATOM     58  S   UNL A   1      33.201  35.078  28.896  1.00  0.00     0.124 S 
ATOM     59  O   UNL A   1      33.831  36.270  28.341  1.00  0.00    -0.237 OA
ATOM     60  O   UNL A   1      32.782  34.067  27.930  1.00  0.00    -0.237 OA
ATOM     61  O   UNL A   1      32.266  35.308  29.993  1.00  0.00    -0.744 OA
ENDBRANCH  57  58
ENDBRANCH  25  50
BRANCH  37  62
ATOM     62  C   UNL A   1      40.001  34.134  37.064  1.00  0.00     0.058 A 
ATOM     63  C   UNL A   1      39.160  33.891  38.162  1.00  0.00     0.135 A 
ATOM     64  C   UNL A   1      40.657  35.373  37.000  1.00  0.00     0.135 A 
ATOM     65  F   UNL A   1      38.503  32.726  38.266  1.00  0.00    -0.206 F 
ATOM     66  C   UNL A   1      38.945  34.858  39.138  1.00  0.00     0.059 A 
ATOM     67  C   UNL A   1      40.480  36.343  37.981  1.00  0.00     0.059 A 
ATOM     68  F   UNL A   1      41.480  35.651  35.976  1.00  0.00    -0.206 F 
ATOM     69  C   UNL A   1      39.606  36.083  39.036  1.00  0.00     0.060 A 
BRANCH  69  70
ATOM     70  S   UNL A   1      39.318  37.330  40.308  1.00  0.00     0.124 S 
ATOM     71  O   UNL A   1      38.496  38.297  39.589  1.00  0.00    -0.237 OA
ATOM     72  O   UNL A   1      38.636  36.566  41.348  1.00  0.00    -0.237 OA
ATOM     73  O   UNL A   1      40.663  37.782  40.652  1.00  0.00    -0.744 OA
ENDBRANCH  69  70
ENDBRANCH  37  62
ENDBRANCH  11  12
ENDBRANCH   4   6
ENDBRANCH   1   2
BRANCH   1  74
ATOM     74  C   UNL A   1      40.079  21.988  27.345  1.00  0.00     0.023 C 
BRANCH  74  75
ATOM     75  C   UNL A   1      39.603  21.686  25.925  1.00  0.00     0.023 C 
BRANCH  75  76
ATOM     76  C   UNL A   1      38.133  22.033  25.665  1.00  0.00     0.116 C 
BRANCH  76  77
ATOM     77  N   UNL A   1      37.373  20.868  25.246  1.00  0.00    -0.356 N 
ATOM     78  C   UNL A   1      36.035  20.682  25.064  1.00  0.00     0.227 C 
ATOM     79  H   UNL A   1      37.921  20.073  25.061  1.00  0.00     0.163 HD
ATOM     80  O   UNL A   1      35.668  19.545  24.751  1.00  0.00    -0.274 OA
BRANCH  78  81
ATOM     81  C   UNL A   1      35.006  21.820  25.143  1.00  0.00     0.103 C 
ATOM     82  C   UNL A   1      33.760  21.638  24.336  1.00  0.00    -0.016 C 
ATOM     83  C   UNL A   1      34.470  21.998  26.578  1.00  0.00     0.047 C 
ATOM     84  C   UNL A   1      32.663  21.837  25.071  1.00  0.00    -0.005 C 
ATOM     85  C   UNL A   1      32.986  22.379  26.440  1.00  0.00     0.117 C 
BRANCH  85  86
ATOM     86  N   UNL A   1      32.623  23.786  26.366  1.00  0.00    -0.275 N 
ATOM     87  C   UNL A   1      31.343  24.176  26.687  1.00  0.00     0.233 C 
ATOM     88  C   UNL A   1      33.337  24.788  25.773  1.00  0.00     0.233 C 
ATOM     89  O   UNL A   1      30.480  23.552  27.274  1.00  0.00    -0.274 OA
ATOM     90  C   UNL A   1      31.089  25.510  26.092  1.00  0.00     0.092 C 
ATOM     91  C   UNL A   1      32.426  25.933  25.502  1.00  0.00     0.092 C 
ATOM     92  O   UNL A   1      34.511  24.825  25.442  1.00  0.00    -0.274 OA
ATOM     93  C   UNL A   1      31.767  26.757  26.574  1.00  0.00     0.028 C 
ENDBRANCH  85  86
ENDBRANCH  78  81
ENDBRANCH  76  77
ENDBRANCH  75  76
ENDBRANCH  74  75
ENDBRANCH   1  74
TORSDOF 15
ENDMDL
