MODEL 1
REMARK VINA RESULT:     -10.5      0.000      0.000
REMARK SMILES [NH3+][C@H](C(=O)NCCCCNC(=O)c1ccc(-c2c3nc(c(-c4c(F)cc(S(=O)(=O)[O-])cc4F)c4ccc([nH]4)c(-c4c(F)cc(S(=O)(=O)[O-])cc4F)c4nc(c(-c5c(F)cc(S(=O)(=O)[O-])cc5F)c5ccc2[nH]5)C=C4)C=C3)cc1)c1cc(F)c(Cl)c(Cl)c1
REMARK SMILES IDX 8 1 7 2 6 3 5 4 3 5 4 6 2 8 1 9 79 13 80 14 87 15 81 16
REMARK SMILES IDX 85 17 82 18 83 19 86 20 84 21 9 22 10 23 11 24 12 26 13 27
REMARK SMILES IDX 14 28 78 29 15 30 77 31 16 32 17 33 18 34 71 35 19 36 76 37
REMARK SMILES IDX 70 38 72 39 20 40 75 41 69 42 68 43 21 45 55 46 34 47 54 48
REMARK SMILES IDX 35 49 38 50 53 51 73 52 36 53 37 54 52 56 74 57 39 58 22 59
REMARK SMILES IDX 23 60 32 61 24 62 25 63 31 64 33 65 26 66 27 67 28 68 29 69
REMARK SMILES IDX 30 70 56 71 57 72 66 73 58 74 59 75 65 76 67 77 60 78 61 79
REMARK SMILES IDX 62 80 63 81 64 82 40 83 41 84 50 85 42 86 43 87 49 88 51 89
REMARK SMILES IDX 44 90 45 91 46 92 47 93 48 94
REMARK H PARENT 5 7 1 10 1 11 1 12 10 25 72 44 38 55
REMARK Flexibility Score: inf
ROOT
ATOM      1  C   UNL A   1      33.120  28.054  25.572  1.00  0.00     0.023 C 
ENDROOT
BRANCH   1   2
ATOM      2  C   UNL A   1      31.875  27.204  25.823  1.00  0.00     0.023 C 
BRANCH   2   3
ATOM      3  C   UNL A   1      31.934  25.789  25.246  1.00  0.00     0.116 C 
BRANCH   3   4
ATOM      4  N   UNL A   1      32.710  25.747  24.022  1.00  0.00    -0.351 N 
ATOM      5  C   UNL A   1      33.519  24.762  23.533  1.00  0.00     0.283 C 
ATOM      6  O   UNL A   1      34.140  24.987  22.488  1.00  0.00    -0.268 OA
ATOM      7  H   UNL A   1      32.644  26.552  23.458  1.00  0.00     0.163 HD
BRANCH   5   8
ATOM      8  C   UNL A   1      33.610  23.376  24.234  1.00  0.00     0.302 C 
BRANCH   8   9
ATOM      9  N   UNL A   1      33.120  22.348  23.283  1.00  0.00    -0.343 N 
ATOM     10  H   UNL A   1      32.552  21.664  23.783  1.00  0.00     0.345 HD
ATOM     11  H   UNL A   1      33.915  21.877  22.851  1.00  0.00     0.345 HD
ATOM     12  H   UNL A   1      32.556  22.796  22.560  1.00  0.00     0.345 HD
ENDBRANCH   8   9
BRANCH   8  13
ATOM     13  C   UNL A   1      35.023  23.079  24.721  1.00  0.00     0.023 A 
ATOM     14  C   UNL A   1      35.800  24.019  25.413  1.00  0.00     0.051 A 
ATOM     15  C   UNL A   1      35.580  21.807  24.508  1.00  0.00     0.032 A 
ATOM     16  C   UNL A   1      37.074  23.687  25.877  1.00  0.00     0.143 A 
ATOM     17  C   UNL A   1      36.843  21.464  25.012  1.00  0.00     0.063 A 
ATOM     18  F   UNL A   1      37.786  24.634  26.507  1.00  0.00    -0.205 F 
ATOM     19  C   UNL A   1      37.602  22.409  25.697  1.00  0.00     0.095 A 
ATOM     20  Cl  UNL A   1      37.385  19.842  24.754  1.00  0.00    -0.083 Cl
ATOM     21  Cl  UNL A   1      39.173  22.055  26.324  1.00  0.00    -0.079 Cl
ENDBRANCH   8  13
ENDBRANCH   5   8
ENDBRANCH   3   4
ENDBRANCH   2   3
ENDBRANCH   1   2
BRANCH   1  22
ATOM     22  C   UNL A   1      33.970  28.338  26.802  1.00  0.00     0.116 C 
BRANCH  22  23
ATOM     23  N   UNL A   1      33.782  29.679  27.334  1.00  0.00    -0.352 N 
ATOM     24  C   UNL A   1      34.666  30.449  28.051  1.00  0.00     0.251 C 
ATOM     25  H   UNL A   1      32.905  30.088  27.156  1.00  0.00     0.163 HD
ATOM     26  O   UNL A   1      34.299  31.521  28.526  1.00  0.00    -0.269 OA
BRANCH  24  27
ATOM     27  C   UNL A   1      36.044  29.963  28.274  1.00  0.00     0.039 A 
ATOM     28  C   UNL A   1      36.982  30.085  27.246  1.00  0.00     0.014 A 
ATOM     29  C   UNL A   1      36.416  29.414  29.505  1.00  0.00     0.014 A 
ATOM     30  C   UNL A   1      38.308  29.712  27.473  1.00  0.00     0.010 A 
ATOM     31  C   UNL A   1      37.752  29.122  29.756  1.00  0.00     0.010 A 
ATOM     32  C   UNL A   1      38.710  29.255  28.739  1.00  0.00    -0.014 A 
BRANCH  32  33
ATOM     33  C   UNL A   1      40.119  28.882  29.018  1.00  0.00     0.031 A 
ATOM     34  C   UNL A   1      41.046  29.883  29.653  1.00  0.00     0.074 A 
ATOM     35  C   UNL A   1      40.584  27.675  28.640  1.00  0.00     0.049 A 
ATOM     36  N   UNL A   1      42.324  29.782  29.909  1.00  0.00    -0.248 NA
ATOM     37  C   UNL A   1      40.464  31.187  30.012  1.00  0.00     0.031 C 
ATOM     38  C   UNL A   1      39.797  26.636  27.970  1.00  0.00     0.029 A 
ATOM     39  N   UNL A   1      41.833  27.120  28.758  1.00  0.00    -0.354 N 
ATOM     40  C   UNL A   1      42.703  31.013  30.434  1.00  0.00     0.074 A 
ATOM     41  C   UNL A   1      41.532  31.862  30.405  1.00  0.00     0.031 C 
ATOM     42  C   UNL A   1      40.576  25.561  27.765  1.00  0.00     0.029 A 
ATOM     43  C   UNL A   1      41.920  25.843  28.256  1.00  0.00     0.049 A 
ATOM     44  H   UNL A   1      42.595  27.593  29.164  1.00  0.00     0.167 HD
ATOM     45  C   UNL A   1      43.908  31.393  30.921  1.00  0.00     0.037 A 
ATOM     46  C   UNL A   1      42.967  24.996  28.202  1.00  0.00     0.037 A 
ATOM     47  C   UNL A   1      45.058  30.530  30.981  1.00  0.00     0.049 A 
ATOM     48  C   UNL A   1      44.291  25.428  28.772  1.00  0.00     0.074 A 
ATOM     49  C   UNL A   1      46.308  30.795  31.514  1.00  0.00     0.029 A 
ATOM     50  N   UNL A   1      45.098  29.232  30.493  1.00  0.00    -0.354 N 
ATOM     51  N   UNL A   1      44.617  26.575  29.320  1.00  0.00    -0.248 NA
ATOM     52  C   UNL A   1      45.385  24.450  28.725  1.00  0.00     0.031 C 
ATOM     53  C   UNL A   1      47.114  29.668  31.315  1.00  0.00     0.029 A 
ATOM     54  C   UNL A   1      46.354  28.686  30.700  1.00  0.00     0.049 A 
ATOM     55  H   UNL A   1      44.344  28.767  30.063  1.00  0.00     0.167 HD
ATOM     56  C   UNL A   1      45.944  26.444  29.714  1.00  0.00     0.074 A 
ATOM     57  C   UNL A   1      46.358  25.106  29.343  1.00  0.00     0.031 C 
ATOM     58  C   UNL A   1      46.745  27.347  30.333  1.00  0.00     0.037 A 
BRANCH  45  59
ATOM     59  C   UNL A   1      44.032  32.807  31.422  1.00  0.00     0.058 A 
ATOM     60  C   UNL A   1      43.812  33.135  32.770  1.00  0.00     0.135 A 
ATOM     61  C   UNL A   1      44.360  33.849  30.541  1.00  0.00     0.135 A 
ATOM     62  F   UNL A   1      43.479  32.180  33.654  1.00  0.00    -0.206 F 
ATOM     63  C   UNL A   1      43.858  34.452  33.216  1.00  0.00     0.059 A 
ATOM     64  C   UNL A   1      44.445  35.170  30.972  1.00  0.00     0.059 A 
ATOM     65  F   UNL A   1      44.586  33.593  29.243  1.00  0.00    -0.206 F 
ATOM     66  C   UNL A   1      44.167  35.464  32.307  1.00  0.00     0.060 A 
BRANCH  66  67
ATOM     67  S   UNL A   1      44.186  37.172  32.888  1.00  0.00     0.124 S 
ATOM     68  O   UNL A   1      42.959  37.223  33.677  1.00  0.00    -0.237 OA
ATOM     69  O   UNL A   1      45.430  37.232  33.649  1.00  0.00    -0.237 OA
ATOM     70  O   UNL A   1      44.173  37.951  31.653  1.00  0.00    -0.744 OA
ENDBRANCH  66  67
ENDBRANCH  45  59
BRANCH  46  71
ATOM     71  C   UNL A   1      42.783  23.634  27.636  1.00  0.00     0.058 A 
ATOM     72  C   UNL A   1      42.985  23.394  26.269  1.00  0.00     0.135 A 
ATOM     73  C   UNL A   1      42.440  22.544  28.449  1.00  0.00     0.135 A 
ATOM     74  F   UNL A   1      43.309  24.408  25.452  1.00  0.00    -0.206 F 
ATOM     75  C   UNL A   1      42.851  22.122  25.725  1.00  0.00     0.059 A 
ATOM     76  C   UNL A   1      42.321  21.257  27.931  1.00  0.00     0.059 A 
ATOM     77  F   UNL A   1      42.252  22.719  29.766  1.00  0.00    -0.206 F 
ATOM     78  C   UNL A   1      42.525  21.057  26.566  1.00  0.00     0.060 A 
BRANCH  78  79
ATOM     79  S   UNL A   1      42.424  19.398  25.859  1.00  0.00     0.124 S 
ATOM     80  O   UNL A   1      42.964  18.584  26.942  1.00  0.00    -0.237 OA
ATOM     81  O   UNL A   1      40.994  19.259  25.607  1.00  0.00    -0.237 OA
ATOM     82  O   UNL A   1      43.257  19.492  24.664  1.00  0.00    -0.744 OA
ENDBRANCH  78  79
ENDBRANCH  46  71
BRANCH  58  83
ATOM     83  C   UNL A   1      48.137  26.905  30.690  1.00  0.00     0.058 A 
ATOM     84  C   UNL A   1      49.210  27.044  29.797  1.00  0.00     0.135 A 
ATOM     85  C   UNL A   1      48.406  26.382  31.965  1.00  0.00     0.135 A 
ATOM     86  F   UNL A   1      49.004  27.534  28.564  1.00  0.00    -0.206 F 
ATOM     87  C   UNL A   1      50.498  26.654  30.146  1.00  0.00     0.059 A 
ATOM     88  C   UNL A   1      49.691  26.009  32.345  1.00  0.00     0.059 A 
ATOM     89  F   UNL A   1      47.416  26.239  32.861  1.00  0.00    -0.206 F 
ATOM     90  C   UNL A   1      50.729  26.139  31.423  1.00  0.00     0.060 A 
BRANCH  90  91
ATOM     91  S   UNL A   1      52.411  25.664  31.877  1.00  0.00     0.124 S 
ATOM     92  O   UNL A   1      52.669  26.546  33.011  1.00  0.00    -0.237 OA
ATOM     93  O   UNL A   1      52.264  24.247  32.194  1.00  0.00    -0.237 OA
ATOM     94  O   UNL A   1      53.182  25.953  30.670  1.00  0.00    -0.744 OA
ENDBRANCH  90  91
ENDBRANCH  58  83
ENDBRANCH  32  33
ENDBRANCH  24  27
ENDBRANCH  22  23
ENDBRANCH   1  22
TORSDOF 16
ENDMDL
MODEL 2
REMARK VINA RESULT:     -10.5      3.720     10.359
REMARK SMILES [NH3+][C@H](C(=O)NCCCCNC(=O)c1ccc(-c2c3nc(c(-c4c(F)cc(S(=O)(=O)[O-])cc4F)c4ccc([nH]4)c(-c4c(F)cc(S(=O)(=O)[O-])cc4F)c4nc(c(-c5c(F)cc(S(=O)(=O)[O-])cc5F)c5ccc2[nH]5)C=C4)C=C3)cc1)c1cc(F)c(Cl)c(Cl)c1
REMARK SMILES IDX 8 1 7 2 6 3 5 4 3 5 4 6 2 8 1 9 79 13 80 14 87 15 81 16
REMARK SMILES IDX 85 17 82 18 83 19 86 20 84 21 9 22 10 23 11 24 12 26 13 27
REMARK SMILES IDX 14 28 78 29 15 30 77 31 16 32 17 33 18 34 71 35 19 36 76 37
REMARK SMILES IDX 70 38 72 39 20 40 75 41 69 42 68 43 21 45 55 46 34 47 54 48
REMARK SMILES IDX 35 49 38 50 53 51 73 52 36 53 37 54 52 56 74 57 39 58 22 59
REMARK SMILES IDX 23 60 32 61 24 62 25 63 31 64 33 65 26 66 27 67 28 68 29 69
REMARK SMILES IDX 30 70 56 71 57 72 66 73 58 74 59 75 65 76 67 77 60 78 61 79
REMARK SMILES IDX 62 80 63 81 64 82 40 83 41 84 50 85 42 86 43 87 49 88 51 89
REMARK SMILES IDX 44 90 45 91 46 92 47 93 48 94
REMARK H PARENT 5 7 1 10 1 11 1 12 10 25 72 44 38 55
REMARK Flexibility Score: inf
ROOT
ATOM      1  C   UNL A   1      40.899  20.817  27.141  1.00  0.00     0.023 C 
ENDROOT
BRANCH   1   2
ATOM      2  C   UNL A   1      41.208  19.550  26.345  1.00  0.00     0.023 C 
BRANCH   2   3
ATOM      3  C   UNL A   1      42.684  19.148  26.323  1.00  0.00     0.116 C 
BRANCH   3   4
ATOM      4  N   UNL A   1      43.197  19.087  24.968  1.00  0.00    -0.351 N 
ATOM      5  C   UNL A   1      44.386  19.529  24.462  1.00  0.00     0.283 C 
ATOM      6  O   UNL A   1      44.572  19.428  23.245  1.00  0.00    -0.268 OA
ATOM      7  H   UNL A   1      42.597  18.662  24.313  1.00  0.00     0.163 HD
BRANCH   5   8
ATOM      8  C   UNL A   1      45.497  20.089  25.396  1.00  0.00     0.302 C 
BRANCH   8   9
ATOM      9  N   UNL A   1      46.785  19.468  25.000  1.00  0.00    -0.343 N 
ATOM     10  H   UNL A   1      47.265  20.075  24.334  1.00  0.00     0.345 HD
ATOM     11  H   UNL A   1      46.607  18.562  24.566  1.00  0.00     0.345 HD
ATOM     12  H   UNL A   1      47.369  19.340  25.826  1.00  0.00     0.345 HD
ENDBRANCH   8   9
BRANCH   8  13
ATOM     13  C   UNL A   1      45.558  21.611  25.356  1.00  0.00     0.023 A 
ATOM     14  C   UNL A   1      46.470  22.314  24.556  1.00  0.00     0.051 A 
ATOM     15  C   UNL A   1      44.652  22.365  26.120  1.00  0.00     0.032 A 
ATOM     16  C   UNL A   1      46.460  23.709  24.520  1.00  0.00     0.143 A 
ATOM     17  C   UNL A   1      44.617  23.765  26.051  1.00  0.00     0.063 A 
ATOM     18  F   UNL A   1      47.375  24.330  23.759  1.00  0.00    -0.205 F 
ATOM     19  C   UNL A   1      45.530  24.448  25.250  1.00  0.00     0.095 A 
ATOM     20  Cl  UNL A   1      43.401  24.575  26.977  1.00  0.00    -0.083 Cl
ATOM     21  Cl  UNL A   1      45.552  26.171  25.137  1.00  0.00    -0.079 Cl
ENDBRANCH   8  13
ENDBRANCH   5   8
ENDBRANCH   3   4
ENDBRANCH   2   3
ENDBRANCH   1   2
BRANCH   1  22
ATOM     22  C   UNL A   1      40.861  22.101  26.326  1.00  0.00     0.116 C 
BRANCH  22  23
ATOM     23  N   UNL A   1      39.542  22.407  25.794  1.00  0.00    -0.352 N 
ATOM     24  C   UNL A   1      38.752  23.505  26.035  1.00  0.00     0.251 C 
ATOM     25  H   UNL A   1      39.166  21.737  25.179  1.00  0.00     0.163 HD
ATOM     26  O   UNL A   1      37.608  23.547  25.591  1.00  0.00    -0.269 OA
BRANCH  24  27
ATOM     27  C   UNL A   1      39.277  24.615  26.859  1.00  0.00     0.039 A 
ATOM     28  C   UNL A   1      40.052  25.605  26.250  1.00  0.00     0.014 A 
ATOM     29  C   UNL A   1      38.982  24.692  28.223  1.00  0.00     0.014 A 
ATOM     30  C   UNL A   1      40.479  26.705  26.997  1.00  0.00     0.010 A 
ATOM     31  C   UNL A   1      39.336  25.826  28.944  1.00  0.00     0.010 A 
ATOM     32  C   UNL A   1      40.099  26.839  28.343  1.00  0.00    -0.014 A 
BRANCH  32  33
ATOM     33  C   UNL A   1      40.512  28.012  29.152  1.00  0.00     0.031 A 
ATOM     34  C   UNL A   1      41.850  28.011  29.842  1.00  0.00     0.074 A 
ATOM     35  C   UNL A   1      39.662  29.043  29.326  1.00  0.00     0.049 A 
ATOM     36  N   UNL A   1      42.364  28.900  30.652  1.00  0.00    -0.248 NA
ATOM     37  C   UNL A   1      42.707  26.836  29.620  1.00  0.00     0.031 C 
ATOM     38  C   UNL A   1      38.318  29.139  28.751  1.00  0.00     0.029 A 
ATOM     39  N   UNL A   1      39.800  30.206  30.041  1.00  0.00    -0.354 N 
ATOM     40  C   UNL A   1      43.590  28.380  31.054  1.00  0.00     0.074 A 
ATOM     41  C   UNL A   1      43.714  27.074  30.446  1.00  0.00     0.031 C 
ATOM     42  C   UNL A   1      37.768  30.310  29.113  1.00  0.00     0.029 A 
ATOM     43  C   UNL A   1      38.704  31.032  29.969  1.00  0.00     0.049 A 
ATOM     44  H   UNL A   1      40.608  30.426  30.558  1.00  0.00     0.167 HD
ATOM     45  C   UNL A   1      44.537  28.950  31.837  1.00  0.00     0.037 A 
ATOM     46  C   UNL A   1      38.481  32.238  30.529  1.00  0.00     0.037 A 
ATOM     47  C   UNL A   1      44.423  30.265  32.408  1.00  0.00     0.049 A 
ATOM     48  C   UNL A   1      39.557  32.864  31.374  1.00  0.00     0.074 A 
ATOM     49  C   UNL A   1      45.351  30.962  33.162  1.00  0.00     0.029 A 
ATOM     50  N   UNL A   1      43.310  31.085  32.285  1.00  0.00    -0.354 N 
ATOM     51  N   UNL A   1      40.735  32.385  31.696  1.00  0.00    -0.248 NA
ATOM     52  C   UNL A   1      39.278  34.197  31.923  1.00  0.00     0.031 C 
ATOM     53  C   UNL A   1      44.785  32.190  33.525  1.00  0.00     0.029 A 
ATOM     54  C   UNL A   1      43.522  32.276  32.960  1.00  0.00     0.049 A 
ATOM     55  H   UNL A   1      42.491  30.855  31.790  1.00  0.00     0.167 HD
ATOM     56  C   UNL A   1      41.351  33.372  32.458  1.00  0.00     0.074 A 
ATOM     57  C   UNL A   1      40.415  34.475  32.545  1.00  0.00     0.031 C 
ATOM     58  C   UNL A   1      42.582  33.368  33.027  1.00  0.00     0.037 A 
BRANCH  45  59
ATOM     59  C   UNL A   1      45.775  28.140  32.116  1.00  0.00     0.058 A 
ATOM     60  C   UNL A   1      46.934  28.269  31.334  1.00  0.00     0.135 A 
ATOM     61  C   UNL A   1      45.798  27.213  33.170  1.00  0.00     0.135 A 
ATOM     62  F   UNL A   1      46.963  29.129  30.303  1.00  0.00    -0.206 F 
ATOM     63  C   UNL A   1      48.052  27.470  31.551  1.00  0.00     0.059 A 
ATOM     64  C   UNL A   1      46.917  26.426  33.426  1.00  0.00     0.059 A 
ATOM     65  F   UNL A   1      44.720  27.051  33.953  1.00  0.00    -0.206 F 
ATOM     66  C   UNL A   1      48.030  26.544  32.595  1.00  0.00     0.060 A 
BRANCH  66  67
ATOM     67  S   UNL A   1      49.471  25.486  32.842  1.00  0.00     0.124 S 
ATOM     68  O   UNL A   1      50.437  26.435  33.386  1.00  0.00    -0.237 OA
ATOM     69  O   UNL A   1      48.970  24.486  33.779  1.00  0.00    -0.237 OA
ATOM     70  O   UNL A   1      49.763  24.992  31.499  1.00  0.00    -0.744 OA
ENDBRANCH  66  67
ENDBRANCH  45  59
BRANCH  46  71
ATOM     71  C   UNL A   1      37.206  32.952  30.255  1.00  0.00     0.058 A 
ATOM     72  C   UNL A   1      37.078  33.779  29.129  1.00  0.00     0.135 A 
ATOM     73  C   UNL A   1      36.086  32.797  31.084  1.00  0.00     0.135 A 
ATOM     74  F   UNL A   1      38.125  33.962  28.310  1.00  0.00    -0.206 F 
ATOM     75  C   UNL A   1      35.886  34.429  28.835  1.00  0.00     0.059 A 
ATOM     76  C   UNL A   1      34.875  33.421  30.799  1.00  0.00     0.059 A 
ATOM     77  F   UNL A   1      36.154  32.003  32.165  1.00  0.00    -0.206 F 
ATOM     78  C   UNL A   1      34.786  34.239  29.673  1.00  0.00     0.060 A 
BRANCH  78  79
ATOM     79  S   UNL A   1      33.222  35.033  29.241  1.00  0.00     0.124 S 
ATOM     80  O   UNL A   1      32.708  34.131  28.217  1.00  0.00    -0.237 OA
ATOM     81  O   UNL A   1      32.513  35.024  30.516  1.00  0.00    -0.237 OA
ATOM     82  O   UNL A   1      33.635  36.352  28.772  1.00  0.00    -0.744 OA
ENDBRANCH  78  79
ENDBRANCH  46  71
BRANCH  58  83
ATOM     83  C   UNL A   1      43.009  34.611  33.757  1.00  0.00     0.058 A 
ATOM     84  C   UNL A   1      42.731  34.802  35.119  1.00  0.00     0.135 A 
ATOM     85  C   UNL A   1      43.751  35.601  33.093  1.00  0.00     0.135 A 
ATOM     86  F   UNL A   1      42.020  33.888  35.798  1.00  0.00    -0.206 F 
ATOM     87  C   UNL A   1      43.151  35.944  35.792  1.00  0.00     0.059 A 
ATOM     88  C   UNL A   1      44.204  36.739  33.751  1.00  0.00     0.059 A 
ATOM     89  F   UNL A   1      44.054  35.461  31.792  1.00  0.00    -0.206 F 
ATOM     90  C   UNL A   1      43.889  36.907  35.099  1.00  0.00     0.060 A 
BRANCH  90  91
ATOM     91  S   UNL A   1      44.456  38.372  35.989  1.00  0.00     0.124 S 
ATOM     92  O   UNL A   1      43.819  38.190  37.289  1.00  0.00    -0.237 OA
ATOM     93  O   UNL A   1      45.907  38.212  35.966  1.00  0.00    -0.237 OA
ATOM     94  O   UNL A   1      43.941  39.478  35.187  1.00  0.00    -0.744 OA
ENDBRANCH  90  91
ENDBRANCH  58  83
ENDBRANCH  32  33
ENDBRANCH  24  27
ENDBRANCH  22  23
ENDBRANCH   1  22
TORSDOF 16
ENDMDL
MODEL 3
REMARK VINA RESULT:     -10.5      5.071     10.710
REMARK SMILES [NH3+][C@H](C(=O)NCCCCNC(=O)c1ccc(-c2c3nc(c(-c4c(F)cc(S(=O)(=O)[O-])cc4F)c4ccc([nH]4)c(-c4c(F)cc(S(=O)(=O)[O-])cc4F)c4nc(c(-c5c(F)cc(S(=O)(=O)[O-])cc5F)c5ccc2[nH]5)C=C4)C=C3)cc1)c1cc(F)c(Cl)c(Cl)c1
REMARK SMILES IDX 8 1 7 2 6 3 5 4 3 5 4 6 2 8 1 9 79 13 80 14 87 15 81 16
REMARK SMILES IDX 85 17 82 18 83 19 86 20 84 21 9 22 10 23 11 24 12 26 13 27
REMARK SMILES IDX 14 28 78 29 15 30 77 31 16 32 17 33 18 34 71 35 19 36 76 37
REMARK SMILES IDX 70 38 72 39 20 40 75 41 69 42 68 43 21 45 55 46 34 47 54 48
REMARK SMILES IDX 35 49 38 50 53 51 73 52 36 53 37 54 52 56 74 57 39 58 22 59
REMARK SMILES IDX 23 60 32 61 24 62 25 63 31 64 33 65 26 66 27 67 28 68 29 69
REMARK SMILES IDX 30 70 56 71 57 72 66 73 58 74 59 75 65 76 67 77 60 78 61 79
REMARK SMILES IDX 62 80 63 81 64 82 40 83 41 84 50 85 42 86 43 87 49 88 51 89
REMARK SMILES IDX 44 90 45 91 46 92 47 93 48 94
REMARK H PARENT 5 7 1 10 1 11 1 12 10 25 72 44 38 55
REMARK Flexibility Score: inf
ROOT
ATOM      1  C   UNL A   1      37.493  23.499  25.650  1.00  0.00     0.023 C 
ENDROOT
BRANCH   1   2
ATOM      2  C   UNL A   1      37.620  22.071  25.120  1.00  0.00     0.023 C 
BRANCH   2   3
ATOM      3  C   UNL A   1      36.307  21.291  25.050  1.00  0.00     0.116 C 
BRANCH   3   4
ATOM      4  N   UNL A   1      35.594  21.336  26.312  1.00  0.00    -0.351 N 
ATOM      5  C   UNL A   1      34.300  21.681  26.574  1.00  0.00     0.283 C 
ATOM      6  O   UNL A   1      33.935  21.710  27.754  1.00  0.00    -0.268 OA
ATOM      7  H   UNL A   1      36.125  21.078  27.100  1.00  0.00     0.163 HD
BRANCH   5   8
ATOM      8  C   UNL A   1      33.296  21.970  25.420  1.00  0.00     0.302 C 
BRANCH   8   9
ATOM      9  N   UNL A   1      31.937  21.612  25.894  1.00  0.00    -0.343 N 
ATOM     10  H   UNL A   1      31.984  21.310  26.868  1.00  0.00     0.345 HD
ATOM     11  H   UNL A   1      31.564  20.855  25.321  1.00  0.00     0.345 HD
ATOM     12  H   UNL A   1      31.326  22.426  25.820  1.00  0.00     0.345 HD
ENDBRANCH   8   9
BRANCH   8  13
ATOM     13  C   UNL A   1      33.377  23.416  24.948  1.00  0.00     0.023 A 
ATOM     14  C   UNL A   1      33.814  24.461  25.774  1.00  0.00     0.051 A 
ATOM     15  C   UNL A   1      33.035  23.737  23.624  1.00  0.00     0.032 A 
ATOM     16  C   UNL A   1      33.911  25.765  25.284  1.00  0.00     0.143 A 
ATOM     17  C   UNL A   1      33.173  25.039  23.123  1.00  0.00     0.063 A 
ATOM     18  F   UNL A   1      34.307  26.731  26.127  1.00  0.00    -0.205 F 
ATOM     19  C   UNL A   1      33.609  26.066  23.957  1.00  0.00     0.095 A 
ATOM     20  Cl  UNL A   1      32.796  25.290  21.454  1.00  0.00    -0.083 Cl
ATOM     21  Cl  UNL A   1      33.780  27.694  23.406  1.00  0.00    -0.079 Cl
ENDBRANCH   8  13
ENDBRANCH   5   8
ENDBRANCH   3   4
ENDBRANCH   2   3
ENDBRANCH   1   2
BRANCH   1  22
ATOM     22  C   UNL A   1      38.531  23.900  26.688  1.00  0.00     0.116 C 
BRANCH  22  23
ATOM     23  N   UNL A   1      39.886  23.942  26.160  1.00  0.00    -0.352 N 
ATOM     24  C   UNL A   1      40.886  24.845  26.433  1.00  0.00     0.251 C 
ATOM     25  H   UNL A   1      40.116  23.230  25.521  1.00  0.00     0.163 HD
ATOM     26  O   UNL A   1      41.940  24.801  25.804  1.00  0.00    -0.269 OA
BRANCH  24  27
ATOM     27  C   UNL A   1      40.669  25.886  27.460  1.00  0.00     0.039 A 
ATOM     28  C   UNL A   1      39.702  25.676  28.446  1.00  0.00     0.014 A 
ATOM     29  C   UNL A   1      41.438  27.053  27.465  1.00  0.00     0.014 A 
ATOM     30  C   UNL A   1      39.549  26.610  29.473  1.00  0.00     0.010 A 
ATOM     31  C   UNL A   1      41.343  27.939  28.532  1.00  0.00     0.010 A 
ATOM     32  C   UNL A   1      40.388  27.735  29.540  1.00  0.00    -0.014 A 
BRANCH  32  33
ATOM     33  C   UNL A   1      40.269  28.727  30.638  1.00  0.00     0.031 A 
ATOM     34  C   UNL A   1      41.150  28.607  31.852  1.00  0.00     0.074 A 
ATOM     35  C   UNL A   1      39.327  29.688  30.577  1.00  0.00     0.049 A 
ATOM     36  N   UNL A   1      41.151  29.321  32.947  1.00  0.00    -0.248 NA
ATOM     37  C   UNL A   1      42.135  27.513  31.849  1.00  0.00     0.031 C 
ATOM     38  C   UNL A   1      38.379  29.878  29.476  1.00  0.00     0.029 A 
ATOM     39  N   UNL A   1      39.007  30.684  31.465  1.00  0.00    -0.354 N 
ATOM     40  C   UNL A   1      42.116  28.749  33.770  1.00  0.00     0.074 A 
ATOM     41  C   UNL A   1      42.636  27.595  33.071  1.00  0.00     0.031 C 
ATOM     42  C   UNL A   1      37.605  30.943  29.742  1.00  0.00     0.029 A 
ATOM     43  C   UNL A   1      37.978  31.491  31.042  1.00  0.00     0.049 A 
ATOM     44  H   UNL A   1      39.471  30.808  32.324  1.00  0.00     0.167 HD
ATOM     45  C   UNL A   1      42.548  29.163  34.986  1.00  0.00     0.037 A 
ATOM     46  C   UNL A   1      37.402  32.555  31.636  1.00  0.00     0.037 A 
ATOM     47  C   UNL A   1      42.051  30.334  35.658  1.00  0.00     0.049 A 
ATOM     48  C   UNL A   1      37.914  33.014  32.974  1.00  0.00     0.074 A 
ATOM     49  C   UNL A   1      42.465  30.878  36.862  1.00  0.00     0.029 A 
ATOM     50  N   UNL A   1      41.031  31.145  35.182  1.00  0.00    -0.354 N 
ATOM     51  N   UNL A   1      38.868  32.498  33.713  1.00  0.00    -0.248 NA
ATOM     52  C   UNL A   1      37.280  34.204  33.555  1.00  0.00     0.031 C 
ATOM     53  C   UNL A   1      41.670  31.998  37.130  1.00  0.00     0.029 A 
ATOM     54  C   UNL A   1      40.792  32.178  36.074  1.00  0.00     0.049 A 
ATOM     55  H   UNL A   1      40.548  31.007  34.336  1.00  0.00     0.167 HD
ATOM     56  C   UNL A   1      38.971  33.320  34.830  1.00  0.00     0.074 A 
ATOM     57  C   UNL A   1      37.984  34.368  34.667  1.00  0.00     0.031 C 
ATOM     58  C   UNL A   1      39.811  33.220  35.890  1.00  0.00     0.037 A 
BRANCH  45  59
ATOM     59  C   UNL A   1      43.608  28.333  35.657  1.00  0.00     0.058 A 
ATOM     60  C   UNL A   1      44.975  28.541  35.411  1.00  0.00     0.135 A 
ATOM     61  C   UNL A   1      43.253  27.306  36.546  1.00  0.00     0.135 A 
ATOM     62  F   UNL A   1      45.371  29.499  34.558  1.00  0.00    -0.206 F 
ATOM     63  C   UNL A   1      45.950  27.727  35.979  1.00  0.00     0.059 A 
ATOM     64  C   UNL A   1      44.213  26.500  37.151  1.00  0.00     0.059 A 
ATOM     65  F   UNL A   1      41.962  27.065  36.822  1.00  0.00    -0.206 F 
ATOM     66  C   UNL A   1      45.558  26.702  36.841  1.00  0.00     0.060 A 
BRANCH  66  67
ATOM     67  S   UNL A   1      46.828  25.628  37.541  1.00  0.00     0.124 S 
ATOM     68  O   UNL A   1      46.328  24.308  37.169  1.00  0.00    -0.237 OA
ATOM     69  O   UNL A   1      48.032  26.068  36.843  1.00  0.00    -0.237 OA
ATOM     70  O   UNL A   1      46.785  25.937  38.967  1.00  0.00    -0.744 OA
ENDBRANCH  66  67
ENDBRANCH  45  59
BRANCH  46  71
ATOM     71  C   UNL A   1      36.316  33.291  30.936  1.00  0.00     0.058 A 
ATOM     72  C   UNL A   1      34.993  33.220  31.398  1.00  0.00     0.135 A 
ATOM     73  C   UNL A   1      36.580  34.103  29.824  1.00  0.00     0.135 A 
ATOM     74  F   UNL A   1      34.692  32.451  32.455  1.00  0.00    -0.206 F 
ATOM     75  C   UNL A   1      33.968  33.926  30.779  1.00  0.00     0.059 A 
ATOM     76  C   UNL A   1      35.574  34.836  29.201  1.00  0.00     0.059 A 
ATOM     77  F   UNL A   1      37.832  34.216  29.355  1.00  0.00    -0.206 F 
ATOM     78  C   UNL A   1      34.269  34.737  29.684  1.00  0.00     0.060 A 
BRANCH  78  79
ATOM     79  S   UNL A   1      32.941  35.705  28.934  1.00  0.00     0.124 S 
ATOM     80  O   UNL A   1      33.686  36.789  28.305  1.00  0.00    -0.237 OA
ATOM     81  O   UNL A   1      32.333  34.737  28.027  1.00  0.00    -0.237 OA
ATOM     82  O   UNL A   1      32.117  36.084  30.078  1.00  0.00    -0.744 OA
ENDBRANCH  78  79
ENDBRANCH  46  71
BRANCH  58  83
ATOM     83  C   UNL A   1      39.733  34.295  36.937  1.00  0.00     0.058 A 
ATOM     84  C   UNL A   1      38.982  34.133  38.111  1.00  0.00     0.135 A 
ATOM     85  C   UNL A   1      40.462  35.486  36.783  1.00  0.00     0.135 A 
ATOM     86  F   UNL A   1      38.263  33.015  38.304  1.00  0.00    -0.206 F 
ATOM     87  C   UNL A   1      38.935  35.124  39.085  1.00  0.00     0.059 A 
ATOM     88  C   UNL A   1      40.450  36.480  37.755  1.00  0.00     0.059 A 
ATOM     89  F   UNL A   1      41.205  35.686  35.682  1.00  0.00    -0.206 F 
ATOM     90  C   UNL A   1      39.674  36.295  38.899  1.00  0.00     0.060 A 
BRANCH  90  91
ATOM     91  S   UNL A   1      39.631  37.563  40.183  1.00  0.00     0.124 S 
ATOM     92  O   UNL A   1      41.041  37.924  40.286  1.00  0.00    -0.237 OA
ATOM     93  O   UNL A   1      38.757  38.574  39.597  1.00  0.00    -0.237 OA
ATOM     94  O   UNL A   1      39.078  36.858  41.337  1.00  0.00    -0.744 OA
ENDBRANCH  90  91
ENDBRANCH  58  83
ENDBRANCH  32  33
ENDBRANCH  24  27
ENDBRANCH  22  23
ENDBRANCH   1  22
TORSDOF 16
ENDMDL
