MODEL 1
REMARK VINA RESULT:     -12.5      0.000      0.000
REMARK SMILES O=C(Cn1cnc(-c2ccccc2)c1-c1ccccc1)NCCCCNC(=O)c1ccc(-c2c3nc(c(-c4c(F)cc(S(=O)(=O)[O-])cc4F)c4ccc([nH]4)c(-c4c(F)cc(S(=O)(=O)[O-])cc4F)c4nc(c(-c5c(F)cc(S(=O)(=O)[O-])cc5F)c5ccc2[nH]5)C=C4)C=C3)cc1
REMARK SMILES IDX 24 1 23 2 22 3 21 4 1 5 2 6 3 8 4 9 5 10 14 11 6 12 7 13
REMARK SMILES IDX 15 14 16 15 20 16 17 17 19 18 18 19 8 20 9 21 13 22 10 23
REMARK SMILES IDX 12 24 11 25 25 26 26 27 27 28 28 30 29 31 30 32 94 33 31 34
REMARK SMILES IDX 93 35 32 36 33 37 34 38 87 39 35 40 92 41 86 42 88 43 36 44
REMARK SMILES IDX 91 45 85 46 84 47 37 49 71 50 50 51 70 52 51 53 54 54 69 55
REMARK SMILES IDX 89 56 52 57 53 58 68 60 90 61 55 62 38 63 39 64 48 65 40 66
REMARK SMILES IDX 41 67 47 68 49 69 42 70 43 71 44 72 45 73 46 74 72 75 73 76
REMARK SMILES IDX 82 77 74 78 75 79 81 80 83 81 76 82 77 83 78 84 79 85 80 86
REMARK SMILES IDX 56 87 57 88 66 89 58 90 59 91 65 92 67 93 60 94 61 95 62 96
REMARK SMILES IDX 63 97 64 98
REMARK H PARENT 21 7 26 29 88 48 54 59
REMARK Flexibility Score: inf
ROOT
ATOM      1  C   UNL A   1      38.940  22.131  25.940  1.00  0.00     0.023 C 
ENDROOT
BRANCH   1   2
ATOM      2  C   UNL A   1      38.077  23.391  26.098  1.00  0.00     0.023 C 
BRANCH   2   3
ATOM      3  C   UNL A   1      37.013  23.610  25.019  1.00  0.00     0.116 C 
BRANCH   3   4
ATOM      4  N   UNL A   1      35.691  23.896  25.554  1.00  0.00    -0.355 N 
ATOM      5  O   UNL A   1      34.736  24.197  23.500  1.00  0.00    -0.273 OA
ATOM      6  C   UNL A   1      34.605  24.072  24.720  1.00  0.00     0.239 C 
ATOM      7  H   UNL A   1      35.569  23.963  26.529  1.00  0.00     0.163 HD
BRANCH   6   8
ATOM      8  C   UNL A   1      33.243  24.223  25.363  1.00  0.00     0.223 C 
BRANCH   8   9
ATOM      9  N   UNL A   1      32.215  24.861  24.560  1.00  0.00    -0.321 N 
ATOM     10  C   UNL A   1      31.489  24.179  23.618  1.00  0.00     0.201 A 
ATOM     11  C   UNL A   1      31.685  26.134  24.671  1.00  0.00     0.076 A 
ATOM     12  N   UNL A   1      30.537  24.916  23.110  1.00  0.00    -0.236 NA
ATOM     13  C   UNL A   1      30.650  26.129  23.741  1.00  0.00     0.096 A 
BRANCH  11  14
ATOM     14  C   UNL A   1      32.140  27.202  25.566  1.00  0.00     0.000 A 
ATOM     15  C   UNL A   1      33.284  27.948  25.254  1.00  0.00     0.010 A 
ATOM     16  C   UNL A   1      31.511  27.438  26.793  1.00  0.00     0.010 A 
ATOM     17  C   UNL A   1      33.758  28.928  26.132  1.00  0.00     0.001 A 
ATOM     18  C   UNL A   1      31.964  28.437  27.659  1.00  0.00     0.001 A 
ATOM     19  C   UNL A   1      33.090  29.184  27.327  1.00  0.00     0.000 A 
ENDBRANCH  11  14
BRANCH  13  20
ATOM     20  C   UNL A   1      29.856  27.267  23.342  1.00  0.00     0.002 A 
ATOM     21  C   UNL A   1      28.477  27.317  23.583  1.00  0.00     0.010 A 
ATOM     22  C   UNL A   1      30.473  28.293  22.628  1.00  0.00     0.010 A 
ATOM     23  C   UNL A   1      27.730  28.406  23.127  1.00  0.00     0.001 A 
ATOM     24  C   UNL A   1      29.713  29.343  22.130  1.00  0.00     0.001 A 
ATOM     25  C   UNL A   1      28.348  29.415  22.394  1.00  0.00     0.000 A 
ENDBRANCH  13  20
ENDBRANCH   8   9
ENDBRANCH   6   8
ENDBRANCH   3   4
ENDBRANCH   2   3
ENDBRANCH   1   2
BRANCH   1  26
ATOM     26  C   UNL A   1      40.140  22.079  26.872  1.00  0.00     0.116 C 
BRANCH  26  27
ATOM     27  N   UNL A   1      41.427  21.932  26.176  1.00  0.00    -0.352 N 
ATOM     28  C   UNL A   1      42.247  22.934  25.654  1.00  0.00     0.251 C 
ATOM     29  H   UNL A   1      41.753  21.009  26.063  1.00  0.00     0.163 HD
ATOM     30  O   UNL A   1      43.089  22.687  24.811  1.00  0.00    -0.269 OA
BRANCH  28  31
ATOM     31  C   UNL A   1      42.083  24.303  26.189  1.00  0.00     0.039 A 
ATOM     32  C   UNL A   1      41.335  25.316  25.574  1.00  0.00     0.014 A 
ATOM     33  C   UNL A   1      42.699  24.531  27.406  1.00  0.00     0.014 A 
ATOM     34  C   UNL A   1      41.211  26.545  26.232  1.00  0.00     0.010 A 
ATOM     35  C   UNL A   1      42.283  25.567  28.174  1.00  0.00     0.010 A 
ATOM     36  C   UNL A   1      41.708  26.652  27.536  1.00  0.00    -0.014 A 
BRANCH  36  37
ATOM     37  C   UNL A   1      41.694  27.853  28.361  1.00  0.00     0.031 A 
ATOM     38  C   UNL A   1      42.851  28.760  28.120  1.00  0.00     0.074 A 
ATOM     39  C   UNL A   1      40.522  28.227  28.938  1.00  0.00     0.049 A 
ATOM     40  N   UNL A   1      43.795  29.091  28.938  1.00  0.00    -0.248 NA
ATOM     41  C   UNL A   1      43.098  29.204  26.734  1.00  0.00     0.031 C 
ATOM     42  C   UNL A   1      39.230  27.520  28.914  1.00  0.00     0.029 A 
ATOM     43  N   UNL A   1      40.195  29.386  29.574  1.00  0.00    -0.354 N 
ATOM     44  C   UNL A   1      44.613  29.972  28.230  1.00  0.00     0.074 A 
ATOM     45  C   UNL A   1      44.296  29.777  26.845  1.00  0.00     0.031 C 
ATOM     46  C   UNL A   1      38.241  28.341  29.335  1.00  0.00     0.029 A 
ATOM     47  C   UNL A   1      38.818  29.594  29.777  1.00  0.00     0.049 A 
ATOM     48  H   UNL A   1      40.874  30.032  29.873  1.00  0.00     0.167 HD
ATOM     49  C   UNL A   1      45.282  30.989  28.847  1.00  0.00     0.037 A 
ATOM     50  C   UNL A   1      38.242  30.738  30.254  1.00  0.00     0.037 A 
ATOM     51  C   UNL A   1      45.256  30.808  30.275  1.00  0.00     0.049 A 
ATOM     52  C   UNL A   1      39.376  31.496  30.877  1.00  0.00     0.074 A 
ATOM     53  C   UNL A   1      45.757  29.853  31.136  1.00  0.00     0.029 A 
ATOM     54  N   UNL A   1      44.279  31.481  30.972  1.00  0.00    -0.354 N 
ATOM     55  N   UNL A   1      40.007  31.088  31.949  1.00  0.00    -0.248 NA
ATOM     56  C   UNL A   1      40.126  32.418  30.031  1.00  0.00     0.031 C 
ATOM     57  C   UNL A   1      44.740  29.681  32.119  1.00  0.00     0.029 A 
ATOM     58  C   UNL A   1      43.720  30.603  31.866  1.00  0.00     0.049 A 
ATOM     59  H   UNL A   1      44.026  32.425  30.851  1.00  0.00     0.167 HD
ATOM     60  C   UNL A   1      41.347  31.384  31.722  1.00  0.00     0.074 A 
ATOM     61  C   UNL A   1      41.349  32.255  30.546  1.00  0.00     0.031 C 
ATOM     62  C   UNL A   1      42.345  30.663  32.316  1.00  0.00     0.037 A 
BRANCH  49  63
ATOM     63  C   UNL A   1      45.633  32.325  28.222  1.00  0.00     0.058 A 
ATOM     64  C   UNL A   1      46.990  32.717  28.175  1.00  0.00     0.135 A 
ATOM     65  C   UNL A   1      44.705  33.345  27.912  1.00  0.00     0.135 A 
ATOM     66  F   UNL A   1      47.968  31.833  28.430  1.00  0.00    -0.206 F 
ATOM     67  C   UNL A   1      47.384  34.034  27.936  1.00  0.00     0.059 A 
ATOM     68  C   UNL A   1      45.079  34.651  27.618  1.00  0.00     0.059 A 
ATOM     69  F   UNL A   1      43.383  33.161  27.967  1.00  0.00    -0.206 F 
ATOM     70  C   UNL A   1      46.417  34.999  27.679  1.00  0.00     0.060 A 
BRANCH  70  71
ATOM     71  S   UNL A   1      46.910  36.720  27.488  1.00  0.00     0.124 S 
ATOM     72  O   UNL A   1      47.652  36.673  26.233  1.00  0.00    -0.237 OA
ATOM     73  O   UNL A   1      45.620  37.401  27.444  1.00  0.00    -0.237 OA
ATOM     74  O   UNL A   1      47.708  36.977  28.684  1.00  0.00    -0.744 OA
ENDBRANCH  70  71
ENDBRANCH  49  63
BRANCH  50  75
ATOM     75  C   UNL A   1      36.876  31.343  30.060  1.00  0.00     0.058 A 
ATOM     76  C   UNL A   1      36.260  32.076  31.102  1.00  0.00     0.135 A 
ATOM     77  C   UNL A   1      36.250  31.475  28.802  1.00  0.00     0.135 A 
ATOM     78  F   UNL A   1      36.738  32.004  32.354  1.00  0.00    -0.206 F 
ATOM     79  C   UNL A   1      35.201  32.972  30.886  1.00  0.00     0.059 A 
ATOM     80  C   UNL A   1      35.184  32.358  28.564  1.00  0.00     0.059 A 
ATOM     81  F   UNL A   1      36.749  30.876  27.713  1.00  0.00    -0.206 F 
ATOM     82  C   UNL A   1      34.697  33.142  29.600  1.00  0.00     0.060 A 
BRANCH  82  83
ATOM     83  S   UNL A   1      33.592  34.540  29.243  1.00  0.00     0.124 S 
ATOM     84  O   UNL A   1      33.088  34.878  30.569  1.00  0.00    -0.237 OA
ATOM     85  O   UNL A   1      34.501  35.511  28.641  1.00  0.00    -0.237 OA
ATOM     86  O   UNL A   1      32.608  33.969  28.328  1.00  0.00    -0.744 OA
ENDBRANCH  82  83
ENDBRANCH  50  75
BRANCH  62  87
ATOM     87  C   UNL A   1      41.975  29.678  33.400  1.00  0.00     0.058 A 
ATOM     88  C   UNL A   1      41.605  28.340  33.163  1.00  0.00     0.135 A 
ATOM     89  C   UNL A   1      42.234  30.043  34.728  1.00  0.00     0.135 A 
ATOM     90  F   UNL A   1      41.428  27.887  31.916  1.00  0.00    -0.206 F 
ATOM     91  C   UNL A   1      41.491  27.412  34.201  1.00  0.00     0.059 A 
ATOM     92  C   UNL A   1      42.156  29.128  35.773  1.00  0.00     0.059 A 
ATOM     93  F   UNL A   1      42.652  31.287  35.010  1.00  0.00    -0.206 F 
ATOM     94  C   UNL A   1      41.779  27.815  35.505  1.00  0.00     0.060 A 
BRANCH  94  95
ATOM     95  S   UNL A   1      41.742  26.593  36.835  1.00  0.00     0.124 S 
ATOM     96  O   UNL A   1      41.825  25.337  36.100  1.00  0.00    -0.237 OA
ATOM     97  O   UNL A   1      42.920  26.945  37.624  1.00  0.00    -0.237 OA
ATOM     98  O   UNL A   1      40.464  26.847  37.496  1.00  0.00    -0.744 OA
ENDBRANCH  94  95
ENDBRANCH  62  87
ENDBRANCH  36  37
ENDBRANCH  28  31
ENDBRANCH  26  27
ENDBRANCH   1  26
TORSDOF 17
ENDMDL
MODEL 2
REMARK VINA RESULT:     -12.4      1.196      1.755
REMARK SMILES O=C(Cn1cnc(-c2ccccc2)c1-c1ccccc1)NCCCCNC(=O)c1ccc(-c2c3nc(c(-c4c(F)cc(S(=O)(=O)[O-])cc4F)c4ccc([nH]4)c(-c4c(F)cc(S(=O)(=O)[O-])cc4F)c4nc(c(-c5c(F)cc(S(=O)(=O)[O-])cc5F)c5ccc2[nH]5)C=C4)C=C3)cc1
REMARK SMILES IDX 24 1 23 2 22 3 21 4 1 5 2 6 3 8 4 9 5 10 14 11 6 12 7 13
REMARK SMILES IDX 15 14 16 15 20 16 17 17 19 18 18 19 8 20 9 21 13 22 10 23
REMARK SMILES IDX 12 24 11 25 25 26 26 27 27 28 28 30 29 31 30 32 94 33 31 34
REMARK SMILES IDX 93 35 32 36 33 37 34 38 87 39 35 40 92 41 86 42 88 43 36 44
REMARK SMILES IDX 91 45 85 46 84 47 37 49 71 50 50 51 70 52 51 53 54 54 69 55
REMARK SMILES IDX 89 56 52 57 53 58 68 60 90 61 55 62 38 63 39 64 48 65 40 66
REMARK SMILES IDX 41 67 47 68 49 69 42 70 43 71 44 72 45 73 46 74 72 75 73 76
REMARK SMILES IDX 82 77 74 78 75 79 81 80 83 81 76 82 77 83 78 84 79 85 80 86
REMARK SMILES IDX 56 87 57 88 66 89 58 90 59 91 65 92 67 93 60 94 61 95 62 96
REMARK SMILES IDX 63 97 64 98
REMARK H PARENT 21 7 26 29 88 48 54 59
REMARK Flexibility Score: inf
ROOT
ATOM      1  C   UNL A   1      37.744  21.739  25.043  1.00  0.00     0.023 C 
ENDROOT
BRANCH   1   2
ATOM      2  C   UNL A   1      36.356  21.445  25.628  1.00  0.00     0.023 C 
BRANCH   2   3
ATOM      3  C   UNL A   1      35.179  21.588  24.659  1.00  0.00     0.116 C 
BRANCH   3   4
ATOM      4  N   UNL A   1      33.985  22.148  25.271  1.00  0.00    -0.355 N 
ATOM      5  O   UNL A   1      34.623  24.317  24.938  1.00  0.00    -0.273 OA
ATOM      6  C   UNL A   1      33.752  23.509  25.269  1.00  0.00     0.239 C 
ATOM      7  H   UNL A   1      33.330  21.545  25.693  1.00  0.00     0.163 HD
BRANCH   6   8
ATOM      8  C   UNL A   1      32.419  23.994  25.800  1.00  0.00     0.223 C 
BRANCH   8   9
ATOM      9  N   UNL A   1      31.599  24.764  24.881  1.00  0.00    -0.321 N 
ATOM     10  C   UNL A   1      30.774  24.173  23.959  1.00  0.00     0.201 A 
ATOM     11  C   UNL A   1      31.372  26.128  24.848  1.00  0.00     0.076 A 
ATOM     12  N   UNL A   1      30.039  25.052  23.331  1.00  0.00    -0.236 NA
ATOM     13  C   UNL A   1      30.402  26.264  23.859  1.00  0.00     0.096 A 
BRANCH  11  14
ATOM     14  C   UNL A   1      32.024  27.150  25.673  1.00  0.00     0.000 A 
ATOM     15  C   UNL A   1      33.331  27.562  25.388  1.00  0.00     0.010 A 
ATOM     16  C   UNL A   1      31.403  27.664  26.817  1.00  0.00     0.010 A 
ATOM     17  C   UNL A   1      33.982  28.492  26.206  1.00  0.00     0.001 A 
ATOM     18  C   UNL A   1      32.037  28.617  27.619  1.00  0.00     0.001 A 
ATOM     19  C   UNL A   1      33.329  29.031  27.313  1.00  0.00     0.000 A 
ENDBRANCH  11  14
BRANCH  13  20
ATOM     20  C   UNL A   1      29.907  27.507  23.315  1.00  0.00     0.002 A 
ATOM     21  C   UNL A   1      28.545  27.829  23.346  1.00  0.00     0.010 A 
ATOM     22  C   UNL A   1      30.806  28.357  22.671  1.00  0.00     0.010 A 
ATOM     23  C   UNL A   1      28.095  29.011  22.753  1.00  0.00     0.001 A 
ATOM     24  C   UNL A   1      30.342  29.501  22.035  1.00  0.00     0.001 A 
ATOM     25  C   UNL A   1      28.994  29.842  22.091  1.00  0.00     0.000 A 
ENDBRANCH  13  20
ENDBRANCH   8   9
ENDBRANCH   6   8
ENDBRANCH   3   4
ENDBRANCH   2   3
ENDBRANCH   1   2
BRANCH   1  26
ATOM     26  C   UNL A   1      38.713  22.374  26.030  1.00  0.00     0.116 C 
BRANCH  26  27
ATOM     27  N   UNL A   1      40.084  21.852  25.934  1.00  0.00    -0.352 N 
ATOM     28  C   UNL A   1      41.283  22.565  25.950  1.00  0.00     0.251 C 
ATOM     29  H   UNL A   1      40.167  20.874  25.848  1.00  0.00     0.163 HD
ATOM     30  O   UNL A   1      42.314  22.080  25.520  1.00  0.00    -0.269 OA
BRANCH  28  31
ATOM     31  C   UNL A   1      41.269  23.920  26.541  1.00  0.00     0.039 A 
ATOM     32  C   UNL A   1      40.410  24.955  26.147  1.00  0.00     0.014 A 
ATOM     33  C   UNL A   1      42.159  24.111  27.583  1.00  0.00     0.014 A 
ATOM     34  C   UNL A   1      40.462  26.167  26.845  1.00  0.00     0.010 A 
ATOM     35  C   UNL A   1      41.950  25.128  28.454  1.00  0.00     0.010 A 
ATOM     36  C   UNL A   1      41.254  26.234  27.997  1.00  0.00    -0.014 A 
BRANCH  36  37
ATOM     37  C   UNL A   1      41.453  27.413  28.831  1.00  0.00     0.031 A 
ATOM     38  C   UNL A   1      42.694  28.171  28.514  1.00  0.00     0.074 A 
ATOM     39  C   UNL A   1      40.381  27.921  29.496  1.00  0.00     0.049 A 
ATOM     40  N   UNL A   1      43.730  28.366  29.263  1.00  0.00    -0.248 NA
ATOM     41  C   UNL A   1      42.896  28.606  27.117  1.00  0.00     0.031 C 
ATOM     42  C   UNL A   1      39.012  27.382  29.561  1.00  0.00     0.029 A 
ATOM     43  N   UNL A   1      40.250  29.100  30.165  1.00  0.00    -0.354 N 
ATOM     44  C   UNL A   1      44.600  29.150  28.505  1.00  0.00     0.074 A 
ATOM     45  C   UNL A   1      44.162  29.022  27.145  1.00  0.00     0.031 C 
ATOM     46  C   UNL A   1      38.168  28.314  30.060  1.00  0.00     0.029 A 
ATOM     47  C   UNL A   1      38.929  29.476  30.469  1.00  0.00     0.049 A 
ATOM     48  H   UNL A   1      41.026  29.650  30.418  1.00  0.00     0.167 HD
ATOM     49  C   UNL A   1      45.434  30.063  29.080  1.00  0.00     0.037 A 
ATOM     50  C   UNL A   1      38.539  30.675  30.997  1.00  0.00     0.037 A 
ATOM     51  C   UNL A   1      45.488  29.861  30.505  1.00  0.00     0.049 A 
ATOM     52  C   UNL A   1      39.801  31.272  31.542  1.00  0.00     0.074 A 
ATOM     53  C   UNL A   1      45.924  28.835  31.319  1.00  0.00     0.029 A 
ATOM     54  N   UNL A   1      44.657  30.639  31.278  1.00  0.00    -0.354 N 
ATOM     55  N   UNL A   1      40.450  30.769  32.562  1.00  0.00    -0.248 NA
ATOM     56  C   UNL A   1      40.599  32.108  30.652  1.00  0.00     0.031 C 
ATOM     57  C   UNL A   1      44.967  28.775  32.372  1.00  0.00     0.029 A 
ATOM     58  C   UNL A   1      44.057  29.823  32.202  1.00  0.00     0.049 A 
ATOM     59  H   UNL A   1      44.517  31.610  31.184  1.00  0.00     0.167 HD
ATOM     60  C   UNL A   1      41.797  30.899  32.240  1.00  0.00     0.074 A 
ATOM     61  C   UNL A   1      41.826  31.783  31.074  1.00  0.00     0.031 C 
ATOM     62  C   UNL A   1      42.735  30.047  32.752  1.00  0.00     0.037 A 
BRANCH  49  63
ATOM     63  C   UNL A   1      45.906  31.356  28.443  1.00  0.00     0.058 A 
ATOM     64  C   UNL A   1      44.951  32.351  28.137  1.00  0.00     0.135 A 
ATOM     65  C   UNL A   1      47.187  31.563  27.882  1.00  0.00     0.135 A 
ATOM     66  F   UNL A   1      43.703  32.277  28.627  1.00  0.00    -0.206 F 
ATOM     67  C   UNL A   1      45.220  33.408  27.267  1.00  0.00     0.059 A 
ATOM     68  C   UNL A   1      47.491  32.639  27.056  1.00  0.00     0.059 A 
ATOM     69  F   UNL A   1      48.189  30.690  28.023  1.00  0.00    -0.206 F 
ATOM     70  C   UNL A   1      46.489  33.532  26.715  1.00  0.00     0.060 A 
BRANCH  70  71
ATOM     71  S   UNL A   1      46.808  34.823  25.502  1.00  0.00     0.124 S 
ATOM     72  O   UNL A   1      46.619  36.027  26.303  1.00  0.00    -0.237 OA
ATOM     73  O   UNL A   1      48.180  34.529  25.102  1.00  0.00    -0.237 OA
ATOM     74  O   UNL A   1      45.797  34.580  24.477  1.00  0.00    -0.744 OA
ENDBRANCH  70  71
ENDBRANCH  49  63
BRANCH  50  75
ATOM     75  C   UNL A   1      37.249  31.450  30.909  1.00  0.00     0.058 A 
ATOM     76  C   UNL A   1      36.255  31.306  31.905  1.00  0.00     0.135 A 
ATOM     77  C   UNL A   1      37.051  32.542  30.037  1.00  0.00     0.135 A 
ATOM     78  F   UNL A   1      36.310  30.284  32.773  1.00  0.00    -0.206 F 
ATOM     79  C   UNL A   1      35.230  32.244  32.106  1.00  0.00     0.059 A 
ATOM     80  C   UNL A   1      36.028  33.488  30.212  1.00  0.00     0.059 A 
ATOM     81  F   UNL A   1      37.936  32.830  29.074  1.00  0.00    -0.206 F 
ATOM     82  C   UNL A   1      35.151  33.362  31.281  1.00  0.00     0.060 A 
BRANCH  82  83
ATOM     83  S   UNL A   1      34.074  34.750  31.744  1.00  0.00     0.124 S 
ATOM     84  O   UNL A   1      35.020  35.688  32.334  1.00  0.00    -0.237 OA
ATOM     85  O   UNL A   1      33.503  35.145  30.459  1.00  0.00    -0.237 OA
ATOM     86  O   UNL A   1      33.127  34.147  32.677  1.00  0.00    -0.744 OA
ENDBRANCH  82  83
ENDBRANCH  50  75
BRANCH  62  87
ATOM     87  C   UNL A   1      42.322  29.097  33.852  1.00  0.00     0.058 A 
ATOM     88  C   UNL A   1      41.765  27.823  33.631  1.00  0.00     0.135 A 
ATOM     89  C   UNL A   1      42.724  29.400  35.160  1.00  0.00     0.135 A 
ATOM     90  F   UNL A   1      41.439  27.420  32.397  1.00  0.00    -0.206 F 
ATOM     91  C   UNL A   1      41.610  26.897  34.666  1.00  0.00     0.059 A 
ATOM     92  C   UNL A   1      42.606  28.483  36.199  1.00  0.00     0.059 A 
ATOM     93  F   UNL A   1      43.320  30.575  35.421  1.00  0.00    -0.206 F 
ATOM     94  C   UNL A   1      42.043  27.234  35.947  1.00  0.00     0.060 A 
BRANCH  94  95
ATOM     95  S   UNL A   1      41.947  26.002  37.265  1.00  0.00     0.124 S 
ATOM     96  O   UNL A   1      42.913  26.513  38.232  1.00  0.00    -0.237 OA
ATOM     97  O   UNL A   1      40.546  26.076  37.670  1.00  0.00    -0.237 OA
ATOM     98  O   UNL A   1      42.329  24.760  36.599  1.00  0.00    -0.744 OA
ENDBRANCH  94  95
ENDBRANCH  62  87
ENDBRANCH  36  37
ENDBRANCH  28  31
ENDBRANCH  26  27
ENDBRANCH   1  26
TORSDOF 17
ENDMDL
MODEL 3
REMARK VINA RESULT:     -12.2      2.829      9.277
REMARK SMILES O=C(Cn1cnc(-c2ccccc2)c1-c1ccccc1)NCCCCNC(=O)c1ccc(-c2c3nc(c(-c4c(F)cc(S(=O)(=O)[O-])cc4F)c4ccc([nH]4)c(-c4c(F)cc(S(=O)(=O)[O-])cc4F)c4nc(c(-c5c(F)cc(S(=O)(=O)[O-])cc5F)c5ccc2[nH]5)C=C4)C=C3)cc1
REMARK SMILES IDX 24 1 23 2 22 3 21 4 1 5 2 6 3 8 4 9 5 10 14 11 6 12 7 13
REMARK SMILES IDX 15 14 16 15 20 16 17 17 19 18 18 19 8 20 9 21 13 22 10 23
REMARK SMILES IDX 12 24 11 25 25 26 26 27 27 28 28 30 29 31 30 32 94 33 31 34
REMARK SMILES IDX 93 35 32 36 33 37 34 38 87 39 35 40 92 41 86 42 88 43 36 44
REMARK SMILES IDX 91 45 85 46 84 47 37 49 71 50 50 51 70 52 51 53 54 54 69 55
REMARK SMILES IDX 89 56 52 57 53 58 68 60 90 61 55 62 38 63 39 64 48 65 40 66
REMARK SMILES IDX 41 67 47 68 49 69 42 70 43 71 44 72 45 73 46 74 72 75 73 76
REMARK SMILES IDX 82 77 74 78 75 79 81 80 83 81 76 82 77 83 78 84 79 85 80 86
REMARK SMILES IDX 56 87 57 88 66 89 58 90 59 91 65 92 67 93 60 94 61 95 62 96
REMARK SMILES IDX 63 97 64 98
REMARK H PARENT 21 7 26 29 88 48 54 59
REMARK Flexibility Score: inf
ROOT
ATOM      1  C   UNL A   1      33.612  30.576  27.367  1.00  0.00     0.023 C 
ENDROOT
BRANCH   1   2
ATOM      2  C   UNL A   1      34.155  29.171  27.074  1.00  0.00     0.023 C 
BRANCH   2   3
ATOM      3  C   UNL A   1      33.113  28.050  27.028  1.00  0.00     0.116 C 
BRANCH   3   4
ATOM      4  N   UNL A   1      33.270  27.155  25.892  1.00  0.00    -0.355 N 
ATOM      5  O   UNL A   1      31.484  28.008  24.753  1.00  0.00    -0.273 OA
ATOM      6  C   UNL A   1      32.478  27.280  24.768  1.00  0.00     0.239 C 
ATOM      7  H   UNL A   1      33.955  26.447  25.925  1.00  0.00     0.163 HD
BRANCH   6   8
ATOM      8  C   UNL A   1      32.804  26.402  23.578  1.00  0.00     0.223 C 
BRANCH   8   9
ATOM      9  N   UNL A   1      32.295  25.042  23.620  1.00  0.00    -0.321 N 
ATOM     10  C   UNL A   1      30.990  24.736  23.335  1.00  0.00     0.201 A 
ATOM     11  C   UNL A   1      32.988  23.856  23.785  1.00  0.00     0.076 A 
ATOM     12  N   UNL A   1      30.788  23.445  23.308  1.00  0.00    -0.236 NA
ATOM     13  C   UNL A   1      32.008  22.887  23.594  1.00  0.00     0.096 A 
BRANCH  11  14
ATOM     14  C   UNL A   1      34.414  23.705  24.090  1.00  0.00     0.000 A 
ATOM     15  C   UNL A   1      35.291  23.177  23.134  1.00  0.00     0.010 A 
ATOM     16  C   UNL A   1      34.918  23.988  25.364  1.00  0.00     0.010 A 
ATOM     17  C   UNL A   1      36.641  22.975  23.437  1.00  0.00     0.001 A 
ATOM     18  C   UNL A   1      36.272  23.816  25.662  1.00  0.00     0.001 A 
ATOM     19  C   UNL A   1      37.136  23.309  24.697  1.00  0.00     0.000 A 
ENDBRANCH  11  14
BRANCH  13  20
ATOM     20  C   UNL A   1      32.161  21.466  23.801  1.00  0.00     0.002 A 
ATOM     21  C   UNL A   1      32.447  20.937  25.065  1.00  0.00     0.010 A 
ATOM     22  C   UNL A   1      32.104  20.621  22.692  1.00  0.00     0.010 A 
ATOM     23  C   UNL A   1      32.652  19.564  25.215  1.00  0.00     0.001 A 
ATOM     24  C   UNL A   1      32.364  19.266  22.842  1.00  0.00     0.001 A 
ATOM     25  C   UNL A   1      32.617  18.730  24.101  1.00  0.00     0.000 A 
ENDBRANCH  13  20
ENDBRANCH   8   9
ENDBRANCH   6   8
ENDBRANCH   3   4
ENDBRANCH   2   3
ENDBRANCH   1   2
BRANCH   1  26
ATOM     26  C   UNL A   1      34.687  31.608  27.672  1.00  0.00     0.116 C 
BRANCH  26  27
ATOM     27  N   UNL A   1      34.445  32.371  28.906  1.00  0.00    -0.352 N 
ATOM     28  C   UNL A   1      34.971  32.145  30.178  1.00  0.00     0.251 C 
ATOM     29  H   UNL A   1      33.835  33.140  28.823  1.00  0.00     0.163 HD
ATOM     30  O   UNL A   1      34.443  32.609  31.173  1.00  0.00    -0.269 OA
BRANCH  28  31
ATOM     31  C   UNL A   1      36.216  31.353  30.277  1.00  0.00     0.039 A 
ATOM     32  C   UNL A   1      36.271  29.953  30.299  1.00  0.00     0.014 A 
ATOM     33  C   UNL A   1      37.380  32.099  30.305  1.00  0.00     0.014 A 
ATOM     34  C   UNL A   1      37.528  29.337  30.326  1.00  0.00     0.010 A 
ATOM     35  C   UNL A   1      38.554  31.506  29.974  1.00  0.00     0.010 A 
ATOM     36  C   UNL A   1      38.664  30.141  30.173  1.00  0.00    -0.014 A 
BRANCH  36  37
ATOM     37  C   UNL A   1      40.047  29.682  30.204  1.00  0.00     0.031 A 
ATOM     38  C   UNL A   1      40.627  29.615  31.573  1.00  0.00     0.074 A 
ATOM     39  C   UNL A   1      40.530  29.015  29.122  1.00  0.00     0.049 A 
ATOM     40  N   UNL A   1      41.609  30.297  32.064  1.00  0.00    -0.248 NA
ATOM     41  C   UNL A   1      39.900  28.827  32.589  1.00  0.00     0.031 C 
ATOM     42  C   UNL A   1      39.854  28.748  27.841  1.00  0.00     0.029 A 
ATOM     43  N   UNL A   1      41.692  28.321  28.975  1.00  0.00    -0.354 N 
ATOM     44  C   UNL A   1      41.764  29.843  33.374  1.00  0.00     0.074 A 
ATOM     45  C   UNL A   1      40.542  29.170  33.706  1.00  0.00     0.031 C 
ATOM     46  C   UNL A   1      40.532  27.810  27.143  1.00  0.00     0.029 A 
ATOM     47  C   UNL A   1      41.754  27.481  27.847  1.00  0.00     0.049 A 
ATOM     48  H   UNL A   1      42.438  28.402  29.612  1.00  0.00     0.167 HD
ATOM     49  C   UNL A   1      42.983  29.808  33.985  1.00  0.00     0.037 A 
ATOM     50  C   UNL A   1      42.746  26.583  27.571  1.00  0.00     0.037 A 
ATOM     51  C   UNL A   1      43.945  30.561  33.222  1.00  0.00     0.049 A 
ATOM     52  C   UNL A   1      43.881  26.994  28.459  1.00  0.00     0.074 A 
ATOM     53  C   UNL A   1      44.073  31.890  32.872  1.00  0.00     0.029 A 
ATOM     54  N   UNL A   1      44.740  29.855  32.349  1.00  0.00    -0.354 N 
ATOM     55  N   UNL A   1      44.537  28.118  28.311  1.00  0.00    -0.248 NA
ATOM     56  C   UNL A   1      43.948  26.411  29.794  1.00  0.00     0.031 C 
ATOM     57  C   UNL A   1      44.542  31.868  31.527  1.00  0.00     0.029 A 
ATOM     58  C   UNL A   1      44.769  30.538  31.160  1.00  0.00     0.049 A 
ATOM     59  H   UNL A   1      45.206  29.009  32.542  1.00  0.00     0.167 HD
ATOM     60  C   UNL A   1      44.770  28.580  29.602  1.00  0.00     0.074 A 
ATOM     61  C   UNL A   1      44.433  27.455  30.475  1.00  0.00     0.031 C 
ATOM     62  C   UNL A   1      44.924  29.913  29.863  1.00  0.00     0.037 A 
BRANCH  49  63
ATOM     63  C   UNL A   1      43.415  28.812  35.044  1.00  0.00     0.058 A 
ATOM     64  C   UNL A   1      43.944  29.300  36.260  1.00  0.00     0.135 A 
ATOM     65  C   UNL A   1      43.583  27.425  34.833  1.00  0.00     0.135 A 
ATOM     66  F   UNL A   1      43.829  30.598  36.586  1.00  0.00    -0.206 F 
ATOM     67  C   UNL A   1      44.664  28.496  37.144  1.00  0.00     0.059 A 
ATOM     68  C   UNL A   1      44.251  26.595  35.726  1.00  0.00     0.059 A 
ATOM     69  F   UNL A   1      43.196  26.811  33.711  1.00  0.00    -0.206 F 
ATOM     70  C   UNL A   1      44.831  27.146  36.856  1.00  0.00     0.060 A 
BRANCH  70  71
ATOM     71  S   UNL A   1      45.857  26.130  37.930  1.00  0.00     0.124 S 
ATOM     72  O   UNL A   1      45.590  24.794  37.410  1.00  0.00    -0.237 OA
ATOM     73  O   UNL A   1      47.190  26.665  37.668  1.00  0.00    -0.237 OA
ATOM     74  O   UNL A   1      45.328  26.407  39.263  1.00  0.00    -0.744 OA
ENDBRANCH  70  71
ENDBRANCH  49  63
BRANCH  50  75
ATOM     75  C   UNL A   1      42.761  25.298  26.782  1.00  0.00     0.058 A 
ATOM     76  C   UNL A   1      43.270  25.272  25.463  1.00  0.00     0.135 A 
ATOM     77  C   UNL A   1      42.551  24.026  27.356  1.00  0.00     0.135 A 
ATOM     78  F   UNL A   1      43.478  26.416  24.794  1.00  0.00    -0.206 F 
ATOM     79  C   UNL A   1      43.670  24.089  24.820  1.00  0.00     0.059 A 
ATOM     80  C   UNL A   1      42.934  22.829  26.728  1.00  0.00     0.059 A 
ATOM     81  F   UNL A   1      42.116  23.896  28.615  1.00  0.00    -0.206 F 
ATOM     82  C   UNL A   1      43.541  22.871  25.480  1.00  0.00     0.060 A 
BRANCH  82  83
ATOM     83  S   UNL A   1      44.374  21.397  24.823  1.00  0.00     0.124 S 
ATOM     84  O   UNL A   1      44.486  21.715  23.405  1.00  0.00    -0.237 OA
ATOM     85  O   UNL A   1      45.627  21.384  25.573  1.00  0.00    -0.237 OA
ATOM     86  O   UNL A   1      43.452  20.313  25.149  1.00  0.00    -0.744 OA
ENDBRANCH  82  83
ENDBRANCH  50  75
BRANCH  62  87
ATOM     87  C   UNL A   1      45.060  30.864  28.697  1.00  0.00     0.058 A 
ATOM     88  C   UNL A   1      43.985  31.562  28.115  1.00  0.00     0.135 A 
ATOM     89  C   UNL A   1      46.353  31.252  28.320  1.00  0.00     0.135 A 
ATOM     90  F   UNL A   1      42.723  31.317  28.488  1.00  0.00    -0.206 F 
ATOM     91  C   UNL A   1      44.189  32.594  27.194  1.00  0.00     0.059 A 
ATOM     92  C   UNL A   1      46.579  32.295  27.428  1.00  0.00     0.059 A 
ATOM     93  F   UNL A   1      47.419  30.666  28.888  1.00  0.00    -0.206 F 
ATOM     94  C   UNL A   1      45.493  32.960  26.864  1.00  0.00     0.060 A 
BRANCH  94  95
ATOM     95  S   UNL A   1      45.765  34.364  25.761  1.00  0.00     0.124 S 
ATOM     96  O   UNL A   1      45.359  35.491  26.594  1.00  0.00    -0.237 OA
ATOM     97  O   UNL A   1      47.193  34.272  25.472  1.00  0.00    -0.237 OA
ATOM     98  O   UNL A   1      44.890  34.081  24.626  1.00  0.00    -0.744 OA
ENDBRANCH  94  95
ENDBRANCH  62  87
ENDBRANCH  36  37
ENDBRANCH  28  31
ENDBRANCH  26  27
ENDBRANCH   1  26
TORSDOF 17
ENDMDL
