MODEL 1
REMARK VINA RESULT:     -10.9      0.000      0.000
REMARK SMILES CC(C)N1C(=O)C[C@@H](Sc2csc(C(=O)NCCCCNC(=O)c3ccc(-c4c5nc(c(-c6c(F)cc(S(=O)(=O)[O-])cc6F)c6ccc([nH]6)c(-c6c(F)cc(S(=O)(=O)[O-])cc6F)c6nc(c(-c7c(F)cc(S(=O)(=O)[O-])cc7F)c7ccc4[nH]7)C=C6)C=C5)cc3)c2)C1=O
REMARK SMILES IDX 18 1 17 2 16 3 14 4 15 5 13 7 10 8 11 9 90 10 12 11 9 12
REMARK SMILES IDX 8 13 4 14 5 15 91 16 6 17 7 18 92 19 2 20 1 21 3 22 19 23
REMARK SMILES IDX 20 24 21 25 22 26 23 28 24 29 25 30 89 31 26 32 88 33 27 34
REMARK SMILES IDX 28 35 29 36 82 37 30 38 87 39 81 40 83 41 31 42 86 43 80 44
REMARK SMILES IDX 79 45 32 47 66 48 45 49 65 50 46 51 49 52 64 53 84 54 47 55
REMARK SMILES IDX 48 56 63 58 85 59 50 60 33 61 34 62 43 63 35 64 36 65 42 66
REMARK SMILES IDX 44 67 37 68 38 69 39 70 40 71 41 72 67 73 68 74 77 75 69 76
REMARK SMILES IDX 70 77 76 78 78 79 71 80 72 81 73 82 74 83 75 84 51 85 52 86
REMARK SMILES IDX 61 87 53 88 54 89 60 90 62 91 55 92 56 93 57 94 58 95 59 96
REMARK H PARENT 16 6 21 27 83 46 49 57
REMARK Flexibility Score: inf
ROOT
ATOM      1  C   UNL A   1      32.963  29.332  24.926  1.00  0.00     0.023 C 
ENDROOT
BRANCH   1   2
ATOM      2  C   UNL A   1      31.438  29.271  25.028  1.00  0.00     0.116 C 
BRANCH   2   3
ATOM      3  N   UNL A   1      30.842  29.272  23.710  1.00  0.00    -0.351 N 
ATOM      4  C   UNL A   1      30.785  28.302  22.739  1.00  0.00     0.261 C 
ATOM      5  O   UNL A   1      30.170  28.614  21.716  1.00  0.00    -0.268 OA
ATOM      6  H   UNL A   1      30.400  30.117  23.466  1.00  0.00     0.163 HD
BRANCH   4   7
ATOM      7  C   UNL A   1      31.382  26.987  22.943  1.00  0.00     0.093 A 
ATOM      8  C   UNL A   1      31.836  24.743  23.518  1.00  0.00     0.020 A 
ATOM      9  C   UNL A   1      32.864  25.026  22.658  1.00  0.00     0.080 A 
ATOM     10  C   UNL A   1      31.040  25.910  23.743  1.00  0.00     0.040 A 
ATOM     11  S   UNL A   1      32.819  26.629  22.069  1.00  0.00    -0.137 S 
BRANCH   8  12
ATOM     12  S   UNL A   1      31.379  23.245  24.316  1.00  0.00    -0.111 SA
BRANCH  12  13
ATOM     13  C   UNL A   1      32.660  22.741  25.482  1.00  0.00     0.150 C 
ATOM     14  N   UNL A   1      34.891  22.437  24.886  1.00  0.00    -0.279 N 
ATOM     15  C   UNL A   1      34.862  23.607  25.600  1.00  0.00     0.231 C 
ATOM     16  C   UNL A   1      33.679  21.806  24.890  1.00  0.00     0.243 C 
ATOM     17  O   UNL A   1      35.811  24.337  25.836  1.00  0.00    -0.274 OA
ATOM     18  C   UNL A   1      33.467  23.875  26.078  1.00  0.00     0.125 C 
ATOM     19  O   UNL A   1      33.440  20.667  24.509  1.00  0.00    -0.273 OA
BRANCH  14  20
ATOM     20  C   UNL A   1      36.126  21.929  24.282  1.00  0.00     0.087 C 
ATOM     21  C   UNL A   1      36.587  22.826  23.138  1.00  0.00     0.031 C 
ATOM     22  C   UNL A   1      37.258  21.698  25.287  1.00  0.00     0.031 C 
ENDBRANCH  14  20
ENDBRANCH  12  13
ENDBRANCH   8  12
ENDBRANCH   4   7
ENDBRANCH   2   3
ENDBRANCH   1   2
BRANCH   1  23
ATOM     23  C   UNL A   1      33.674  28.167  25.621  1.00  0.00     0.023 C 
BRANCH  23  24
ATOM     24  C   UNL A   1      33.848  28.330  27.128  1.00  0.00     0.116 C 
BRANCH  24  25
ATOM     25  N   UNL A   1      33.664  29.700  27.577  1.00  0.00    -0.352 N 
ATOM     26  C   UNL A   1      34.558  30.520  28.220  1.00  0.00     0.251 C 
ATOM     27  H   UNL A   1      32.779  30.093  27.395  1.00  0.00     0.163 HD
ATOM     28  O   UNL A   1      34.187  31.608  28.650  1.00  0.00    -0.269 OA
BRANCH  26  29
ATOM     29  C   UNL A   1      35.948  30.066  28.426  1.00  0.00     0.039 A 
ATOM     30  C   UNL A   1      36.832  30.117  27.348  1.00  0.00     0.014 A 
ATOM     31  C   UNL A   1      36.383  29.614  29.675  1.00  0.00     0.014 A 
ATOM     32  C   UNL A   1      38.168  29.764  27.539  1.00  0.00     0.010 A 
ATOM     33  C   UNL A   1      37.733  29.343  29.883  1.00  0.00     0.010 A 
ATOM     34  C   UNL A   1      38.639  29.408  28.816  1.00  0.00    -0.014 A 
BRANCH  34  35
ATOM     35  C   UNL A   1      40.081  29.126  29.030  1.00  0.00     0.031 A 
ATOM     36  C   UNL A   1      40.666  27.788  28.669  1.00  0.00     0.074 A 
ATOM     37  C   UNL A   1      40.862  30.083  29.572  1.00  0.00     0.049 A 
ATOM     38  N   UNL A   1      41.911  27.391  28.729  1.00  0.00    -0.248 NA
ATOM     39  C   UNL A   1      39.731  26.751  28.204  1.00  0.00     0.031 C 
ATOM     40  C   UNL A   1      40.393  31.393  30.035  1.00  0.00     0.029 A 
ATOM     41  N   UNL A   1      42.211  30.110  29.816  1.00  0.00    -0.354 N 
ATOM     42  C   UNL A   1      41.910  26.066  28.309  1.00  0.00     0.074 A 
ATOM     43  C   UNL A   1      40.531  25.705  28.063  1.00  0.00     0.031 C 
ATOM     44  C   UNL A   1      41.444  32.111  30.460  1.00  0.00     0.029 A 
ATOM     45  C   UNL A   1      42.654  31.305  30.332  1.00  0.00     0.049 A 
ATOM     46  H   UNL A   1      42.805  29.346  29.638  1.00  0.00     0.167 HD
ATOM     47  C   UNL A   1      42.964  25.236  28.118  1.00  0.00     0.037 A 
ATOM     48  C   UNL A   1      43.896  31.712  30.655  1.00  0.00     0.037 A 
ATOM     49  C   UNL A   1      44.335  25.609  28.358  1.00  0.00     0.049 A 
ATOM     50  C   UNL A   1      45.051  30.778  30.417  1.00  0.00     0.074 A 
ATOM     51  C   UNL A   1      45.480  24.864  28.142  1.00  0.00     0.029 A 
ATOM     52  N   UNL A   1      44.747  26.830  28.873  1.00  0.00    -0.354 N 
ATOM     53  N   UNL A   1      45.041  29.556  29.937  1.00  0.00    -0.248 NA
ATOM     54  C   UNL A   1      46.389  31.284  30.749  1.00  0.00     0.031 C 
ATOM     55  C   UNL A   1      46.580  25.611  28.578  1.00  0.00     0.029 A 
ATOM     56  C   UNL A   1      46.126  26.848  29.007  1.00  0.00     0.049 A 
ATOM     57  H   UNL A   1      44.147  27.574  29.110  1.00  0.00     0.167 HD
ATOM     58  C   UNL A   1      46.371  29.155  29.890  1.00  0.00     0.074 A 
ATOM     59  C   UNL A   1      47.158  30.277  30.362  1.00  0.00     0.031 C 
ATOM     60  C   UNL A   1      46.896  27.967  29.495  1.00  0.00     0.037 A 
BRANCH  47  61
ATOM     61  C   UNL A   1      42.674  23.843  27.623  1.00  0.00     0.058 A 
ATOM     62  C   UNL A   1      42.572  23.551  26.252  1.00  0.00     0.135 A 
ATOM     63  C   UNL A   1      42.531  22.777  28.527  1.00  0.00     0.135 A 
ATOM     64  F   UNL A   1      42.684  24.532  25.342  1.00  0.00    -0.206 F 
ATOM     65  C   UNL A   1      42.309  22.263  25.796  1.00  0.00     0.059 A 
ATOM     66  C   UNL A   1      42.299  21.475  28.092  1.00  0.00     0.059 A 
ATOM     67  F   UNL A   1      42.618  22.995  29.848  1.00  0.00    -0.206 F 
ATOM     68  C   UNL A   1      42.175  21.231  26.725  1.00  0.00     0.060 A 
BRANCH  68  69
ATOM     69  S   UNL A   1      41.842  19.564  26.117  1.00  0.00     0.124 S 
ATOM     70  O   UNL A   1      42.746  19.485  24.974  1.00  0.00    -0.237 OA
ATOM     71  O   UNL A   1      42.199  18.737  27.265  1.00  0.00    -0.237 OA
ATOM     72  O   UNL A   1      40.420  19.598  25.790  1.00  0.00    -0.744 OA
ENDBRANCH  68  69
ENDBRANCH  47  61
BRANCH  48  73
ATOM     73  C   UNL A   1      44.113  33.078  31.204  1.00  0.00     0.058 A 
ATOM     74  C   UNL A   1      44.344  34.172  30.358  1.00  0.00     0.135 A 
ATOM     75  C   UNL A   1      44.080  33.318  32.587  1.00  0.00     0.135 A 
ATOM     76  F   UNL A   1      44.389  33.994  29.029  1.00  0.00    -0.206 F 
ATOM     77  C   UNL A   1      44.555  35.452  30.861  1.00  0.00     0.059 A 
ATOM     78  C   UNL A   1      44.258  34.594  33.113  1.00  0.00     0.059 A 
ATOM     79  F   UNL A   1      43.843  32.309  33.440  1.00  0.00    -0.206 F 
ATOM     80  C   UNL A   1      44.506  35.652  32.241  1.00  0.00     0.060 A 
BRANCH  80  81
ATOM     81  S   UNL A   1      44.731  37.326  32.881  1.00  0.00     0.124 S 
ATOM     82  O   UNL A   1      43.495  37.523  33.630  1.00  0.00    -0.237 OA
ATOM     83  O   UNL A   1      45.947  37.190  33.677  1.00  0.00    -0.237 OA
ATOM     84  O   UNL A   1      44.871  38.132  31.670  1.00  0.00    -0.744 OA
ENDBRANCH  80  81
ENDBRANCH  48  73
BRANCH  60  85
ATOM     85  C   UNL A   1      48.395  27.836  29.540  1.00  0.00     0.058 A 
ATOM     86  C   UNL A   1      49.067  27.414  30.700  1.00  0.00     0.135 A 
ATOM     87  C   UNL A   1      49.172  28.142  28.409  1.00  0.00     0.135 A 
ATOM     88  F   UNL A   1      48.376  27.110  31.809  1.00  0.00    -0.206 F 
ATOM     89  C   UNL A   1      50.456  27.358  30.755  1.00  0.00     0.059 A 
ATOM     90  C   UNL A   1      50.560  28.057  28.432  1.00  0.00     0.059 A 
ATOM     91  F   UNL A   1      48.582  28.532  27.268  1.00  0.00    -0.206 F 
ATOM     92  C   UNL A   1      51.194  27.690  29.617  1.00  0.00     0.060 A 
BRANCH  92  93
ATOM     93  S   UNL A   1      52.996  27.639  29.710  1.00  0.00     0.124 S 
ATOM     94  O   UNL A   1      53.241  26.207  29.852  1.00  0.00    -0.237 OA
ATOM     95  O   UNL A   1      53.393  28.227  28.434  1.00  0.00    -0.237 OA
ATOM     96  O   UNL A   1      53.298  28.448  30.887  1.00  0.00    -0.744 OA
ENDBRANCH  92  93
ENDBRANCH  60  85
ENDBRANCH  34  35
ENDBRANCH  26  29
ENDBRANCH  24  25
ENDBRANCH  23  24
ENDBRANCH   1  23
TORSDOF 17
ENDMDL
MODEL 2
REMARK VINA RESULT:     -10.8      5.207     10.000
REMARK SMILES CC(C)N1C(=O)C[C@@H](Sc2csc(C(=O)NCCCCNC(=O)c3ccc(-c4c5nc(c(-c6c(F)cc(S(=O)(=O)[O-])cc6F)c6ccc([nH]6)c(-c6c(F)cc(S(=O)(=O)[O-])cc6F)c6nc(c(-c7c(F)cc(S(=O)(=O)[O-])cc7F)c7ccc4[nH]7)C=C6)C=C5)cc3)c2)C1=O
REMARK SMILES IDX 18 1 17 2 16 3 14 4 15 5 13 7 10 8 11 9 90 10 12 11 9 12
REMARK SMILES IDX 8 13 4 14 5 15 91 16 6 17 7 18 92 19 2 20 1 21 3 22 19 23
REMARK SMILES IDX 20 24 21 25 22 26 23 28 24 29 25 30 89 31 26 32 88 33 27 34
REMARK SMILES IDX 28 35 29 36 82 37 30 38 87 39 81 40 83 41 31 42 86 43 80 44
REMARK SMILES IDX 79 45 32 47 66 48 45 49 65 50 46 51 49 52 64 53 84 54 47 55
REMARK SMILES IDX 48 56 63 58 85 59 50 60 33 61 34 62 43 63 35 64 36 65 42 66
REMARK SMILES IDX 44 67 37 68 38 69 39 70 40 71 41 72 67 73 68 74 77 75 69 76
REMARK SMILES IDX 70 77 76 78 78 79 71 80 72 81 73 82 74 83 75 84 51 85 52 86
REMARK SMILES IDX 61 87 53 88 54 89 60 90 62 91 55 92 56 93 57 94 58 95 59 96
REMARK H PARENT 16 6 21 27 83 46 49 57
REMARK Flexibility Score: inf
ROOT
ATOM      1  C   UNL A   1      38.046  22.019  25.399  1.00  0.00     0.023 C 
ENDROOT
BRANCH   1   2
ATOM      2  C   UNL A   1      36.895  21.025  25.242  1.00  0.00     0.116 C 
BRANCH   2   3
ATOM      3  N   UNL A   1      35.962  21.154  26.340  1.00  0.00    -0.351 N 
ATOM      4  C   UNL A   1      34.614  21.424  26.359  1.00  0.00     0.261 C 
ATOM      5  O   UNL A   1      34.096  21.442  27.478  1.00  0.00    -0.268 OA
ATOM      6  H   UNL A   1      36.363  21.027  27.230  1.00  0.00     0.163 HD
BRANCH   4   7
ATOM      7  C   UNL A   1      33.864  21.628  25.126  1.00  0.00     0.093 A 
ATOM      8  C   UNL A   1      33.058  22.356  23.030  1.00  0.00     0.020 A 
ATOM      9  C   UNL A   1      32.346  21.201  23.219  1.00  0.00     0.080 A 
ATOM     10  C   UNL A   1      33.864  22.637  24.178  1.00  0.00     0.040 A 
ATOM     11  S   UNL A   1      32.705  20.431  24.701  1.00  0.00    -0.137 S 
BRANCH   8  12
ATOM     12  S   UNL A   1      33.130  23.456  21.661  1.00  0.00    -0.111 SA
BRANCH  12  13
ATOM     13  C   UNL A   1      32.361  25.033  22.085  1.00  0.00     0.150 C 
ATOM     14  N   UNL A   1      31.926  25.703  24.273  1.00  0.00    -0.279 N 
ATOM     15  C   UNL A   1      32.992  26.462  23.865  1.00  0.00     0.231 C 
ATOM     16  C   UNL A   1      31.417  24.948  23.253  1.00  0.00     0.243 C 
ATOM     17  O   UNL A   1      33.592  27.289  24.533  1.00  0.00    -0.274 OA
ATOM     18  C   UNL A   1      33.327  26.143  22.439  1.00  0.00     0.125 C 
ATOM     19  O   UNL A   1      30.366  24.322  23.254  1.00  0.00    -0.273 OA
BRANCH  14  20
ATOM     20  C   UNL A   1      31.386  25.793  25.632  1.00  0.00     0.087 C 
ATOM     21  C   UNL A   1      29.887  26.077  25.609  1.00  0.00     0.031 C 
ATOM     22  C   UNL A   1      31.701  24.577  26.507  1.00  0.00     0.031 C 
ENDBRANCH  14  20
ENDBRANCH  12  13
ENDBRANCH   8  12
ENDBRANCH   4   7
ENDBRANCH   2   3
ENDBRANCH   1   2
BRANCH   1  23
ATOM     23  C   UNL A   1      37.588  23.464  25.616  1.00  0.00     0.023 C 
BRANCH  23  24
ATOM     24  C   UNL A   1      38.492  24.294  26.522  1.00  0.00     0.116 C 
BRANCH  24  25
ATOM     25  N   UNL A   1      39.898  24.194  26.169  1.00  0.00    -0.352 N 
ATOM     26  C   UNL A   1      40.949  24.967  26.597  1.00  0.00     0.251 C 
ATOM     27  H   UNL A   1      40.129  23.474  25.537  1.00  0.00     0.163 HD
ATOM     28  O   UNL A   1      42.057  24.827  26.089  1.00  0.00    -0.269 OA
BRANCH  26  29
ATOM     29  C   UNL A   1      40.725  25.990  27.638  1.00  0.00     0.039 A 
ATOM     30  C   UNL A   1      39.686  25.797  28.550  1.00  0.00     0.014 A 
ATOM     31  C   UNL A   1      41.544  27.119  27.730  1.00  0.00     0.014 A 
ATOM     32  C   UNL A   1      39.505  26.712  29.587  1.00  0.00     0.010 A 
ATOM     33  C   UNL A   1      41.414  27.984  28.813  1.00  0.00     0.010 A 
ATOM     34  C   UNL A   1      40.389  27.795  29.749  1.00  0.00    -0.014 A 
BRANCH  34  35
ATOM     35  C   UNL A   1      40.246  28.711  30.910  1.00  0.00     0.031 A 
ATOM     36  C   UNL A   1      41.117  28.554  32.126  1.00  0.00     0.074 A 
ATOM     37  C   UNL A   1      39.309  29.679  30.867  1.00  0.00     0.049 A 
ATOM     38  N   UNL A   1      41.171  29.299  33.200  1.00  0.00    -0.248 NA
ATOM     39  C   UNL A   1      42.027  27.397  32.154  1.00  0.00     0.031 C 
ATOM     40  C   UNL A   1      38.353  29.882  29.774  1.00  0.00     0.029 A 
ATOM     41  N   UNL A   1      39.011  30.680  31.756  1.00  0.00    -0.354 N 
ATOM     42  C   UNL A   1      42.118  28.706  34.028  1.00  0.00     0.074 A 
ATOM     43  C   UNL A   1      42.563  27.501  33.362  1.00  0.00     0.031 C 
ATOM     44  C   UNL A   1      37.610  30.969  30.035  1.00  0.00     0.029 A 
ATOM     45  C   UNL A   1      38.012  31.521  31.325  1.00  0.00     0.049 A 
ATOM     46  H   UNL A   1      39.470  30.787  32.620  1.00  0.00     0.167 HD
ATOM     47  C   UNL A   1      42.594  29.141  35.220  1.00  0.00     0.037 A 
ATOM     48  C   UNL A   1      37.485  32.620  31.898  1.00  0.00     0.037 A 
ATOM     49  C   UNL A   1      42.151  30.348  35.870  1.00  0.00     0.049 A 
ATOM     50  C   UNL A   1      38.043  33.092  33.212  1.00  0.00     0.074 A 
ATOM     51  C   UNL A   1      42.609  30.908  37.049  1.00  0.00     0.029 A 
ATOM     52  N   UNL A   1      41.143  31.178  35.401  1.00  0.00    -0.354 N 
ATOM     53  N   UNL A   1      39.000  32.566  33.941  1.00  0.00    -0.248 NA
ATOM     54  C   UNL A   1      37.461  34.317  33.774  1.00  0.00     0.031 C 
ATOM     55  C   UNL A   1      41.841  32.046  37.322  1.00  0.00     0.029 A 
ATOM     56  C   UNL A   1      40.946  32.231  36.281  1.00  0.00     0.049 A 
ATOM     57  H   UNL A   1      40.640  31.039  34.567  1.00  0.00     0.167 HD
ATOM     58  C   UNL A   1      39.149  33.408  35.037  1.00  0.00     0.074 A 
ATOM     59  C   UNL A   1      38.204  34.492  34.858  1.00  0.00     0.031 C 
ATOM     60  C   UNL A   1      39.989  33.295  36.097  1.00  0.00     0.037 A 
BRANCH  47  61
ATOM     61  C   UNL A   1      43.652  28.307  35.895  1.00  0.00     0.058 A 
ATOM     62  C   UNL A   1      45.022  28.566  35.718  1.00  0.00     0.135 A 
ATOM     63  C   UNL A   1      43.294  27.259  36.758  1.00  0.00     0.135 A 
ATOM     64  F   UNL A   1      45.425  29.545  34.893  1.00  0.00    -0.206 F 
ATOM     65  C   UNL A   1      45.998  27.797  36.346  1.00  0.00     0.059 A 
ATOM     66  C   UNL A   1      44.252  26.497  37.422  1.00  0.00     0.059 A 
ATOM     67  F   UNL A   1      42.001  26.964  36.965  1.00  0.00    -0.206 F 
ATOM     68  C   UNL A   1      45.602  26.765  37.198  1.00  0.00     0.060 A 
BRANCH  68  69
ATOM     69  S   UNL A   1      46.880  25.784  38.011  1.00  0.00     0.124 S 
ATOM     70  O   UNL A   1      46.216  25.414  39.256  1.00  0.00    -0.237 OA
ATOM     71  O   UNL A   1      47.092  24.698  37.058  1.00  0.00    -0.237 OA
ATOM     72  O   UNL A   1      47.993  26.719  38.148  1.00  0.00    -0.744 OA
ENDBRANCH  68  69
ENDBRANCH  47  61
BRANCH  48  73
ATOM     73  C   UNL A   1      36.394  33.365  31.214  1.00  0.00     0.058 A 
ATOM     74  C   UNL A   1      36.657  34.181  30.104  1.00  0.00     0.135 A 
ATOM     75  C   UNL A   1      35.063  33.266  31.650  1.00  0.00     0.135 A 
ATOM     76  F   UNL A   1      37.913  34.313  29.651  1.00  0.00    -0.206 F 
ATOM     77  C   UNL A   1      35.646  34.888  29.462  1.00  0.00     0.059 A 
ATOM     78  C   UNL A   1      34.029  33.938  31.005  1.00  0.00     0.059 A 
ATOM     79  F   UNL A   1      34.753  32.483  32.695  1.00  0.00    -0.206 F 
ATOM     80  C   UNL A   1      34.334  34.757  29.919  1.00  0.00     0.060 A 
BRANCH  80  81
ATOM     81  S   UNL A   1      33.021  35.639  29.046  1.00  0.00     0.124 S 
ATOM     82  O   UNL A   1      32.427  34.570  28.251  1.00  0.00    -0.237 OA
ATOM     83  O   UNL A   1      32.207  36.144  30.147  1.00  0.00    -0.237 OA
ATOM     84  O   UNL A   1      33.745  36.659  28.293  1.00  0.00    -0.744 OA
ENDBRANCH  80  81
ENDBRANCH  48  73
BRANCH  60  85
ATOM     85  C   UNL A   1      39.931  34.388  37.132  1.00  0.00     0.058 A 
ATOM     86  C   UNL A   1      39.152  34.266  38.295  1.00  0.00     0.135 A 
ATOM     87  C   UNL A   1      40.660  35.576  36.955  1.00  0.00     0.135 A 
ATOM     88  F   UNL A   1      38.435  33.153  38.515  1.00  0.00    -0.206 F 
ATOM     89  C   UNL A   1      39.051  35.305  39.214  1.00  0.00     0.059 A 
ATOM     90  C   UNL A   1      40.602  36.613  37.881  1.00  0.00     0.059 A 
ATOM     91  F   UNL A   1      41.436  35.740  35.872  1.00  0.00    -0.206 F 
ATOM     92  C   UNL A   1      39.774  36.479  38.993  1.00  0.00     0.060 A 
BRANCH  92  93
ATOM     93  S   UNL A   1      39.614  37.830  40.180  1.00  0.00     0.124 S 
ATOM     94  O   UNL A   1      38.686  38.718  39.488  1.00  0.00    -0.237 OA
ATOM     95  O   UNL A   1      39.085  37.152  41.358  1.00  0.00    -0.237 OA
ATOM     96  O   UNL A   1      40.981  38.328  40.311  1.00  0.00    -0.744 OA
ENDBRANCH  92  93
ENDBRANCH  60  85
ENDBRANCH  34  35
ENDBRANCH  26  29
ENDBRANCH  24  25
ENDBRANCH  23  24
ENDBRANCH   1  23
TORSDOF 17
ENDMDL
MODEL 3
REMARK VINA RESULT:     -10.6      5.101     10.026
REMARK SMILES CC(C)N1C(=O)C[C@@H](Sc2csc(C(=O)NCCCCNC(=O)c3ccc(-c4c5nc(c(-c6c(F)cc(S(=O)(=O)[O-])cc6F)c6ccc([nH]6)c(-c6c(F)cc(S(=O)(=O)[O-])cc6F)c6nc(c(-c7c(F)cc(S(=O)(=O)[O-])cc7F)c7ccc4[nH]7)C=C6)C=C5)cc3)c2)C1=O
REMARK SMILES IDX 18 1 17 2 16 3 14 4 15 5 13 7 10 8 11 9 90 10 12 11 9 12
REMARK SMILES IDX 8 13 4 14 5 15 91 16 6 17 7 18 92 19 2 20 1 21 3 22 19 23
REMARK SMILES IDX 20 24 21 25 22 26 23 28 24 29 25 30 89 31 26 32 88 33 27 34
REMARK SMILES IDX 28 35 29 36 82 37 30 38 87 39 81 40 83 41 31 42 86 43 80 44
REMARK SMILES IDX 79 45 32 47 66 48 45 49 65 50 46 51 49 52 64 53 84 54 47 55
REMARK SMILES IDX 48 56 63 58 85 59 50 60 33 61 34 62 43 63 35 64 36 65 42 66
REMARK SMILES IDX 44 67 37 68 38 69 39 70 40 71 41 72 67 73 68 74 77 75 69 76
REMARK SMILES IDX 70 77 76 78 78 79 71 80 72 81 73 82 74 83 75 84 51 85 52 86
REMARK SMILES IDX 61 87 53 88 54 89 60 90 62 91 55 92 56 93 57 94 58 95 59 96
REMARK H PARENT 16 6 21 27 83 46 49 57
REMARK Flexibility Score: inf
ROOT
ATOM      1  C   UNL A   1      37.376  22.866  25.194  1.00  0.00     0.023 C 
ENDROOT
BRANCH   1   2
ATOM      2  C   UNL A   1      35.970  22.596  25.730  1.00  0.00     0.116 C 
BRANCH   2   3
ATOM      3  N   UNL A   1      35.524  21.277  25.341  1.00  0.00    -0.351 N 
ATOM      4  C   UNL A   1      34.299  20.821  24.916  1.00  0.00     0.261 C 
ATOM      5  O   UNL A   1      34.251  19.622  24.631  1.00  0.00    -0.268 OA
ATOM      6  H   UNL A   1      36.221  20.583  25.389  1.00  0.00     0.163 HD
BRANCH   4   7
ATOM      7  C   UNL A   1      33.160  21.722  24.778  1.00  0.00     0.093 A 
ATOM      8  C   UNL A   1      31.414  23.274  25.119  1.00  0.00     0.020 A 
ATOM      9  C   UNL A   1      31.478  23.218  23.752  1.00  0.00     0.080 A 
ATOM     10  C   UNL A   1      32.329  22.339  25.698  1.00  0.00     0.040 A 
ATOM     11  S   UNL A   1      32.669  22.134  23.183  1.00  0.00    -0.137 S 
BRANCH   8  12
ATOM     12  S   UNL A   1      30.445  24.277  26.189  1.00  0.00    -0.111 SA
BRANCH  12  13
ATOM     13  C   UNL A   1      30.622  26.017  25.745  1.00  0.00     0.150 C 
ATOM     14  N   UNL A   1      32.132  26.788  24.148  1.00  0.00    -0.279 N 
ATOM     15  C   UNL A   1      30.898  26.879  23.556  1.00  0.00     0.231 C 
ATOM     16  C   UNL A   1      32.041  26.425  25.463  1.00  0.00     0.243 C 
ATOM     17  O   UNL A   1      30.665  27.259  22.420  1.00  0.00    -0.274 OA
ATOM     18  C   UNL A   1      29.838  26.450  24.524  1.00  0.00     0.125 C 
ATOM     19  O   UNL A   1      32.938  26.445  26.295  1.00  0.00    -0.273 OA
BRANCH  14  20
ATOM     20  C   UNL A   1      33.362  27.132  23.430  1.00  0.00     0.087 C 
ATOM     21  C   UNL A   1      33.412  26.448  22.068  1.00  0.00     0.031 C 
ATOM     22  C   UNL A   1      33.601  28.638  23.297  1.00  0.00     0.031 C 
ENDBRANCH  14  20
ENDBRANCH  12  13
ENDBRANCH   8  12
ENDBRANCH   4   7
ENDBRANCH   2   3
ENDBRANCH   1   2
BRANCH   1  23
ATOM     23  C   UNL A   1      38.487  22.594  26.214  1.00  0.00     0.023 C 
BRANCH  23  24
ATOM     24  C   UNL A   1      39.158  23.843  26.778  1.00  0.00     0.116 C 
BRANCH  24  25
ATOM     25  N   UNL A   1      40.165  24.399  25.890  1.00  0.00    -0.352 N 
ATOM     26  C   UNL A   1      40.915  25.538  26.047  1.00  0.00     0.251 C 
ATOM     27  H   UNL A   1      40.331  23.889  25.063  1.00  0.00     0.163 HD
ATOM     28  O   UNL A   1      41.626  25.932  25.128  1.00  0.00    -0.269 OA
BRANCH  26  29
ATOM     29  C   UNL A   1      40.828  26.301  27.308  1.00  0.00     0.039 A 
ATOM     30  C   UNL A   1      41.669  27.400  27.482  1.00  0.00     0.014 A 
ATOM     31  C   UNL A   1      39.911  25.949  28.303  1.00  0.00     0.014 A 
ATOM     32  C   UNL A   1      41.550  28.180  28.632  1.00  0.00     0.010 A 
ATOM     33  C   UNL A   1      39.737  26.776  29.410  1.00  0.00     0.010 A 
ATOM     34  C   UNL A   1      40.559  27.896  29.591  1.00  0.00    -0.014 A 
BRANCH  34  35
ATOM     35  C   UNL A   1      40.378  28.786  30.766  1.00  0.00     0.031 A 
ATOM     36  C   UNL A   1      41.238  28.630  31.989  1.00  0.00     0.074 A 
ATOM     37  C   UNL A   1      39.416  29.729  30.729  1.00  0.00     0.049 A 
ATOM     38  N   UNL A   1      41.260  29.356  33.078  1.00  0.00    -0.248 NA
ATOM     39  C   UNL A   1      42.178  27.498  32.008  1.00  0.00     0.031 C 
ATOM     40  C   UNL A   1      38.468  29.927  29.628  1.00  0.00     0.029 A 
ATOM     41  N   UNL A   1      39.080  30.706  31.632  1.00  0.00    -0.354 N 
ATOM     42  C   UNL A   1      42.212  28.774  33.906  1.00  0.00     0.074 A 
ATOM     43  C   UNL A   1      42.697  27.594  33.224  1.00  0.00     0.031 C 
ATOM     44  C   UNL A   1      37.693  30.988  29.900  1.00  0.00     0.029 A 
ATOM     45  C   UNL A   1      38.064  31.527  31.204  1.00  0.00     0.049 A 
ATOM     46  H   UNL A   1      39.526  30.809  32.503  1.00  0.00     0.167 HD
ATOM     47  C   UNL A   1      42.663  29.200  35.112  1.00  0.00     0.037 A 
ATOM     48  C   UNL A   1      37.501  32.601  31.790  1.00  0.00     0.037 A 
ATOM     49  C   UNL A   1      42.179  30.382  35.778  1.00  0.00     0.049 A 
ATOM     50  C   UNL A   1      38.030  33.063  33.119  1.00  0.00     0.074 A 
ATOM     51  C   UNL A   1      42.608  30.933  36.973  1.00  0.00     0.029 A 
ATOM     52  N   UNL A   1      41.154  31.194  35.312  1.00  0.00    -0.354 N 
ATOM     53  N   UNL A   1      38.993  32.550  33.850  1.00  0.00    -0.248 NA
ATOM     54  C   UNL A   1      37.409  34.262  33.696  1.00  0.00     0.031 C 
ATOM     55  C   UNL A   1      41.806  32.045  37.257  1.00  0.00     0.029 A 
ATOM     56  C   UNL A   1      40.919  32.225  36.208  1.00  0.00     0.049 A 
ATOM     57  H   UNL A   1      40.665  31.056  34.469  1.00  0.00     0.167 HD
ATOM     58  C   UNL A   1      39.106  33.376  34.963  1.00  0.00     0.074 A 
ATOM     59  C   UNL A   1      38.134  34.437  34.792  1.00  0.00     0.031 C 
ATOM     60  C   UNL A   1      39.936  33.266  36.032  1.00  0.00     0.037 A 
BRANCH  47  61
ATOM     61  C   UNL A   1      43.734  28.382  35.784  1.00  0.00     0.058 A 
ATOM     62  C   UNL A   1      43.420  27.337  36.671  1.00  0.00     0.135 A 
ATOM     63  C   UNL A   1      45.092  28.619  35.513  1.00  0.00     0.135 A 
ATOM     64  F   UNL A   1      42.141  27.075  36.981  1.00  0.00    -0.206 F 
ATOM     65  C   UNL A   1      44.411  26.580  37.288  1.00  0.00     0.059 A 
ATOM     66  C   UNL A   1      46.099  27.853  36.094  1.00  0.00     0.059 A 
ATOM     67  F   UNL A   1      45.452  29.603  34.675  1.00  0.00    -0.206 F 
ATOM     68  C   UNL A   1      45.749  26.845  36.991  1.00  0.00     0.060 A 
BRANCH  68  69
ATOM     69  S   UNL A   1      47.021  25.847  37.793  1.00  0.00     0.124 S 
ATOM     70  O   UNL A   1      47.346  26.667  38.956  1.00  0.00    -0.237 OA
ATOM     71  O   UNL A   1      46.311  24.603  38.074  1.00  0.00    -0.237 OA
ATOM     72  O   UNL A   1      48.069  25.752  36.782  1.00  0.00    -0.744 OA
ENDBRANCH  68  69
ENDBRANCH  47  61
BRANCH  48  73
ATOM     73  C   UNL A   1      36.398  33.329  31.106  1.00  0.00     0.058 A 
ATOM     74  C   UNL A   1      35.077  33.247  31.569  1.00  0.00     0.135 A 
ATOM     75  C   UNL A   1      36.648  34.135  29.983  1.00  0.00     0.135 A 
ATOM     76  F   UNL A   1      34.786  32.488  32.636  1.00  0.00    -0.206 F 
ATOM     77  C   UNL A   1      34.038  33.918  30.933  1.00  0.00     0.059 A 
ATOM     78  C   UNL A   1      35.631  34.841  29.348  1.00  0.00     0.059 A 
ATOM     79  F   UNL A   1      37.898  34.264  29.512  1.00  0.00    -0.206 F 
ATOM     80  C   UNL A   1      34.327  34.716  29.824  1.00  0.00     0.060 A 
BRANCH  80  81
ATOM     81  S   UNL A   1      32.978  35.624  29.037  1.00  0.00     0.124 S 
ATOM     82  O   UNL A   1      33.702  36.688  28.349  1.00  0.00    -0.237 OA
ATOM     83  O   UNL A   1      32.379  34.603  28.183  1.00  0.00    -0.237 OA
ATOM     84  O   UNL A   1      32.155  36.048  30.166  1.00  0.00    -0.744 OA
ENDBRANCH  80  81
ENDBRANCH  48  73
BRANCH  60  85
ATOM     85  C   UNL A   1      39.836  34.338  37.085  1.00  0.00     0.058 A 
ATOM     86  C   UNL A   1      39.051  34.172  38.238  1.00  0.00     0.135 A 
ATOM     87  C   UNL A   1      40.531  35.550  36.936  1.00  0.00     0.135 A 
ATOM     88  F   UNL A   1      38.365  33.034  38.432  1.00  0.00    -0.206 F 
ATOM     89  C   UNL A   1      38.911  35.191  39.175  1.00  0.00     0.059 A 
ATOM     90  C   UNL A   1      40.433  36.567  37.879  1.00  0.00     0.059 A 
ATOM     91  F   UNL A   1      41.311  35.756  35.863  1.00  0.00    -0.206 F 
ATOM     92  C   UNL A   1      39.600  36.389  38.982  1.00  0.00     0.060 A 
BRANCH  92  93
ATOM     93  S   UNL A   1      39.390  37.713  40.190  1.00  0.00     0.124 S 
ATOM     94  O   UNL A   1      38.326  38.502  39.577  1.00  0.00    -0.237 OA
ATOM     95  O   UNL A   1      39.022  36.980  41.398  1.00  0.00    -0.237 OA
ATOM     96  O   UNL A   1      40.703  38.350  40.226  1.00  0.00    -0.744 OA
ENDBRANCH  92  93
ENDBRANCH  60  85
ENDBRANCH  34  35
ENDBRANCH  26  29
ENDBRANCH  24  25
ENDBRANCH  23  24
ENDBRANCH   1  23
TORSDOF 17
ENDMDL
