MODEL 1
REMARK VINA RESULT:     -13.4      0.000      0.000
REMARK SMILES Cn1c(=O)c(=O)n(C)c2cc(S(=O)(=O)N3CCC[C@H]3C(=O)NCCCCNC(=O)c3ccc(-c4c5nc(c(-c6c(F)cc(S(=O)(=O)[O-])cc6F)c6ccc([nH]6)c(-c6c(F)cc(S(=O)(=O)[O-])cc6F)c6nc(c(-c7c(F)cc(S(=O)(=O)[O-])cc7F)c7ccc4[nH]7)C=C6)C=C5)cc3)ccc21
REMARK SMILES IDX 25 1 24 2 23 3 22 4 20 5 21 6 19 8 15 9 16 10 17 11 18 12
REMARK SMILES IDX 12 13 13 14 14 15 11 16 1 17 2 18 3 19 98 20 4 21 5 22 9 23
REMARK SMILES IDX 97 24 6 25 7 26 10 27 96 28 8 29 26 30 27 31 28 32 29 34
REMARK SMILES IDX 30 35 31 36 95 37 32 38 94 39 33 40 34 41 35 42 88 43 36 44
REMARK SMILES IDX 93 45 87 46 89 47 37 48 92 49 86 50 85 51 38 53 72 54 51 55
REMARK SMILES IDX 71 56 52 57 55 58 70 59 90 60 53 61 54 62 69 64 91 65 56 66
REMARK SMILES IDX 39 67 40 68 49 69 41 70 42 71 48 72 50 73 43 74 44 75 45 76
REMARK SMILES IDX 46 77 47 78 73 79 74 80 83 81 75 82 76 83 82 84 84 85 77 86
REMARK SMILES IDX 78 87 79 88 80 89 81 90 57 91 58 92 67 93 59 94 60 95 66 96
REMARK SMILES IDX 68 97 61 98 62 99 63 100 64 101 65 102
REMARK H PARENT 22 7 27 33 89 52 55 63
REMARK Flexibility Score: inf
ROOT
ATOM      1  C   UNL A   1      40.029  21.725  26.854  1.00  0.00     0.023 C 
ENDROOT
BRANCH   1   2
ATOM      2  C   UNL A   1      39.237  21.087  25.720  1.00  0.00     0.023 C 
BRANCH   2   3
ATOM      3  C   UNL A   1      37.872  21.695  25.424  1.00  0.00     0.116 C 
BRANCH   3   4
ATOM      4  N   UNL A   1      36.810  20.726  25.243  1.00  0.00    -0.355 N 
ATOM      5  C   UNL A   1      35.462  20.936  25.152  1.00  0.00     0.238 C 
ATOM      6  O   UNL A   1      34.766  20.009  24.730  1.00  0.00    -0.273 OA
ATOM      7  H   UNL A   1      37.097  19.787  25.174  1.00  0.00     0.163 HD
BRANCH   5   8
ATOM      8  C   UNL A   1      34.851  22.271  25.602  1.00  0.00     0.162 C 
ATOM      9  N   UNL A   1      33.560  22.542  24.924  1.00  0.00    -0.185 NA
ATOM     10  C   UNL A   1      32.446  22.228  25.828  1.00  0.00     0.103 C 
ATOM     11  C   UNL A   1      32.995  22.503  27.210  1.00  0.00     0.019 C 
ATOM     12  C   UNL A   1      34.483  22.194  27.106  1.00  0.00     0.032 C 
BRANCH   9  13
ATOM     13  S   UNL A   1      33.368  23.638  23.677  1.00  0.00     0.243 S 
ATOM     14  O   UNL A   1      32.106  23.363  23.029  1.00  0.00    -0.207 OA
ATOM     15  O   UNL A   1      34.595  23.692  22.911  1.00  0.00    -0.207 OA
BRANCH  13  16
ATOM     16  C   UNL A   1      33.194  25.269  24.388  1.00  0.00     0.084 A 
ATOM     17  C   UNL A   1      33.460  29.679  26.996  1.00  0.00     0.154 C 
ATOM     18  N   UNL A   1      32.628  29.187  25.908  1.00  0.00    -0.305 N 
ATOM     19  C   UNL A   1      31.611  30.021  25.449  1.00  0.00     0.316 A 
ATOM     20  C   UNL A   1      32.812  27.880  25.384  1.00  0.00     0.068 A 
ATOM     21  O   UNL A   1      31.366  31.122  25.937  1.00  0.00    -0.263 OA
ATOM     22  C   UNL A   1      30.754  29.529  24.276  1.00  0.00     0.316 A 
ATOM     23  C   UNL A   1      31.998  27.405  24.339  1.00  0.00     0.069 A 
ATOM     24  C   UNL A   1      33.807  27.038  25.904  1.00  0.00     0.030 A 
ATOM     25  O   UNL A   1      29.897  30.283  23.823  1.00  0.00    -0.263 OA
ATOM     26  N   UNL A   1      30.990  28.244  23.789  1.00  0.00    -0.305 N 
ATOM     27  C   UNL A   1      32.199  26.098  23.852  1.00  0.00     0.050 A 
ATOM     28  C   UNL A   1      33.998  25.749  25.408  1.00  0.00     0.024 A 
ATOM     29  C   UNL A   1      30.172  27.780  22.678  1.00  0.00     0.154 C 
ENDBRANCH  13  16
ENDBRANCH   9  13
ENDBRANCH   5   8
ENDBRANCH   3   4
ENDBRANCH   2   3
ENDBRANCH   1   2
BRANCH   1  30
ATOM     30  C   UNL A   1      39.738  23.195  27.128  1.00  0.00     0.116 C 
BRANCH  30  31
ATOM     31  N   UNL A   1      40.264  24.104  26.118  1.00  0.00    -0.352 N 
ATOM     32  C   UNL A   1      40.717  25.398  26.267  1.00  0.00     0.251 C 
ATOM     33  H   UNL A   1      40.302  23.744  25.203  1.00  0.00     0.163 HD
ATOM     34  O   UNL A   1      41.061  26.050  25.287  1.00  0.00    -0.269 OA
BRANCH  32  35
ATOM     35  C   UNL A   1      40.731  26.014  27.615  1.00  0.00     0.039 A 
ATOM     36  C   UNL A   1      39.619  25.916  28.452  1.00  0.00     0.014 A 
ATOM     37  C   UNL A   1      41.837  26.774  28.005  1.00  0.00     0.014 A 
ATOM     38  C   UNL A   1      39.523  26.747  29.563  1.00  0.00     0.010 A 
ATOM     39  C   UNL A   1      41.775  27.537  29.176  1.00  0.00     0.010 A 
ATOM     40  C   UNL A   1      40.587  27.589  29.924  1.00  0.00    -0.014 A 
BRANCH  40  41
ATOM     41  C   UNL A   1      40.409  28.554  31.045  1.00  0.00     0.031 A 
ATOM     42  C   UNL A   1      41.329  28.518  32.243  1.00  0.00     0.074 A 
ATOM     43  C   UNL A   1      39.477  29.523  30.947  1.00  0.00     0.049 A 
ATOM     44  N   UNL A   1      41.340  29.294  33.297  1.00  0.00    -0.248 NA
ATOM     45  C   UNL A   1      42.370  27.476  32.264  1.00  0.00     0.031 C 
ATOM     46  C   UNL A   1      38.540  29.682  29.831  1.00  0.00     0.029 A 
ATOM     47  N   UNL A   1      39.182  30.575  31.777  1.00  0.00    -0.354 N 
ATOM     48  C   UNL A   1      42.370  28.829  34.109  1.00  0.00     0.074 A 
ATOM     49  C   UNL A   1      42.944  27.681  33.442  1.00  0.00     0.031 C 
ATOM     50  C   UNL A   1      37.819  30.798  30.018  1.00  0.00     0.029 A 
ATOM     51  C   UNL A   1      38.194  31.400  31.292  1.00  0.00     0.049 A 
ATOM     52  H   UNL A   1      39.636  30.726  32.638  1.00  0.00     0.167 HD
ATOM     53  C   UNL A   1      42.811  29.323  35.290  1.00  0.00     0.037 A 
ATOM     54  C   UNL A   1      37.639  32.509  31.820  1.00  0.00     0.037 A 
ATOM     55  C   UNL A   1      42.266  30.489  35.936  1.00  0.00     0.049 A 
ATOM     56  C   UNL A   1      38.113  33.003  33.157  1.00  0.00     0.074 A 
ATOM     57  C   UNL A   1      42.664  31.077  37.125  1.00  0.00     0.029 A 
ATOM     58  N   UNL A   1      41.217  31.250  35.446  1.00  0.00    -0.354 N 
ATOM     59  N   UNL A   1      39.083  32.542  33.909  1.00  0.00    -0.248 NA
ATOM     60  C   UNL A   1      37.405  34.159  33.727  1.00  0.00     0.031 C 
ATOM     61  C   UNL A   1      41.833  32.174  37.371  1.00  0.00     0.029 A 
ATOM     62  C   UNL A   1      40.941  32.290  36.318  1.00  0.00     0.049 A 
ATOM     63  H   UNL A   1      40.738  31.078  34.603  1.00  0.00     0.167 HD
ATOM     64  C   UNL A   1      39.103  33.352  35.039  1.00  0.00     0.074 A 
ATOM     65  C   UNL A   1      38.067  34.347  34.861  1.00  0.00     0.031 C 
ATOM     66  C   UNL A   1      39.904  33.272  36.129  1.00  0.00     0.037 A 
BRANCH  53  67
ATOM     67  C   UNL A   1      43.950  28.617  35.973  1.00  0.00     0.058 A 
ATOM     68  C   UNL A   1      45.277  29.048  35.816  1.00  0.00     0.135 A 
ATOM     69  C   UNL A   1      43.706  27.555  36.859  1.00  0.00     0.135 A 
ATOM     70  F   UNL A   1      45.568  30.047  34.970  1.00  0.00    -0.206 F 
ATOM     71  C   UNL A   1      46.321  28.448  36.512  1.00  0.00     0.059 A 
ATOM     72  C   UNL A   1      44.733  26.953  37.581  1.00  0.00     0.059 A 
ATOM     73  F   UNL A   1      42.454  27.105  37.043  1.00  0.00    -0.206 F 
ATOM     74  C   UNL A   1      46.039  27.405  37.396  1.00  0.00     0.060 A 
BRANCH  74  75
ATOM     75  S   UNL A   1      47.405  26.663  38.314  1.00  0.00     0.124 S 
ATOM     76  O   UNL A   1      46.902  26.718  39.683  1.00  0.00    -0.237 OA
ATOM     77  O   UNL A   1      47.487  25.330  37.724  1.00  0.00    -0.237 OA
ATOM     78  O   UNL A   1      48.532  27.544  38.023  1.00  0.00    -0.744 OA
ENDBRANCH  74  75
ENDBRANCH  53  67
BRANCH  54  79
ATOM     79  C   UNL A   1      36.558  33.219  31.088  1.00  0.00     0.058 A 
ATOM     80  C   UNL A   1      35.219  33.100  31.486  1.00  0.00     0.135 A 
ATOM     81  C   UNL A   1      36.842  34.030  29.978  1.00  0.00     0.135 A 
ATOM     82  F   UNL A   1      34.896  32.331  32.536  1.00  0.00    -0.206 F 
ATOM     83  C   UNL A   1      34.197  33.750  30.801  1.00  0.00     0.059 A 
ATOM     84  C   UNL A   1      35.841  34.710  29.293  1.00  0.00     0.059 A 
ATOM     85  F   UNL A   1      38.111  34.185  29.565  1.00  0.00    -0.206 F 
ATOM     86  C   UNL A   1      34.519  34.553  29.706  1.00  0.00     0.060 A 
BRANCH  86  87
ATOM     87  S   UNL A   1      33.190  35.420  28.845  1.00  0.00     0.124 S 
ATOM     88  O   UNL A   1      33.941  36.372  28.033  1.00  0.00    -0.237 OA
ATOM     89  O   UNL A   1      32.537  34.336  28.117  1.00  0.00    -0.237 OA
ATOM     90  O   UNL A   1      32.406  35.996  29.932  1.00  0.00    -0.744 OA
ENDBRANCH  86  87
ENDBRANCH  54  79
BRANCH  66  91
ATOM     91  C   UNL A   1      39.692  34.281  37.220  1.00  0.00     0.058 A 
ATOM     92  C   UNL A   1      38.985  33.952  38.387  1.00  0.00     0.135 A 
ATOM     93  C   UNL A   1      40.259  35.562  37.132  1.00  0.00     0.135 A 
ATOM     94  F   UNL A   1      38.417  32.743  38.514  1.00  0.00    -0.206 F 
ATOM     95  C   UNL A   1      38.840  34.863  39.428  1.00  0.00     0.059 A 
ATOM     96  C   UNL A   1      40.146  36.481  38.171  1.00  0.00     0.059 A 
ATOM     97  F   UNL A   1      40.951  35.922  36.039  1.00  0.00    -0.206 F 
ATOM     98  C   UNL A   1      39.430  36.123  39.313  1.00  0.00     0.060 A 
BRANCH  98  99
ATOM     99  S   UNL A   1      39.280  37.274  40.696  1.00  0.00     0.124 S 
ATOM    100  O   UNL A   1      38.390  38.288  40.139  1.00  0.00    -0.237 OA
ATOM    101  O   UNL A   1      38.707  36.431  41.741  1.00  0.00    -0.237 OA
ATOM    102  O   UNL A   1      40.654  37.705  40.931  1.00  0.00    -0.744 OA
ENDBRANCH  98  99
ENDBRANCH  66  91
ENDBRANCH  40  41
ENDBRANCH  32  35
ENDBRANCH  30  31
ENDBRANCH   1  30
TORSDOF 16
ENDMDL
MODEL 2
REMARK VINA RESULT:     -13.4      6.469     12.173
REMARK SMILES Cn1c(=O)c(=O)n(C)c2cc(S(=O)(=O)N3CCC[C@H]3C(=O)NCCCCNC(=O)c3ccc(-c4c5nc(c(-c6c(F)cc(S(=O)(=O)[O-])cc6F)c6ccc([nH]6)c(-c6c(F)cc(S(=O)(=O)[O-])cc6F)c6nc(c(-c7c(F)cc(S(=O)(=O)[O-])cc7F)c7ccc4[nH]7)C=C6)C=C5)cc3)ccc21
REMARK SMILES IDX 25 1 24 2 23 3 22 4 20 5 21 6 19 8 15 9 16 10 17 11 18 12
REMARK SMILES IDX 12 13 13 14 14 15 11 16 1 17 2 18 3 19 98 20 4 21 5 22 9 23
REMARK SMILES IDX 97 24 6 25 7 26 10 27 96 28 8 29 26 30 27 31 28 32 29 34
REMARK SMILES IDX 30 35 31 36 95 37 32 38 94 39 33 40 34 41 35 42 88 43 36 44
REMARK SMILES IDX 93 45 87 46 89 47 37 48 92 49 86 50 85 51 38 53 72 54 51 55
REMARK SMILES IDX 71 56 52 57 55 58 70 59 90 60 53 61 54 62 69 64 91 65 56 66
REMARK SMILES IDX 39 67 40 68 49 69 41 70 42 71 48 72 50 73 43 74 44 75 45 76
REMARK SMILES IDX 46 77 47 78 73 79 74 80 83 81 75 82 76 83 82 84 84 85 77 86
REMARK SMILES IDX 78 87 79 88 80 89 81 90 57 91 58 92 67 93 59 94 60 95 66 96
REMARK SMILES IDX 68 97 61 98 62 99 63 100 64 101 65 102
REMARK H PARENT 22 7 27 33 89 52 55 63
REMARK Flexibility Score: inf
ROOT
ATOM      1  C   UNL A   1      34.615  32.064  28.036  1.00  0.00     0.023 C 
ENDROOT
BRANCH   1   2
ATOM      2  C   UNL A   1      34.472  30.733  27.309  1.00  0.00     0.023 C 
BRANCH   2   3
ATOM      3  C   UNL A   1      33.123  30.037  27.435  1.00  0.00     0.116 C 
BRANCH   3   4
ATOM      4  N   UNL A   1      32.217  30.281  26.330  1.00  0.00    -0.355 N 
ATOM      5  C   UNL A   1      31.894  29.459  25.286  1.00  0.00     0.238 C 
ATOM      6  O   UNL A   1      30.904  29.754  24.612  1.00  0.00    -0.273 OA
ATOM      7  H   UNL A   1      31.771  31.159  26.332  1.00  0.00     0.163 HD
BRANCH   5   8
ATOM      8  C   UNL A   1      32.768  28.241  24.957  1.00  0.00     0.162 C 
ATOM      9  N   UNL A   1      31.958  27.099  24.467  1.00  0.00    -0.185 NA
ATOM     10  C   UNL A   1      32.051  27.013  23.005  1.00  0.00     0.103 C 
ATOM     11  C   UNL A   1      33.427  27.550  22.683  1.00  0.00     0.019 C 
ATOM     12  C   UNL A   1      33.707  28.579  23.771  1.00  0.00     0.032 C 
BRANCH   9  13
ATOM     13  S   UNL A   1      31.589  25.750  25.383  1.00  0.00     0.243 S 
ATOM     14  O   UNL A   1      30.533  25.028  24.711  1.00  0.00    -0.207 OA
ATOM     15  O   UNL A   1      31.444  26.152  26.766  1.00  0.00    -0.207 OA
BRANCH  13  16
ATOM     16  C   UNL A   1      33.003  24.657  25.364  1.00  0.00     0.084 A 
ATOM     17  C   UNL A   1      37.577  22.338  25.519  1.00  0.00     0.154 C 
ATOM     18  N   UNL A   1      36.211  21.884  25.303  1.00  0.00    -0.305 N 
ATOM     19  C   UNL A   1      36.020  20.536  25.008  1.00  0.00     0.316 A 
ATOM     20  C   UNL A   1      35.126  22.801  25.328  1.00  0.00     0.068 A 
ATOM     21  O   UNL A   1      36.942  19.732  24.891  1.00  0.00    -0.263 OA
ATOM     22  C   UNL A   1      34.582  20.040  24.818  1.00  0.00     0.316 A 
ATOM     23  C   UNL A   1      33.809  22.359  25.108  1.00  0.00     0.069 A 
ATOM     24  C   UNL A   1      35.352  24.165  25.569  1.00  0.00     0.030 A 
ATOM     25  O   UNL A   1      34.399  18.841  24.622  1.00  0.00    -0.263 OA
ATOM     26  N   UNL A   1      33.554  20.980  24.871  1.00  0.00    -0.305 N 
ATOM     27  C   UNL A   1      32.758  23.298  25.127  1.00  0.00     0.050 A 
ATOM     28  C   UNL A   1      34.301  25.081  25.591  1.00  0.00     0.024 A 
ATOM     29  C   UNL A   1      32.191  20.505  24.687  1.00  0.00     0.154 C 
ENDBRANCH  13  16
ENDBRANCH   9  13
ENDBRANCH   5   8
ENDBRANCH   3   4
ENDBRANCH   2   3
ENDBRANCH   1   2
BRANCH   1  30
ATOM     30  C   UNL A   1      35.704  32.132  29.099  1.00  0.00     0.116 C 
BRANCH  30  31
ATOM     31  N   UNL A   1      35.585  31.119  30.138  1.00  0.00    -0.352 N 
ATOM     32  C   UNL A   1      36.531  30.221  30.588  1.00  0.00     0.251 C 
ATOM     33  H   UNL A   1      34.708  31.068  30.582  1.00  0.00     0.163 HD
ATOM     34  O   UNL A   1      36.235  29.379  31.430  1.00  0.00    -0.269 OA
BRANCH  32  35
ATOM     35  C   UNL A   1      37.892  30.244  30.004  1.00  0.00     0.039 A 
ATOM     36  C   UNL A   1      38.083  30.022  28.639  1.00  0.00     0.014 A 
ATOM     37  C   UNL A   1      38.994  30.401  30.849  1.00  0.00     0.014 A 
ATOM     38  C   UNL A   1      39.359  29.737  28.164  1.00  0.00     0.010 A 
ATOM     39  C   UNL A   1      40.285  30.207  30.347  1.00  0.00     0.010 A 
ATOM     40  C   UNL A   1      40.473  29.798  29.017  1.00  0.00    -0.014 A 
BRANCH  40  41
ATOM     41  C   UNL A   1      41.807  29.370  28.510  1.00  0.00     0.031 A 
ATOM     42  C   UNL A   1      42.970  30.334  28.500  1.00  0.00     0.074 A 
ATOM     43  C   UNL A   1      41.999  28.088  28.140  1.00  0.00     0.049 A 
ATOM     44  N   UNL A   1      44.207  30.130  28.120  1.00  0.00    -0.248 NA
ATOM     45  C   UNL A   1      42.716  31.705  28.976  1.00  0.00     0.031 C 
ATOM     46  C   UNL A   1      40.963  27.051  28.125  1.00  0.00     0.029 A 
ATOM     47  N   UNL A   1      43.133  27.427  27.739  1.00  0.00    -0.354 N 
ATOM     48  C   UNL A   1      44.869  31.342  28.295  1.00  0.00     0.074 A 
ATOM     49  C   UNL A   1      43.892  32.288  28.785  1.00  0.00     0.031 C 
ATOM     50  C   UNL A   1      41.521  25.877  27.792  1.00  0.00     0.029 A 
ATOM     51  C   UNL A   1      42.937  26.085  27.510  1.00  0.00     0.049 A 
ATOM     52  H   UNL A   1      44.004  27.872  27.626  1.00  0.00     0.167 HD
ATOM     53  C   UNL A   1      46.175  31.635  28.086  1.00  0.00     0.037 A 
ATOM     54  C   UNL A   1      43.795  25.129  27.104  1.00  0.00     0.037 A 
ATOM     55  C   UNL A   1      47.158  30.683  27.635  1.00  0.00     0.049 A 
ATOM     56  C   UNL A   1      45.226  25.495  26.830  1.00  0.00     0.074 A 
ATOM     57  C   UNL A   1      48.510  30.884  27.417  1.00  0.00     0.029 A 
ATOM     58  N   UNL A   1      46.900  29.353  27.345  1.00  0.00    -0.354 N 
ATOM     59  N   UNL A   1      45.827  26.649  26.995  1.00  0.00    -0.248 NA
ATOM     60  C   UNL A   1      46.093  24.434  26.296  1.00  0.00     0.031 C 
ATOM     61  C   UNL A   1      49.064  29.684  26.960  1.00  0.00     0.029 A 
ATOM     62  C   UNL A   1      48.063  28.727  26.930  1.00  0.00     0.049 A 
ATOM     63  H   UNL A   1      46.020  28.918  27.422  1.00  0.00     0.167 HD
ATOM     64  C   UNL A   1      47.142  26.452  26.588  1.00  0.00     0.074 A 
ATOM     65  C   UNL A   1      47.256  25.063  26.193  1.00  0.00     0.031 C 
ATOM     66  C   UNL A   1      48.161  27.344  26.537  1.00  0.00     0.037 A 
BRANCH  53  67
ATOM     67  C   UNL A   1      46.637  33.042  28.349  1.00  0.00     0.058 A 
ATOM     68  C   UNL A   1      46.578  34.029  27.354  1.00  0.00     0.135 A 
ATOM     69  C   UNL A   1      47.059  33.427  29.632  1.00  0.00     0.135 A 
ATOM     70  F   UNL A   1      46.198  33.712  26.107  1.00  0.00    -0.206 F 
ATOM     71  C   UNL A   1      46.927  35.349  27.621  1.00  0.00     0.059 A 
ATOM     72  C   UNL A   1      47.394  34.746  29.927  1.00  0.00     0.059 A 
ATOM     73  F   UNL A   1      47.134  32.519  30.619  1.00  0.00    -0.206 F 
ATOM     74  C   UNL A   1      47.328  35.699  28.911  1.00  0.00     0.060 A 
BRANCH  74  75
ATOM     75  S   UNL A   1      47.744  37.424  29.244  1.00  0.00     0.124 S 
ATOM     76  O   UNL A   1      48.917  37.282  30.103  1.00  0.00    -0.237 OA
ATOM     77  O   UNL A   1      48.002  37.946  27.904  1.00  0.00    -0.237 OA
ATOM     78  O   UNL A   1      46.548  37.946  29.897  1.00  0.00    -0.744 OA
ENDBRANCH  74  75
ENDBRANCH  53  67
BRANCH  54  79
ATOM     79  C   UNL A   1      43.320  23.734  26.916  1.00  0.00     0.058 A 
ATOM     80  C   UNL A   1      42.993  23.250  25.641  1.00  0.00     0.135 A 
ATOM     81  C   UNL A   1      43.183  22.859  28.004  1.00  0.00     0.135 A 
ATOM     82  F   UNL A   1      43.100  24.050  24.571  1.00  0.00    -0.206 F 
ATOM     83  C   UNL A   1      42.534  21.949  25.454  1.00  0.00     0.059 A 
ATOM     84  C   UNL A   1      42.752  21.548  27.839  1.00  0.00     0.059 A 
ATOM     85  F   UNL A   1      43.495  23.272  29.243  1.00  0.00    -0.206 F 
ATOM     86  C   UNL A   1      42.417  21.106  26.560  1.00  0.00     0.060 A 
BRANCH  86  87
ATOM     87  S   UNL A   1      41.855  19.410  26.303  1.00  0.00     0.124 S 
ATOM     88  O   UNL A   1      40.420  19.602  26.126  1.00  0.00    -0.237 OA
ATOM     89  O   UNL A   1      42.599  19.018  25.110  1.00  0.00    -0.237 OA
ATOM     90  O   UNL A   1      42.256  18.734  27.533  1.00  0.00    -0.744 OA
ENDBRANCH  86  87
ENDBRANCH  54  79
BRANCH  66  91
ATOM     91  C   UNL A   1      49.488  26.854  26.035  1.00  0.00     0.058 A 
ATOM     92  C   UNL A   1      49.887  27.072  24.707  1.00  0.00     0.135 A 
ATOM     93  C   UNL A   1      50.396  26.226  26.902  1.00  0.00     0.135 A 
ATOM     94  F   UNL A   1      49.051  27.660  23.838  1.00  0.00    -0.206 F 
ATOM     95  C   UNL A   1      51.141  26.676  24.254  1.00  0.00     0.059 A 
ATOM     96  C   UNL A   1      51.663  25.843  26.475  1.00  0.00     0.059 A 
ATOM     97  F   UNL A   1      50.063  26.002  28.183  1.00  0.00    -0.206 F 
ATOM     98  C   UNL A   1      52.025  26.068  25.147  1.00  0.00     0.060 A 
BRANCH  98  99
ATOM     99  S   UNL A   1      53.668  25.611  24.557  1.00  0.00     0.124 S 
ATOM    100  O   UNL A   1      54.516  26.540  25.297  1.00  0.00    -0.237 OA
ATOM    101  O   UNL A   1      53.764  24.210  24.955  1.00  0.00    -0.237 OA
ATOM    102  O   UNL A   1      53.590  25.842  23.118  1.00  0.00    -0.744 OA
ENDBRANCH  98  99
ENDBRANCH  66  91
ENDBRANCH  40  41
ENDBRANCH  32  35
ENDBRANCH  30  31
ENDBRANCH   1  30
TORSDOF 16
ENDMDL
MODEL 3
REMARK VINA RESULT:     -13.3      6.521     11.892
REMARK SMILES Cn1c(=O)c(=O)n(C)c2cc(S(=O)(=O)N3CCC[C@H]3C(=O)NCCCCNC(=O)c3ccc(-c4c5nc(c(-c6c(F)cc(S(=O)(=O)[O-])cc6F)c6ccc([nH]6)c(-c6c(F)cc(S(=O)(=O)[O-])cc6F)c6nc(c(-c7c(F)cc(S(=O)(=O)[O-])cc7F)c7ccc4[nH]7)C=C6)C=C5)cc3)ccc21
REMARK SMILES IDX 25 1 24 2 23 3 22 4 20 5 21 6 19 8 15 9 16 10 17 11 18 12
REMARK SMILES IDX 12 13 13 14 14 15 11 16 1 17 2 18 3 19 98 20 4 21 5 22 9 23
REMARK SMILES IDX 97 24 6 25 7 26 10 27 96 28 8 29 26 30 27 31 28 32 29 34
REMARK SMILES IDX 30 35 31 36 95 37 32 38 94 39 33 40 34 41 35 42 88 43 36 44
REMARK SMILES IDX 93 45 87 46 89 47 37 48 92 49 86 50 85 51 38 53 72 54 51 55
REMARK SMILES IDX 71 56 52 57 55 58 70 59 90 60 53 61 54 62 69 64 91 65 56 66
REMARK SMILES IDX 39 67 40 68 49 69 41 70 42 71 48 72 50 73 43 74 44 75 45 76
REMARK SMILES IDX 46 77 47 78 73 79 74 80 83 81 75 82 76 83 82 84 84 85 77 86
REMARK SMILES IDX 78 87 79 88 80 89 81 90 57 91 58 92 67 93 59 94 60 95 66 96
REMARK SMILES IDX 68 97 61 98 62 99 63 100 64 101 65 102
REMARK H PARENT 22 7 27 33 89 52 55 63
REMARK Flexibility Score: inf
ROOT
ATOM      1  C   UNL A   1      34.642  31.754  27.658  1.00  0.00     0.023 C 
ENDROOT
BRANCH   1   2
ATOM      2  C   UNL A   1      34.251  30.363  27.178  1.00  0.00     0.023 C 
BRANCH   2   3
ATOM      3  C   UNL A   1      32.787  29.979  27.345  1.00  0.00     0.116 C 
BRANCH   3   4
ATOM      4  N   UNL A   1      31.966  30.222  26.175  1.00  0.00    -0.355 N 
ATOM      5  C   UNL A   1      31.740  29.407  25.101  1.00  0.00     0.238 C 
ATOM      6  O   UNL A   1      30.801  29.695  24.353  1.00  0.00    -0.273 OA
ATOM      7  H   UNL A   1      31.507  31.093  26.151  1.00  0.00     0.163 HD
BRANCH   5   8
ATOM      8  C   UNL A   1      32.656  28.206  24.829  1.00  0.00     0.162 C 
ATOM      9  N   UNL A   1      31.886  27.014  24.397  1.00  0.00    -0.185 NA
ATOM     10  C   UNL A   1      31.981  26.860  22.940  1.00  0.00     0.103 C 
ATOM     11  C   UNL A   1      33.338  27.429  22.589  1.00  0.00     0.019 C 
ATOM     12  C   UNL A   1      33.582  28.519  23.626  1.00  0.00     0.032 C 
BRANCH   9  13
ATOM     13  S   UNL A   1      31.565  25.699  25.377  1.00  0.00     0.243 S 
ATOM     14  O   UNL A   1      30.505  24.932  24.765  1.00  0.00    -0.207 OA
ATOM     15  O   UNL A   1      31.449  26.156  26.746  1.00  0.00    -0.207 OA
BRANCH  13  16
ATOM     16  C   UNL A   1      32.997  24.630  25.366  1.00  0.00     0.084 A 
ATOM     17  C   UNL A   1      37.608  22.387  25.547  1.00  0.00     0.154 C 
ATOM     18  N   UNL A   1      36.251  21.911  25.322  1.00  0.00    -0.305 N 
ATOM     19  C   UNL A   1      36.085  20.560  25.025  1.00  0.00     0.316 A 
ATOM     20  C   UNL A   1      35.152  22.809  25.342  1.00  0.00     0.068 A 
ATOM     21  O   UNL A   1      37.021  19.772  24.912  1.00  0.00    -0.263 OA
ATOM     22  C   UNL A   1      34.657  20.040  24.824  1.00  0.00     0.316 A 
ATOM     23  C   UNL A   1      33.843  22.346  25.112  1.00  0.00     0.069 A 
ATOM     24  C   UNL A   1      35.353  24.177  25.585  1.00  0.00     0.030 A 
ATOM     25  O   UNL A   1      34.496  18.838  24.626  1.00  0.00    -0.263 OA
ATOM     26  N   UNL A   1      33.613  20.962  24.873  1.00  0.00    -0.305 N 
ATOM     27  C   UNL A   1      32.776  23.266  25.126  1.00  0.00     0.050 A 
ATOM     28  C   UNL A   1      34.286  25.075  25.602  1.00  0.00     0.024 A 
ATOM     29  C   UNL A   1      32.259  20.465  24.679  1.00  0.00     0.154 C 
ENDBRANCH  13  16
ENDBRANCH   9  13
ENDBRANCH   5   8
ENDBRANCH   3   4
ENDBRANCH   2   3
ENDBRANCH   1   2
BRANCH   1  30
ATOM     30  C   UNL A   1      35.785  31.819  28.663  1.00  0.00     0.116 C 
BRANCH  30  31
ATOM     31  N   UNL A   1      35.633  30.917  29.796  1.00  0.00    -0.352 N 
ATOM     32  C   UNL A   1      36.576  30.107  30.393  1.00  0.00     0.251 C 
ATOM     33  H   UNL A   1      34.733  30.882  30.192  1.00  0.00     0.163 HD
ATOM     34  O   UNL A   1      36.255  29.348  31.302  1.00  0.00    -0.269 OA
BRANCH  32  35
ATOM     35  C   UNL A   1      37.969  30.117  29.889  1.00  0.00     0.039 A 
ATOM     36  C   UNL A   1      38.253  29.730  28.578  1.00  0.00     0.014 A 
ATOM     37  C   UNL A   1      39.010  30.432  30.767  1.00  0.00     0.014 A 
ATOM     38  C   UNL A   1      39.566  29.444  28.218  1.00  0.00     0.010 A 
ATOM     39  C   UNL A   1      40.336  30.235  30.369  1.00  0.00     0.010 A 
ATOM     40  C   UNL A   1      40.622  29.667  29.117  1.00  0.00    -0.014 A 
BRANCH  40  41
ATOM     41  C   UNL A   1      42.000  29.239  28.747  1.00  0.00     0.031 A 
ATOM     42  C   UNL A   1      42.268  27.822  28.296  1.00  0.00     0.074 A 
ATOM     43  C   UNL A   1      42.997  30.146  28.729  1.00  0.00     0.049 A 
ATOM     44  N   UNL A   1      43.397  27.279  27.912  1.00  0.00    -0.248 NA
ATOM     45  C   UNL A   1      41.127  26.892  28.275  1.00  0.00     0.031 C 
ATOM     46  C   UNL A   1      42.864  31.552  29.120  1.00  0.00     0.029 A 
ATOM     47  N   UNL A   1      44.308  30.034  28.339  1.00  0.00    -0.354 N 
ATOM     48  C   UNL A   1      43.106  25.950  27.620  1.00  0.00     0.074 A 
ATOM     49  C   UNL A   1      41.701  25.756  27.901  1.00  0.00     0.031 C 
ATOM     50  C   UNL A   1      44.026  32.183  28.894  1.00  0.00     0.029 A 
ATOM     51  C   UNL A   1      45.004  31.219  28.404  1.00  0.00     0.049 A 
ATOM     52  H   UNL A   1      44.711  29.187  28.041  1.00  0.00     0.167 HD
ATOM     53  C   UNL A   1      43.927  24.985  27.143  1.00  0.00     0.037 A 
ATOM     54  C   UNL A   1      46.291  31.498  28.114  1.00  0.00     0.037 A 
ATOM     55  C   UNL A   1      45.318  25.187  26.825  1.00  0.00     0.049 A 
ATOM     56  C   UNL A   1      47.192  30.395  27.637  1.00  0.00     0.074 A 
ATOM     57  C   UNL A   1      46.223  24.272  26.315  1.00  0.00     0.029 A 
ATOM     58  N   UNL A   1      46.000  26.384  26.975  1.00  0.00    -0.354 N 
ATOM     59  N   UNL A   1      46.896  29.144  27.376  1.00  0.00    -0.248 NA
ATOM     60  C   UNL A   1      48.608  30.735  27.431  1.00  0.00     0.031 C 
ATOM     61  C   UNL A   1      47.463  24.907  26.189  1.00  0.00     0.029 A 
ATOM     62  C   UNL A   1      47.320  26.226  26.587  1.00  0.00     0.049 A 
ATOM     63  H   UNL A   1      45.606  27.222  27.309  1.00  0.00     0.167 HD
ATOM     64  C   UNL A   1      48.087  28.550  26.973  1.00  0.00     0.074 A 
ATOM     65  C   UNL A   1      49.102  29.583  26.999  1.00  0.00     0.031 C 
ATOM     66  C   UNL A   1      48.320  27.262  26.621  1.00  0.00     0.037 A 
BRANCH  53  67
ATOM     67  C   UNL A   1      43.354  23.612  26.919  1.00  0.00     0.058 A 
ATOM     68  C   UNL A   1      43.081  23.135  25.628  1.00  0.00     0.135 A 
ATOM     69  C   UNL A   1      43.158  22.735  27.998  1.00  0.00     0.135 A 
ATOM     70  F   UNL A   1      43.235  23.937  24.564  1.00  0.00    -0.206 F 
ATOM     71  C   UNL A   1      42.629  21.837  25.416  1.00  0.00     0.059 A 
ATOM     72  C   UNL A   1      42.726  21.425  27.807  1.00  0.00     0.059 A 
ATOM     73  F   UNL A   1      43.404  23.144  29.254  1.00  0.00    -0.206 F 
ATOM     74  C   UNL A   1      42.460  20.987  26.510  1.00  0.00     0.060 A 
BRANCH  74  75
ATOM     75  S   UNL A   1      41.904  19.296  26.209  1.00  0.00     0.124 S 
ATOM     76  O   UNL A   1      42.697  18.933  25.038  1.00  0.00    -0.237 OA
ATOM     77  O   UNL A   1      42.268  18.623  27.452  1.00  0.00    -0.237 OA
ATOM     78  O   UNL A   1      40.471  19.443  25.974  1.00  0.00    -0.744 OA
ENDBRANCH  74  75
ENDBRANCH  53  67
BRANCH  54  79
ATOM     79  C   UNL A   1      46.808  32.880  28.286  1.00  0.00     0.058 A 
ATOM     80  C   UNL A   1      47.383  33.290  29.498  1.00  0.00     0.135 A 
ATOM     81  C   UNL A   1      46.740  33.816  27.243  1.00  0.00     0.135 A 
ATOM     82  F   UNL A   1      47.463  32.433  30.526  1.00  0.00    -0.206 F 
ATOM     83  C   UNL A   1      47.859  34.585  29.675  1.00  0.00     0.059 A 
ATOM     84  C   UNL A   1      47.233  35.109  27.387  1.00  0.00     0.059 A 
ATOM     85  F   UNL A   1      46.211  33.468  26.059  1.00  0.00    -0.206 F 
ATOM     86  C   UNL A   1      47.780  35.487  28.613  1.00  0.00     0.060 A 
BRANCH  86  87
ATOM     87  S   UNL A   1      48.433  37.155  28.839  1.00  0.00     0.124 S 
ATOM     88  O   UNL A   1      49.485  36.925  29.824  1.00  0.00    -0.237 OA
ATOM     89  O   UNL A   1      48.881  37.494  27.492  1.00  0.00    -0.237 OA
ATOM     90  O   UNL A   1      47.275  37.906  29.315  1.00  0.00    -0.744 OA
ENDBRANCH  86  87
ENDBRANCH  54  79
BRANCH  66  91
ATOM     91  C   UNL A   1      49.724  26.890  26.241  1.00  0.00     0.058 A 
ATOM     92  C   UNL A   1      50.618  26.366  27.187  1.00  0.00     0.135 A 
ATOM     93  C   UNL A   1      50.156  26.990  24.909  1.00  0.00     0.135 A 
ATOM     94  F   UNL A   1      50.254  26.259  28.474  1.00  0.00    -0.206 F 
ATOM     95  C   UNL A   1      51.898  25.961  26.827  1.00  0.00     0.059 A 
ATOM     96  C   UNL A   1      51.424  26.569  24.523  1.00  0.00     0.059 A 
ATOM     97  F   UNL A   1      49.335  27.478  23.966  1.00  0.00    -0.206 F 
ATOM     98  C   UNL A   1      52.291  26.060  25.490  1.00  0.00     0.060 A 
BRANCH  98  99
ATOM     99  S   UNL A   1      53.936  25.478  25.030  1.00  0.00     0.124 S 
ATOM    100  O   UNL A   1      53.693  24.056  24.807  1.00  0.00    -0.237 OA
ATOM    101  O   UNL A   1      54.222  26.267  23.835  1.00  0.00    -0.237 OA
ATOM    102  O   UNL A   1      54.750  25.801  26.196  1.00  0.00    -0.744 OA
ENDBRANCH  98  99
ENDBRANCH  66  91
ENDBRANCH  40  41
ENDBRANCH  32  35
ENDBRANCH  30  31
ENDBRANCH   1  30
TORSDOF 16
ENDMDL
