MODEL 1
REMARK VINA RESULT:     -14.0      0.000      0.000
REMARK SMILES COC(=O)c1ccc(C)c(NC(=O)[C@H]2CC=CC[C@H]2C(=O)NCCCCNC(=O)c2ccc(-c3c4nc(c(-c5c(F)cc(S(=O)(=O)[O-])cc5F)c5ccc([nH]5)c(-c5c(F)cc(S(=O)(=O)[O-])cc5F)c5nc(c(-c6c(F)cc(S(=O)(=O)[O-])cc6F)c6ccc3[nH]6)C=C5)C=C4)cc2)c1
REMARK SMILES IDX 24 1 23 2 22 3 20 4 21 5 19 7 14 8 15 9 16 10 18 11 17 12
REMARK SMILES IDX 12 13 11 14 13 16 10 17 5 18 6 19 96 20 7 21 8 22 9 23 3 24
REMARK SMILES IDX 4 25 2 26 1 27 25 28 26 29 27 30 28 31 29 33 30 34 31 35
REMARK SMILES IDX 95 36 32 37 94 38 33 39 34 40 35 41 88 42 36 43 93 44 87 45
REMARK SMILES IDX 89 46 37 47 92 48 86 49 85 50 38 52 72 53 51 54 71 55 52 56
REMARK SMILES IDX 55 57 70 58 90 59 53 60 54 61 69 63 91 64 56 65 39 66 40 67
REMARK SMILES IDX 49 68 41 69 42 70 48 71 50 72 43 73 44 74 45 75 46 76 47 77
REMARK SMILES IDX 73 78 74 79 83 80 75 81 76 82 82 83 84 84 77 85 78 86 79 87
REMARK SMILES IDX 80 88 81 89 57 90 58 91 67 92 59 93 60 94 66 95 68 96 61 97
REMARK SMILES IDX 62 98 63 99 64 100 65 101
REMARK H PARENT 22 6 11 15 27 32 89 51 55 62
REMARK Flexibility Score: inf
ROOT
ATOM      1  C   UNL A   1      33.312  27.909  26.147  1.00  0.00     0.023 C 
ENDROOT
BRANCH   1   2
ATOM      2  C   UNL A   1      33.659  26.426  25.974  1.00  0.00     0.116 C 
BRANCH   2   3
ATOM      3  N   UNL A   1      33.691  25.878  24.630  1.00  0.00    -0.356 N 
ATOM      4  C   UNL A   1      34.129  24.679  24.157  1.00  0.00     0.224 C 
ATOM      5  O   UNL A   1      33.670  24.295  23.074  1.00  0.00    -0.275 OA
ATOM      6  H   UNL A   1      33.333  26.481  23.939  1.00  0.00     0.163 HD
BRANCH   4   7
ATOM      7  C   UNL A   1      35.113  23.784  24.895  1.00  0.00     0.095 C 
ATOM      8  C   UNL A   1      34.584  22.857  26.024  1.00  0.00     0.095 C 
ATOM      9  C   UNL A   1      35.314  21.481  26.140  1.00  0.00     0.041 C 
ATOM     10  C   UNL A   1      36.367  21.139  25.141  1.00  0.00    -0.030 C 
ATOM     11  C   UNL A   1      36.131  23.256  23.865  1.00  0.00     0.041 C 
ATOM     12  C   UNL A   1      36.729  21.923  24.127  1.00  0.00    -0.030 C 
BRANCH   8  13
ATOM     13  C   UNL A   1      33.069  22.678  26.238  1.00  0.00     0.228 C 
ATOM     14  N   UNL A   1      32.296  21.680  25.731  1.00  0.00    -0.326 N 
ATOM     15  H   UNL A   1      31.395  21.679  26.130  1.00  0.00     0.169 HD
ATOM     16  O   UNL A   1      32.438  23.498  26.923  1.00  0.00    -0.274 OA
BRANCH  14  17
ATOM     17  C   UNL A   1      32.449  20.653  24.787  1.00  0.00     0.044 A 
ATOM     18  C   UNL A   1      33.012  18.273  24.531  1.00  0.00     0.062 A 
ATOM     19  C   UNL A   1      32.839  18.383  23.158  1.00  0.00     0.016 A 
ATOM     20  C   UNL A   1      32.774  19.396  25.326  1.00  0.00     0.042 A 
ATOM     21  C   UNL A   1      32.434  19.606  22.611  1.00  0.00     0.006 A 
ATOM     22  C   UNL A   1      32.219  20.750  23.414  1.00  0.00    -0.027 A 
ATOM     23  C   UNL A   1      31.669  21.974  22.753  1.00  0.00     0.046 C 
BRANCH  18  24
ATOM     24  C   UNL A   1      33.350  16.951  25.131  1.00  0.00     0.337 C 
ATOM     25  O   UNL A   1      32.796  16.479  26.100  1.00  0.00    -0.246 OA
BRANCH  24  26
ATOM     26  O   UNL A   1      34.454  16.453  24.514  1.00  0.00    -0.465 OA
ATOM     27  C   UNL A   1      35.402  15.816  25.372  1.00  0.00     0.282 C 
ENDBRANCH  24  26
ENDBRANCH  18  24
ENDBRANCH  14  17
ENDBRANCH   8  13
ENDBRANCH   4   7
ENDBRANCH   2   3
ENDBRANCH   1   2
BRANCH   1  28
ATOM     28  C   UNL A   1      34.390  28.987  26.141  1.00  0.00     0.023 C 
BRANCH  28  29
ATOM     29  C   UNL A   1      34.738  29.611  27.475  1.00  0.00     0.116 C 
BRANCH  29  30
ATOM     30  N   UNL A   1      35.804  30.588  27.320  1.00  0.00    -0.352 N 
ATOM     31  C   UNL A   1      36.927  30.697  28.118  1.00  0.00     0.251 C 
ATOM     32  H   UNL A   1      35.719  31.229  26.579  1.00  0.00     0.163 HD
ATOM     33  O   UNL A   1      37.294  31.719  28.676  1.00  0.00    -0.269 OA
BRANCH  31  34
ATOM     34  C   UNL A   1      37.726  29.467  28.196  1.00  0.00     0.039 A 
ATOM     35  C   UNL A   1      37.728  28.759  29.404  1.00  0.00     0.014 A 
ATOM     36  C   UNL A   1      38.743  29.345  27.260  1.00  0.00     0.014 A 
ATOM     37  C   UNL A   1      38.875  28.069  29.761  1.00  0.00     0.010 A 
ATOM     38  C   UNL A   1      39.921  28.805  27.673  1.00  0.00     0.010 A 
ATOM     39  C   UNL A   1      39.983  28.196  28.928  1.00  0.00    -0.014 A 
BRANCH  39  40
ATOM     40  C   UNL A   1      41.278  27.625  29.191  1.00  0.00     0.031 A 
ATOM     41  C   UNL A   1      41.456  26.239  28.740  1.00  0.00     0.074 A 
ATOM     42  C   UNL A   1      42.257  28.460  29.593  1.00  0.00     0.049 A 
ATOM     43  N   UNL A   1      42.349  25.441  29.186  1.00  0.00    -0.248 NA
ATOM     44  C   UNL A   1      40.580  25.614  27.745  1.00  0.00     0.031 C 
ATOM     45  C   UNL A   1      43.694  28.235  29.630  1.00  0.00     0.029 A 
ATOM     46  N   UNL A   1      42.082  29.680  30.259  1.00  0.00    -0.354 N 
ATOM     47  C   UNL A   1      42.394  24.361  28.328  1.00  0.00     0.074 A 
ATOM     48  C   UNL A   1      41.207  24.458  27.522  1.00  0.00     0.031 C 
ATOM     49  C   UNL A   1      44.234  29.073  30.537  1.00  0.00     0.029 A 
ATOM     50  C   UNL A   1      43.134  29.768  31.192  1.00  0.00     0.049 A 
ATOM     51  H   UNL A   1      41.369  30.342  30.105  1.00  0.00     0.167 HD
ATOM     52  C   UNL A   1      43.537  23.623  28.296  1.00  0.00     0.037 A 
ATOM     53  C   UNL A   1      42.834  29.671  32.522  1.00  0.00     0.037 A 
ATOM     54  C   UNL A   1      44.471  24.148  29.293  1.00  0.00     0.049 A 
ATOM     55  C   UNL A   1      43.365  28.385  33.126  1.00  0.00     0.074 A 
ATOM     56  C   UNL A   1      45.505  25.066  29.197  1.00  0.00     0.029 A 
ATOM     57  N   UNL A   1      44.121  24.090  30.638  1.00  0.00    -0.354 N 
ATOM     58  N   UNL A   1      43.608  27.296  32.444  1.00  0.00    -0.248 NA
ATOM     59  C   UNL A   1      43.756  28.261  34.526  1.00  0.00     0.031 C 
ATOM     60  C   UNL A   1      45.720  25.620  30.486  1.00  0.00     0.029 A 
ATOM     61  C   UNL A   1      44.824  25.032  31.366  1.00  0.00     0.049 A 
ATOM     62  H   UNL A   1      43.464  23.464  31.020  1.00  0.00     0.167 HD
ATOM     63  C   UNL A   1      44.207  26.363  33.256  1.00  0.00     0.074 A 
ATOM     64  C   UNL A   1      44.273  27.020  34.550  1.00  0.00     0.031 C 
ATOM     65  C   UNL A   1      44.634  25.143  32.804  1.00  0.00     0.037 A 
BRANCH  52  66
ATOM     66  C   UNL A   1      43.924  22.671  27.188  1.00  0.00     0.058 A 
ATOM     67  C   UNL A   1      43.144  21.520  26.944  1.00  0.00     0.135 A 
ATOM     68  C   UNL A   1      45.048  22.807  26.345  1.00  0.00     0.135 A 
ATOM     69  F   UNL A   1      42.018  21.275  27.628  1.00  0.00    -0.206 F 
ATOM     70  C   UNL A   1      43.476  20.559  25.991  1.00  0.00     0.059 A 
ATOM     71  C   UNL A   1      45.428  21.834  25.412  1.00  0.00     0.059 A 
ATOM     72  F   UNL A   1      45.799  23.915  26.352  1.00  0.00    -0.206 F 
ATOM     73  C   UNL A   1      44.629  20.714  25.237  1.00  0.00     0.060 A 
BRANCH  73  74
ATOM     74  S   UNL A   1      45.024  19.461  24.006  1.00  0.00     0.124 S 
ATOM     75  O   UNL A   1      44.564  20.089  22.769  1.00  0.00    -0.237 OA
ATOM     76  O   UNL A   1      46.469  19.336  24.154  1.00  0.00    -0.237 OA
ATOM     77  O   UNL A   1      44.249  18.301  24.437  1.00  0.00    -0.744 OA
ENDBRANCH  73  74
ENDBRANCH  52  66
BRANCH  53  78
ATOM     78  C   UNL A   1      41.563  30.388  32.862  1.00  0.00     0.058 A 
ATOM     79  C   UNL A   1      40.425  29.589  33.120  1.00  0.00     0.135 A 
ATOM     80  C   UNL A   1      41.549  31.691  33.377  1.00  0.00     0.135 A 
ATOM     81  F   UNL A   1      40.370  28.332  32.646  1.00  0.00    -0.206 F 
ATOM     82  C   UNL A   1      39.404  30.000  33.976  1.00  0.00     0.059 A 
ATOM     83  C   UNL A   1      40.526  32.130  34.229  1.00  0.00     0.059 A 
ATOM     84  F   UNL A   1      42.590  32.511  33.171  1.00  0.00    -0.206 F 
ATOM     85  C   UNL A   1      39.492  31.255  34.568  1.00  0.00     0.060 A 
BRANCH  85  86
ATOM     86  S   UNL A   1      38.323  31.662  35.887  1.00  0.00     0.124 S 
ATOM     87  O   UNL A   1      37.163  32.124  35.138  1.00  0.00    -0.237 OA
ATOM     88  O   UNL A   1      38.172  30.374  36.565  1.00  0.00    -0.237 OA
ATOM     89  O   UNL A   1      39.027  32.672  36.666  1.00  0.00    -0.744 OA
ENDBRANCH  85  86
ENDBRANCH  53  78
BRANCH  65  90
ATOM     90  C   UNL A   1      45.017  23.944  33.653  1.00  0.00     0.058 A 
ATOM     91  C   UNL A   1      44.150  22.883  33.960  1.00  0.00     0.135 A 
ATOM     92  C   UNL A   1      46.367  23.751  34.058  1.00  0.00     0.135 A 
ATOM     93  F   UNL A   1      42.879  22.867  33.537  1.00  0.00    -0.206 F 
ATOM     94  C   UNL A   1      44.566  21.760  34.678  1.00  0.00     0.059 A 
ATOM     95  C   UNL A   1      46.819  22.602  34.696  1.00  0.00     0.059 A 
ATOM     96  F   UNL A   1      47.317  24.671  33.836  1.00  0.00    -0.206 F 
ATOM     97  C   UNL A   1      45.902  21.626  35.036  1.00  0.00     0.060 A 
BRANCH  97  98
ATOM     98  S   UNL A   1      46.442  20.159  35.923  1.00  0.00     0.124 S 
ATOM     99  O   UNL A   1      47.860  20.122  35.577  1.00  0.00    -0.237 OA
ATOM    100  O   UNL A   1      46.138  20.497  37.310  1.00  0.00    -0.237 OA
ATOM    101  O   UNL A   1      45.624  19.095  35.351  1.00  0.00    -0.744 OA
ENDBRANCH  97  98
ENDBRANCH  65  90
ENDBRANCH  39  40
ENDBRANCH  31  34
ENDBRANCH  29  30
ENDBRANCH  28  29
ENDBRANCH   1  28
TORSDOF 18
ENDMDL
MODEL 2
REMARK VINA RESULT:     -13.9      1.451      3.386
REMARK SMILES COC(=O)c1ccc(C)c(NC(=O)[C@H]2CC=CC[C@H]2C(=O)NCCCCNC(=O)c2ccc(-c3c4nc(c(-c5c(F)cc(S(=O)(=O)[O-])cc5F)c5ccc([nH]5)c(-c5c(F)cc(S(=O)(=O)[O-])cc5F)c5nc(c(-c6c(F)cc(S(=O)(=O)[O-])cc6F)c6ccc3[nH]6)C=C5)C=C4)cc2)c1
REMARK SMILES IDX 24 1 23 2 22 3 20 4 21 5 19 7 14 8 15 9 16 10 18 11 17 12
REMARK SMILES IDX 12 13 11 14 13 16 10 17 5 18 6 19 96 20 7 21 8 22 9 23 3 24
REMARK SMILES IDX 4 25 2 26 1 27 25 28 26 29 27 30 28 31 29 33 30 34 31 35
REMARK SMILES IDX 95 36 32 37 94 38 33 39 34 40 35 41 88 42 36 43 93 44 87 45
REMARK SMILES IDX 89 46 37 47 92 48 86 49 85 50 38 52 72 53 51 54 71 55 52 56
REMARK SMILES IDX 55 57 70 58 90 59 53 60 54 61 69 63 91 64 56 65 39 66 40 67
REMARK SMILES IDX 49 68 41 69 42 70 48 71 50 72 43 73 44 74 45 75 46 76 47 77
REMARK SMILES IDX 73 78 74 79 83 80 75 81 76 82 82 83 84 84 77 85 78 86 79 87
REMARK SMILES IDX 80 88 81 89 57 90 58 91 67 92 59 93 60 94 66 95 68 96 61 97
REMARK SMILES IDX 62 98 63 99 64 100 65 101
REMARK H PARENT 22 6 11 15 27 32 89 51 55 62
REMARK Flexibility Score: inf
ROOT
ATOM      1  C   UNL A   1      33.262  27.888  25.985  1.00  0.00     0.023 C 
ENDROOT
BRANCH   1   2
ATOM      2  C   UNL A   1      33.592  26.402  25.810  1.00  0.00     0.116 C 
BRANCH   2   3
ATOM      3  N   UNL A   1      34.085  25.953  24.519  1.00  0.00    -0.356 N 
ATOM      4  C   UNL A   1      34.397  24.711  24.058  1.00  0.00     0.224 C 
ATOM      5  O   UNL A   1      34.386  24.542  22.833  1.00  0.00    -0.275 OA
ATOM      6  H   UNL A   1      34.215  26.675  23.863  1.00  0.00     0.163 HD
BRANCH   4   7
ATOM      7  C   UNL A   1      34.725  23.529  24.958  1.00  0.00     0.095 C 
ATOM      8  C   UNL A   1      33.827  22.262  24.887  1.00  0.00     0.095 C 
ATOM      9  C   UNL A   1      34.582  20.911  25.100  1.00  0.00     0.041 C 
ATOM     10  C   UNL A   1      36.065  20.933  25.264  1.00  0.00    -0.030 C 
ATOM     11  C   UNL A   1      36.258  23.397  25.021  1.00  0.00     0.041 C 
ATOM     12  C   UNL A   1      36.812  22.035  25.226  1.00  0.00    -0.030 C 
BRANCH   8  13
ATOM     13  C   UNL A   1      32.774  22.115  23.773  1.00  0.00     0.228 C 
ATOM     14  N   UNL A   1      31.730  22.953  23.535  1.00  0.00    -0.326 N 
ATOM     15  H   UNL A   1      31.289  22.750  22.678  1.00  0.00     0.169 HD
ATOM     16  O   UNL A   1      32.829  21.152  22.993  1.00  0.00    -0.274 OA
BRANCH  14  17
ATOM     17  C   UNL A   1      31.119  24.031  24.193  1.00  0.00     0.044 A 
ATOM     18  C   UNL A   1      30.352  26.348  23.897  1.00  0.00     0.062 A 
ATOM     19  C   UNL A   1      29.924  26.372  25.217  1.00  0.00     0.016 A 
ATOM     20  C   UNL A   1      30.903  25.167  23.394  1.00  0.00     0.042 A 
ATOM     21  C   UNL A   1      30.055  25.222  26.004  1.00  0.00     0.006 A 
ATOM     22  C   UNL A   1      30.637  24.035  25.503  1.00  0.00    -0.027 A 
ATOM     23  C   UNL A   1      30.620  22.824  26.380  1.00  0.00     0.046 C 
BRANCH  18  24
ATOM     24  C   UNL A   1      30.128  27.537  23.025  1.00  0.00     0.337 C 
ATOM     25  O   UNL A   1      30.537  27.637  21.888  1.00  0.00    -0.246 OA
BRANCH  24  26
ATOM     26  O   UNL A   1      29.538  28.518  23.756  1.00  0.00    -0.465 OA
ATOM     27  C   UNL A   1      30.307  29.711  23.917  1.00  0.00     0.282 C 
ENDBRANCH  24  26
ENDBRANCH  18  24
ENDBRANCH  14  17
ENDBRANCH   8  13
ENDBRANCH   4   7
ENDBRANCH   2   3
ENDBRANCH   1   2
BRANCH   1  28
ATOM     28  C   UNL A   1      34.359  28.945  26.070  1.00  0.00     0.023 C 
BRANCH  28  29
ATOM     29  C   UNL A   1      34.723  29.441  27.452  1.00  0.00     0.116 C 
BRANCH  29  30
ATOM     30  N   UNL A   1      35.774  30.442  27.376  1.00  0.00    -0.352 N 
ATOM     31  C   UNL A   1      36.864  30.540  28.220  1.00  0.00     0.251 C 
ATOM     32  H   UNL A   1      35.704  31.110  26.657  1.00  0.00     0.163 HD
ATOM     33  O   UNL A   1      37.190  31.546  28.830  1.00  0.00    -0.269 OA
BRANCH  31  34
ATOM     34  C   UNL A   1      37.684  29.323  28.281  1.00  0.00     0.039 A 
ATOM     35  C   UNL A   1      37.730  28.620  29.492  1.00  0.00     0.014 A 
ATOM     36  C   UNL A   1      38.676  29.211  27.318  1.00  0.00     0.014 A 
ATOM     37  C   UNL A   1      38.896  27.949  29.820  1.00  0.00     0.010 A 
ATOM     38  C   UNL A   1      39.873  28.690  27.701  1.00  0.00     0.010 A 
ATOM     39  C   UNL A   1      39.978  28.089  28.956  1.00  0.00    -0.014 A 
BRANCH  39  40
ATOM     40  C   UNL A   1      41.289  27.538  29.186  1.00  0.00     0.031 A 
ATOM     41  C   UNL A   1      41.475  26.153  28.735  1.00  0.00     0.074 A 
ATOM     42  C   UNL A   1      42.265  28.389  29.558  1.00  0.00     0.049 A 
ATOM     43  N   UNL A   1      42.392  25.371  29.159  1.00  0.00    -0.248 NA
ATOM     44  C   UNL A   1      40.582  25.512  27.767  1.00  0.00     0.031 C 
ATOM     45  C   UNL A   1      43.706  28.187  29.557  1.00  0.00     0.029 A 
ATOM     46  N   UNL A   1      42.090  29.609  30.224  1.00  0.00    -0.354 N 
ATOM     47  C   UNL A   1      42.430  24.288  28.304  1.00  0.00     0.074 A 
ATOM     48  C   UNL A   1      41.220  24.364  27.531  1.00  0.00     0.031 C 
ATOM     49  C   UNL A   1      44.258  29.036  30.445  1.00  0.00     0.029 A 
ATOM     50  C   UNL A   1      43.165  29.717  31.128  1.00  0.00     0.049 A 
ATOM     51  H   UNL A   1      41.364  30.259  30.088  1.00  0.00     0.167 HD
ATOM     52  C   UNL A   1      43.583  23.567  28.244  1.00  0.00     0.037 A 
ATOM     53  C   UNL A   1      42.904  29.621  32.466  1.00  0.00     0.037 A 
ATOM     54  C   UNL A   1      44.536  24.110  29.213  1.00  0.00     0.049 A 
ATOM     55  C   UNL A   1      43.470  28.345  33.060  1.00  0.00     0.074 A 
ATOM     56  C   UNL A   1      45.552  25.043  29.086  1.00  0.00     0.029 A 
ATOM     57  N   UNL A   1      44.223  24.052  30.567  1.00  0.00    -0.354 N 
ATOM     58  N   UNL A   1      43.711  27.257  32.375  1.00  0.00    -0.248 NA
ATOM     59  C   UNL A   1      43.901  28.232  34.449  1.00  0.00     0.031 C 
ATOM     60  C   UNL A   1      45.794  25.605  30.366  1.00  0.00     0.029 A 
ATOM     61  C   UNL A   1      44.932  25.008  31.272  1.00  0.00     0.049 A 
ATOM     62  H   UNL A   1      43.586  23.418  30.969  1.00  0.00     0.167 HD
ATOM     63  C   UNL A   1      44.346  26.337  33.174  1.00  0.00     0.074 A 
ATOM     64  C   UNL A   1      44.438  26.999  34.463  1.00  0.00     0.031 C 
ATOM     65  C   UNL A   1      44.779  25.121  32.715  1.00  0.00     0.037 A 
BRANCH  52  66
ATOM     66  C   UNL A   1      43.954  22.617  27.128  1.00  0.00     0.058 A 
ATOM     67  C   UNL A   1      43.192  21.447  26.918  1.00  0.00     0.135 A 
ATOM     68  C   UNL A   1      45.046  22.772  26.248  1.00  0.00     0.135 A 
ATOM     69  F   UNL A   1      42.096  21.182  27.641  1.00  0.00    -0.206 F 
ATOM     70  C   UNL A   1      43.514  20.487  25.960  1.00  0.00     0.059 A 
ATOM     71  C   UNL A   1      45.416  21.802  25.308  1.00  0.00     0.059 A 
ATOM     72  F   UNL A   1      45.772  23.897  26.223  1.00  0.00    -0.206 F 
ATOM     73  C   UNL A   1      44.637  20.663  25.166  1.00  0.00     0.060 A 
BRANCH  73  74
ATOM     74  S   UNL A   1      45.019  19.411  23.930  1.00  0.00     0.124 S 
ATOM     75  O   UNL A   1      46.473  19.314  24.030  1.00  0.00    -0.237 OA
ATOM     76  O   UNL A   1      44.271  18.260  24.425  1.00  0.00    -0.237 OA
ATOM     77  O   UNL A   1      44.519  19.994  22.688  1.00  0.00    -0.744 OA
ENDBRANCH  73  74
ENDBRANCH  52  66
BRANCH  53  78
ATOM     78  C   UNL A   1      41.631  30.320  32.838  1.00  0.00     0.058 A 
ATOM     79  C   UNL A   1      40.514  29.504  33.132  1.00  0.00     0.135 A 
ATOM     80  C   UNL A   1      41.612  31.625  33.347  1.00  0.00     0.135 A 
ATOM     81  F   UNL A   1      40.465  28.245  32.665  1.00  0.00    -0.206 F 
ATOM     82  C   UNL A   1      39.511  29.904  34.014  1.00  0.00     0.059 A 
ATOM     83  C   UNL A   1      40.607  32.052  34.225  1.00  0.00     0.059 A 
ATOM     84  F   UNL A   1      42.634  32.459  33.108  1.00  0.00    -0.206 F 
ATOM     85  C   UNL A   1      39.595  31.164  34.597  1.00  0.00     0.060 A 
BRANCH  85  86
ATOM     86  S   UNL A   1      38.457  31.558  35.946  1.00  0.00     0.124 S 
ATOM     87  O   UNL A   1      37.327  32.140  35.235  1.00  0.00    -0.237 OA
ATOM     88  O   UNL A   1      38.226  30.242  36.542  1.00  0.00    -0.237 OA
ATOM     89  O   UNL A   1      39.226  32.470  36.783  1.00  0.00    -0.744 OA
ENDBRANCH  85  86
ENDBRANCH  53  78
BRANCH  65  90
ATOM     90  C   UNL A   1      45.203  23.931  33.557  1.00  0.00     0.058 A 
ATOM     91  C   UNL A   1      46.452  23.811  34.186  1.00  0.00     0.135 A 
ATOM     92  C   UNL A   1      44.262  22.918  33.895  1.00  0.00     0.135 A 
ATOM     93  F   UNL A   1      47.396  24.753  34.060  1.00  0.00    -0.206 F 
ATOM     94  C   UNL A   1      46.771  22.737  35.017  1.00  0.00     0.059 A 
ATOM     95  C   UNL A   1      44.532  21.889  34.789  1.00  0.00     0.059 A 
ATOM     96  F   UNL A   1      43.024  22.893  33.380  1.00  0.00    -0.206 F 
ATOM     97  C   UNL A   1      45.805  21.784  35.316  1.00  0.00     0.060 A 
BRANCH  97  98
ATOM     98  S   UNL A   1      46.208  20.425  36.422  1.00  0.00     0.124 S 
ATOM     99  O   UNL A   1      45.365  19.361  35.886  1.00  0.00    -0.237 OA
ATOM    100  O   UNL A   1      47.643  20.260  36.212  1.00  0.00    -0.237 OA
ATOM    101  O   UNL A   1      45.828  20.931  37.736  1.00  0.00    -0.744 OA
ENDBRANCH  97  98
ENDBRANCH  65  90
ENDBRANCH  39  40
ENDBRANCH  31  34
ENDBRANCH  29  30
ENDBRANCH  28  29
ENDBRANCH   1  28
TORSDOF 18
ENDMDL
MODEL 3
REMARK VINA RESULT:     -13.5      4.931     11.527
REMARK SMILES COC(=O)c1ccc(C)c(NC(=O)[C@H]2CC=CC[C@H]2C(=O)NCCCCNC(=O)c2ccc(-c3c4nc(c(-c5c(F)cc(S(=O)(=O)[O-])cc5F)c5ccc([nH]5)c(-c5c(F)cc(S(=O)(=O)[O-])cc5F)c5nc(c(-c6c(F)cc(S(=O)(=O)[O-])cc6F)c6ccc3[nH]6)C=C5)C=C4)cc2)c1
REMARK SMILES IDX 24 1 23 2 22 3 20 4 21 5 19 7 14 8 15 9 16 10 18 11 17 12
REMARK SMILES IDX 12 13 11 14 13 16 10 17 5 18 6 19 96 20 7 21 8 22 9 23 3 24
REMARK SMILES IDX 4 25 2 26 1 27 25 28 26 29 27 30 28 31 29 33 30 34 31 35
REMARK SMILES IDX 95 36 32 37 94 38 33 39 34 40 35 41 88 42 36 43 93 44 87 45
REMARK SMILES IDX 89 46 37 47 92 48 86 49 85 50 38 52 72 53 51 54 71 55 52 56
REMARK SMILES IDX 55 57 70 58 90 59 53 60 54 61 69 63 91 64 56 65 39 66 40 67
REMARK SMILES IDX 49 68 41 69 42 70 48 71 50 72 43 73 44 74 45 75 46 76 47 77
REMARK SMILES IDX 73 78 74 79 83 80 75 81 76 82 82 83 84 84 77 85 78 86 79 87
REMARK SMILES IDX 80 88 81 89 57 90 58 91 67 92 59 93 60 94 66 95 68 96 61 97
REMARK SMILES IDX 62 98 63 99 64 100 65 101
REMARK H PARENT 22 6 11 15 27 32 89 51 55 62
REMARK Flexibility Score: inf
ROOT
ATOM      1  C   UNL A   1      36.977  22.084  24.825  1.00  0.00     0.023 C 
ENDROOT
BRANCH   1   2
ATOM      2  C   UNL A   1      35.685  21.612  25.500  1.00  0.00     0.116 C 
BRANCH   2   3
ATOM      3  N   UNL A   1      34.834  22.608  26.128  1.00  0.00    -0.356 N 
ATOM      4  C   UNL A   1      33.483  22.775  26.111  1.00  0.00     0.224 C 
ATOM      5  O   UNL A   1      32.980  23.419  27.040  1.00  0.00    -0.275 OA
ATOM      6  H   UNL A   1      35.319  23.279  26.659  1.00  0.00     0.163 HD
BRANCH   4   7
ATOM      7  C   UNL A   1      32.569  22.194  25.043  1.00  0.00     0.095 C 
ATOM      8  C   UNL A   1      32.601  22.807  23.615  1.00  0.00     0.095 C 
ATOM      9  C   UNL A   1      32.379  21.783  22.457  1.00  0.00     0.041 C 
ATOM     10  C   UNL A   1      32.241  20.336  22.792  1.00  0.00    -0.030 C 
ATOM     11  C   UNL A   1      32.530  20.666  25.236  1.00  0.00     0.041 C 
ATOM     12  C   UNL A   1      32.312  19.837  24.024  1.00  0.00    -0.030 C 
BRANCH   8  13
ATOM     13  C   UNL A   1      33.694  23.821  23.227  1.00  0.00     0.228 C 
ATOM     14  N   UNL A   1      33.671  25.160  23.461  1.00  0.00    -0.326 N 
ATOM     15  H   UNL A   1      34.543  25.578  23.273  1.00  0.00     0.169 HD
ATOM     16  O   UNL A   1      34.713  23.436  22.634  1.00  0.00    -0.274 OA
BRANCH  14  17
ATOM     17  C   UNL A   1      32.727  26.100  23.903  1.00  0.00     0.044 A 
ATOM     18  C   UNL A   1      32.042  27.453  25.838  1.00  0.00     0.062 A 
ATOM     19  C   UNL A   1      30.996  27.982  25.095  1.00  0.00     0.016 A 
ATOM     20  C   UNL A   1      32.914  26.555  25.220  1.00  0.00     0.042 A 
ATOM     21  C   UNL A   1      30.843  27.604  23.756  1.00  0.00     0.006 A 
ATOM     22  C   UNL A   1      31.711  26.675  23.137  1.00  0.00    -0.027 A 
ATOM     23  C   UNL A   1      31.543  26.430  21.672  1.00  0.00     0.046 C 
BRANCH  18  24
ATOM     24  C   UNL A   1      32.268  27.922  27.236  1.00  0.00     0.337 C 
ATOM     25  O   UNL A   1      31.413  27.949  28.094  1.00  0.00    -0.246 OA
BRANCH  24  26
ATOM     26  O   UNL A   1      33.520  28.442  27.331  1.00  0.00    -0.465 OA
ATOM     27  C   UNL A   1      33.650  29.808  26.936  1.00  0.00     0.282 C 
ENDBRANCH  24  26
ENDBRANCH  18  24
ENDBRANCH  14  17
ENDBRANCH   8  13
ENDBRANCH   4   7
ENDBRANCH   2   3
ENDBRANCH   1   2
BRANCH   1  28
ATOM     28  C   UNL A   1      38.237  22.381  25.631  1.00  0.00     0.023 C 
BRANCH  28  29
ATOM     29  C   UNL A   1      38.276  23.697  26.377  1.00  0.00     0.116 C 
BRANCH  29  30
ATOM     30  N   UNL A   1      39.186  23.619  27.507  1.00  0.00    -0.352 N 
ATOM     31  C   UNL A   1      40.191  24.519  27.805  1.00  0.00     0.251 C 
ATOM     32  H   UNL A   1      39.076  22.855  28.117  1.00  0.00     0.163 HD
ATOM     33  O   UNL A   1      41.361  24.227  27.995  1.00  0.00    -0.269 OA
BRANCH  31  34
ATOM     34  C   UNL A   1      39.726  25.904  27.956  1.00  0.00     0.039 A 
ATOM     35  C   UNL A   1      40.210  26.863  27.056  1.00  0.00     0.014 A 
ATOM     36  C   UNL A   1      39.223  26.242  29.203  1.00  0.00     0.014 A 
ATOM     37  C   UNL A   1      40.373  28.163  27.504  1.00  0.00     0.010 A 
ATOM     38  C   UNL A   1      39.527  27.474  29.696  1.00  0.00     0.010 A 
ATOM     39  C   UNL A   1      40.122  28.412  28.850  1.00  0.00    -0.014 A 
BRANCH  39  40
ATOM     40  C   UNL A   1      40.327  29.678  29.503  1.00  0.00     0.031 A 
ATOM     41  C   UNL A   1      39.216  30.631  29.386  1.00  0.00     0.074 A 
ATOM     42  C   UNL A   1      41.378  29.785  30.340  1.00  0.00     0.049 A 
ATOM     43  N   UNL A   1      39.324  31.893  29.552  1.00  0.00    -0.248 NA
ATOM     44  C   UNL A   1      37.859  30.220  29.018  1.00  0.00     0.031 C 
ATOM     45  C   UNL A   1      41.648  30.801  31.346  1.00  0.00     0.029 A 
ATOM     46  N   UNL A   1      42.558  29.032  30.287  1.00  0.00    -0.354 N 
ATOM     47  C   UNL A   1      38.045  32.401  29.657  1.00  0.00     0.074 A 
ATOM     48  C   UNL A   1      37.174  31.348  29.207  1.00  0.00     0.031 C 
ATOM     49  C   UNL A   1      42.975  30.830  31.579  1.00  0.00     0.029 A 
ATOM     50  C   UNL A   1      43.599  29.915  30.632  1.00  0.00     0.049 A 
ATOM     51  H   UNL A   1      42.642  28.078  30.056  1.00  0.00     0.167 HD
ATOM     52  C   UNL A   1      37.885  33.595  30.291  1.00  0.00     0.037 A 
ATOM     53  C   UNL A   1      44.487  30.286  29.662  1.00  0.00     0.037 A 
ATOM     54  C   UNL A   1      39.201  34.114  30.667  1.00  0.00     0.049 A 
ATOM     55  C   UNL A   1      44.337  31.749  29.292  1.00  0.00     0.074 A 
ATOM     56  C   UNL A   1      39.932  34.014  31.840  1.00  0.00     0.029 A 
ATOM     57  N   UNL A   1      40.109  34.432  29.664  1.00  0.00    -0.354 N 
ATOM     58  N   UNL A   1      43.239  32.441  29.453  1.00  0.00    -0.248 NA
ATOM     59  C   UNL A   1      45.442  32.569  28.805  1.00  0.00     0.031 C 
ATOM     60  C   UNL A   1      41.302  34.196  31.519  1.00  0.00     0.029 A 
ATOM     61  C   UNL A   1      41.402  34.416  30.154  1.00  0.00     0.049 A 
ATOM     62  H   UNL A   1      39.866  34.641  28.733  1.00  0.00     0.167 HD
ATOM     63  C   UNL A   1      43.473  33.761  29.151  1.00  0.00     0.074 A 
ATOM     64  C   UNL A   1      44.869  33.783  28.749  1.00  0.00     0.031 C 
ATOM     65  C   UNL A   1      42.523  34.738  29.284  1.00  0.00     0.037 A 
BRANCH  52  66
ATOM     66  C   UNL A   1      36.577  34.119  30.838  1.00  0.00     0.058 A 
ATOM     67  C   UNL A   1      35.532  34.464  29.953  1.00  0.00     0.135 A 
ATOM     68  C   UNL A   1      36.283  34.329  32.202  1.00  0.00     0.135 A 
ATOM     69  F   UNL A   1      35.639  34.277  28.631  1.00  0.00    -0.206 F 
ATOM     70  C   UNL A   1      34.326  35.021  30.375  1.00  0.00     0.059 A 
ATOM     71  C   UNL A   1      35.099  34.927  32.648  1.00  0.00     0.059 A 
ATOM     72  F   UNL A   1      37.111  33.912  33.169  1.00  0.00    -0.206 F 
ATOM     73  C   UNL A   1      34.120  35.265  31.724  1.00  0.00     0.060 A 
BRANCH  73  74
ATOM     74  S   UNL A   1      32.547  35.974  32.237  1.00  0.00     0.124 S 
ATOM     75  O   UNL A   1      32.042  36.537  30.987  1.00  0.00    -0.237 OA
ATOM     76  O   UNL A   1      31.837  34.803  32.738  1.00  0.00    -0.237 OA
ATOM     77  O   UNL A   1      32.928  36.954  33.250  1.00  0.00    -0.744 OA
ENDBRANCH  73  74
ENDBRANCH  52  66
BRANCH  53  78
ATOM     78  C   UNL A   1      44.838  29.142  28.759  1.00  0.00     0.058 A 
ATOM     79  C   UNL A   1      44.257  29.142  27.470  1.00  0.00     0.135 A 
ATOM     80  C   UNL A   1      46.002  28.381  28.927  1.00  0.00     0.135 A 
ATOM     81  F   UNL A   1      43.132  29.843  27.244  1.00  0.00    -0.206 F 
ATOM     82  C   UNL A   1      44.881  28.553  26.371  1.00  0.00     0.059 A 
ATOM     83  C   UNL A   1      46.641  27.772  27.838  1.00  0.00     0.059 A 
ATOM     84  F   UNL A   1      46.610  28.330  30.121  1.00  0.00    -0.206 F 
ATOM     85  C   UNL A   1      46.102  27.915  26.557  1.00  0.00     0.060 A 
BRANCH  85  86
ATOM     86  S   UNL A   1      47.036  27.412  25.092  1.00  0.00     0.124 S 
ATOM     87  O   UNL A   1      47.222  25.985  25.322  1.00  0.00    -0.237 OA
ATOM     88  O   UNL A   1      46.118  27.770  24.011  1.00  0.00    -0.237 OA
ATOM     89  O   UNL A   1      48.238  28.233  25.157  1.00  0.00    -0.744 OA
ENDBRANCH  85  86
ENDBRANCH  53  78
BRANCH  65  90
ATOM     90  C   UNL A   1      42.574  36.139  28.701  1.00  0.00     0.058 A 
ATOM     91  C   UNL A   1      43.066  37.263  29.383  1.00  0.00     0.135 A 
ATOM     92  C   UNL A   1      42.264  36.359  27.330  1.00  0.00     0.135 A 
ATOM     93  F   UNL A   1      43.513  37.182  30.643  1.00  0.00    -0.206 F 
ATOM     94  C   UNL A   1      43.168  38.518  28.781  1.00  0.00     0.059 A 
ATOM     95  C   UNL A   1      42.442  37.579  26.689  1.00  0.00     0.059 A 
ATOM     96  F   UNL A   1      41.786  35.385  26.541  1.00  0.00    -0.206 F 
ATOM     97  C   UNL A   1      42.859  38.666  27.435  1.00  0.00     0.060 A 
BRANCH  97  98
ATOM     98  S   UNL A   1      43.034  40.275  26.652  1.00  0.00     0.124 S 
ATOM     99  O   UNL A   1      44.175  40.043  25.773  1.00  0.00    -0.237 OA
ATOM    100  O   UNL A   1      41.746  40.445  25.986  1.00  0.00    -0.237 OA
ATOM    101  O   UNL A   1      43.274  41.175  27.775  1.00  0.00    -0.744 OA
ENDBRANCH  97  98
ENDBRANCH  65  90
ENDBRANCH  39  40
ENDBRANCH  31  34
ENDBRANCH  29  30
ENDBRANCH  28  29
ENDBRANCH   1  28
TORSDOF 18
ENDMDL
