MODEL 1
REMARK VINA RESULT:     -11.2      0.000      0.000
REMARK SMILES O=C(CCSC1=NC=NC2=[NH+]C=N[C@@H]12)NCCCCNC(=O)c1ccc(-c2c3nc(c(-c4c(F)cc(S(=O)(=O)[O-])cc4F)c4ccc([nH]4)c(-c4c(F)cc(S(=O)(=O)[O-])cc4F)c4nc(c(-c5c(F)cc(S(=O)(=O)[O-])cc5F)c5ccc2[nH]5)C=C4)C=C3)cc1
REMARK SMILES IDX 17 1 16 2 15 3 1 4 2 5 3 7 4 8 5 9 6 10 7 11 14 12 8 13
REMARK SMILES IDX 10 14 13 15 9 16 11 17 12 18 18 20 19 21 20 22 21 23 22 25
REMARK SMILES IDX 23 26 24 27 88 28 25 29 87 30 26 31 27 32 28 33 81 34 29 35
REMARK SMILES IDX 86 36 80 37 82 38 30 39 85 40 79 41 78 42 31 44 65 45 44 46
REMARK SMILES IDX 64 47 45 48 48 49 63 50 83 51 46 52 47 53 62 55 84 56 49 57
REMARK SMILES IDX 32 58 33 59 42 60 34 61 35 62 41 63 43 64 36 65 37 66 38 67
REMARK SMILES IDX 39 68 40 69 66 70 67 71 76 72 68 73 69 74 75 75 77 76 70 77
REMARK SMILES IDX 71 78 72 79 73 80 74 81 50 82 51 83 60 84 52 85 53 86 59 87
REMARK SMILES IDX 61 88 54 89 55 90 56 91 57 92 58 93
REMARK H PARENT 15 6 11 19 20 24 82 43 48 54
REMARK Flexibility Score: inf
ROOT
ATOM      1  C   UNL A   1      40.410  20.964  26.979  1.00  0.00     0.023 C 
ENDROOT
BRANCH   1   2
ATOM      2  C   UNL A   1      39.885  22.217  26.265  1.00  0.00     0.116 C 
BRANCH   2   3
ATOM      3  N   UNL A   1      38.574  22.106  25.638  1.00  0.00    -0.356 N 
ATOM      4  O   UNL A   1      37.813  24.130  26.425  1.00  0.00    -0.275 OA
ATOM      5  C   UNL A   1      37.663  23.150  25.698  1.00  0.00     0.220 C 
ATOM      6  H   UNL A   1      38.332  21.278  25.165  1.00  0.00     0.163 HD
BRANCH   5   7
ATOM      7  C   UNL A   1      36.432  22.992  24.817  1.00  0.00     0.111 C 
BRANCH   7   8
ATOM      8  C   UNL A   1      35.135  23.613  25.346  1.00  0.00     0.086 C 
BRANCH   8   9
ATOM      9  S   UNL A   1      34.261  24.639  24.131  1.00  0.00    -0.106 SA
BRANCH   9  10
ATOM     10  C   UNL A   1      32.748  25.068  24.914  1.00  0.00     0.128 C 
ATOM     11  N   UNL A   1      32.296  26.268  24.735  1.00  0.00    -0.214 NA
ATOM     12  C   UNL A   1      32.207  24.205  25.986  1.00  0.00     0.340 C 
ATOM     13  C   UNL A   1      31.312  26.734  25.575  1.00  0.00     0.320 C 
ATOM     14  C   UNL A   1      30.914  24.740  26.431  1.00  0.00     0.285 C 
ATOM     15  N   UNL A   1      31.809  22.840  25.623  1.00  0.00    -0.130 NA
ATOM     16  N   UNL A   1      30.679  26.060  26.481  1.00  0.00    -0.092 NA
ATOM     17  N   UNL A   1      30.028  23.836  26.645  1.00  0.00    -0.248 N 
ATOM     18  C   UNL A   1      30.619  22.714  26.127  1.00  0.00     0.362 C 
ATOM     19  H   UNL A   1      29.145  23.926  27.073  1.00  0.00     0.266 HD
ENDBRANCH   9  10
ENDBRANCH   8   9
ENDBRANCH   7   8
ENDBRANCH   5   7
ENDBRANCH   2   3
ENDBRANCH   1   2
BRANCH   1  20
ATOM     20  C   UNL A   1      41.111  19.887  26.141  1.00  0.00     0.023 C 
BRANCH  20  21
ATOM     21  C   UNL A   1      42.485  19.452  26.636  1.00  0.00     0.116 C 
BRANCH  21  22
ATOM     22  N   UNL A   1      43.507  19.369  25.604  1.00  0.00    -0.352 N 
ATOM     23  C   UNL A   1      44.197  20.396  24.969  1.00  0.00     0.251 C 
ATOM     24  H   UNL A   1      43.742  18.459  25.313  1.00  0.00     0.163 HD
ATOM     25  O   UNL A   1      44.855  20.143  23.973  1.00  0.00    -0.269 OA
BRANCH  23  26
ATOM     26  C   UNL A   1      44.138  21.795  25.486  1.00  0.00     0.039 A 
ATOM     27  C   UNL A   1      43.220  22.712  24.952  1.00  0.00     0.014 A 
ATOM     28  C   UNL A   1      45.009  22.218  26.485  1.00  0.00     0.014 A 
ATOM     29  C   UNL A   1      43.156  24.017  25.461  1.00  0.00     0.010 A 
ATOM     30  C   UNL A   1      44.877  23.469  27.052  1.00  0.00     0.010 A 
ATOM     31  C   UNL A   1      43.991  24.394  26.518  1.00  0.00    -0.014 A 
BRANCH  31  32
ATOM     32  C   UNL A   1      43.802  25.646  27.258  1.00  0.00     0.031 A 
ATOM     33  C   UNL A   1      44.796  26.683  26.898  1.00  0.00     0.074 A 
ATOM     34  C   UNL A   1      42.675  25.987  27.926  1.00  0.00     0.049 A 
ATOM     35  N   UNL A   1      45.732  27.164  27.646  1.00  0.00    -0.248 NA
ATOM     36  C   UNL A   1      44.865  27.136  25.497  1.00  0.00     0.031 C 
ATOM     37  C   UNL A   1      41.465  25.178  28.061  1.00  0.00     0.029 A 
ATOM     38  N   UNL A   1      42.302  27.168  28.511  1.00  0.00    -0.354 N 
ATOM     39  C   UNL A   1      46.297  28.194  26.901  1.00  0.00     0.074 A 
ATOM     40  C   UNL A   1      45.924  27.947  25.536  1.00  0.00     0.031 C 
ATOM     41  C   UNL A   1      40.419  25.964  28.409  1.00  0.00     0.029 A 
ATOM     42  C   UNL A   1      40.932  27.279  28.755  1.00  0.00     0.049 A 
ATOM     43  H   UNL A   1      42.945  27.876  28.741  1.00  0.00     0.167 HD
ATOM     44  C   UNL A   1      46.704  29.337  27.520  1.00  0.00     0.037 A 
ATOM     45  C   UNL A   1      40.255  28.346  29.253  1.00  0.00     0.037 A 
ATOM     46  C   UNL A   1      46.732  29.151  28.951  1.00  0.00     0.049 A 
ATOM     47  C   UNL A   1      41.223  29.154  30.029  1.00  0.00     0.074 A 
ATOM     48  C   UNL A   1      47.539  28.526  29.875  1.00  0.00     0.029 A 
ATOM     49  N   UNL A   1      45.530  29.395  29.560  1.00  0.00    -0.354 N 
ATOM     50  N   UNL A   1      41.827  28.715  31.100  1.00  0.00    -0.248 NA
ATOM     51  C   UNL A   1      41.784  30.368  29.446  1.00  0.00     0.031 C 
ATOM     52  C   UNL A   1      46.734  28.303  31.033  1.00  0.00     0.029 A 
ATOM     53  C   UNL A   1      45.464  28.821  30.802  1.00  0.00     0.049 A 
ATOM     54  H   UNL A   1      44.802  29.920  29.155  1.00  0.00     0.167 HD
ATOM     55  C   UNL A   1      43.065  29.320  31.056  1.00  0.00     0.074 A 
ATOM     56  C   UNL A   1      42.918  30.447  30.145  1.00  0.00     0.031 C 
ATOM     57  C   UNL A   1      44.184  28.653  31.456  1.00  0.00     0.037 A 
BRANCH  44  58
ATOM     58  C   UNL A   1      46.602  30.740  26.939  1.00  0.00     0.058 A 
ATOM     59  C   UNL A   1      47.752  31.562  26.963  1.00  0.00     0.135 A 
ATOM     60  C   UNL A   1      45.396  31.411  26.638  1.00  0.00     0.135 A 
ATOM     61  F   UNL A   1      48.960  31.040  27.228  1.00  0.00    -0.206 F 
ATOM     62  C   UNL A   1      47.695  32.946  26.785  1.00  0.00     0.059 A 
ATOM     63  C   UNL A   1      45.324  32.781  26.407  1.00  0.00     0.059 A 
ATOM     64  F   UNL A   1      44.207  30.799  26.640  1.00  0.00    -0.206 F 
ATOM     65  C   UNL A   1      46.470  33.548  26.523  1.00  0.00     0.060 A 
BRANCH  65  66
ATOM     66  S   UNL A   1      46.374  35.340  26.377  1.00  0.00     0.124 S 
ATOM     67  O   UNL A   1      44.965  35.529  26.051  1.00  0.00    -0.237 OA
ATOM     68  O   UNL A   1      46.790  35.774  27.707  1.00  0.00    -0.237 OA
ATOM     69  O   UNL A   1      47.318  35.639  25.304  1.00  0.00    -0.744 OA
ENDBRANCH  65  66
ENDBRANCH  44  58
BRANCH  45  70
ATOM     70  C   UNL A   1      38.871  28.824  28.988  1.00  0.00     0.058 A 
ATOM     71  C   UNL A   1      37.944  28.992  30.035  1.00  0.00     0.135 A 
ATOM     72  C   UNL A   1      38.531  29.421  27.758  1.00  0.00     0.135 A 
ATOM     73  F   UNL A   1      38.185  28.458  31.243  1.00  0.00    -0.206 F 
ATOM     74  C   UNL A   1      36.789  29.769  29.897  1.00  0.00     0.059 A 
ATOM     75  C   UNL A   1      37.381  30.198  27.595  1.00  0.00     0.059 A 
ATOM     76  F   UNL A   1      39.361  29.341  26.708  1.00  0.00    -0.206 F 
ATOM     77  C   UNL A   1      36.531  30.395  28.679  1.00  0.00     0.060 A 
BRANCH  77  78
ATOM     78  S   UNL A   1      35.156  31.568  28.562  1.00  0.00     0.124 S 
ATOM     79  O   UNL A   1      35.693  32.573  27.651  1.00  0.00    -0.237 OA
ATOM     80  O   UNL A   1      34.083  30.736  28.030  1.00  0.00    -0.237 OA
ATOM     81  O   UNL A   1      34.972  32.011  29.942  1.00  0.00    -0.744 OA
ENDBRANCH  77  78
ENDBRANCH  45  70
BRANCH  57  82
ATOM     82  C   UNL A   1      44.043  27.605  32.518  1.00  0.00     0.058 A 
ATOM     83  C   UNL A   1      43.815  27.849  33.882  1.00  0.00     0.135 A 
ATOM     84  C   UNL A   1      44.076  26.265  32.102  1.00  0.00     0.135 A 
ATOM     85  F   UNL A   1      43.703  29.101  34.350  1.00  0.00    -0.206 F 
ATOM     86  C   UNL A   1      43.650  26.803  34.794  1.00  0.00     0.059 A 
ATOM     87  C   UNL A   1      43.887  25.209  32.986  1.00  0.00     0.059 A 
ATOM     88  F   UNL A   1      44.259  25.969  30.804  1.00  0.00    -0.206 F 
ATOM     89  C   UNL A   1      43.685  25.485  34.334  1.00  0.00     0.060 A 
BRANCH  89  90
ATOM     90  S   UNL A   1      43.398  24.134  35.497  1.00  0.00     0.124 S 
ATOM     91  O   UNL A   1      42.960  24.845  36.694  1.00  0.00    -0.237 OA
ATOM     92  O   UNL A   1      42.376  23.343  34.819  1.00  0.00    -0.237 OA
ATOM     93  O   UNL A   1      44.705  23.489  35.599  1.00  0.00    -0.744 OA
ENDBRANCH  89  90
ENDBRANCH  57  82
ENDBRANCH  31  32
ENDBRANCH  23  26
ENDBRANCH  21  22
ENDBRANCH  20  21
ENDBRANCH   1  20
TORSDOF 17
ENDMDL
MODEL 2
REMARK VINA RESULT:     -11.1      1.008      1.825
REMARK SMILES O=C(CCSC1=NC=NC2=[NH+]C=N[C@@H]12)NCCCCNC(=O)c1ccc(-c2c3nc(c(-c4c(F)cc(S(=O)(=O)[O-])cc4F)c4ccc([nH]4)c(-c4c(F)cc(S(=O)(=O)[O-])cc4F)c4nc(c(-c5c(F)cc(S(=O)(=O)[O-])cc5F)c5ccc2[nH]5)C=C4)C=C3)cc1
REMARK SMILES IDX 17 1 16 2 15 3 1 4 2 5 3 7 4 8 5 9 6 10 7 11 14 12 8 13
REMARK SMILES IDX 10 14 13 15 9 16 11 17 12 18 18 20 19 21 20 22 21 23 22 25
REMARK SMILES IDX 23 26 24 27 88 28 25 29 87 30 26 31 27 32 28 33 81 34 29 35
REMARK SMILES IDX 86 36 80 37 82 38 30 39 85 40 79 41 78 42 31 44 65 45 44 46
REMARK SMILES IDX 64 47 45 48 48 49 63 50 83 51 46 52 47 53 62 55 84 56 49 57
REMARK SMILES IDX 32 58 33 59 42 60 34 61 35 62 41 63 43 64 36 65 37 66 38 67
REMARK SMILES IDX 39 68 40 69 66 70 67 71 76 72 68 73 69 74 75 75 77 76 70 77
REMARK SMILES IDX 71 78 72 79 73 80 74 81 50 82 51 83 60 84 52 85 53 86 59 87
REMARK SMILES IDX 61 88 54 89 55 90 56 91 57 92 58 93
REMARK H PARENT 15 6 11 19 20 24 82 43 48 54
REMARK Flexibility Score: inf
ROOT
ATOM      1  C   UNL A   1      40.387  20.983  26.982  1.00  0.00     0.023 C 
ENDROOT
BRANCH   1   2
ATOM      2  C   UNL A   1      39.792  22.194  26.252  1.00  0.00     0.116 C 
BRANCH   2   3
ATOM      3  N   UNL A   1      38.363  22.422  26.428  1.00  0.00    -0.356 N 
ATOM      4  O   UNL A   1      37.755  21.340  24.491  1.00  0.00    -0.275 OA
ATOM      5  C   UNL A   1      37.438  21.874  25.552  1.00  0.00     0.220 C 
ATOM      6  H   UNL A   1      38.049  22.975  27.180  1.00  0.00     0.163 HD
BRANCH   5   7
ATOM      7  C   UNL A   1      35.982  22.000  25.978  1.00  0.00     0.111 C 
BRANCH   7   8
ATOM      8  C   UNL A   1      35.217  23.207  25.425  1.00  0.00     0.086 C 
BRANCH   8   9
ATOM      9  S   UNL A   1      34.045  22.793  24.103  1.00  0.00    -0.106 SA
BRANCH   9  10
ATOM     10  C   UNL A   1      33.106  24.258  23.862  1.00  0.00     0.128 C 
ATOM     11  N   UNL A   1      32.851  24.987  24.900  1.00  0.00    -0.214 NA
ATOM     12  C   UNL A   1      32.367  24.454  22.595  1.00  0.00     0.340 C 
ATOM     13  C   UNL A   1      31.866  25.943  24.810  1.00  0.00     0.320 C 
ATOM     14  C   UNL A   1      31.718  25.771  22.614  1.00  0.00     0.285 C 
ATOM     15  N   UNL A   1      33.154  24.573  21.363  1.00  0.00    -0.130 NA
ATOM     16  N   UNL A   1      31.217  26.291  23.745  1.00  0.00    -0.092 NA
ATOM     17  N   UNL A   1      31.788  26.396  21.496  1.00  0.00    -0.248 N 
ATOM     18  C   UNL A   1      32.676  25.634  20.785  1.00  0.00     0.362 C 
ATOM     19  H   UNL A   1      31.320  27.218  21.218  1.00  0.00     0.266 HD
ENDBRANCH   9  10
ENDBRANCH   8   9
ENDBRANCH   7   8
ENDBRANCH   5   7
ENDBRANCH   2   3
ENDBRANCH   1   2
BRANCH   1  20
ATOM     20  C   UNL A   1      41.036  19.874  26.145  1.00  0.00     0.023 C 
BRANCH  20  21
ATOM     21  C   UNL A   1      42.420  19.424  26.600  1.00  0.00     0.116 C 
BRANCH  21  22
ATOM     22  N   UNL A   1      43.417  19.355  25.543  1.00  0.00    -0.352 N 
ATOM     23  C   UNL A   1      44.086  20.390  24.900  1.00  0.00     0.251 C 
ATOM     24  H   UNL A   1      43.651  18.448  25.241  1.00  0.00     0.163 HD
ATOM     25  O   UNL A   1      44.721  20.148  23.887  1.00  0.00    -0.269 OA
BRANCH  23  26
ATOM     26  C   UNL A   1      44.030  21.785  25.428  1.00  0.00     0.039 A 
ATOM     27  C   UNL A   1      43.113  22.708  24.905  1.00  0.00     0.014 A 
ATOM     28  C   UNL A   1      44.906  22.198  26.428  1.00  0.00     0.014 A 
ATOM     29  C   UNL A   1      43.053  24.009  25.424  1.00  0.00     0.010 A 
ATOM     30  C   UNL A   1      44.778  23.445  27.006  1.00  0.00     0.010 A 
ATOM     31  C   UNL A   1      43.893  24.375  26.482  1.00  0.00    -0.014 A 
BRANCH  31  32
ATOM     32  C   UNL A   1      43.708  25.622  27.232  1.00  0.00     0.031 A 
ATOM     33  C   UNL A   1      44.716  26.654  26.892  1.00  0.00     0.074 A 
ATOM     34  C   UNL A   1      42.578  25.967  27.893  1.00  0.00     0.049 A 
ATOM     35  N   UNL A   1      45.648  27.118  27.654  1.00  0.00    -0.248 NA
ATOM     36  C   UNL A   1      44.802  27.120  25.496  1.00  0.00     0.031 C 
ATOM     37  C   UNL A   1      41.359  25.169  28.008  1.00  0.00     0.029 A 
ATOM     38  N   UNL A   1      42.210  27.146  28.486  1.00  0.00    -0.354 N 
ATOM     39  C   UNL A   1      46.231  28.149  26.925  1.00  0.00     0.074 A 
ATOM     40  C   UNL A   1      45.868  27.920  25.553  1.00  0.00     0.031 C 
ATOM     41  C   UNL A   1      40.318  25.962  28.354  1.00  0.00     0.029 A 
ATOM     42  C   UNL A   1      40.839  27.268  28.719  1.00  0.00     0.049 A 
ATOM     43  H   UNL A   1      42.858  27.846  28.729  1.00  0.00     0.167 HD
ATOM     44  C   UNL A   1      46.642  29.283  27.558  1.00  0.00     0.037 A 
ATOM     45  C   UNL A   1      40.168  28.336  29.220  1.00  0.00     0.037 A 
ATOM     46  C   UNL A   1      46.655  29.082  28.988  1.00  0.00     0.049 A 
ATOM     47  C   UNL A   1      41.136  29.127  30.014  1.00  0.00     0.074 A 
ATOM     48  C   UNL A   1      47.447  28.440  29.913  1.00  0.00     0.029 A 
ATOM     49  N   UNL A   1      45.449  29.331  29.588  1.00  0.00    -0.354 N 
ATOM     50  N   UNL A   1      41.726  28.672  31.086  1.00  0.00    -0.248 NA
ATOM     51  C   UNL A   1      41.714  30.341  29.448  1.00  0.00     0.031 C 
ATOM     52  C   UNL A   1      46.628  28.214  31.061  1.00  0.00     0.029 A 
ATOM     53  C   UNL A   1      45.366  28.746  30.823  1.00  0.00     0.049 A 
ATOM     54  H   UNL A   1      44.731  29.868  29.181  1.00  0.00     0.167 HD
ATOM     55  C   UNL A   1      42.969  29.265  31.060  1.00  0.00     0.074 A 
ATOM     56  C   UNL A   1      42.842  30.402  30.159  1.00  0.00     0.031 C 
ATOM     57  C   UNL A   1      44.078  28.583  31.464  1.00  0.00     0.037 A 
BRANCH  44  58
ATOM     58  C   UNL A   1      46.559  30.692  26.991  1.00  0.00     0.058 A 
ATOM     59  C   UNL A   1      47.719  31.499  27.024  1.00  0.00     0.135 A 
ATOM     60  C   UNL A   1      45.362  31.381  26.694  1.00  0.00     0.135 A 
ATOM     61  F   UNL A   1      48.921  30.960  27.286  1.00  0.00    -0.206 F 
ATOM     62  C   UNL A   1      47.680  32.885  26.859  1.00  0.00     0.059 A 
ATOM     63  C   UNL A   1      45.308  32.754  26.476  1.00  0.00     0.059 A 
ATOM     64  F   UNL A   1      44.165  30.784  26.688  1.00  0.00    -0.206 F 
ATOM     65  C   UNL A   1      46.464  33.505  26.601  1.00  0.00     0.060 A 
BRANCH  65  66
ATOM     66  S   UNL A   1      46.390  35.300  26.472  1.00  0.00     0.124 S 
ATOM     67  O   UNL A   1      46.818  35.705  27.805  1.00  0.00    -0.237 OA
ATOM     68  O   UNL A   1      47.331  35.563  25.387  1.00  0.00    -0.237 OA
ATOM     69  O   UNL A   1      44.988  35.554  26.151  1.00  0.00    -0.744 OA
ENDBRANCH  65  66
ENDBRANCH  44  58
BRANCH  45  70
ATOM     70  C   UNL A   1      38.791  28.829  28.947  1.00  0.00     0.058 A 
ATOM     71  C   UNL A   1      37.851  28.982  29.985  1.00  0.00     0.135 A 
ATOM     72  C   UNL A   1      38.472  29.455  27.726  1.00  0.00     0.135 A 
ATOM     73  F   UNL A   1      38.072  28.422  31.184  1.00  0.00    -0.206 F 
ATOM     74  C   UNL A   1      36.704  29.771  29.848  1.00  0.00     0.059 A 
ATOM     75  C   UNL A   1      37.330  30.244  27.564  1.00  0.00     0.059 A 
ATOM     76  F   UNL A   1      39.316  29.391  26.685  1.00  0.00    -0.206 F 
ATOM     77  C   UNL A   1      36.467  30.424  28.640  1.00  0.00     0.060 A 
BRANCH  77  78
ATOM     78  S   UNL A   1      35.102  31.610  28.530  1.00  0.00     0.124 S 
ATOM     79  O   UNL A   1      34.916  31.987  29.927  1.00  0.00    -0.237 OA
ATOM     80  O   UNL A   1      35.658  32.643  27.662  1.00  0.00    -0.237 OA
ATOM     81  O   UNL A   1      34.018  30.825  27.945  1.00  0.00    -0.744 OA
ENDBRANCH  77  78
ENDBRANCH  45  70
BRANCH  57  82
ATOM     82  C   UNL A   1      43.917  27.526  32.514  1.00  0.00     0.058 A 
ATOM     83  C   UNL A   1      43.958  26.141  32.290  1.00  0.00     0.135 A 
ATOM     84  C   UNL A   1      43.782  27.960  33.842  1.00  0.00     0.135 A 
ATOM     85  F   UNL A   1      44.152  25.645  31.059  1.00  0.00    -0.206 F 
ATOM     86  C   UNL A   1      43.845  25.228  33.342  1.00  0.00     0.059 A 
ATOM     87  C   UNL A   1      43.696  27.070  34.906  1.00  0.00     0.059 A 
ATOM     88  F   UNL A   1      43.769  29.274  34.122  1.00  0.00    -0.206 F 
ATOM     89  C   UNL A   1      43.718  25.703  34.648  1.00  0.00     0.060 A 
BRANCH  89  90
ATOM     90  S   UNL A   1      43.647  24.527  36.016  1.00  0.00     0.124 S 
ATOM     91  O   UNL A   1      43.384  23.268  35.326  1.00  0.00    -0.237 OA
ATOM     92  O   UNL A   1      44.971  24.658  36.617  1.00  0.00    -0.237 OA
ATOM     93  O   UNL A   1      42.548  25.028  36.839  1.00  0.00    -0.744 OA
ENDBRANCH  89  90
ENDBRANCH  57  82
ENDBRANCH  31  32
ENDBRANCH  23  26
ENDBRANCH  21  22
ENDBRANCH  20  21
ENDBRANCH   1  20
TORSDOF 17
ENDMDL
MODEL 3
REMARK VINA RESULT:     -11.0      2.795      3.938
REMARK SMILES O=C(CCSC1=NC=NC2=[NH+]C=N[C@@H]12)NCCCCNC(=O)c1ccc(-c2c3nc(c(-c4c(F)cc(S(=O)(=O)[O-])cc4F)c4ccc([nH]4)c(-c4c(F)cc(S(=O)(=O)[O-])cc4F)c4nc(c(-c5c(F)cc(S(=O)(=O)[O-])cc5F)c5ccc2[nH]5)C=C4)C=C3)cc1
REMARK SMILES IDX 17 1 16 2 15 3 1 4 2 5 3 7 4 8 5 9 6 10 7 11 14 12 8 13
REMARK SMILES IDX 10 14 13 15 9 16 11 17 12 18 18 20 19 21 20 22 21 23 22 25
REMARK SMILES IDX 23 26 24 27 88 28 25 29 87 30 26 31 27 32 28 33 81 34 29 35
REMARK SMILES IDX 86 36 80 37 82 38 30 39 85 40 79 41 78 42 31 44 65 45 44 46
REMARK SMILES IDX 64 47 45 48 48 49 63 50 83 51 46 52 47 53 62 55 84 56 49 57
REMARK SMILES IDX 32 58 33 59 42 60 34 61 35 62 41 63 43 64 36 65 37 66 38 67
REMARK SMILES IDX 39 68 40 69 66 70 67 71 76 72 68 73 69 74 75 75 77 76 70 77
REMARK SMILES IDX 71 78 72 79 73 80 74 81 50 82 51 83 60 84 52 85 53 86 59 87
REMARK SMILES IDX 61 88 54 89 55 90 56 91 57 92 58 93
REMARK H PARENT 15 6 11 19 20 24 82 43 48 54
REMARK Flexibility Score: inf
ROOT
ATOM      1  C   UNL A   1      36.003  22.268  24.052  1.00  0.00     0.023 C 
ENDROOT
BRANCH   1   2
ATOM      2  C   UNL A   1      35.070  21.436  24.944  1.00  0.00     0.116 C 
BRANCH   2   3
ATOM      3  N   UNL A   1      33.849  22.091  25.395  1.00  0.00    -0.356 N 
ATOM      4  O   UNL A   1      34.260  21.744  27.633  1.00  0.00    -0.275 OA
ATOM      5  C   UNL A   1      33.594  22.275  26.746  1.00  0.00     0.220 C 
ATOM      6  H   UNL A   1      33.194  22.407  24.732  1.00  0.00     0.163 HD
BRANCH   5   7
ATOM      7  C   UNL A   1      32.403  23.166  27.070  1.00  0.00     0.111 C 
BRANCH   7   8
ATOM      8  C   UNL A   1      32.298  24.472  26.275  1.00  0.00     0.086 C 
BRANCH   8   9
ATOM      9  S   UNL A   1      30.627  24.832  25.668  1.00  0.00    -0.106 SA
BRANCH   9  10
ATOM     10  C   UNL A   1      30.867  25.928  24.316  1.00  0.00     0.128 C 
ATOM     11  N   UNL A   1      30.554  27.172  24.486  1.00  0.00    -0.214 NA
ATOM     12  C   UNL A   1      31.096  25.381  22.961  1.00  0.00     0.340 C 
ATOM     13  C   UNL A   1      30.421  27.977  23.379  1.00  0.00     0.320 C 
ATOM     14  C   UNL A   1      31.329  26.489  22.026  1.00  0.00     0.285 C 
ATOM     15  N   UNL A   1      32.318  24.598  22.742  1.00  0.00    -0.130 NA
ATOM     16  N   UNL A   1      30.690  27.662  22.153  1.00  0.00    -0.092 NA
ATOM     17  N   UNL A   1      32.265  26.259  21.178  1.00  0.00    -0.248 N 
ATOM     18  C   UNL A   1      32.834  25.114  21.667  1.00  0.00     0.362 C 
ATOM     19  H   UNL A   1      32.513  26.777  20.377  1.00  0.00     0.266 HD
ENDBRANCH   9  10
ENDBRANCH   8   9
ENDBRANCH   7   8
ENDBRANCH   5   7
ENDBRANCH   2   3
ENDBRANCH   1   2
BRANCH   1  20
ATOM     20  C   UNL A   1      36.795  23.413  24.695  1.00  0.00     0.023 C 
BRANCH  20  21
ATOM     21  C   UNL A   1      37.232  23.187  26.138  1.00  0.00     0.116 C 
BRANCH  21  22
ATOM     22  N   UNL A   1      38.366  22.290  26.298  1.00  0.00    -0.352 N 
ATOM     23  C   UNL A   1      39.679  22.589  26.647  1.00  0.00     0.251 C 
ATOM     24  H   UNL A   1      38.178  21.338  26.137  1.00  0.00     0.163 HD
ATOM     25  O   UNL A   1      40.538  21.734  26.515  1.00  0.00    -0.269 OA
BRANCH  23  26
ATOM     26  C   UNL A   1      40.044  23.937  27.174  1.00  0.00     0.039 A 
ATOM     27  C   UNL A   1      39.343  25.077  26.756  1.00  0.00     0.014 A 
ATOM     28  C   UNL A   1      41.104  24.085  28.064  1.00  0.00     0.014 A 
ATOM     29  C   UNL A   1      39.679  26.337  27.274  1.00  0.00     0.010 A 
ATOM     30  C   UNL A   1      41.367  25.307  28.648  1.00  0.00     0.010 A 
ATOM     31  C   UNL A   1      40.699  26.447  28.227  1.00  0.00    -0.014 A 
BRANCH  31  32
ATOM     32  C   UNL A   1      40.927  27.680  28.989  1.00  0.00     0.031 A 
ATOM     33  C   UNL A   1      42.012  28.514  28.422  1.00  0.00     0.074 A 
ATOM     34  C   UNL A   1      40.059  28.209  29.883  1.00  0.00     0.049 A 
ATOM     35  N   UNL A   1      43.162  28.767  28.952  1.00  0.00    -0.248 NA
ATOM     36  C   UNL A   1      41.875  29.004  27.039  1.00  0.00     0.031 C 
ATOM     37  C   UNL A   1      38.766  27.651  30.276  1.00  0.00     0.029 A 
ATOM     38  N   UNL A   1      40.065  29.414  30.534  1.00  0.00    -0.354 N 
ATOM     39  C   UNL A   1      43.755  29.695  28.102  1.00  0.00     0.074 A 
ATOM     40  C   UNL A   1      43.060  29.587  26.849  1.00  0.00     0.031 C 
ATOM     41  C   UNL A   1      37.999  28.613  30.839  1.00  0.00     0.029 A 
ATOM     42  C   UNL A   1      38.829  29.784  31.067  1.00  0.00     0.049 A 
ATOM     43  H   UNL A   1      40.872  29.970  30.620  1.00  0.00     0.167 HD
ATOM     44  C   UNL A   1      44.506  30.708  28.618  1.00  0.00     0.037 A 
ATOM     45  C   UNL A   1      38.503  30.941  31.697  1.00  0.00     0.037 A 
ATOM     46  C   UNL A   1      44.796  30.459  30.010  1.00  0.00     0.049 A 
ATOM     47  C   UNL A   1      39.756  31.507  32.247  1.00  0.00     0.074 A 
ATOM     48  C   UNL A   1      45.636  29.648  30.739  1.00  0.00     0.029 A 
ATOM     49  N   UNL A   1      43.825  30.910  30.863  1.00  0.00    -0.354 N 
ATOM     50  N   UNL A   1      40.470  30.912  33.163  1.00  0.00    -0.248 NA
ATOM     51  C   UNL A   1      40.416  32.610  31.555  1.00  0.00     0.031 C 
ATOM     52  C   UNL A   1      45.064  29.539  32.043  1.00  0.00     0.029 A 
ATOM     53  C   UNL A   1      43.907  30.308  32.090  1.00  0.00     0.049 A 
ATOM     54  H   UNL A   1      43.150  31.586  30.623  1.00  0.00     0.167 HD
ATOM     55  C   UNL A   1      41.767  31.261  32.854  1.00  0.00     0.074 A 
ATOM     56  C   UNL A   1      41.663  32.432  31.994  1.00  0.00     0.031 C 
ATOM     57  C   UNL A   1      42.786  30.369  33.005  1.00  0.00     0.037 A 
BRANCH  44  58
ATOM     58  C   UNL A   1      44.571  32.127  28.071  1.00  0.00     0.058 A 
ATOM     59  C   UNL A   1      45.768  32.555  27.455  1.00  0.00     0.135 A 
ATOM     60  C   UNL A   1      43.653  33.158  28.374  1.00  0.00     0.135 A 
ATOM     61  F   UNL A   1      46.715  31.668  27.109  1.00  0.00    -0.206 F 
ATOM     62  C   UNL A   1      46.064  33.902  27.233  1.00  0.00     0.059 A 
ATOM     63  C   UNL A   1      43.907  34.501  28.116  1.00  0.00     0.059 A 
ATOM     64  F   UNL A   1      42.502  32.938  29.018  1.00  0.00    -0.206 F 
ATOM     65  C   UNL A   1      45.130  34.869  27.583  1.00  0.00     0.060 A 
BRANCH  65  66
ATOM     66  S   UNL A   1      45.537  36.612  27.381  1.00  0.00     0.124 S 
ATOM     67  O   UNL A   1      46.276  36.882  28.609  1.00  0.00    -0.237 OA
ATOM     68  O   UNL A   1      46.321  36.598  26.150  1.00  0.00    -0.237 OA
ATOM     69  O   UNL A   1      44.228  37.251  27.276  1.00  0.00    -0.744 OA
ENDBRANCH  65  66
ENDBRANCH  44  58
BRANCH  45  70
ATOM     70  C   UNL A   1      37.220  31.695  31.736  1.00  0.00     0.058 A 
ATOM     71  C   UNL A   1      36.612  32.038  32.959  1.00  0.00     0.135 A 
ATOM     72  C   UNL A   1      36.735  32.361  30.594  1.00  0.00     0.135 A 
ATOM     73  F   UNL A   1      37.011  31.454  34.099  1.00  0.00    -0.206 F 
ATOM     74  C   UNL A   1      35.637  33.036  33.057  1.00  0.00     0.059 A 
ATOM     75  C   UNL A   1      35.759  33.359  30.667  1.00  0.00     0.059 A 
ATOM     76  F   UNL A   1      37.268  32.124  29.386  1.00  0.00    -0.206 F 
ATOM     77  C   UNL A   1      35.237  33.714  31.907  1.00  0.00     0.060 A 
BRANCH  77  78
ATOM     78  S   UNL A   1      34.137  35.145  32.062  1.00  0.00     0.124 S 
ATOM     79  O   UNL A   1      33.996  35.569  30.673  1.00  0.00    -0.237 OA
ATOM     80  O   UNL A   1      32.949  34.558  32.672  1.00  0.00    -0.237 OA
ATOM     81  O   UNL A   1      34.889  36.057  32.921  1.00  0.00    -0.744 OA
ENDBRANCH  77  78
ENDBRANCH  45  70
BRANCH  57  82
ATOM     82  C   UNL A   1      42.663  29.325  34.073  1.00  0.00     0.058 A 
ATOM     83  C   UNL A   1      42.883  29.530  35.444  1.00  0.00     0.135 A 
ATOM     84  C   UNL A   1      42.225  28.052  33.674  1.00  0.00     0.135 A 
ATOM     85  F   UNL A   1      43.238  30.735  35.914  1.00  0.00    -0.206 F 
ATOM     86  C   UNL A   1      42.698  28.504  36.375  1.00  0.00     0.059 A 
ATOM     87  C   UNL A   1      42.007  27.025  34.586  1.00  0.00     0.059 A 
ATOM     88  F   UNL A   1      41.967  27.805  32.379  1.00  0.00    -0.206 F 
ATOM     89  C   UNL A   1      42.256  27.255  35.935  1.00  0.00     0.060 A 
BRANCH  89  90
ATOM     90  S   UNL A   1      41.944  25.950  37.143  1.00  0.00     0.124 S 
ATOM     91  O   UNL A   1      42.203  24.742  36.366  1.00  0.00    -0.237 OA
ATOM     92  O   UNL A   1      42.913  26.251  38.193  1.00  0.00    -0.237 OA
ATOM     93  O   UNL A   1      40.548  26.161  37.520  1.00  0.00    -0.744 OA
ENDBRANCH  89  90
ENDBRANCH  57  82
ENDBRANCH  31  32
ENDBRANCH  23  26
ENDBRANCH  21  22
ENDBRANCH  20  21
ENDBRANCH   1  20
TORSDOF 17
ENDMDL
