MODEL 1
REMARK VINA RESULT:     -10.9      0.000      0.000
REMARK SMILES O=C(NCCCCNC(=O)c1oc2cccc3c2c1CCC3)c1ccc(-c2c3nc(c(-c4c(F)cc(S(=O)(=O)[O-])cc4F)c4ccc([nH]4)c(-c4c(F)cc(S(=O)(=O)[O-])cc4F)c4nc(c(-c5c(F)cc(S(=O)(=O)[O-])cc5F)c5ccc2[nH]5)C=C4)C=C3)cc1
REMARK SMILES IDX 4 1 3 2 1 3 2 4 23 6 24 7 88 8 25 9 87 10 26 11 27 12 28 13
REMARK SMILES IDX 81 14 29 15 86 16 80 17 82 18 30 19 85 20 79 21 78 22 31 24
REMARK SMILES IDX 65 25 44 26 64 27 45 28 48 29 63 30 83 31 46 32 47 33 62 35
REMARK SMILES IDX 84 36 49 37 32 38 33 39 42 40 34 41 35 42 41 43 43 44 36 45
REMARK SMILES IDX 37 46 38 47 39 48 40 49 66 50 67 51 76 52 68 53 69 54 75 55
REMARK SMILES IDX 77 56 70 57 71 58 72 59 73 60 74 61 50 62 51 63 60 64 52 65
REMARK SMILES IDX 53 66 59 67 61 68 54 69 55 70 56 71 57 72 58 73 5 74 6 75
REMARK SMILES IDX 7 76 8 77 9 78 10 80 11 81 12 82 19 83 13 84 18 85 20 86
REMARK SMILES IDX 14 87 17 88 21 89 15 90 16 91 22 92
REMARK H PARENT 3 5 82 23 48 34 8 79
REMARK Flexibility Score: inf
ROOT
ATOM      1  C   UNL A   1      41.347  20.830  27.002  1.00  0.00     0.116 C 
ENDROOT
BRANCH   1   2
ATOM      2  N   UNL A   1      40.029  21.180  26.501  1.00  0.00    -0.352 N 
ATOM      3  O   UNL A   1      38.257  22.366  25.835  1.00  0.00    -0.269 OA
ATOM      4  C   UNL A   1      39.355  22.372  26.394  1.00  0.00     0.251 C 
ATOM      5  H   UNL A   1      39.515  20.407  26.171  1.00  0.00     0.163 HD
BRANCH   4   6
ATOM      6  C   UNL A   1      39.855  23.630  26.996  1.00  0.00     0.039 A 
ATOM      7  C   UNL A   1      40.977  23.692  27.821  1.00  0.00     0.014 A 
ATOM      8  C   UNL A   1      39.144  24.807  26.715  1.00  0.00     0.014 A 
ATOM      9  C   UNL A   1      41.285  24.870  28.487  1.00  0.00     0.010 A 
ATOM     10  C   UNL A   1      39.489  26.006  27.334  1.00  0.00     0.010 A 
ATOM     11  C   UNL A   1      40.529  26.025  28.264  1.00  0.00    -0.014 A 
BRANCH  11  12
ATOM     12  C   UNL A   1      40.959  27.237  28.964  1.00  0.00     0.031 A 
ATOM     13  C   UNL A   1      42.185  27.904  28.432  1.00  0.00     0.074 A 
ATOM     14  C   UNL A   1      40.265  27.839  29.949  1.00  0.00     0.049 A 
ATOM     15  N   UNL A   1      43.296  28.178  29.042  1.00  0.00    -0.248 NA
ATOM     16  C   UNL A   1      42.176  28.266  27.006  1.00  0.00     0.031 C 
ATOM     17  C   UNL A   1      38.901  27.556  30.395  1.00  0.00     0.029 A 
ATOM     18  N   UNL A   1      40.622  28.926  30.693  1.00  0.00    -0.354 N 
ATOM     19  C   UNL A   1      44.063  28.901  28.129  1.00  0.00     0.074 A 
ATOM     20  C   UNL A   1      43.369  28.842  26.867  1.00  0.00     0.031 C 
ATOM     21  C   UNL A   1      38.471  28.579  31.167  1.00  0.00     0.029 A 
ATOM     22  C   UNL A   1      39.567  29.515  31.369  1.00  0.00     0.049 A 
ATOM     23  H   UNL A   1      41.546  29.263  30.745  1.00  0.00     0.167 HD
ATOM     24  C   UNL A   1      45.145  29.648  28.480  1.00  0.00     0.037 A 
ATOM     25  C   UNL A   1      39.570  30.728  31.970  1.00  0.00     0.037 A 
ATOM     26  C   UNL A   1      45.662  29.323  29.776  1.00  0.00     0.049 A 
ATOM     27  C   UNL A   1      40.978  31.110  32.239  1.00  0.00     0.074 A 
ATOM     28  C   UNL A   1      46.209  28.195  30.356  1.00  0.00     0.029 A 
ATOM     29  N   UNL A   1      45.405  30.184  30.814  1.00  0.00    -0.354 N 
ATOM     30  N   UNL A   1      41.762  30.521  33.099  1.00  0.00    -0.248 NA
ATOM     31  C   UNL A   1      41.648  31.997  31.298  1.00  0.00     0.031 C 
ATOM     32  C   UNL A   1      45.834  28.255  31.730  1.00  0.00     0.029 A 
ATOM     33  C   UNL A   1      45.075  29.413  31.901  1.00  0.00     0.049 A 
ATOM     34  H   UNL A   1      45.451  31.167  30.783  1.00  0.00     0.167 HD
ATOM     35  C   UNL A   1      43.039  30.654  32.575  1.00  0.00     0.074 A 
ATOM     36  C   UNL A   1      42.920  31.678  31.547  1.00  0.00     0.031 C 
ATOM     37  C   UNL A   1      44.013  29.734  32.832  1.00  0.00     0.037 A 
BRANCH  24  38
ATOM     38  C   UNL A   1      45.566  30.876  27.722  1.00  0.00     0.058 A 
ATOM     39  C   UNL A   1      46.904  31.062  27.330  1.00  0.00     0.135 A 
ATOM     40  C   UNL A   1      44.715  31.994  27.575  1.00  0.00     0.135 A 
ATOM     41  F   UNL A   1      47.800  30.073  27.472  1.00  0.00    -0.206 F 
ATOM     42  C   UNL A   1      47.366  32.282  26.829  1.00  0.00     0.059 A 
ATOM     43  C   UNL A   1      45.142  33.201  27.035  1.00  0.00     0.059 A 
ATOM     44  F   UNL A   1      43.452  31.972  28.026  1.00  0.00    -0.206 F 
ATOM     45  C   UNL A   1      46.478  33.346  26.694  1.00  0.00     0.060 A 
BRANCH  45  46
ATOM     46  S   UNL A   1      47.085  34.943  26.117  1.00  0.00     0.124 S 
ATOM     47  O   UNL A   1      45.841  35.616  25.763  1.00  0.00    -0.237 OA
ATOM     48  O   UNL A   1      47.776  35.456  27.296  1.00  0.00    -0.237 OA
ATOM     49  O   UNL A   1      47.954  34.586  24.998  1.00  0.00    -0.744 OA
ENDBRANCH  45  46
ENDBRANCH  24  38
BRANCH  25  50
ATOM     50  C   UNL A   1      38.452  31.705  32.035  1.00  0.00     0.058 A 
ATOM     51  C   UNL A   1      38.007  32.374  30.883  1.00  0.00     0.135 A 
ATOM     52  C   UNL A   1      37.623  31.803  33.171  1.00  0.00     0.135 A 
ATOM     53  F   UNL A   1      38.717  32.311  29.747  1.00  0.00    -0.206 F 
ATOM     54  C   UNL A   1      36.790  33.062  30.845  1.00  0.00     0.059 A 
ATOM     55  C   UNL A   1      36.416  32.498  33.164  1.00  0.00     0.059 A 
ATOM     56  F   UNL A   1      37.911  31.142  34.303  1.00  0.00    -0.206 F 
ATOM     57  C   UNL A   1      35.993  33.101  31.989  1.00  0.00     0.060 A 
BRANCH  57  58
ATOM     58  S   UNL A   1      34.345  33.837  31.897  1.00  0.00     0.124 S 
ATOM     59  O   UNL A   1      34.605  35.212  32.308  1.00  0.00    -0.237 OA
ATOM     60  O   UNL A   1      34.004  33.644  30.491  1.00  0.00    -0.237 OA
ATOM     61  O   UNL A   1      33.564  33.041  32.840  1.00  0.00    -0.744 OA
ENDBRANCH  57  58
ENDBRANCH  25  50
BRANCH  37  62
ATOM     62  C   UNL A   1      43.809  28.784  33.982  1.00  0.00     0.058 A 
ATOM     63  C   UNL A   1      44.129  29.094  35.314  1.00  0.00     0.135 A 
ATOM     64  C   UNL A   1      43.124  27.581  33.749  1.00  0.00     0.135 A 
ATOM     65  F   UNL A   1      44.687  30.270  35.632  1.00  0.00    -0.206 F 
ATOM     66  C   UNL A   1      43.817  28.229  36.364  1.00  0.00     0.059 A 
ATOM     67  C   UNL A   1      42.774  26.717  34.786  1.00  0.00     0.059 A 
ATOM     68  F   UNL A   1      42.734  27.259  32.504  1.00  0.00    -0.206 F 
ATOM     69  C   UNL A   1      43.134  27.044  36.091  1.00  0.00     0.060 A 
BRANCH  69  70
ATOM     70  S   UNL A   1      42.634  25.987  37.468  1.00  0.00     0.124 S 
ATOM     71  O   UNL A   1      42.784  24.652  36.900  1.00  0.00    -0.237 OA
ATOM     72  O   UNL A   1      43.594  26.345  38.509  1.00  0.00    -0.237 OA
ATOM     73  O   UNL A   1      41.259  26.402  37.735  1.00  0.00    -0.744 OA
ENDBRANCH  69  70
ENDBRANCH  37  62
ENDBRANCH  11  12
ENDBRANCH   4   6
ENDBRANCH   1   2
BRANCH   1  74
ATOM     74  C   UNL A   1      42.471  20.785  25.964  1.00  0.00     0.023 C 
BRANCH  74  75
ATOM     75  C   UNL A   1      43.640  21.736  26.213  1.00  0.00     0.023 C 
BRANCH  75  76
ATOM     76  C   UNL A   1      43.990  22.658  25.053  1.00  0.00     0.116 C 
BRANCH  76  77
ATOM     77  N   UNL A   1      43.018  23.709  24.823  1.00  0.00    -0.349 N 
ATOM     78  C   UNL A   1      43.083  25.027  25.248  1.00  0.00     0.287 C 
ATOM     79  H   UNL A   1      42.221  23.458  24.304  1.00  0.00     0.163 HD
ATOM     80  O   UNL A   1      42.157  25.771  24.993  1.00  0.00    -0.266 OA
BRANCH  78  81
ATOM     81  C   UNL A   1      44.262  25.422  25.993  1.00  0.00     0.195 A 
ATOM     82  O   UNL A   1      44.459  24.835  27.230  1.00  0.00    -0.451 OA
ATOM     83  C   UNL A   1      45.324  26.259  25.703  1.00  0.00     0.012 A 
ATOM     84  C   UNL A   1      45.689  25.227  27.674  1.00  0.00     0.135 A 
ATOM     85  C   UNL A   1      46.234  26.092  26.760  1.00  0.00     0.028 A 
ATOM     86  C   UNL A   1      45.692  27.156  24.572  1.00  0.00     0.041 C 
ATOM     87  C   UNL A   1      46.357  24.841  28.826  1.00  0.00     0.048 A 
ATOM     88  C   UNL A   1      47.503  26.650  26.908  1.00  0.00    -0.037 A 
ATOM     89  C   UNL A   1      46.798  28.164  25.011  1.00  0.00     0.010 C 
ATOM     90  C   UNL A   1      47.652  25.376  28.982  1.00  0.00     0.004 A 
ATOM     91  C   UNL A   1      48.222  26.256  28.040  1.00  0.00     0.004 A 
ATOM     92  C   UNL A   1      47.992  27.525  25.787  1.00  0.00     0.036 C 
ENDBRANCH  78  81
ENDBRANCH  76  77
ENDBRANCH  75  76
ENDBRANCH  74  75
ENDBRANCH   1  74
TORSDOF 14
ENDMDL
MODEL 2
REMARK VINA RESULT:     -10.8      2.951     11.148
REMARK SMILES O=C(NCCCCNC(=O)c1oc2cccc3c2c1CCC3)c1ccc(-c2c3nc(c(-c4c(F)cc(S(=O)(=O)[O-])cc4F)c4ccc([nH]4)c(-c4c(F)cc(S(=O)(=O)[O-])cc4F)c4nc(c(-c5c(F)cc(S(=O)(=O)[O-])cc5F)c5ccc2[nH]5)C=C4)C=C3)cc1
REMARK SMILES IDX 4 1 3 2 1 3 2 4 23 6 24 7 88 8 25 9 87 10 26 11 27 12 28 13
REMARK SMILES IDX 81 14 29 15 86 16 80 17 82 18 30 19 85 20 79 21 78 22 31 24
REMARK SMILES IDX 65 25 44 26 64 27 45 28 48 29 63 30 83 31 46 32 47 33 62 35
REMARK SMILES IDX 84 36 49 37 32 38 33 39 42 40 34 41 35 42 41 43 43 44 36 45
REMARK SMILES IDX 37 46 38 47 39 48 40 49 66 50 67 51 76 52 68 53 69 54 75 55
REMARK SMILES IDX 77 56 70 57 71 58 72 59 73 60 74 61 50 62 51 63 60 64 52 65
REMARK SMILES IDX 53 66 59 67 61 68 54 69 55 70 56 71 57 72 58 73 5 74 6 75
REMARK SMILES IDX 7 76 8 77 9 78 10 80 11 81 12 82 19 83 13 84 18 85 20 86
REMARK SMILES IDX 14 87 17 88 21 89 15 90 16 91 22 92
REMARK H PARENT 3 5 82 23 48 34 8 79
REMARK Flexibility Score: inf
ROOT
ATOM      1  C   UNL A   1      35.115  34.101  28.391  1.00  0.00     0.116 C 
ENDROOT
BRANCH   1   2
ATOM      2  N   UNL A   1      34.334  32.932  28.023  1.00  0.00    -0.352 N 
ATOM      3  O   UNL A   1      33.677  30.813  27.768  1.00  0.00    -0.269 OA
ATOM      4  C   UNL A   1      34.587  31.583  28.078  1.00  0.00     0.251 C 
ATOM      5  H   UNL A   1      33.445  33.151  27.662  1.00  0.00     0.163 HD
BRANCH   4   6
ATOM      6  C   UNL A   1      35.922  31.033  28.408  1.00  0.00     0.039 A 
ATOM      7  C   UNL A   1      36.999  31.822  28.808  1.00  0.00     0.014 A 
ATOM      8  C   UNL A   1      36.091  29.644  28.298  1.00  0.00     0.014 A 
ATOM      9  C   UNL A   1      38.262  31.261  28.933  1.00  0.00     0.010 A 
ATOM     10  C   UNL A   1      37.347  29.068  28.485  1.00  0.00     0.010 A 
ATOM     11  C   UNL A   1      38.446  29.887  28.750  1.00  0.00    -0.014 A 
BRANCH  11  12
ATOM     12  C   UNL A   1      39.800  29.370  28.957  1.00  0.00     0.031 A 
ATOM     13  C   UNL A   1      40.272  29.311  30.373  1.00  0.00     0.074 A 
ATOM     14  C   UNL A   1      40.575  28.844  27.989  1.00  0.00     0.049 A 
ATOM     15  N   UNL A   1      41.313  29.865  30.911  1.00  0.00    -0.248 NA
ATOM     16  C   UNL A   1      39.427  28.567  31.321  1.00  0.00     0.031 C 
ATOM     17  C   UNL A   1      40.198  28.500  26.618  1.00  0.00     0.029 A 
ATOM     18  N   UNL A   1      41.863  28.403  28.083  1.00  0.00    -0.354 N 
ATOM     19  C   UNL A   1      41.354  29.402  32.225  1.00  0.00     0.074 A 
ATOM     20  C   UNL A   1      40.122  28.688  32.452  1.00  0.00     0.031 C 
ATOM     21  C   UNL A   1      41.156  27.709  26.086  1.00  0.00     0.029 A 
ATOM     22  C   UNL A   1      42.260  27.601  27.027  1.00  0.00     0.049 A 
ATOM     23  H   UNL A   1      42.457  28.633  28.835  1.00  0.00     0.167 HD
ATOM     24  C   UNL A   1      42.457  29.483  33.018  1.00  0.00     0.037 A 
ATOM     25  C   UNL A   1      43.372  26.831  26.972  1.00  0.00     0.037 A 
ATOM     26  C   UNL A   1      43.430  30.421  32.541  1.00  0.00     0.049 A 
ATOM     27  C   UNL A   1      44.344  27.346  27.969  1.00  0.00     0.074 A 
ATOM     28  C   UNL A   1      43.448  31.783  32.317  1.00  0.00     0.029 A 
ATOM     29  N   UNL A   1      44.562  29.932  31.937  1.00  0.00    -0.354 N 
ATOM     30  N   UNL A   1      44.960  28.493  27.890  1.00  0.00    -0.248 NA
ATOM     31  C   UNL A   1      44.416  26.693  29.269  1.00  0.00     0.031 C 
ATOM     32  C   UNL A   1      44.334  31.976  31.218  1.00  0.00     0.029 A 
ATOM     33  C   UNL A   1      44.796  30.716  30.835  1.00  0.00     0.049 A 
ATOM     34  H   UNL A   1      45.102  29.167  32.239  1.00  0.00     0.167 HD
ATOM     35  C   UNL A   1      45.161  28.886  29.205  1.00  0.00     0.074 A 
ATOM     36  C   UNL A   1      44.930  27.686  29.996  1.00  0.00     0.031 C 
ATOM     37  C   UNL A   1      45.229  30.204  29.551  1.00  0.00     0.037 A 
BRANCH  24  38
ATOM     38  C   UNL A   1      42.752  28.488  34.106  1.00  0.00     0.058 A 
ATOM     39  C   UNL A   1      42.787  28.881  35.457  1.00  0.00     0.135 A 
ATOM     40  C   UNL A   1      43.234  27.191  33.824  1.00  0.00     0.135 A 
ATOM     41  F   UNL A   1      42.392  30.111  35.820  1.00  0.00    -0.206 F 
ATOM     42  C   UNL A   1      43.276  28.040  36.460  1.00  0.00     0.059 A 
ATOM     43  C   UNL A   1      43.680  26.320  34.811  1.00  0.00     0.059 A 
ATOM     44  F   UNL A   1      43.361  26.755  32.562  1.00  0.00    -0.206 F 
ATOM     45  C   UNL A   1      43.726  26.765  36.124  1.00  0.00     0.060 A 
BRANCH  45  46
ATOM     46  S   UNL A   1      44.424  25.703  37.403  1.00  0.00     0.124 S 
ATOM     47  O   UNL A   1      45.830  26.088  37.364  1.00  0.00    -0.237 OA
ATOM     48  O   UNL A   1      43.681  26.119  38.589  1.00  0.00    -0.237 OA
ATOM     49  O   UNL A   1      44.120  24.358  36.924  1.00  0.00    -0.744 OA
ENDBRANCH  45  46
ENDBRANCH  24  38
BRANCH  25  50
ATOM     50  C   UNL A   1      43.514  25.495  26.337  1.00  0.00     0.058 A 
ATOM     51  C   UNL A   1      44.437  25.281  25.299  1.00  0.00     0.135 A 
ATOM     52  C   UNL A   1      42.944  24.340  26.912  1.00  0.00     0.135 A 
ATOM     53  F   UNL A   1      45.051  26.320  24.715  1.00  0.00    -0.206 F 
ATOM     54  C   UNL A   1      44.806  23.997  24.886  1.00  0.00     0.059 A 
ATOM     55  C   UNL A   1      43.282  23.052  26.504  1.00  0.00     0.059 A 
ATOM     56  F   UNL A   1      42.110  24.423  27.958  1.00  0.00    -0.206 F 
ATOM     57  C   UNL A   1      44.235  22.888  25.510  1.00  0.00     0.060 A 
BRANCH  57  58
ATOM     58  S   UNL A   1      44.836  21.234  25.102  1.00  0.00     0.124 S 
ATOM     59  O   UNL A   1      43.804  20.385  25.689  1.00  0.00    -0.237 OA
ATOM     60  O   UNL A   1      44.876  21.275  23.644  1.00  0.00    -0.237 OA
ATOM     61  O   UNL A   1      46.139  21.174  25.757  1.00  0.00    -0.744 OA
ENDBRANCH  57  58
ENDBRANCH  25  50
BRANCH  37  62
ATOM     62  C   UNL A   1      45.461  31.216  28.460  1.00  0.00     0.058 A 
ATOM     63  C   UNL A   1      44.447  31.690  27.610  1.00  0.00     0.135 A 
ATOM     64  C   UNL A   1      46.715  31.839  28.374  1.00  0.00     0.135 A 
ATOM     65  F   UNL A   1      43.195  31.221  27.704  1.00  0.00    -0.206 F 
ATOM     66  C   UNL A   1      44.680  32.711  26.690  1.00  0.00     0.059 A 
ATOM     67  C   UNL A   1      46.962  32.883  27.484  1.00  0.00     0.059 A 
ATOM     68  F   UNL A   1      47.707  31.474  29.204  1.00  0.00    -0.206 F 
ATOM     69  C   UNL A   1      45.940  33.307  26.636  1.00  0.00     0.060 A 
BRANCH  69  70
ATOM     70  S   UNL A   1      46.200  34.704  25.522  1.00  0.00     0.124 S 
ATOM     71  O   UNL A   1      45.811  35.838  26.354  1.00  0.00    -0.237 OA
ATOM     72  O   UNL A   1      47.624  34.604  25.213  1.00  0.00    -0.237 OA
ATOM     73  O   UNL A   1      45.309  34.417  24.401  1.00  0.00    -0.744 OA
ENDBRANCH  69  70
ENDBRANCH  37  62
ENDBRANCH  11  12
ENDBRANCH   4   6
ENDBRANCH   1   2
BRANCH   1  74
ATOM     74  C   UNL A   1      34.431  35.456  28.193  1.00  0.00     0.023 C 
BRANCH  74  75
ATOM     75  C   UNL A   1      33.626  35.971  29.385  1.00  0.00     0.023 C 
BRANCH  75  76
ATOM     76  C   UNL A   1      33.666  35.091  30.627  1.00  0.00     0.116 C 
BRANCH  76  77
ATOM     77  N   UNL A   1      33.642  35.830  31.874  1.00  0.00    -0.349 N 
ATOM     78  C   UNL A   1      34.566  35.778  32.906  1.00  0.00     0.287 C 
ATOM     79  H   UNL A   1      32.880  36.441  32.003  1.00  0.00     0.163 HD
ATOM     80  O   UNL A   1      34.371  36.446  33.901  1.00  0.00    -0.266 OA
BRANCH  78  81
ATOM     81  C   UNL A   1      35.707  34.903  32.724  1.00  0.00     0.195 A 
ATOM     82  O   UNL A   1      36.962  35.486  32.727  1.00  0.00    -0.451 OA
ATOM     83  C   UNL A   1      35.833  33.532  32.597  1.00  0.00     0.012 A 
ATOM     84  C   UNL A   1      37.878  34.474  32.699  1.00  0.00     0.135 A 
ATOM     85  C   UNL A   1      37.215  33.277  32.622  1.00  0.00     0.028 A 
ATOM     86  C   UNL A   1      34.891  32.380  32.521  1.00  0.00     0.041 C 
ATOM     87  C   UNL A   1      39.262  34.558  32.764  1.00  0.00     0.048 A 
ATOM     88  C   UNL A   1      37.870  32.047  32.609  1.00  0.00    -0.037 A 
ATOM     89  C   UNL A   1      35.612  31.121  31.951  1.00  0.00     0.010 C 
ATOM     90  C   UNL A   1      39.941  33.323  32.775  1.00  0.00     0.004 A 
ATOM     91  C   UNL A   1      39.264  32.089  32.708  1.00  0.00     0.004 A 
ATOM     92  C   UNL A   1      37.003  30.819  32.593  1.00  0.00     0.036 C 
ENDBRANCH  78  81
ENDBRANCH  76  77
ENDBRANCH  75  76
ENDBRANCH  74  75
ENDBRANCH   1  74
TORSDOF 14
ENDMDL
MODEL 3
REMARK VINA RESULT:     -10.8      3.796     10.578
REMARK SMILES O=C(NCCCCNC(=O)c1oc2cccc3c2c1CCC3)c1ccc(-c2c3nc(c(-c4c(F)cc(S(=O)(=O)[O-])cc4F)c4ccc([nH]4)c(-c4c(F)cc(S(=O)(=O)[O-])cc4F)c4nc(c(-c5c(F)cc(S(=O)(=O)[O-])cc5F)c5ccc2[nH]5)C=C4)C=C3)cc1
REMARK SMILES IDX 4 1 3 2 1 3 2 4 23 6 24 7 88 8 25 9 87 10 26 11 27 12 28 13
REMARK SMILES IDX 81 14 29 15 86 16 80 17 82 18 30 19 85 20 79 21 78 22 31 24
REMARK SMILES IDX 65 25 44 26 64 27 45 28 48 29 63 30 83 31 46 32 47 33 62 35
REMARK SMILES IDX 84 36 49 37 32 38 33 39 42 40 34 41 35 42 41 43 43 44 36 45
REMARK SMILES IDX 37 46 38 47 39 48 40 49 66 50 67 51 76 52 68 53 69 54 75 55
REMARK SMILES IDX 77 56 70 57 71 58 72 59 73 60 74 61 50 62 51 63 60 64 52 65
REMARK SMILES IDX 53 66 59 67 61 68 54 69 55 70 56 71 57 72 58 73 5 74 6 75
REMARK SMILES IDX 7 76 8 77 9 78 10 80 11 81 12 82 19 83 13 84 18 85 20 86
REMARK SMILES IDX 14 87 17 88 21 89 15 90 16 91 22 92
REMARK H PARENT 3 5 82 23 48 34 8 79
REMARK Flexibility Score: inf
ROOT
ATOM      1  C   UNL A   1      33.602  29.866  26.470  1.00  0.00     0.116 C 
ENDROOT
BRANCH   1   2
ATOM      2  N   UNL A   1      33.530  30.844  27.542  1.00  0.00    -0.352 N 
ATOM      3  O   UNL A   1      34.117  32.276  29.152  1.00  0.00    -0.269 OA
ATOM      4  C   UNL A   1      34.473  31.382  28.383  1.00  0.00     0.251 C 
ATOM      5  H   UNL A   1      32.621  31.191  27.698  1.00  0.00     0.163 HD
BRANCH   4   6
ATOM      6  C   UNL A   1      35.862  30.873  28.456  1.00  0.00     0.039 A 
ATOM      7  C   UNL A   1      36.195  29.528  28.299  1.00  0.00     0.014 A 
ATOM      8  C   UNL A   1      36.879  31.808  28.704  1.00  0.00     0.014 A 
ATOM      9  C   UNL A   1      37.491  29.101  28.551  1.00  0.00     0.010 A 
ATOM     10  C   UNL A   1      38.193  31.388  28.896  1.00  0.00     0.010 A 
ATOM     11  C   UNL A   1      38.490  30.024  28.873  1.00  0.00    -0.014 A 
BRANCH  11  12
ATOM     12  C   UNL A   1      39.840  29.493  29.067  1.00  0.00     0.031 A 
ATOM     13  C   UNL A   1      40.326  29.428  30.478  1.00  0.00     0.074 A 
ATOM     14  C   UNL A   1      40.600  28.958  28.091  1.00  0.00     0.049 A 
ATOM     15  N   UNL A   1      41.378  29.970  31.005  1.00  0.00    -0.248 NA
ATOM     16  C   UNL A   1      39.482  28.693  31.434  1.00  0.00     0.031 C 
ATOM     17  C   UNL A   1      40.205  28.619  26.724  1.00  0.00     0.029 A 
ATOM     18  N   UNL A   1      41.884  28.504  28.172  1.00  0.00    -0.354 N 
ATOM     19  C   UNL A   1      41.427  29.507  32.319  1.00  0.00     0.074 A 
ATOM     20  C   UNL A   1      40.190  28.806  32.558  1.00  0.00     0.031 C 
ATOM     21  C   UNL A   1      41.149  27.819  26.181  1.00  0.00     0.029 A 
ATOM     22  C   UNL A   1      42.262  27.698  27.112  1.00  0.00     0.049 A 
ATOM     23  H   UNL A   1      42.488  28.727  28.917  1.00  0.00     0.167 HD
ATOM     24  C   UNL A   1      42.539  29.576  33.101  1.00  0.00     0.037 A 
ATOM     25  C   UNL A   1      43.365  26.916  27.046  1.00  0.00     0.037 A 
ATOM     26  C   UNL A   1      43.517  30.503  32.614  1.00  0.00     0.049 A 
ATOM     27  C   UNL A   1      44.352  27.420  28.033  1.00  0.00     0.074 A 
ATOM     28  C   UNL A   1      43.547  31.865  32.390  1.00  0.00     0.029 A 
ATOM     29  N   UNL A   1      44.638  30.002  31.999  1.00  0.00    -0.354 N 
ATOM     30  N   UNL A   1      44.979  28.561  27.948  1.00  0.00    -0.248 NA
ATOM     31  C   UNL A   1      44.430  26.766  29.332  1.00  0.00     0.031 C 
ATOM     32  C   UNL A   1      44.425  32.048  31.282  1.00  0.00     0.029 A 
ATOM     33  C   UNL A   1      44.869  30.784  30.894  1.00  0.00     0.049 A 
ATOM     34  H   UNL A   1      45.172  29.231  32.295  1.00  0.00     0.167 HD
ATOM     35  C   UNL A   1      45.197  28.951  29.260  1.00  0.00     0.074 A 
ATOM     36  C   UNL A   1      44.962  27.753  30.054  1.00  0.00     0.031 C 
ATOM     37  C   UNL A   1      45.284  30.268  29.606  1.00  0.00     0.037 A 
BRANCH  24  38
ATOM     38  C   UNL A   1      42.834  28.577  34.185  1.00  0.00     0.058 A 
ATOM     39  C   UNL A   1      42.932  28.977  35.531  1.00  0.00     0.135 A 
ATOM     40  C   UNL A   1      43.256  27.260  33.897  1.00  0.00     0.135 A 
ATOM     41  F   UNL A   1      42.597  30.223  35.898  1.00  0.00    -0.206 F 
ATOM     42  C   UNL A   1      43.423  28.124  36.523  1.00  0.00     0.059 A 
ATOM     43  C   UNL A   1      43.703  26.380  34.874  1.00  0.00     0.059 A 
ATOM     44  F   UNL A   1      43.322  26.812  32.635  1.00  0.00    -0.206 F 
ATOM     45  C   UNL A   1      43.813  26.831  36.181  1.00  0.00     0.060 A 
BRANCH  45  46
ATOM     46  S   UNL A   1      44.515  25.751  37.444  1.00  0.00     0.124 S 
ATOM     47  O   UNL A   1      45.921  26.132  37.402  1.00  0.00    -0.237 OA
ATOM     48  O   UNL A   1      43.779  26.154  38.639  1.00  0.00    -0.237 OA
ATOM     49  O   UNL A   1      44.204  24.413  36.949  1.00  0.00    -0.744 OA
ENDBRANCH  45  46
ENDBRANCH  24  38
BRANCH  25  50
ATOM     50  C   UNL A   1      43.486  25.579  26.409  1.00  0.00     0.058 A 
ATOM     51  C   UNL A   1      44.416  25.347  25.381  1.00  0.00     0.135 A 
ATOM     52  C   UNL A   1      42.884  24.435  26.973  1.00  0.00     0.135 A 
ATOM     53  F   UNL A   1      45.059  26.375  24.807  1.00  0.00    -0.206 F 
ATOM     54  C   UNL A   1      44.763  24.057  24.969  1.00  0.00     0.059 A 
ATOM     55  C   UNL A   1      43.199  23.141  26.566  1.00  0.00     0.059 A 
ATOM     56  F   UNL A   1      42.039  24.533  28.010  1.00  0.00    -0.206 F 
ATOM     57  C   UNL A   1      44.161  22.959  25.583  1.00  0.00     0.060 A 
BRANCH  57  58
ATOM     58  S   UNL A   1      44.731  21.293  25.178  1.00  0.00     0.124 S 
ATOM     59  O   UNL A   1      44.614  21.280  23.724  1.00  0.00    -0.237 OA
ATOM     60  O   UNL A   1      46.090  21.299  25.709  1.00  0.00    -0.237 OA
ATOM     61  O   UNL A   1      43.791  20.430  25.887  1.00  0.00    -0.744 OA
ENDBRANCH  57  58
ENDBRANCH  25  50
BRANCH  37  62
ATOM     62  C   UNL A   1      45.515  31.277  28.513  1.00  0.00     0.058 A 
ATOM     63  C   UNL A   1      44.493  31.788  27.696  1.00  0.00     0.135 A 
ATOM     64  C   UNL A   1      46.786  31.861  28.392  1.00  0.00     0.135 A 
ATOM     65  F   UNL A   1      43.229  31.359  27.825  1.00  0.00    -0.206 F 
ATOM     66  C   UNL A   1      44.731  32.807  26.773  1.00  0.00     0.059 A 
ATOM     67  C   UNL A   1      47.039  32.901  27.500  1.00  0.00     0.059 A 
ATOM     68  F   UNL A   1      47.789  31.460  29.191  1.00  0.00    -0.206 F 
ATOM     69  C   UNL A   1      46.008  33.362  26.685  1.00  0.00     0.060 A 
BRANCH  69  70
ATOM     70  S   UNL A   1      46.279  34.756  25.570  1.00  0.00     0.124 S 
ATOM     71  O   UNL A   1      45.939  35.896  26.414  1.00  0.00    -0.237 OA
ATOM     72  O   UNL A   1      47.693  34.620  25.228  1.00  0.00    -0.237 OA
ATOM     73  O   UNL A   1      45.355  34.497  24.468  1.00  0.00    -0.744 OA
ENDBRANCH  69  70
ENDBRANCH  37  62
ENDBRANCH  11  12
ENDBRANCH   4   6
ENDBRANCH   1   2
BRANCH   1  74
ATOM     74  C   UNL A   1      32.897  28.532  26.729  1.00  0.00     0.023 C 
BRANCH  74  75
ATOM     75  C   UNL A   1      33.619  27.290  26.209  1.00  0.00     0.023 C 
BRANCH  75  76
ATOM     76  C   UNL A   1      32.804  26.405  25.276  1.00  0.00     0.116 C 
BRANCH  76  77
ATOM     77  N   UNL A   1      33.152  26.546  23.876  1.00  0.00    -0.349 N 
ATOM     78  C   UNL A   1      33.589  25.556  23.009  1.00  0.00     0.287 C 
ATOM     79  H   UNL A   1      33.069  27.451  23.496  1.00  0.00     0.163 HD
ATOM     80  O   UNL A   1      33.870  25.860  21.868  1.00  0.00    -0.266 OA
BRANCH  78  81
ATOM     81  C   UNL A   1      33.694  24.213  23.543  1.00  0.00     0.195 A 
ATOM     82  O   UNL A   1      32.620  23.364  23.344  1.00  0.00    -0.451 OA
ATOM     83  C   UNL A   1      34.707  23.535  24.195  1.00  0.00     0.012 A 
ATOM     84  C   UNL A   1      32.995  22.127  23.784  1.00  0.00     0.135 A 
ATOM     85  C   UNL A   1      34.261  22.206  24.304  1.00  0.00     0.028 A 
ATOM     86  C   UNL A   1      36.069  23.878  24.691  1.00  0.00     0.041 C 
ATOM     87  C   UNL A   1      32.287  20.936  23.724  1.00  0.00     0.048 A 
ATOM     88  C   UNL A   1      34.943  21.101  24.809  1.00  0.00    -0.037 A 
ATOM     89  C   UNL A   1      36.560  22.817  25.722  1.00  0.00     0.010 C 
ATOM     90  C   UNL A   1      32.969  19.802  24.210  1.00  0.00     0.004 A 
ATOM     91  C   UNL A   1      34.275  19.876  24.734  1.00  0.00     0.004 A 
ATOM     92  C   UNL A   1      36.353  21.334  25.280  1.00  0.00     0.036 C 
ENDBRANCH  78  81
ENDBRANCH  76  77
ENDBRANCH  75  76
ENDBRANCH  74  75
ENDBRANCH   1  74
TORSDOF 14
ENDMDL
