MODEL 1
REMARK VINA RESULT:     -13.9      0.000      0.000
REMARK SMILES Cc1ccc(S(=O)(=O)N2CCCC2)cc1C(=O)N[C@H](CC1=c2ccccc2=NC1)C(=O)NCCCCNC(=O)c1ccc(-c2c3nc(c(-c4c(F)cc(S(=O)(=O)[O-])cc4F)c4ccc([nH]4)c(-c4c(F)cc(S(=O)(=O)[O-])cc4F)c4nc(c(-c5c(F)cc(S(=O)(=O)[O-])cc5F)c5ccc2[nH]5)C=C4)C=C3)cc1
REMARK SMILES IDX 34 1 33 2 32 3 30 4 31 5 19 7 18 8 16 9 17 10 15 12 1 13
REMARK SMILES IDX 2 14 3 15 4 16 14 17 5 18 6 19 7 20 8 21 9 22 10 23 13 24
REMARK SMILES IDX 11 25 12 26 20 27 21 28 22 29 29 30 23 31 27 32 28 33 24 34
REMARK SMILES IDX 26 35 25 36 35 37 36 38 37 39 38 40 39 42 40 43 41 44 105 45
REMARK SMILES IDX 42 46 104 47 43 48 44 49 45 50 98 51 46 52 103 53 97 54
REMARK SMILES IDX 99 55 47 56 102 57 96 58 95 59 48 61 82 62 61 63 81 64 62 65
REMARK SMILES IDX 65 66 80 67 100 68 63 69 64 70 79 72 101 73 66 74 49 75
REMARK SMILES IDX 50 76 59 77 51 78 52 79 58 80 60 81 53 82 54 83 55 84 56 85
REMARK SMILES IDX 57 86 83 87 84 88 93 89 85 90 86 91 92 92 94 93 87 94 88 95
REMARK SMILES IDX 89 96 90 97 91 98 67 99 68 100 77 101 69 102 70 103 76 104
REMARK SMILES IDX 78 105 71 106 72 107 73 108 74 109 75 110
REMARK H PARENT 32 6 18 11 37 41 99 60 65 71
REMARK Flexibility Score: inf
ROOT
ATOM      1  C   UNL A   1      32.297  29.505  27.084  1.00  0.00     0.023 C 
ENDROOT
BRANCH   1   2
ATOM      2  C   UNL A   1      32.396  30.633  26.053  1.00  0.00     0.116 C 
BRANCH   2   3
ATOM      3  N   UNL A   1      31.244  30.686  25.177  1.00  0.00    -0.354 N 
ATOM      4  C   UNL A   1      30.689  29.809  24.311  1.00  0.00     0.242 C 
ATOM      5  O   UNL A   1      29.596  30.165  23.853  1.00  0.00    -0.273 OA
ATOM      6  H   UNL A   1      30.761  31.543  25.222  1.00  0.00     0.163 HD
BRANCH   4   7
ATOM      7  C   UNL A   1      31.304  28.452  23.851  1.00  0.00     0.175 C 
BRANCH   7   8
ATOM      8  N   UNL A   1      32.503  28.337  22.962  1.00  0.00    -0.340 N 
ATOM      9  C   UNL A   1      33.462  27.538  22.402  1.00  0.00     0.252 C 
ATOM     10  O   UNL A   1      34.264  28.197  21.720  1.00  0.00    -0.269 OA
ATOM     11  H   UNL A   1      32.681  29.246  22.629  1.00  0.00     0.164 HD
BRANCH   9  12
ATOM     12  C   UNL A   1      33.690  26.049  22.429  1.00  0.00     0.044 A 
ATOM     13  C   UNL A   1      32.350  25.346  20.392  1.00  0.00     0.045 C 
ATOM     14  C   UNL A   1      33.226  25.074  21.542  1.00  0.00    -0.038 A 
ATOM     15  C   UNL A   1      33.544  23.707  21.714  1.00  0.00     0.005 A 
ATOM     16  C   UNL A   1      34.231  23.267  22.824  1.00  0.00     0.022 A 
ATOM     17  C   UNL A   1      34.414  25.571  23.551  1.00  0.00     0.035 A 
ATOM     18  C   UNL A   1      34.608  24.198  23.779  1.00  0.00     0.083 A 
BRANCH  18  19
ATOM     19  S   UNL A   1      35.216  23.525  25.310  1.00  0.00     0.243 S 
ATOM     20  O   UNL A   1      36.368  24.348  25.668  1.00  0.00    -0.207 OA
ATOM     21  O   UNL A   1      34.095  23.411  26.192  1.00  0.00    -0.207 OA
BRANCH  19  22
ATOM     22  N   UNL A   1      35.786  22.005  24.902  1.00  0.00    -0.198 NA
ATOM     23  C   UNL A   1      37.155  21.634  25.283  1.00  0.00     0.102 C 
ATOM     24  C   UNL A   1      34.926  20.841  25.200  1.00  0.00     0.102 C 
ATOM     25  C   UNL A   1      37.239  20.230  24.723  1.00  0.00     0.018 C 
ATOM     26  C   UNL A   1      35.869  19.640  25.047  1.00  0.00     0.018 C 
ENDBRANCH  19  22
ENDBRANCH  18  19
ENDBRANCH   9  12
ENDBRANCH   7   8
BRANCH   7  27
ATOM     27  C   UNL A   1      30.341  27.195  23.868  1.00  0.00     0.068 C 
BRANCH  27  28
ATOM     28  C   UNL A   1      30.571  26.028  24.814  1.00  0.00    -0.037 C 
ATOM     29  C   UNL A   1      30.626  24.727  24.531  1.00  0.00     0.001 A 
ATOM     30  C   UNL A   1      30.679  26.194  26.306  1.00  0.00     0.174 C 
ATOM     31  C   UNL A   1      30.531  23.938  23.346  1.00  0.00     0.010 A 
ATOM     32  C   UNL A   1      30.866  24.095  25.840  1.00  0.00     0.065 A 
ATOM     33  N   UNL A   1      30.820  24.846  26.894  1.00  0.00    -0.280 NA
ATOM     34  C   UNL A   1      30.768  22.619  23.428  1.00  0.00     0.001 A 
ATOM     35  C   UNL A   1      31.158  22.650  25.850  1.00  0.00     0.028 A 
ATOM     36  C   UNL A   1      31.125  21.983  24.686  1.00  0.00     0.002 A 
ENDBRANCH  27  28
ENDBRANCH   7  27
ENDBRANCH   4   7
ENDBRANCH   2   3
ENDBRANCH   1   2
BRANCH   1  37
ATOM     37  C   UNL A   1      33.604  29.006  27.682  1.00  0.00     0.023 C 
BRANCH  37  38
ATOM     38  C   UNL A   1      34.806  29.443  26.875  1.00  0.00     0.116 C 
BRANCH  38  39
ATOM     39  N   UNL A   1      35.515  30.618  27.354  1.00  0.00    -0.352 N 
ATOM     40  C   UNL A   1      36.597  30.626  28.229  1.00  0.00     0.251 C 
ATOM     41  H   UNL A   1      35.198  31.492  27.030  1.00  0.00     0.163 HD
ATOM     42  O   UNL A   1      36.900  31.610  28.891  1.00  0.00    -0.269 OA
BRANCH  40  43
ATOM     43  C   UNL A   1      37.470  29.426  28.214  1.00  0.00     0.039 A 
ATOM     44  C   UNL A   1      37.542  28.667  29.387  1.00  0.00     0.014 A 
ATOM     45  C   UNL A   1      38.454  29.320  27.241  1.00  0.00     0.014 A 
ATOM     46  C   UNL A   1      38.722  27.998  29.699  1.00  0.00     0.010 A 
ATOM     47  C   UNL A   1      39.674  28.815  27.622  1.00  0.00     0.010 A 
ATOM     48  C   UNL A   1      39.815  28.176  28.861  1.00  0.00    -0.014 A 
BRANCH  48  49
ATOM     49  C   UNL A   1      41.143  27.632  29.083  1.00  0.00     0.031 A 
ATOM     50  C   UNL A   1      41.350  26.212  28.753  1.00  0.00     0.074 A 
ATOM     51  C   UNL A   1      42.177  28.453  29.356  1.00  0.00     0.049 A 
ATOM     52  N   UNL A   1      42.392  25.529  29.060  1.00  0.00    -0.248 NA
ATOM     53  C   UNL A   1      40.350  25.443  28.023  1.00  0.00     0.031 C 
ATOM     54  C   UNL A   1      43.606  28.159  29.301  1.00  0.00     0.029 A 
ATOM     55  N   UNL A   1      42.109  29.673  30.027  1.00  0.00    -0.354 N 
ATOM     56  C   UNL A   1      42.355  24.367  28.321  1.00  0.00     0.074 A 
ATOM     57  C   UNL A   1      41.031  24.332  27.750  1.00  0.00     0.031 C 
ATOM     58  C   UNL A   1      44.237  28.949  30.188  1.00  0.00     0.029 A 
ATOM     59  C   UNL A   1      43.202  29.652  30.926  1.00  0.00     0.049 A 
ATOM     60  H   UNL A   1      41.447  30.391  29.902  1.00  0.00     0.167 HD
ATOM     61  C   UNL A   1      43.512  23.661  28.177  1.00  0.00     0.037 A 
ATOM     62  C   UNL A   1      42.955  29.545  32.269  1.00  0.00     0.037 A 
ATOM     63  C   UNL A   1      44.544  24.191  29.075  1.00  0.00     0.049 A 
ATOM     64  C   UNL A   1      43.515  28.280  32.890  1.00  0.00     0.074 A 
ATOM     65  C   UNL A   1      45.615  25.057  28.925  1.00  0.00     0.029 A 
ATOM     66  N   UNL A   1      44.329  24.090  30.438  1.00  0.00    -0.354 N 
ATOM     67  N   UNL A   1      44.042  27.305  32.200  1.00  0.00    -0.248 NA
ATOM     68  C   UNL A   1      43.485  27.980  34.323  1.00  0.00     0.031 C 
ATOM     69  C   UNL A   1      45.971  25.546  30.219  1.00  0.00     0.029 A 
ATOM     70  C   UNL A   1      45.129  24.962  31.150  1.00  0.00     0.049 A 
ATOM     71  H   UNL A   1      43.683  23.472  30.850  1.00  0.00     0.167 HD
ATOM     72  C   UNL A   1      44.379  26.275  33.032  1.00  0.00     0.074 A 
ATOM     73  C   UNL A   1      44.010  26.742  34.356  1.00  0.00     0.031 C 
ATOM     74  C   UNL A   1      44.909  25.103  32.580  1.00  0.00     0.037 A 
BRANCH  61  75
ATOM     75  C   UNL A   1      43.781  22.663  27.070  1.00  0.00     0.058 A 
ATOM     76  C   UNL A   1      43.025  21.472  27.000  1.00  0.00     0.135 A 
ATOM     77  C   UNL A   1      44.792  22.763  26.091  1.00  0.00     0.135 A 
ATOM     78  F   UNL A   1      41.981  21.255  27.811  1.00  0.00    -0.206 F 
ATOM     79  C   UNL A   1      43.303  20.442  26.100  1.00  0.00     0.059 A 
ATOM     80  C   UNL A   1      45.124  21.727  25.215  1.00  0.00     0.059 A 
ATOM     81  F   UNL A   1      45.474  23.892  25.886  1.00  0.00    -0.206 F 
ATOM     82  C   UNL A   1      44.374  20.566  25.227  1.00  0.00     0.060 A 
BRANCH  82  83
ATOM     83  S   UNL A   1      44.739  19.216  24.095  1.00  0.00     0.124 S 
ATOM     84  O   UNL A   1      46.158  18.983  24.346  1.00  0.00    -0.237 OA
ATOM     85  O   UNL A   1      43.831  18.175  24.563  1.00  0.00    -0.237 OA
ATOM     86  O   UNL A   1      44.425  19.777  22.783  1.00  0.00    -0.744 OA
ENDBRANCH  82  83
ENDBRANCH  61  75
BRANCH  62  87
ATOM     87  C   UNL A   1      41.692  30.253  32.650  1.00  0.00     0.058 A 
ATOM     88  C   UNL A   1      40.566  29.439  32.915  1.00  0.00     0.135 A 
ATOM     89  C   UNL A   1      41.658  31.563  33.144  1.00  0.00     0.135 A 
ATOM     90  F   UNL A   1      40.519  28.180  32.444  1.00  0.00    -0.206 F 
ATOM     91  C   UNL A   1      39.571  29.827  33.797  1.00  0.00     0.059 A 
ATOM     92  C   UNL A   1      40.614  32.004  33.966  1.00  0.00     0.059 A 
ATOM     93  F   UNL A   1      42.684  32.398  32.929  1.00  0.00    -0.206 F 
ATOM     94  C   UNL A   1      39.606  31.108  34.330  1.00  0.00     0.060 A 
BRANCH  94  95
ATOM     95  S   UNL A   1      38.371  31.537  35.580  1.00  0.00     0.124 S 
ATOM     96  O   UNL A   1      38.998  32.692  36.206  1.00  0.00    -0.237 OA
ATOM     97  O   UNL A   1      37.188  31.799  34.760  1.00  0.00    -0.237 OA
ATOM     98  O   UNL A   1      38.315  30.336  36.407  1.00  0.00    -0.744 OA
ENDBRANCH  94  95
ENDBRANCH  62  87
BRANCH  74  99
ATOM     99  C   UNL A   1      45.265  23.977  33.499  1.00  0.00     0.058 A 
ATOM    100  C   UNL A   1      44.349  22.962  33.809  1.00  0.00     0.135 A 
ATOM    101  C   UNL A   1      46.497  23.954  34.183  1.00  0.00     0.135 A 
ATOM    102  F   UNL A   1      43.139  22.932  33.230  1.00  0.00    -0.206 F 
ATOM    103  C   UNL A   1      44.653  21.956  34.724  1.00  0.00     0.059 A 
ATOM    104  C   UNL A   1      46.801  22.992  35.138  1.00  0.00     0.059 A 
ATOM    105  F   UNL A   1      47.457  24.854  33.919  1.00  0.00    -0.206 F 
ATOM    106  C   UNL A   1      45.883  21.979  35.381  1.00  0.00     0.060 A 
BRANCH 106 107
ATOM    107  S   UNL A   1      46.283  20.680  36.563  1.00  0.00     0.124 S 
ATOM    108  O   UNL A   1      45.459  19.564  36.106  1.00  0.00    -0.237 OA
ATOM    109  O   UNL A   1      47.718  20.533  36.352  1.00  0.00    -0.237 OA
ATOM    110  O   UNL A   1      45.888  21.258  37.844  1.00  0.00    -0.744 OA
ENDBRANCH 106 107
ENDBRANCH  74  99
ENDBRANCH  48  49
ENDBRANCH  40  43
ENDBRANCH  38  39
ENDBRANCH  37  38
ENDBRANCH   1  37
TORSDOF 20
ENDMDL
MODEL 2
REMARK VINA RESULT:     -13.3      1.332      2.786
REMARK SMILES Cc1ccc(S(=O)(=O)N2CCCC2)cc1C(=O)N[C@H](CC1=c2ccccc2=NC1)C(=O)NCCCCNC(=O)c1ccc(-c2c3nc(c(-c4c(F)cc(S(=O)(=O)[O-])cc4F)c4ccc([nH]4)c(-c4c(F)cc(S(=O)(=O)[O-])cc4F)c4nc(c(-c5c(F)cc(S(=O)(=O)[O-])cc5F)c5ccc2[nH]5)C=C4)C=C3)cc1
REMARK SMILES IDX 34 1 33 2 32 3 30 4 31 5 19 7 18 8 16 9 17 10 15 12 1 13
REMARK SMILES IDX 2 14 3 15 4 16 14 17 5 18 6 19 7 20 8 21 9 22 10 23 13 24
REMARK SMILES IDX 11 25 12 26 20 27 21 28 22 29 29 30 23 31 27 32 28 33 24 34
REMARK SMILES IDX 26 35 25 36 35 37 36 38 37 39 38 40 39 42 40 43 41 44 105 45
REMARK SMILES IDX 42 46 104 47 43 48 44 49 45 50 98 51 46 52 103 53 97 54
REMARK SMILES IDX 99 55 47 56 102 57 96 58 95 59 48 61 82 62 61 63 81 64 62 65
REMARK SMILES IDX 65 66 80 67 100 68 63 69 64 70 79 72 101 73 66 74 49 75
REMARK SMILES IDX 50 76 59 77 51 78 52 79 58 80 60 81 53 82 54 83 55 84 56 85
REMARK SMILES IDX 57 86 83 87 84 88 93 89 85 90 86 91 92 92 94 93 87 94 88 95
REMARK SMILES IDX 89 96 90 97 91 98 67 99 68 100 77 101 69 102 70 103 76 104
REMARK SMILES IDX 78 105 71 106 72 107 73 108 74 109 75 110
REMARK H PARENT 32 6 18 11 37 41 99 60 65 71
REMARK Flexibility Score: inf
ROOT
ATOM      1  C   UNL A   1      32.452  28.844  27.119  1.00  0.00     0.023 C 
ENDROOT
BRANCH   1   2
ATOM      2  C   UNL A   1      32.021  27.698  26.201  1.00  0.00     0.116 C 
BRANCH   2   3
ATOM      3  N   UNL A   1      33.000  27.412  25.174  1.00  0.00    -0.354 N 
ATOM      4  C   UNL A   1      32.939  26.795  23.972  1.00  0.00     0.242 C 
ATOM      5  O   UNL A   1      33.974  26.886  23.298  1.00  0.00    -0.273 OA
ATOM      6  H   UNL A   1      33.903  27.735  25.397  1.00  0.00     0.163 HD
BRANCH   4   7
ATOM      7  C   UNL A   1      31.725  25.998  23.405  1.00  0.00     0.175 C 
BRANCH   7   8
ATOM      8  N   UNL A   1      31.606  24.507  23.459  1.00  0.00    -0.340 N 
ATOM      9  C   UNL A   1      32.013  23.330  24.024  1.00  0.00     0.252 C 
ATOM     10  O   UNL A   1      31.463  22.353  23.488  1.00  0.00    -0.269 OA
ATOM     11  H   UNL A   1      30.931  24.265  22.787  1.00  0.00     0.164 HD
BRANCH   9  12
ATOM     12  C   UNL A   1      32.944  23.014  25.166  1.00  0.00     0.044 A 
ATOM     13  C   UNL A   1      31.285  22.887  27.083  1.00  0.00     0.045 C 
ATOM     14  C   UNL A   1      32.639  22.797  26.512  1.00  0.00    -0.038 A 
ATOM     15  C   UNL A   1      33.647  22.504  27.460  1.00  0.00     0.005 A 
ATOM     16  C   UNL A   1      34.980  22.529  27.116  1.00  0.00     0.022 A 
ATOM     17  C   UNL A   1      34.323  23.013  24.836  1.00  0.00     0.035 A 
ATOM     18  C   UNL A   1      35.320  22.852  25.813  1.00  0.00     0.083 A 
BRANCH  18  19
ATOM     19  S   UNL A   1      37.048  23.159  25.523  1.00  0.00     0.243 S 
ATOM     20  O   UNL A   1      37.148  23.528  24.113  1.00  0.00    -0.207 OA
ATOM     21  O   UNL A   1      37.493  24.054  26.547  1.00  0.00    -0.207 OA
BRANCH  19  22
ATOM     22  N   UNL A   1      37.776  21.663  25.708  1.00  0.00    -0.198 NA
ATOM     23  C   UNL A   1      37.521  20.620  24.706  1.00  0.00     0.102 C 
ATOM     24  C   UNL A   1      39.224  21.631  26.003  1.00  0.00     0.102 C 
ATOM     25  C   UNL A   1      38.345  19.478  25.262  1.00  0.00     0.018 C 
ATOM     26  C   UNL A   1      39.616  20.169  25.750  1.00  0.00     0.018 C 
ENDBRANCH  19  22
ENDBRANCH  18  19
ENDBRANCH   9  12
ENDBRANCH   7   8
BRANCH   7  27
ATOM     27  C   UNL A   1      30.873  26.712  22.277  1.00  0.00     0.068 C 
BRANCH  27  28
ATOM     28  C   UNL A   1      30.387  28.144  22.432  1.00  0.00    -0.037 C 
ATOM     29  C   UNL A   1      29.168  28.577  22.751  1.00  0.00     0.001 A 
ATOM     30  C   UNL A   1      31.253  29.338  22.133  1.00  0.00     0.174 C 
ATOM     31  C   UNL A   1      27.922  27.964  23.079  1.00  0.00     0.010 A 
ATOM     32  C   UNL A   1      29.306  30.044  22.744  1.00  0.00     0.065 A 
ATOM     33  N   UNL A   1      30.423  30.547  22.321  1.00  0.00    -0.280 NA
ATOM     34  C   UNL A   1      26.905  28.742  23.483  1.00  0.00     0.001 A 
ATOM     35  C   UNL A   1      28.164  30.833  23.238  1.00  0.00     0.028 A 
ATOM     36  C   UNL A   1      27.047  30.184  23.601  1.00  0.00     0.002 A 
ENDBRANCH  27  28
ENDBRANCH   7  27
ENDBRANCH   4   7
ENDBRANCH   2   3
ENDBRANCH   1   2
BRANCH   1  37
ATOM     37  C   UNL A   1      33.504  29.800  26.576  1.00  0.00     0.023 C 
BRANCH  37  38
ATOM     38  C   UNL A   1      34.866  29.560  27.188  1.00  0.00     0.116 C 
BRANCH  38  39
ATOM     39  N   UNL A   1      35.640  30.742  27.530  1.00  0.00    -0.352 N 
ATOM     40  C   UNL A   1      36.788  30.775  28.316  1.00  0.00     0.251 C 
ATOM     41  H   UNL A   1      35.320  31.602  27.173  1.00  0.00     0.163 HD
ATOM     42  O   UNL A   1      37.167  31.791  28.884  1.00  0.00    -0.269 OA
BRANCH  40  43
ATOM     43  C   UNL A   1      37.627  29.551  28.314  1.00  0.00     0.039 A 
ATOM     44  C   UNL A   1      37.683  28.807  29.498  1.00  0.00     0.014 A 
ATOM     45  C   UNL A   1      38.603  29.403  27.340  1.00  0.00     0.014 A 
ATOM     46  C   UNL A   1      38.844  28.110  29.815  1.00  0.00     0.010 A 
ATOM     47  C   UNL A   1      39.810  28.869  27.722  1.00  0.00     0.010 A 
ATOM     48  C   UNL A   1      39.938  28.245  28.970  1.00  0.00    -0.014 A 
BRANCH  48  49
ATOM     49  C   UNL A   1      41.251  27.668  29.194  1.00  0.00     0.031 A 
ATOM     50  C   UNL A   1      41.430  26.250  28.838  1.00  0.00     0.074 A 
ATOM     51  C   UNL A   1      42.301  28.459  29.494  1.00  0.00     0.049 A 
ATOM     52  N   UNL A   1      42.454  25.537  29.142  1.00  0.00    -0.248 NA
ATOM     53  C   UNL A   1      40.421  25.518  28.083  1.00  0.00     0.031 C 
ATOM     54  C   UNL A   1      43.723  28.135  29.448  1.00  0.00     0.029 A 
ATOM     55  N   UNL A   1      42.253  29.667  30.189  1.00  0.00    -0.354 N 
ATOM     56  C   UNL A   1      42.399  24.392  28.379  1.00  0.00     0.074 A 
ATOM     57  C   UNL A   1      41.080  24.397  27.795  1.00  0.00     0.031 C 
ATOM     58  C   UNL A   1      44.363  28.892  30.357  1.00  0.00     0.029 A 
ATOM     59  C   UNL A   1      43.335  29.603  31.099  1.00  0.00     0.049 A 
ATOM     60  H   UNL A   1      41.608  30.402  30.072  1.00  0.00     0.167 HD
ATOM     61  C   UNL A   1      43.541  23.663  28.233  1.00  0.00     0.037 A 
ATOM     62  C   UNL A   1      43.072  29.476  32.436  1.00  0.00     0.037 A 
ATOM     63  C   UNL A   1      44.576  24.151  29.152  1.00  0.00     0.049 A 
ATOM     64  C   UNL A   1      43.597  28.186  33.038  1.00  0.00     0.074 A 
ATOM     65  C   UNL A   1      45.667  24.997  29.031  1.00  0.00     0.029 A 
ATOM     66  N   UNL A   1      44.344  24.028  30.511  1.00  0.00    -0.354 N 
ATOM     67  N   UNL A   1      44.110  27.214  32.334  1.00  0.00    -0.248 NA
ATOM     68  C   UNL A   1      43.546  27.859  34.464  1.00  0.00     0.031 C 
ATOM     69  C   UNL A   1      46.020  25.451  30.337  1.00  0.00     0.029 A 
ATOM     70  C   UNL A   1      45.155  24.868  31.248  1.00  0.00     0.049 A 
ATOM     71  H   UNL A   1      43.680  23.417  30.904  1.00  0.00     0.167 HD
ATOM     72  C   UNL A   1      44.415  26.160  33.148  1.00  0.00     0.074 A 
ATOM     73  C   UNL A   1      44.042  26.610  34.478  1.00  0.00     0.031 C 
ATOM     74  C   UNL A   1      44.924  24.985  32.679  1.00  0.00     0.037 A 
BRANCH  61  75
ATOM     75  C   UNL A   1      43.799  22.681  27.109  1.00  0.00     0.058 A 
ATOM     76  C   UNL A   1      43.038  21.494  27.026  1.00  0.00     0.135 A 
ATOM     77  C   UNL A   1      44.805  22.792  26.126  1.00  0.00     0.135 A 
ATOM     78  F   UNL A   1      41.999  21.268  27.840  1.00  0.00    -0.206 F 
ATOM     79  C   UNL A   1      43.308  20.477  26.108  1.00  0.00     0.059 A 
ATOM     80  C   UNL A   1      45.128  21.769  25.231  1.00  0.00     0.059 A 
ATOM     81  F   UNL A   1      45.490  23.923  25.934  1.00  0.00    -0.206 F 
ATOM     82  C   UNL A   1      44.373  20.610  25.231  1.00  0.00     0.060 A 
BRANCH  82  83
ATOM     83  S   UNL A   1      44.726  19.277  24.076  1.00  0.00     0.124 S 
ATOM     84  O   UNL A   1      46.131  18.995  24.356  1.00  0.00    -0.237 OA
ATOM     85  O   UNL A   1      43.775  18.254  24.495  1.00  0.00    -0.237 OA
ATOM     86  O   UNL A   1      44.464  19.878  22.770  1.00  0.00    -0.744 OA
ENDBRANCH  82  83
ENDBRANCH  61  75
BRANCH  62  87
ATOM     87  C   UNL A   1      41.821  30.204  32.818  1.00  0.00     0.058 A 
ATOM     88  C   UNL A   1      40.673  29.411  33.049  1.00  0.00     0.135 A 
ATOM     89  C   UNL A   1      41.811  31.502  33.344  1.00  0.00     0.135 A 
ATOM     90  F   UNL A   1      40.603  28.166  32.547  1.00  0.00    -0.206 F 
ATOM     91  C   UNL A   1      39.675  29.801  33.928  1.00  0.00     0.059 A 
ATOM     92  C   UNL A   1      40.767  31.947  34.164  1.00  0.00     0.059 A 
ATOM     93  F   UNL A   1      42.859  32.317  33.163  1.00  0.00    -0.206 F 
ATOM     94  C   UNL A   1      39.733  31.068  34.493  1.00  0.00     0.060 A 
BRANCH  94  95
ATOM     95  S   UNL A   1      38.493  31.495  35.737  1.00  0.00     0.124 S 
ATOM     96  O   UNL A   1      39.209  32.499  36.511  1.00  0.00    -0.237 OA
ATOM     97  O   UNL A   1      37.385  31.975  34.909  1.00  0.00    -0.237 OA
ATOM     98  O   UNL A   1      38.268  30.227  36.422  1.00  0.00    -0.744 OA
ENDBRANCH  94  95
ENDBRANCH  62  87
BRANCH  74  99
ATOM     99  C   UNL A   1      45.245  23.835  33.578  1.00  0.00     0.058 A 
ATOM    100  C   UNL A   1      44.260  22.927  33.994  1.00  0.00     0.135 A 
ATOM    101  C   UNL A   1      46.528  23.682  34.140  1.00  0.00     0.135 A 
ATOM    102  F   UNL A   1      43.002  23.026  33.536  1.00  0.00    -0.206 F 
ATOM    103  C   UNL A   1      44.542  21.900  34.892  1.00  0.00     0.059 A 
ATOM    104  C   UNL A   1      46.819  22.699  35.077  1.00  0.00     0.059 A 
ATOM    105  F   UNL A   1      47.549  24.470  33.768  1.00  0.00    -0.206 F 
ATOM    106  C   UNL A   1      45.825  21.794  35.427  1.00  0.00     0.060 A 
BRANCH 106 107
ATOM    107  S   UNL A   1      46.197  20.467  36.587  1.00  0.00     0.124 S 
ATOM    108  O   UNL A   1      45.695  20.996  37.852  1.00  0.00    -0.237 OA
ATOM    109  O   UNL A   1      45.433  19.364  36.015  1.00  0.00    -0.237 OA
ATOM    110  O   UNL A   1      47.649  20.342  36.499  1.00  0.00    -0.744 OA
ENDBRANCH 106 107
ENDBRANCH  74  99
ENDBRANCH  48  49
ENDBRANCH  40  43
ENDBRANCH  38  39
ENDBRANCH  37  38
ENDBRANCH   1  37
TORSDOF 20
ENDMDL
MODEL 3
REMARK VINA RESULT:     -12.4      1.797      3.292
REMARK SMILES Cc1ccc(S(=O)(=O)N2CCCC2)cc1C(=O)N[C@H](CC1=c2ccccc2=NC1)C(=O)NCCCCNC(=O)c1ccc(-c2c3nc(c(-c4c(F)cc(S(=O)(=O)[O-])cc4F)c4ccc([nH]4)c(-c4c(F)cc(S(=O)(=O)[O-])cc4F)c4nc(c(-c5c(F)cc(S(=O)(=O)[O-])cc5F)c5ccc2[nH]5)C=C4)C=C3)cc1
REMARK SMILES IDX 34 1 33 2 32 3 30 4 31 5 19 7 18 8 16 9 17 10 15 12 1 13
REMARK SMILES IDX 2 14 3 15 4 16 14 17 5 18 6 19 7 20 8 21 9 22 10 23 13 24
REMARK SMILES IDX 11 25 12 26 20 27 21 28 22 29 29 30 23 31 27 32 28 33 24 34
REMARK SMILES IDX 26 35 25 36 35 37 36 38 37 39 38 40 39 42 40 43 41 44 105 45
REMARK SMILES IDX 42 46 104 47 43 48 44 49 45 50 98 51 46 52 103 53 97 54
REMARK SMILES IDX 99 55 47 56 102 57 96 58 95 59 48 61 82 62 61 63 81 64 62 65
REMARK SMILES IDX 65 66 80 67 100 68 63 69 64 70 79 72 101 73 66 74 49 75
REMARK SMILES IDX 50 76 59 77 51 78 52 79 58 80 60 81 53 82 54 83 55 84 56 85
REMARK SMILES IDX 57 86 83 87 84 88 93 89 85 90 86 91 92 92 94 93 87 94 88 95
REMARK SMILES IDX 89 96 90 97 91 98 67 99 68 100 77 101 69 102 70 103 76 104
REMARK SMILES IDX 78 105 71 106 72 107 73 108 74 109 75 110
REMARK H PARENT 32 6 18 11 37 41 99 60 65 71
REMARK Flexibility Score: inf
ROOT
ATOM      1  C   UNL A   1      32.734  29.411  27.677  1.00  0.00     0.023 C 
ENDROOT
BRANCH   1   2
ATOM      2  C   UNL A   1      31.949  28.271  27.022  1.00  0.00     0.116 C 
BRANCH   2   3
ATOM      3  N   UNL A   1      32.775  27.451  26.162  1.00  0.00    -0.354 N 
ATOM      4  C   UNL A   1      32.528  26.377  25.379  1.00  0.00     0.242 C 
ATOM      5  O   UNL A   1      33.477  26.042  24.658  1.00  0.00    -0.273 OA
ATOM      6  H   UNL A   1      33.718  27.736  26.142  1.00  0.00     0.163 HD
BRANCH   4   7
ATOM      7  C   UNL A   1      31.205  25.554  25.332  1.00  0.00     0.175 C 
BRANCH   7   8
ATOM      8  N   UNL A   1      30.928  24.368  26.203  1.00  0.00    -0.340 N 
ATOM      9  C   UNL A   1      31.309  23.125  26.628  1.00  0.00     0.252 C 
ATOM     10  O   UNL A   1      30.485  22.643  27.424  1.00  0.00    -0.269 OA
ATOM     11  H   UNL A   1      30.099  24.577  26.689  1.00  0.00     0.164 HD
BRANCH   9  12
ATOM     12  C   UNL A   1      32.525  22.280  26.349  1.00  0.00     0.044 A 
ATOM     13  C   UNL A   1      34.359  24.007  26.655  1.00  0.00     0.045 C 
ATOM     14  C   UNL A   1      33.873  22.646  26.376  1.00  0.00    -0.038 A 
ATOM     15  C   UNL A   1      34.897  21.715  26.090  1.00  0.00     0.005 A 
ATOM     16  C   UNL A   1      34.604  20.437  25.666  1.00  0.00     0.022 A 
ATOM     17  C   UNL A   1      32.252  20.953  25.930  1.00  0.00     0.035 A 
ATOM     18  C   UNL A   1      33.274  20.079  25.521  1.00  0.00     0.083 A 
BRANCH  18  19
ATOM     19  S   UNL A   1      32.980  18.534  24.688  1.00  0.00     0.243 S 
ATOM     20  O   UNL A   1      34.304  17.989  24.400  1.00  0.00    -0.207 OA
ATOM     21  O   UNL A   1      32.044  17.800  25.484  1.00  0.00    -0.207 OA
BRANCH  19  22
ATOM     22  N   UNL A   1      32.283  18.970  23.231  1.00  0.00    -0.198 NA
ATOM     23  C   UNL A   1      32.419  20.355  22.763  1.00  0.00     0.102 C 
ATOM     24  C   UNL A   1      32.520  18.097  22.063  1.00  0.00     0.102 C 
ATOM     25  C   UNL A   1      31.654  20.296  21.458  1.00  0.00     0.018 C 
ATOM     26  C   UNL A   1      32.068  18.950  20.870  1.00  0.00     0.018 C 
ENDBRANCH  19  22
ENDBRANCH  18  19
ENDBRANCH   9  12
ENDBRANCH   7   8
BRANCH   7  27
ATOM     27  C   UNL A   1      30.374  25.624  23.987  1.00  0.00     0.068 C 
BRANCH  27  28
ATOM     28  C   UNL A   1      30.105  26.945  23.284  1.00  0.00    -0.037 C 
ATOM     29  C   UNL A   1      28.969  27.639  23.225  1.00  0.00     0.001 A 
ATOM     30  C   UNL A   1      31.130  27.639  22.428  1.00  0.00     0.174 C 
ATOM     31  C   UNL A   1      27.653  27.485  23.756  1.00  0.00     0.010 A 
ATOM     32  C   UNL A   1      29.320  28.815  22.411  1.00  0.00     0.065 A 
ATOM     33  N   UNL A   1      30.490  28.841  21.855  1.00  0.00    -0.280 NA
ATOM     34  C   UNL A   1      26.769  28.482  23.588  1.00  0.00     0.001 A 
ATOM     35  C   UNL A   1      28.315  29.887  22.303  1.00  0.00     0.028 A 
ATOM     36  C   UNL A   1      27.122  29.708  22.890  1.00  0.00     0.002 A 
ENDBRANCH  27  28
ENDBRANCH   7  27
ENDBRANCH   4   7
ENDBRANCH   2   3
ENDBRANCH   1   2
BRANCH   1  37
ATOM     37  C   UNL A   1      33.724  30.158  26.794  1.00  0.00     0.023 C 
BRANCH  37  38
ATOM     38  C   UNL A   1      35.159  29.894  27.194  1.00  0.00     0.116 C 
BRANCH  38  39
ATOM     39  N   UNL A   1      35.943  31.052  27.592  1.00  0.00    -0.352 N 
ATOM     40  C   UNL A   1      37.059  31.043  28.423  1.00  0.00     0.251 C 
ATOM     41  H   UNL A   1      35.655  31.926  27.241  1.00  0.00     0.163 HD
ATOM     42  O   UNL A   1      37.436  32.038  29.028  1.00  0.00    -0.269 OA
BRANCH  40  43
ATOM     43  C   UNL A   1      37.871  29.801  28.427  1.00  0.00     0.039 A 
ATOM     44  C   UNL A   1      37.888  29.047  29.606  1.00  0.00     0.014 A 
ATOM     45  C   UNL A   1      38.863  29.640  27.470  1.00  0.00     0.014 A 
ATOM     46  C   UNL A   1      39.028  28.322  29.939  1.00  0.00     0.010 A 
ATOM     47  C   UNL A   1      40.050  29.077  27.871  1.00  0.00     0.010 A 
ATOM     48  C   UNL A   1      40.141  28.440  29.117  1.00  0.00    -0.014 A 
BRANCH  48  49
ATOM     49  C   UNL A   1      41.437  27.833  29.361  1.00  0.00     0.031 A 
ATOM     50  C   UNL A   1      41.602  26.424  28.966  1.00  0.00     0.074 A 
ATOM     51  C   UNL A   1      42.490  28.596  29.717  1.00  0.00     0.049 A 
ATOM     52  N   UNL A   1      42.604  25.684  29.278  1.00  0.00    -0.248 NA
ATOM     53  C   UNL A   1      40.604  25.734  28.159  1.00  0.00     0.031 C 
ATOM     54  C   UNL A   1      43.908  28.248  29.702  1.00  0.00     0.029 A 
ATOM     55  N   UNL A   1      42.441  29.782  30.447  1.00  0.00    -0.354 N 
ATOM     56  C   UNL A   1      42.553  24.564  28.478  1.00  0.00     0.074 A 
ATOM     57  C   UNL A   1      41.253  24.611  27.856  1.00  0.00     0.031 C 
ATOM     58  C   UNL A   1      44.532  28.966  30.652  1.00  0.00     0.029 A 
ATOM     59  C   UNL A   1      43.495  29.672  31.386  1.00  0.00     0.049 A 
ATOM     60  H   UNL A   1      41.813  30.532  30.334  1.00  0.00     0.167 HD
ATOM     61  C   UNL A   1      43.686  23.819  28.343  1.00  0.00     0.037 A 
ATOM     62  C   UNL A   1      43.190  29.508  32.710  1.00  0.00     0.037 A 
ATOM     63  C   UNL A   1      44.701  24.261  29.307  1.00  0.00     0.049 A 
ATOM     64  C   UNL A   1      43.674  28.191  33.287  1.00  0.00     0.074 A 
ATOM     65  C   UNL A   1      45.809  25.090  29.244  1.00  0.00     0.029 A 
ATOM     66  N   UNL A   1      44.426  24.101  30.654  1.00  0.00    -0.354 N 
ATOM     67  N   UNL A   1      44.192  27.232  32.568  1.00  0.00    -0.248 NA
ATOM     68  C   UNL A   1      43.575  27.821  34.700  1.00  0.00     0.031 C 
ATOM     69  C   UNL A   1      46.131  25.498  30.574  1.00  0.00     0.029 A 
ATOM     70  C   UNL A   1      45.229  24.902  31.440  1.00  0.00     0.049 A 
ATOM     71  H   UNL A   1      43.741  23.489  31.008  1.00  0.00     0.167 HD
ATOM     72  C   UNL A   1      44.454  26.148  33.357  1.00  0.00     0.074 A 
ATOM     73  C   UNL A   1      44.049  26.563  34.689  1.00  0.00     0.031 C 
ATOM     74  C   UNL A   1      44.957  24.980  32.866  1.00  0.00     0.037 A 
BRANCH  61  75
ATOM     75  C   UNL A   1      43.962  22.868  27.197  1.00  0.00     0.058 A 
ATOM     76  C   UNL A   1      43.159  21.718  27.032  1.00  0.00     0.135 A 
ATOM     77  C   UNL A   1      45.020  22.973  26.269  1.00  0.00     0.135 A 
ATOM     78  F   UNL A   1      42.072  21.507  27.785  1.00  0.00    -0.206 F 
ATOM     79  C   UNL A   1      43.434  20.724  26.091  1.00  0.00     0.059 A 
ATOM     80  C   UNL A   1      45.346  21.970  25.353  1.00  0.00     0.059 A 
ATOM     81  F   UNL A   1      45.757  24.079  26.153  1.00  0.00    -0.206 F 
ATOM     82  C   UNL A   1      44.547  20.844  25.273  1.00  0.00     0.060 A 
BRANCH  82  83
ATOM     83  S   UNL A   1      44.904  19.539  24.087  1.00  0.00     0.124 S 
ATOM     84  O   UNL A   1      46.355  19.419  24.193  1.00  0.00    -0.237 OA
ATOM     85  O   UNL A   1      44.132  18.424  24.622  1.00  0.00    -0.237 OA
ATOM     86  O   UNL A   1      44.419  20.085  22.821  1.00  0.00    -0.744 OA
ENDBRANCH  82  83
ENDBRANCH  61  75
BRANCH  62  87
ATOM     87  C   UNL A   1      41.940  30.246  33.078  1.00  0.00     0.058 A 
ATOM     88  C   UNL A   1      40.767  29.470  33.225  1.00  0.00     0.135 A 
ATOM     89  C   UNL A   1      41.937  31.517  33.666  1.00  0.00     0.135 A 
ATOM     90  F   UNL A   1      40.690  28.252  32.661  1.00  0.00    -0.206 F 
ATOM     91  C   UNL A   1      39.743  29.841  34.082  1.00  0.00     0.059 A 
ATOM     92  C   UNL A   1      40.871  31.948  34.464  1.00  0.00     0.059 A 
ATOM     93  F   UNL A   1      43.009  32.315  33.565  1.00  0.00    -0.206 F 
ATOM     94  C   UNL A   1      39.806  31.078  34.709  1.00  0.00     0.060 A 
BRANCH  94  95
ATOM     95  S   UNL A   1      38.526  31.474  35.923  1.00  0.00     0.124 S 
ATOM     96  O   UNL A   1      38.313  30.172  36.539  1.00  0.00    -0.237 OA
ATOM     97  O   UNL A   1      39.190  32.486  36.746  1.00  0.00    -0.237 OA
ATOM     98  O   UNL A   1      37.427  31.955  35.093  1.00  0.00    -0.744 OA
ENDBRANCH  94  95
ENDBRANCH  62  87
BRANCH  74  99
ATOM     99  C   UNL A   1      45.231  23.796  33.738  1.00  0.00     0.058 A 
ATOM    100  C   UNL A   1      46.529  23.481  34.166  1.00  0.00     0.135 A 
ATOM    101  C   UNL A   1      44.212  22.881  34.069  1.00  0.00     0.135 A 
ATOM    102  F   UNL A   1      47.563  24.280  33.861  1.00  0.00    -0.206 F 
ATOM    103  C   UNL A   1      46.796  22.336  34.914  1.00  0.00     0.059 A 
ATOM    104  C   UNL A   1      44.463  21.706  34.768  1.00  0.00     0.059 A 
ATOM    105  F   UNL A   1      42.931  23.118  33.747  1.00  0.00    -0.206 F 
ATOM    106  C   UNL A   1      45.756  21.456  35.211  1.00  0.00     0.060 A 
BRANCH 106 107
ATOM    107  S   UNL A   1      46.094  19.976  36.180  1.00  0.00     0.124 S 
ATOM    108  O   UNL A   1      45.308  18.955  35.492  1.00  0.00    -0.237 OA
ATOM    109  O   UNL A   1      47.541  19.863  36.035  1.00  0.00    -0.237 OA
ATOM    110  O   UNL A   1      45.618  20.331  37.513  1.00  0.00    -0.744 OA
ENDBRANCH 106 107
ENDBRANCH  74  99
ENDBRANCH  48  49
ENDBRANCH  40  43
ENDBRANCH  38  39
ENDBRANCH  37  38
ENDBRANCH   1  37
TORSDOF 20
ENDMDL
