MODEL 1
REMARK VINA RESULT:     -13.1      0.000      0.000
REMARK SMILES Cc1ccn2c([C@@H]3CCCC[C@@H]3C(=O)NCCCCNC(=O)c3ccc(-c4c5nc(c(-c6c(F)cc(S(=O)(=O)[O-])cc6F)c6ccc([nH]6)c(-c6c(F)cc(S(=O)(=O)[O-])cc6F)c6nc(c(-c7c(F)cc(S(=O)(=O)[O-])cc7F)c7ccc4[nH]7)C=C6)C=C5)cc3)nnc2c1
REMARK SMILES IDX 18 1 17 2 16 3 15 4 13 5 14 6 12 8 7 9 8 10 9 11 11 12 10 13
REMARK SMILES IDX 6 14 1 15 2 16 3 17 92 18 4 19 91 20 5 21 90 22 89 23 19 24
REMARK SMILES IDX 20 25 21 26 22 28 23 29 24 30 88 31 25 32 87 33 26 34 27 35
REMARK SMILES IDX 28 36 81 37 29 38 86 39 80 40 82 41 30 42 85 43 79 44 78 45
REMARK SMILES IDX 31 47 65 48 44 49 64 50 45 51 48 52 63 53 83 54 46 55 47 56
REMARK SMILES IDX 62 58 84 59 49 60 32 61 33 62 42 63 34 64 35 65 41 66 43 67
REMARK SMILES IDX 36 68 37 69 38 70 39 71 40 72 66 73 67 74 76 75 68 76 69 77
REMARK SMILES IDX 75 78 77 79 70 80 71 81 72 82 73 83 74 84 50 85 51 86 60 87
REMARK SMILES IDX 52 88 53 89 59 90 61 91 54 92 55 93 56 94 57 95 58 96
REMARK H PARENT 15 7 20 27 82 46 48 57
REMARK Flexibility Score: inf
ROOT
ATOM      1  C   UNL A   1      40.018  20.056  26.064  1.00  0.00     0.023 C 
ENDROOT
BRANCH   1   2
ATOM      2  C   UNL A   1      39.373  21.438  26.175  1.00  0.00     0.023 C 
BRANCH   2   3
ATOM      3  C   UNL A   1      38.100  21.516  25.358  1.00  0.00     0.116 C 
BRANCH   3   4
ATOM      4  N   UNL A   1      37.135  22.467  25.836  1.00  0.00    -0.356 N 
ATOM      5  C   UNL A   1      35.787  22.361  25.774  1.00  0.00     0.223 C 
ATOM      6  O   UNL A   1      35.163  22.723  26.779  1.00  0.00    -0.275 OA
ATOM      7  H   UNL A   1      37.493  23.283  26.254  1.00  0.00     0.163 HD
BRANCH   5   8
ATOM      8  C   UNL A   1      35.003  21.967  24.521  1.00  0.00     0.089 C 
ATOM      9  C   UNL A   1      33.748  22.659  23.976  1.00  0.00     0.071 C 
ATOM     10  C   UNL A   1      32.431  22.372  24.753  1.00  0.00     0.012 C 
ATOM     11  C   UNL A   1      32.267  20.925  25.234  1.00  0.00     0.001 C 
ATOM     12  C   UNL A   1      34.685  20.466  24.723  1.00  0.00     0.014 C 
ATOM     13  C   UNL A   1      33.550  20.271  25.724  1.00  0.00     0.001 C 
BRANCH   9  14
ATOM     14  C   UNL A   1      33.825  24.072  23.397  1.00  0.00     0.141 A 
ATOM     15  C   UNL A   1      33.033  29.425  24.908  1.00  0.00     0.044 C 
ATOM     16  C   UNL A   1      33.388  28.019  24.521  1.00  0.00    -0.046 A 
ATOM     17  C   UNL A   1      33.702  27.087  25.597  1.00  0.00     0.022 A 
ATOM     18  C   UNL A   1      33.441  27.602  23.237  1.00  0.00     0.053 A 
ATOM     19  C   UNL A   1      33.948  25.796  25.307  1.00  0.00     0.095 A 
ATOM     20  C   UNL A   1      33.672  26.229  22.939  1.00  0.00     0.161 A 
ATOM     21  N   UNL A   1      33.844  25.334  23.996  1.00  0.00    -0.286 N 
ATOM     22  N   UNL A   1      33.743  25.587  21.799  1.00  0.00    -0.130 NA
ATOM     23  N   UNL A   1      33.842  24.253  22.083  1.00  0.00    -0.134 NA
ENDBRANCH   9  14
ENDBRANCH   5   8
ENDBRANCH   3   4
ENDBRANCH   2   3
ENDBRANCH   1   2
BRANCH   1  24
ATOM     24  C   UNL A   1      41.427  19.961  26.683  1.00  0.00     0.116 C 
BRANCH  24  25
ATOM     25  N   UNL A   1      42.511  19.896  25.726  1.00  0.00    -0.352 N 
ATOM     26  C   UNL A   1      43.563  20.732  25.464  1.00  0.00     0.251 C 
ATOM     27  H   UNL A   1      42.487  19.096  25.153  1.00  0.00     0.163 HD
ATOM     28  O   UNL A   1      44.460  20.301  24.737  1.00  0.00    -0.269 OA
BRANCH  26  29
ATOM     29  C   UNL A   1      43.603  22.144  25.915  1.00  0.00     0.039 A 
ATOM     30  C   UNL A   1      44.317  22.593  27.022  1.00  0.00     0.014 A 
ATOM     31  C   UNL A   1      42.765  23.045  25.236  1.00  0.00     0.014 A 
ATOM     32  C   UNL A   1      44.033  23.815  27.584  1.00  0.00     0.010 A 
ATOM     33  C   UNL A   1      42.543  24.317  25.745  1.00  0.00     0.010 A 
ATOM     34  C   UNL A   1      43.117  24.659  26.964  1.00  0.00    -0.014 A 
BRANCH  34  35
ATOM     35  C   UNL A   1      42.927  25.949  27.604  1.00  0.00     0.031 A 
ATOM     36  C   UNL A   1      44.049  26.892  27.344  1.00  0.00     0.074 A 
ATOM     37  C   UNL A   1      41.827  26.246  28.322  1.00  0.00     0.049 A 
ATOM     38  N   UNL A   1      44.896  27.379  28.191  1.00  0.00    -0.248 NA
ATOM     39  C   UNL A   1      44.402  27.153  25.935  1.00  0.00     0.031 C 
ATOM     40  C   UNL A   1      40.590  25.464  28.411  1.00  0.00     0.029 A 
ATOM     41  N   UNL A   1      41.534  27.367  29.036  1.00  0.00    -0.354 N 
ATOM     42  C   UNL A   1      45.723  28.217  27.445  1.00  0.00     0.074 A 
ATOM     43  C   UNL A   1      45.510  27.882  26.064  1.00  0.00     0.031 C 
ATOM     44  C   UNL A   1      39.606  26.250  28.898  1.00  0.00     0.029 A 
ATOM     45  C   UNL A   1      40.178  27.522  29.299  1.00  0.00     0.049 A 
ATOM     46  H   UNL A   1      42.217  28.008  29.339  1.00  0.00     0.167 HD
ATOM     47  C   UNL A   1      46.280  29.325  28.005  1.00  0.00     0.037 A 
ATOM     48  C   UNL A   1      39.573  28.650  29.742  1.00  0.00     0.037 A 
ATOM     49  C   UNL A   1      46.253  29.255  29.442  1.00  0.00     0.049 A 
ATOM     50  C   UNL A   1      40.608  29.479  30.405  1.00  0.00     0.074 A 
ATOM     51  C   UNL A   1      47.000  28.661  30.433  1.00  0.00     0.029 A 
ATOM     52  N   UNL A   1      45.051  29.611  29.990  1.00  0.00    -0.354 N 
ATOM     53  N   UNL A   1      41.231  29.115  31.492  1.00  0.00    -0.248 NA
ATOM     54  C   UNL A   1      41.221  30.588  29.680  1.00  0.00     0.031 C 
ATOM     55  C   UNL A   1      46.141  28.541  31.567  1.00  0.00     0.029 A 
ATOM     56  C   UNL A   1      44.903  29.094  31.250  1.00  0.00     0.049 A 
ATOM     57  H   UNL A   1      44.378  30.168  29.537  1.00  0.00     0.167 HD
ATOM     58  C   UNL A   1      42.496  29.652  31.363  1.00  0.00     0.074 A 
ATOM     59  C   UNL A   1      42.379  30.679  30.338  1.00  0.00     0.031 C 
ATOM     60  C   UNL A   1      43.590  29.000  31.850  1.00  0.00     0.037 A 
BRANCH  47  61
ATOM     61  C   UNL A   1      46.380  30.655  27.286  1.00  0.00     0.058 A 
ATOM     62  C   UNL A   1      47.637  31.272  27.124  1.00  0.00     0.135 A 
ATOM     63  C   UNL A   1      45.262  31.479  27.013  1.00  0.00     0.135 A 
ATOM     64  F   UNL A   1      48.767  30.595  27.384  1.00  0.00    -0.206 F 
ATOM     65  C   UNL A   1      47.770  32.614  26.753  1.00  0.00     0.059 A 
ATOM     66  C   UNL A   1      45.373  32.798  26.592  1.00  0.00     0.059 A 
ATOM     67  F   UNL A   1      44.006  31.078  27.239  1.00  0.00    -0.206 F 
ATOM     68  C   UNL A   1      46.629  33.369  26.494  1.00  0.00     0.060 A 
BRANCH  68  69
ATOM     69  S   UNL A   1      46.787  35.115  26.078  1.00  0.00     0.124 S 
ATOM     70  O   UNL A   1      47.059  35.705  27.383  1.00  0.00    -0.237 OA
ATOM     71  O   UNL A   1      47.901  35.099  25.136  1.00  0.00    -0.237 OA
ATOM     72  O   UNL A   1      45.487  35.440  25.495  1.00  0.00    -0.744 OA
ENDBRANCH  68  69
ENDBRANCH  47  61
BRANCH  48  73
ATOM     73  C   UNL A   1      38.263  29.208  29.314  1.00  0.00     0.058 A 
ATOM     74  C   UNL A   1      37.282  29.531  30.267  1.00  0.00     0.135 A 
ATOM     75  C   UNL A   1      38.069  29.725  28.017  1.00  0.00     0.135 A 
ATOM     76  F   UNL A   1      37.390  29.081  31.526  1.00  0.00    -0.206 F 
ATOM     77  C   UNL A   1      36.219  30.391  29.977  1.00  0.00     0.059 A 
ATOM     78  C   UNL A   1      37.010  30.574  27.701  1.00  0.00     0.059 A 
ATOM     79  F   UNL A   1      38.959  29.503  27.039  1.00  0.00    -0.206 F 
ATOM     80  C   UNL A   1      36.112  30.934  28.698  1.00  0.00     0.060 A 
BRANCH  80  81
ATOM     81  S   UNL A   1      34.877  32.217  28.385  1.00  0.00     0.124 S 
ATOM     82  O   UNL A   1      34.519  32.628  29.738  1.00  0.00    -0.237 OA
ATOM     83  O   UNL A   1      35.638  33.186  27.605  1.00  0.00    -0.237 OA
ATOM     84  O   UNL A   1      33.832  31.510  27.651  1.00  0.00    -0.744 OA
ENDBRANCH  80  81
ENDBRANCH  48  73
BRANCH  60  85
ATOM     85  C   UNL A   1      43.377  28.032  32.975  1.00  0.00     0.058 A 
ATOM     86  C   UNL A   1      43.458  26.635  32.859  1.00  0.00     0.135 A 
ATOM     87  C   UNL A   1      43.131  28.561  34.249  1.00  0.00     0.135 A 
ATOM     88  F   UNL A   1      43.771  26.057  31.690  1.00  0.00    -0.206 F 
ATOM     89  C   UNL A   1      43.256  25.799  33.959  1.00  0.00     0.059 A 
ATOM     90  C   UNL A   1      42.958  27.749  35.366  1.00  0.00     0.059 A 
ATOM     91  F   UNL A   1      43.088  29.891  34.429  1.00  0.00    -0.206 F 
ATOM     92  C   UNL A   1      43.006  26.367  35.209  1.00  0.00     0.060 A 
BRANCH  92  93
ATOM     93  S   UNL A   1      42.794  25.292  36.645  1.00  0.00     0.124 S 
ATOM     94  O   UNL A   1      41.700  24.421  36.216  1.00  0.00    -0.237 OA
ATOM     95  O   UNL A   1      44.105  24.649  36.750  1.00  0.00    -0.237 OA
ATOM     96  O   UNL A   1      42.473  26.213  37.721  1.00  0.00    -0.744 OA
ENDBRANCH  92  93
ENDBRANCH  60  85
ENDBRANCH  34  35
ENDBRANCH  26  29
ENDBRANCH  24  25
ENDBRANCH   1  24
TORSDOF 15
ENDMDL
MODEL 2
REMARK VINA RESULT:     -12.9      2.022      2.562
REMARK SMILES Cc1ccn2c([C@@H]3CCCC[C@@H]3C(=O)NCCCCNC(=O)c3ccc(-c4c5nc(c(-c6c(F)cc(S(=O)(=O)[O-])cc6F)c6ccc([nH]6)c(-c6c(F)cc(S(=O)(=O)[O-])cc6F)c6nc(c(-c7c(F)cc(S(=O)(=O)[O-])cc7F)c7ccc4[nH]7)C=C6)C=C5)cc3)nnc2c1
REMARK SMILES IDX 18 1 17 2 16 3 15 4 13 5 14 6 12 8 7 9 8 10 9 11 11 12 10 13
REMARK SMILES IDX 6 14 1 15 2 16 3 17 92 18 4 19 91 20 5 21 90 22 89 23 19 24
REMARK SMILES IDX 20 25 21 26 22 28 23 29 24 30 88 31 25 32 87 33 26 34 27 35
REMARK SMILES IDX 28 36 81 37 29 38 86 39 80 40 82 41 30 42 85 43 79 44 78 45
REMARK SMILES IDX 31 47 65 48 44 49 64 50 45 51 48 52 63 53 83 54 46 55 47 56
REMARK SMILES IDX 62 58 84 59 49 60 32 61 33 62 42 63 34 64 35 65 41 66 43 67
REMARK SMILES IDX 36 68 37 69 38 70 39 71 40 72 66 73 67 74 76 75 68 76 69 77
REMARK SMILES IDX 75 78 77 79 70 80 71 81 72 82 73 83 74 84 50 85 51 86 60 87
REMARK SMILES IDX 52 88 53 89 59 90 61 91 54 92 55 93 56 94 57 95 58 96
REMARK H PARENT 15 7 20 27 82 46 48 57
REMARK Flexibility Score: inf
ROOT
ATOM      1  C   UNL A   1      39.378  21.930  26.474  1.00  0.00     0.023 C 
ENDROOT
BRANCH   1   2
ATOM      2  C   UNL A   1      38.646  23.234  26.153  1.00  0.00     0.023 C 
BRANCH   2   3
ATOM      3  C   UNL A   1      37.251  22.965  25.629  1.00  0.00     0.116 C 
BRANCH   3   4
ATOM      4  N   UNL A   1      36.192  23.278  26.547  1.00  0.00    -0.356 N 
ATOM      5  C   UNL A   1      34.892  22.911  26.448  1.00  0.00     0.223 C 
ATOM      6  O   UNL A   1      34.345  22.544  27.495  1.00  0.00    -0.275 OA
ATOM      7  H   UNL A   1      36.437  23.817  27.333  1.00  0.00     0.163 HD
BRANCH   5   8
ATOM      8  C   UNL A   1      34.043  23.053  25.183  1.00  0.00     0.089 C 
ATOM      9  C   UNL A   1      32.525  23.259  25.123  1.00  0.00     0.071 C 
ATOM     10  C   UNL A   1      31.664  21.997  25.423  1.00  0.00     0.012 C 
ATOM     11  C   UNL A   1      32.207  20.690  24.836  1.00  0.00     0.001 C 
ATOM     12  C   UNL A   1      34.402  21.807  24.338  1.00  0.00     0.014 C 
ATOM     13  C   UNL A   1      33.721  20.555  24.881  1.00  0.00     0.001 C 
BRANCH   9  14
ATOM     14  C   UNL A   1      31.895  24.564  25.607  1.00  0.00     0.141 A 
ATOM     15  C   UNL A   1      33.359  29.693  27.371  1.00  0.00     0.044 C 
ATOM     16  C   UNL A   1      32.938  28.384  26.770  1.00  0.00    -0.046 A 
ATOM     17  C   UNL A   1      33.900  27.699  25.916  1.00  0.00     0.022 A 
ATOM     18  C   UNL A   1      31.720  27.840  26.977  1.00  0.00     0.053 A 
ATOM     19  C   UNL A   1      33.601  26.485  25.419  1.00  0.00     0.095 A 
ATOM     20  C   UNL A   1      31.420  26.542  26.473  1.00  0.00     0.161 A 
ATOM     21  N   UNL A   1      32.406  25.854  25.765  1.00  0.00    -0.286 N 
ATOM     22  N   UNL A   1      30.341  25.802  26.560  1.00  0.00    -0.130 NA
ATOM     23  N   UNL A   1      30.634  24.581  26.021  1.00  0.00    -0.134 NA
ENDBRANCH   9  14
ENDBRANCH   5   8
ENDBRANCH   3   4
ENDBRANCH   2   3
ENDBRANCH   1   2
BRANCH   1  24
ATOM     24  C   UNL A   1      40.870  22.108  26.818  1.00  0.00     0.116 C 
BRANCH  24  25
ATOM     25  N   UNL A   1      41.742  22.290  25.676  1.00  0.00    -0.352 N 
ATOM     26  C   UNL A   1      42.638  23.271  25.346  1.00  0.00     0.251 C 
ATOM     27  H   UNL A   1      41.677  21.569  25.009  1.00  0.00     0.163 HD
ATOM     28  O   UNL A   1      43.407  23.042  24.410  1.00  0.00    -0.269 OA
BRANCH  26  29
ATOM     29  C   UNL A   1      42.638  24.611  25.980  1.00  0.00     0.039 A 
ATOM     30  C   UNL A   1      43.331  24.927  27.144  1.00  0.00     0.014 A 
ATOM     31  C   UNL A   1      41.782  25.573  25.417  1.00  0.00     0.014 A 
ATOM     32  C   UNL A   1      43.011  26.056  27.859  1.00  0.00     0.010 A 
ATOM     33  C   UNL A   1      41.523  26.760  26.087  1.00  0.00     0.010 A 
ATOM     34  C   UNL A   1      42.078  26.952  27.346  1.00  0.00    -0.014 A 
BRANCH  34  35
ATOM     35  C   UNL A   1      41.848  28.141  28.149  1.00  0.00     0.031 A 
ATOM     36  C   UNL A   1      42.961  29.125  28.050  1.00  0.00     0.074 A 
ATOM     37  C   UNL A   1      40.725  28.323  28.869  1.00  0.00     0.049 A 
ATOM     38  N   UNL A   1      43.777  29.505  28.979  1.00  0.00    -0.248 NA
ATOM     39  C   UNL A   1      43.345  29.580  26.701  1.00  0.00     0.031 C 
ATOM     40  C   UNL A   1      39.500  27.520  28.817  1.00  0.00     0.029 A 
ATOM     41  N   UNL A   1      40.394  29.333  29.719  1.00  0.00    -0.354 N 
ATOM     42  C   UNL A   1      44.608  30.447  28.377  1.00  0.00     0.074 A 
ATOM     43  C   UNL A   1      44.438  30.299  26.958  1.00  0.00     0.031 C 
ATOM     44  C   UNL A   1      38.490  28.219  29.377  1.00  0.00     0.029 A 
ATOM     45  C   UNL A   1      39.029  29.433  29.962  1.00  0.00     0.049 A 
ATOM     46  H   UNL A   1      41.058  29.937  30.125  1.00  0.00     0.167 HD
ATOM     47  C   UNL A   1      45.131  31.477  29.097  1.00  0.00     0.037 A 
ATOM     48  C   UNL A   1      38.393  30.482  30.536  1.00  0.00     0.037 A 
ATOM     49  C   UNL A   1      45.068  31.212  30.510  1.00  0.00     0.049 A 
ATOM     50  C   UNL A   1      39.397  31.228  31.334  1.00  0.00     0.074 A 
ATOM     51  C   UNL A   1      45.799  30.500  31.432  1.00  0.00     0.029 A 
ATOM     52  N   UNL A   1      43.846  31.474  31.066  1.00  0.00    -0.354 N 
ATOM     53  N   UNL A   1      39.997  30.728  32.379  1.00  0.00    -0.248 NA
ATOM     54  C   UNL A   1      40.009  32.433  30.783  1.00  0.00     0.031 C 
ATOM     55  C   UNL A   1      44.913  30.215  32.515  1.00  0.00     0.029 A 
ATOM     56  C   UNL A   1      43.674  30.790  32.240  1.00  0.00     0.049 A 
ATOM     57  H   UNL A   1      43.175  32.078  30.674  1.00  0.00     0.167 HD
ATOM     58  C   UNL A   1      41.256  31.295  32.359  1.00  0.00     0.074 A 
ATOM     59  C   UNL A   1      41.148  32.450  31.479  1.00  0.00     0.031 C 
ATOM     60  C   UNL A   1      42.348  30.598  32.785  1.00  0.00     0.037 A 
BRANCH  47  61
ATOM     61  C   UNL A   1      45.227  32.893  28.567  1.00  0.00     0.058 A 
ATOM     62  C   UNL A   1      46.488  33.510  28.439  1.00  0.00     0.135 A 
ATOM     63  C   UNL A   1      44.115  33.762  28.460  1.00  0.00     0.135 A 
ATOM     64  F   UNL A   1      47.615  32.789  28.554  1.00  0.00    -0.206 F 
ATOM     65  C   UNL A   1      46.631  34.889  28.254  1.00  0.00     0.059 A 
ATOM     66  C   UNL A   1      44.233  35.125  28.223  1.00  0.00     0.059 A 
ATOM     67  F   UNL A   1      42.861  33.349  28.681  1.00  0.00    -0.206 F 
ATOM     68  C   UNL A   1      45.495  35.688  28.152  1.00  0.00     0.060 A 
BRANCH  68  69
ATOM     69  S   UNL A   1      45.669  37.473  27.978  1.00  0.00     0.124 S 
ATOM     70  O   UNL A   1      45.354  37.932  29.324  1.00  0.00    -0.237 OA
ATOM     71  O   UNL A   1      47.064  37.599  27.566  1.00  0.00    -0.237 OA
ATOM     72  O   UNL A   1      44.687  37.807  26.949  1.00  0.00    -0.744 OA
ENDBRANCH  68  69
ENDBRANCH  47  61
BRANCH  48  73
ATOM     73  C   UNL A   1      37.086  31.075  30.150  1.00  0.00     0.058 A 
ATOM     74  C   UNL A   1      36.204  31.554  31.134  1.00  0.00     0.135 A 
ATOM     75  C   UNL A   1      36.816  31.469  28.824  1.00  0.00     0.135 A 
ATOM     76  F   UNL A   1      36.388  31.228  32.422  1.00  0.00    -0.206 F 
ATOM     77  C   UNL A   1      35.170  32.445  30.835  1.00  0.00     0.059 A 
ATOM     78  C   UNL A   1      35.784  32.347  28.500  1.00  0.00     0.059 A 
ATOM     79  F   UNL A   1      37.612  31.094  27.811  1.00  0.00    -0.206 F 
ATOM     80  C   UNL A   1      34.990  32.862  29.517  1.00  0.00     0.060 A 
BRANCH  80  81
ATOM     81  S   UNL A   1      33.806  34.182  29.164  1.00  0.00     0.124 S 
ATOM     82  O   UNL A   1      33.325  34.521  30.498  1.00  0.00    -0.237 OA
ATOM     83  O   UNL A   1      34.650  35.180  28.516  1.00  0.00    -0.237 OA
ATOM     84  O   UNL A   1      32.827  33.535  28.293  1.00  0.00    -0.744 OA
ENDBRANCH  80  81
ENDBRANCH  48  73
BRANCH  60  85
ATOM     85  C   UNL A   1      42.122  29.484  33.762  1.00  0.00     0.058 A 
ATOM     86  C   UNL A   1      41.898  28.141  33.414  1.00  0.00     0.135 A 
ATOM     87  C   UNL A   1      42.191  29.793  35.128  1.00  0.00     0.135 A 
ATOM     88  F   UNL A   1      41.900  27.753  32.131  1.00  0.00    -0.206 F 
ATOM     89  C   UNL A   1      41.706  27.158  34.386  1.00  0.00     0.059 A 
ATOM     90  C   UNL A   1      42.035  28.825  36.114  1.00  0.00     0.059 A 
ATOM     91  F   UNL A   1      42.448  31.052  35.520  1.00  0.00    -0.206 F 
ATOM     92  C   UNL A   1      41.776  27.510  35.735  1.00  0.00     0.060 A 
BRANCH  92  93
ATOM     93  S   UNL A   1      41.578  26.233  36.996  1.00  0.00     0.124 S 
ATOM     94  O   UNL A   1      42.790  26.405  37.798  1.00  0.00    -0.237 OA
ATOM     95  O   UNL A   1      40.331  26.632  37.649  1.00  0.00    -0.237 OA
ATOM     96  O   UNL A   1      41.506  25.000  36.231  1.00  0.00    -0.744 OA
ENDBRANCH  92  93
ENDBRANCH  60  85
ENDBRANCH  34  35
ENDBRANCH  26  29
ENDBRANCH  24  25
ENDBRANCH   1  24
TORSDOF 15
ENDMDL
MODEL 3
REMARK VINA RESULT:     -12.8      1.569      3.205
REMARK SMILES Cc1ccn2c([C@@H]3CCCC[C@@H]3C(=O)NCCCCNC(=O)c3ccc(-c4c5nc(c(-c6c(F)cc(S(=O)(=O)[O-])cc6F)c6ccc([nH]6)c(-c6c(F)cc(S(=O)(=O)[O-])cc6F)c6nc(c(-c7c(F)cc(S(=O)(=O)[O-])cc7F)c7ccc4[nH]7)C=C6)C=C5)cc3)nnc2c1
REMARK SMILES IDX 18 1 17 2 16 3 15 4 13 5 14 6 12 8 7 9 8 10 9 11 11 12 10 13
REMARK SMILES IDX 6 14 1 15 2 16 3 17 92 18 4 19 91 20 5 21 90 22 89 23 19 24
REMARK SMILES IDX 20 25 21 26 22 28 23 29 24 30 88 31 25 32 87 33 26 34 27 35
REMARK SMILES IDX 28 36 81 37 29 38 86 39 80 40 82 41 30 42 85 43 79 44 78 45
REMARK SMILES IDX 31 47 65 48 44 49 64 50 45 51 48 52 63 53 83 54 46 55 47 56
REMARK SMILES IDX 62 58 84 59 49 60 32 61 33 62 42 63 34 64 35 65 41 66 43 67
REMARK SMILES IDX 36 68 37 69 38 70 39 71 40 72 66 73 67 74 76 75 68 76 69 77
REMARK SMILES IDX 75 78 77 79 70 80 71 81 72 82 73 83 74 84 50 85 51 86 60 87
REMARK SMILES IDX 52 88 53 89 59 90 61 91 54 92 55 93 56 94 57 95 58 96
REMARK H PARENT 15 7 20 27 82 46 48 57
REMARK Flexibility Score: inf
ROOT
ATOM      1  C   UNL A   1      39.032  21.849  25.960  1.00  0.00     0.023 C 
ENDROOT
BRANCH   1   2
ATOM      2  C   UNL A   1      38.726  23.262  26.459  1.00  0.00     0.023 C 
BRANCH   2   3
ATOM      3  C   UNL A   1      37.362  23.725  25.993  1.00  0.00     0.116 C 
BRANCH   3   4
ATOM      4  N   UNL A   1      36.891  23.099  24.789  1.00  0.00    -0.356 N 
ATOM      5  C   UNL A   1      35.717  23.327  24.157  1.00  0.00     0.223 C 
ATOM      6  O   UNL A   1      35.763  23.388  22.922  1.00  0.00    -0.275 OA
ATOM      7  H   UNL A   1      37.487  22.430  24.381  1.00  0.00     0.163 HD
BRANCH   5   8
ATOM      8  C   UNL A   1      34.352  23.373  24.846  1.00  0.00     0.089 C 
ATOM      9  C   UNL A   1      32.984  23.211  24.173  1.00  0.00     0.071 C 
ATOM     10  C   UNL A   1      32.487  24.440  23.356  1.00  0.00     0.012 C 
ATOM     11  C   UNL A   1      32.785  25.802  23.994  1.00  0.00     0.001 C 
ATOM     12  C   UNL A   1      34.359  24.713  25.622  1.00  0.00     0.014 C 
ATOM     13  C   UNL A   1      34.136  25.896  24.686  1.00  0.00     0.001 C 
BRANCH   9  14
ATOM     14  C   UNL A   1      32.561  21.867  23.581  1.00  0.00     0.141 A 
ATOM     15  C   UNL A   1      33.046  16.355  24.554  1.00  0.00     0.044 C 
ATOM     16  C   UNL A   1      32.782  17.819  24.351  1.00  0.00    -0.046 A 
ATOM     17  C   UNL A   1      32.915  18.690  25.511  1.00  0.00     0.022 A 
ATOM     18  C   UNL A   1      32.419  18.340  23.159  1.00  0.00     0.053 A 
ATOM     19  C   UNL A   1      32.767  20.019  25.365  1.00  0.00     0.095 A 
ATOM     20  C   UNL A   1      32.293  19.750  23.004  1.00  0.00     0.161 A 
ATOM     21  N   UNL A   1      32.550  20.571  24.102  1.00  0.00    -0.286 N 
ATOM     22  N   UNL A   1      31.983  20.486  21.964  1.00  0.00    -0.130 NA
ATOM     23  N   UNL A   1      32.144  21.796  22.323  1.00  0.00    -0.134 NA
ENDBRANCH   9  14
ENDBRANCH   5   8
ENDBRANCH   3   4
ENDBRANCH   2   3
ENDBRANCH   1   2
BRANCH   1  24
ATOM     24  C   UNL A   1      40.180  21.146  26.710  1.00  0.00     0.116 C 
BRANCH  24  25
ATOM     25  N   UNL A   1      41.400  20.985  25.946  1.00  0.00    -0.352 N 
ATOM     26  C   UNL A   1      42.582  21.676  25.937  1.00  0.00     0.251 C 
ATOM     27  H   UNL A   1      41.374  20.233  25.311  1.00  0.00     0.163 HD
ATOM     28  O   UNL A   1      43.530  21.167  25.337  1.00  0.00    -0.269 OA
BRANCH  26  29
ATOM     29  C   UNL A   1      42.725  23.038  26.508  1.00  0.00     0.039 A 
ATOM     30  C   UNL A   1      43.211  23.305  27.784  1.00  0.00     0.014 A 
ATOM     31  C   UNL A   1      42.220  24.099  25.737  1.00  0.00     0.014 A 
ATOM     32  C   UNL A   1      42.988  24.527  28.371  1.00  0.00     0.010 A 
ATOM     33  C   UNL A   1      42.077  25.363  26.292  1.00  0.00     0.010 A 
ATOM     34  C   UNL A   1      42.386  25.543  27.635  1.00  0.00    -0.014 A 
BRANCH  34  35
ATOM     35  C   UNL A   1      42.244  26.813  28.325  1.00  0.00     0.031 A 
ATOM     36  C   UNL A   1      43.420  27.706  28.135  1.00  0.00     0.074 A 
ATOM     37  C   UNL A   1      41.142  27.137  29.028  1.00  0.00     0.049 A 
ATOM     38  N   UNL A   1      44.267  28.112  29.023  1.00  0.00    -0.248 NA
ATOM     39  C   UNL A   1      43.824  28.008  26.748  1.00  0.00     0.031 C 
ATOM     40  C   UNL A   1      39.864  26.417  29.051  1.00  0.00     0.029 A 
ATOM     41  N   UNL A   1      40.886  28.240  29.782  1.00  0.00    -0.354 N 
ATOM     42  C   UNL A   1      45.155  28.937  28.336  1.00  0.00     0.074 A 
ATOM     43  C   UNL A   1      44.964  28.671  26.937  1.00  0.00     0.031 C 
ATOM     44  C   UNL A   1      38.908  27.232  29.547  1.00  0.00     0.029 A 
ATOM     45  C   UNL A   1      39.533  28.455  30.017  1.00  0.00     0.049 A 
ATOM     46  H   UNL A   1      41.593  28.832  30.129  1.00  0.00     0.167 HD
ATOM     47  C   UNL A   1      45.752  29.990  28.957  1.00  0.00     0.037 A 
ATOM     48  C   UNL A   1      38.974  29.593  30.492  1.00  0.00     0.037 A 
ATOM     49  C   UNL A   1      45.683  29.861  30.388  1.00  0.00     0.049 A 
ATOM     50  C   UNL A   1      40.032  30.338  31.217  1.00  0.00     0.074 A 
ATOM     51  C   UNL A   1      46.371  29.188  31.372  1.00  0.00     0.029 A 
ATOM     52  N   UNL A   1      44.486  30.255  30.921  1.00  0.00    -0.354 N 
ATOM     53  N   UNL A   1      40.606  29.897  32.303  1.00  0.00    -0.248 NA
ATOM     54  C   UNL A   1      40.721  31.444  30.556  1.00  0.00     0.031 C 
ATOM     55  C   UNL A   1      45.476  29.065  32.477  1.00  0.00     0.029 A 
ATOM     56  C   UNL A   1      44.277  29.695  32.153  1.00  0.00     0.049 A 
ATOM     57  H   UNL A   1      43.854  30.865  30.475  1.00  0.00     0.167 HD
ATOM     58  C   UNL A   1      41.899  30.372  32.229  1.00  0.00     0.074 A 
ATOM     59  C   UNL A   1      41.863  31.447  31.247  1.00  0.00     0.031 C 
ATOM     60  C   UNL A   1      42.945  29.644  32.715  1.00  0.00     0.037 A 
BRANCH  47  61
ATOM     61  C   UNL A   1      45.940  31.342  28.299  1.00  0.00     0.058 A 
ATOM     62  C   UNL A   1      44.814  32.079  27.878  1.00  0.00     0.135 A 
ATOM     63  C   UNL A   1      47.183  31.802  27.805  1.00  0.00     0.135 A 
ATOM     64  F   UNL A   1      43.579  31.715  28.259  1.00  0.00    -0.206 F 
ATOM     65  C   UNL A   1      44.916  33.167  27.005  1.00  0.00     0.059 A 
ATOM     66  C   UNL A   1      47.312  32.913  26.982  1.00  0.00     0.059 A 
ATOM     67  F   UNL A   1      48.326  31.138  28.015  1.00  0.00    -0.206 F 
ATOM     68  C   UNL A   1      46.172  33.573  26.559  1.00  0.00     0.060 A 
BRANCH  68  69
ATOM     69  S   UNL A   1      46.308  34.932  25.386  1.00  0.00     0.124 S 
ATOM     70  O   UNL A   1      47.709  34.844  24.993  1.00  0.00    -0.237 OA
ATOM     71  O   UNL A   1      45.331  34.551  24.370  1.00  0.00    -0.237 OA
ATOM     72  O   UNL A   1      45.946  36.102  26.184  1.00  0.00    -0.744 OA
ENDBRANCH  68  69
ENDBRANCH  47  61
BRANCH  48  73
ATOM     73  C   UNL A   1      37.707  30.236  30.056  1.00  0.00     0.058 A 
ATOM     74  C   UNL A   1      36.770  30.678  31.005  1.00  0.00     0.135 A 
ATOM     75  C   UNL A   1      37.535  30.710  28.740  1.00  0.00     0.135 A 
ATOM     76  F   UNL A   1      36.861  30.276  32.282  1.00  0.00    -0.206 F 
ATOM     77  C   UNL A   1      35.775  31.607  30.691  1.00  0.00     0.059 A 
ATOM     78  C   UNL A   1      36.543  31.627  28.400  1.00  0.00     0.059 A 
ATOM     79  F   UNL A   1      38.390  30.375  27.762  1.00  0.00    -0.206 F 
ATOM     80  C   UNL A   1      35.692  32.102  29.390  1.00  0.00     0.060 A 
BRANCH  80  81
ATOM     81  S   UNL A   1      34.559  33.466  29.036  1.00  0.00     0.124 S 
ATOM     82  O   UNL A   1      33.711  32.891  27.998  1.00  0.00    -0.237 OA
ATOM     83  O   UNL A   1      33.925  33.678  30.332  1.00  0.00    -0.237 OA
ATOM     84  O   UNL A   1      35.447  34.538  28.595  1.00  0.00    -0.744 OA
ENDBRANCH  80  81
ENDBRANCH  48  73
BRANCH  60  85
ATOM     85  C   UNL A   1      42.652  28.642  33.791  1.00  0.00     0.058 A 
ATOM     86  C   UNL A   1      42.676  27.249  33.620  1.00  0.00     0.135 A 
ATOM     87  C   UNL A   1      42.385  29.130  35.078  1.00  0.00     0.135 A 
ATOM     88  F   UNL A   1      43.003  26.705  32.439  1.00  0.00    -0.206 F 
ATOM     89  C   UNL A   1      42.401  26.379  34.677  1.00  0.00     0.059 A 
ATOM     90  C   UNL A   1      42.140  28.283  36.153  1.00  0.00     0.059 A 
ATOM     91  F   UNL A   1      42.395  30.453  35.311  1.00  0.00    -0.206 F 
ATOM     92  C   UNL A   1      42.133  26.907  35.941  1.00  0.00     0.060 A 
BRANCH  92  93
ATOM     93  S   UNL A   1      41.826  25.786  37.323  1.00  0.00     0.124 S 
ATOM     94  O   UNL A   1      42.825  26.222  38.299  1.00  0.00    -0.237 OA
ATOM     95  O   UNL A   1      40.437  26.091  37.668  1.00  0.00    -0.237 OA
ATOM     96  O   UNL A   1      42.043  24.467  36.753  1.00  0.00    -0.744 OA
ENDBRANCH  92  93
ENDBRANCH  60  85
ENDBRANCH  34  35
ENDBRANCH  26  29
ENDBRANCH  24  25
ENDBRANCH   1  24
TORSDOF 15
ENDMDL
