MODEL 1
REMARK VINA RESULT:     -11.9      0.000      0.000
REMARK SMILES CC[C@@H]1CCCN1C(=O)N[C@H]1C=C[C@@H](C(=O)NCCCCNC(=O)c2ccc(-c3c4nc(c(-c5c(F)cc(S(=O)(=O)[O-])cc5F)c5ccc([nH]5)c(-c5c(F)cc(S(=O)(=O)[O-])cc5F)c5nc(c(-c6c(F)cc(S(=O)(=O)[O-])cc6F)c6ccc3[nH]6)C=C5)C=C4)cc2)C1
REMARK SMILES IDX 19 1 18 2 17 3 15 4 16 5 14 7 11 8 12 9 91 10 13 11 10 12
REMARK SMILES IDX 8 13 9 14 7 16 3 17 4 18 5 19 6 20 2 21 1 22 20 23 21 24
REMARK SMILES IDX 22 25 23 26 24 28 25 29 26 30 90 31 27 32 89 33 28 34 29 35
REMARK SMILES IDX 30 36 83 37 31 38 88 39 82 40 84 41 32 42 87 43 81 44 80 45
REMARK SMILES IDX 33 47 67 48 46 49 66 50 47 51 50 52 65 53 85 54 48 55 49 56
REMARK SMILES IDX 64 58 86 59 51 60 34 61 35 62 44 63 36 64 37 65 43 66 45 67
REMARK SMILES IDX 38 68 39 69 40 70 41 71 42 72 68 73 69 74 78 75 70 76 71 77
REMARK SMILES IDX 77 78 79 79 72 80 73 81 74 82 75 83 76 84 52 85 53 86 62 87
REMARK SMILES IDX 54 88 55 89 61 90 63 91 56 92 57 93 58 94 59 95 60 96
REMARK H PARENT 17 6 10 15 22 27 84 46 50 57
REMARK Flexibility Score: inf
ROOT
ATOM      1  C   UNL A   1      39.249  22.750  26.514  1.00  0.00     0.023 C 
ENDROOT
BRANCH   1   2
ATOM      2  C   UNL A   1      38.606  21.646  25.683  1.00  0.00     0.116 C 
BRANCH   2   3
ATOM      3  N   UNL A   1      37.657  22.179  24.719  1.00  0.00    -0.356 N 
ATOM      4  C   UNL A   1      36.334  21.923  24.512  1.00  0.00     0.227 C 
ATOM      5  O   UNL A   1      35.779  22.525  23.587  1.00  0.00    -0.274 OA
ATOM      6  H   UNL A   1      38.040  22.847  24.105  1.00  0.00     0.163 HD
BRANCH   4   7
ATOM      7  C   UNL A   1      35.520  20.973  25.399  1.00  0.00     0.103 C 
ATOM      8  C   UNL A   1      33.485  21.131  26.806  1.00  0.00     0.107 C 
ATOM      9  C   UNL A   1      33.202  20.715  25.400  1.00  0.00    -0.006 C 
ATOM     10  C   UNL A   1      34.969  21.571  26.702  1.00  0.00     0.047 C 
ATOM     11  C   UNL A   1      34.301  20.530  24.665  1.00  0.00    -0.016 C 
BRANCH   8  12
ATOM     12  N   UNL A   1      32.638  22.235  27.193  1.00  0.00    -0.332 N 
ATOM     13  C   UNL A   1      32.129  23.337  26.629  1.00  0.00     0.318 C 
ATOM     14  O   UNL A   1      31.221  23.863  27.288  1.00  0.00    -0.249 OA
ATOM     15  H   UNL A   1      32.355  22.154  28.133  1.00  0.00     0.165 HD
BRANCH  13  16
ATOM     16  N   UNL A   1      32.538  23.885  25.455  1.00  0.00    -0.322 N 
ATOM     17  C   UNL A   1      33.683  24.716  25.050  1.00  0.00     0.086 C 
ATOM     18  C   UNL A   1      33.436  25.029  23.557  1.00  0.00     0.027 C 
ATOM     19  C   UNL A   1      32.509  23.939  23.079  1.00  0.00     0.024 C 
ATOM     20  C   UNL A   1      31.664  23.663  24.306  1.00  0.00     0.122 C 
BRANCH  17  21
ATOM     21  C   UNL A   1      33.876  26.061  25.760  1.00  0.00     0.022 C 
ATOM     22  C   UNL A   1      32.593  26.841  26.028  1.00  0.00     0.006 C 
ENDBRANCH  17  21
ENDBRANCH  13  16
ENDBRANCH   8  12
ENDBRANCH   4   7
ENDBRANCH   2   3
ENDBRANCH   1   2
BRANCH   1  23
ATOM     23  C   UNL A   1      40.437  22.290  27.356  1.00  0.00     0.023 C 
BRANCH  23  24
ATOM     24  C   UNL A   1      41.654  23.206  27.308  1.00  0.00     0.116 C 
BRANCH  24  25
ATOM     25  N   UNL A   1      41.669  24.078  26.144  1.00  0.00    -0.352 N 
ATOM     26  C   UNL A   1      41.488  25.441  26.092  1.00  0.00     0.251 C 
ATOM     27  H   UNL A   1      41.830  23.635  25.279  1.00  0.00     0.163 HD
ATOM     28  O   UNL A   1      41.408  26.013  25.010  1.00  0.00    -0.269 OA
BRANCH  26  29
ATOM     29  C   UNL A   1      41.353  26.201  27.352  1.00  0.00     0.039 A 
ATOM     30  C   UNL A   1      42.326  27.147  27.677  1.00  0.00     0.014 A 
ATOM     31  C   UNL A   1      40.247  26.011  28.187  1.00  0.00     0.014 A 
ATOM     32  C   UNL A   1      42.154  27.952  28.804  1.00  0.00     0.010 A 
ATOM     33  C   UNL A   1      40.039  26.866  29.264  1.00  0.00     0.010 A 
ATOM     34  C   UNL A   1      40.991  27.845  29.586  1.00  0.00    -0.014 A 
BRANCH  34  35
ATOM     35  C   UNL A   1      40.757  28.760  30.732  1.00  0.00     0.031 A 
ATOM     36  C   UNL A   1      41.580  28.637  31.985  1.00  0.00     0.074 A 
ATOM     37  C   UNL A   1      39.768  29.674  30.659  1.00  0.00     0.049 A 
ATOM     38  N   UNL A   1      41.521  29.346  33.084  1.00  0.00    -0.248 NA
ATOM     39  C   UNL A   1      42.583  27.561  32.022  1.00  0.00     0.031 C 
ATOM     40  C   UNL A   1      38.852  29.841  29.528  1.00  0.00     0.029 A 
ATOM     41  N   UNL A   1      39.366  30.634  31.553  1.00  0.00    -0.354 N 
ATOM     42  C   UNL A   1      42.467  28.797  33.942  1.00  0.00     0.074 A 
ATOM     43  C   UNL A   1      43.043  27.659  33.261  1.00  0.00     0.031 C 
ATOM     44  C   UNL A   1      38.021  30.864  29.781  1.00  0.00     0.029 A 
ATOM     45  C   UNL A   1      38.325  31.408  31.100  1.00  0.00     0.049 A 
ATOM     46  H   UNL A   1      39.784  30.756  32.436  1.00  0.00     0.167 HD
ATOM     47  C   UNL A   1      42.841  29.219  35.174  1.00  0.00     0.037 A 
ATOM     48  C   UNL A   1      37.692  32.448  31.678  1.00  0.00     0.037 A 
ATOM     49  C   UNL A   1      42.281  30.369  35.835  1.00  0.00     0.049 A 
ATOM     50  C   UNL A   1      38.154  32.925  33.027  1.00  0.00     0.074 A 
ATOM     51  C   UNL A   1      42.630  30.914  37.059  1.00  0.00     0.029 A 
ATOM     52  N   UNL A   1      41.256  31.154  35.327  1.00  0.00    -0.354 N 
ATOM     53  N   UNL A   1      39.100  32.438  33.795  1.00  0.00    -0.248 NA
ATOM     54  C   UNL A   1      37.474  34.102  33.583  1.00  0.00     0.031 C 
ATOM     55  C   UNL A   1      41.792  32.008  37.306  1.00  0.00     0.029 A 
ATOM     56  C   UNL A   1      40.953  32.172  36.216  1.00  0.00     0.049 A 
ATOM     57  H   UNL A   1      40.809  31.008  34.462  1.00  0.00     0.167 HD
ATOM     58  C   UNL A   1      39.150  33.268  34.909  1.00  0.00     0.074 A 
ATOM     59  C   UNL A   1      38.146  34.294  34.709  1.00  0.00     0.031 C 
ATOM     60  C   UNL A   1      39.955  33.189  35.998  1.00  0.00     0.037 A 
BRANCH  47  61
ATOM     61  C   UNL A   1      43.917  28.438  35.879  1.00  0.00     0.058 A 
ATOM     62  C   UNL A   1      45.276  28.766  35.738  1.00  0.00     0.135 A 
ATOM     63  C   UNL A   1      43.588  27.369  36.727  1.00  0.00     0.135 A 
ATOM     64  F   UNL A   1      45.649  29.769  34.927  1.00  0.00    -0.206 F 
ATOM     65  C   UNL A   1      46.271  28.042  36.386  1.00  0.00     0.059 A 
ATOM     66  C   UNL A   1      44.566  26.649  37.408  1.00  0.00     0.059 A 
ATOM     67  F   UNL A   1      42.306  27.012  36.899  1.00  0.00    -0.206 F 
ATOM     68  C   UNL A   1      45.906  26.983  37.219  1.00  0.00     0.060 A 
BRANCH  68  69
ATOM     69  S   UNL A   1      47.209  26.056  38.057  1.00  0.00     0.124 S 
ATOM     70  O   UNL A   1      46.540  24.784  38.315  1.00  0.00    -0.237 OA
ATOM     71  O   UNL A   1      48.266  26.022  37.050  1.00  0.00    -0.237 OA
ATOM     72  O   UNL A   1      47.497  26.865  39.237  1.00  0.00    -0.744 OA
ENDBRANCH  68  69
ENDBRANCH  47  61
BRANCH  48  73
ATOM     73  C   UNL A   1      36.590  33.141  30.958  1.00  0.00     0.058 A 
ATOM     74  C   UNL A   1      35.257  32.998  31.371  1.00  0.00     0.135 A 
ATOM     75  C   UNL A   1      36.848  33.971  29.856  1.00  0.00     0.135 A 
ATOM     76  F   UNL A   1      34.960  32.214  32.418  1.00  0.00    -0.206 F 
ATOM     77  C   UNL A   1      34.215  33.637  30.706  1.00  0.00     0.059 A 
ATOM     78  C   UNL A   1      35.826  34.640  29.190  1.00  0.00     0.059 A 
ATOM     79  F   UNL A   1      38.109  34.156  29.433  1.00  0.00    -0.206 F 
ATOM     80  C   UNL A   1      34.511  34.459  29.617  1.00  0.00     0.060 A 
BRANCH  80  81
ATOM     81  S   UNL A   1      33.157  35.323  28.790  1.00  0.00     0.124 S 
ATOM     82  O   UNL A   1      33.878  36.330  28.021  1.00  0.00    -0.237 OA
ATOM     83  O   UNL A   1      32.536  34.252  28.016  1.00  0.00    -0.237 OA
ATOM     84  O   UNL A   1      32.355  35.828  29.900  1.00  0.00    -0.744 OA
ENDBRANCH  80  81
ENDBRANCH  48  73
BRANCH  60  85
ATOM     85  C   UNL A   1      39.810  34.267  37.037  1.00  0.00     0.058 A 
ATOM     86  C   UNL A   1      39.016  34.092  38.180  1.00  0.00     0.135 A 
ATOM     87  C   UNL A   1      40.496  35.485  36.894  1.00  0.00     0.135 A 
ATOM     88  F   UNL A   1      38.338  32.948  38.364  1.00  0.00    -0.206 F 
ATOM     89  C   UNL A   1      38.874  35.103  39.127  1.00  0.00     0.059 A 
ATOM     90  C   UNL A   1      40.392  36.497  37.841  1.00  0.00     0.059 A 
ATOM     91  F   UNL A   1      41.281  35.697  35.825  1.00  0.00    -0.206 F 
ATOM     92  C   UNL A   1      39.562  36.303  38.945  1.00  0.00     0.060 A 
BRANCH  92  93
ATOM     93  S   UNL A   1      39.374  37.607  40.179  1.00  0.00     0.124 S 
ATOM     94  O   UNL A   1      40.707  38.204  40.180  1.00  0.00    -0.237 OA
ATOM     95  O   UNL A   1      38.313  38.431  39.607  1.00  0.00    -0.237 OA
ATOM     96  O   UNL A   1      39.009  36.879  41.390  1.00  0.00    -0.744 OA
ENDBRANCH  92  93
ENDBRANCH  60  85
ENDBRANCH  34  35
ENDBRANCH  26  29
ENDBRANCH  24  25
ENDBRANCH  23  24
ENDBRANCH   1  23
TORSDOF 17
ENDMDL
MODEL 2
REMARK VINA RESULT:     -11.3      1.261      2.209
REMARK SMILES CC[C@@H]1CCCN1C(=O)N[C@H]1C=C[C@@H](C(=O)NCCCCNC(=O)c2ccc(-c3c4nc(c(-c5c(F)cc(S(=O)(=O)[O-])cc5F)c5ccc([nH]5)c(-c5c(F)cc(S(=O)(=O)[O-])cc5F)c5nc(c(-c6c(F)cc(S(=O)(=O)[O-])cc6F)c6ccc3[nH]6)C=C5)C=C4)cc2)C1
REMARK SMILES IDX 19 1 18 2 17 3 15 4 16 5 14 7 11 8 12 9 91 10 13 11 10 12
REMARK SMILES IDX 8 13 9 14 7 16 3 17 4 18 5 19 6 20 2 21 1 22 20 23 21 24
REMARK SMILES IDX 22 25 23 26 24 28 25 29 26 30 90 31 27 32 89 33 28 34 29 35
REMARK SMILES IDX 30 36 83 37 31 38 88 39 82 40 84 41 32 42 87 43 81 44 80 45
REMARK SMILES IDX 33 47 67 48 46 49 66 50 47 51 50 52 65 53 85 54 48 55 49 56
REMARK SMILES IDX 64 58 86 59 51 60 34 61 35 62 44 63 36 64 37 65 43 66 45 67
REMARK SMILES IDX 38 68 39 69 40 70 41 71 42 72 68 73 69 74 78 75 70 76 71 77
REMARK SMILES IDX 77 78 79 79 72 80 73 81 74 82 75 83 76 84 52 85 53 86 62 87
REMARK SMILES IDX 54 88 55 89 61 90 63 91 56 92 57 93 58 94 59 95 60 96
REMARK H PARENT 17 6 10 15 22 27 84 46 50 57
REMARK Flexibility Score: inf
ROOT
ATOM      1  C   UNL A   1      39.277  21.678  26.159  1.00  0.00     0.023 C 
ENDROOT
BRANCH   1   2
ATOM      2  C   UNL A   1      37.817  21.588  25.734  1.00  0.00     0.116 C 
BRANCH   2   3
ATOM      3  N   UNL A   1      37.618  22.083  24.381  1.00  0.00    -0.356 N 
ATOM      4  C   UNL A   1      36.549  22.683  23.783  1.00  0.00     0.227 C 
ATOM      5  O   UNL A   1      36.663  22.985  22.591  1.00  0.00    -0.274 OA
ATOM      6  H   UNL A   1      38.396  21.963  23.790  1.00  0.00     0.163 HD
BRANCH   4   7
ATOM      7  C   UNL A   1      35.260  23.034  24.538  1.00  0.00     0.103 C 
ATOM      8  C   UNL A   1      33.674  24.938  24.594  1.00  0.00     0.107 C 
ATOM      9  C   UNL A   1      33.293  23.879  23.612  1.00  0.00    -0.006 C 
ATOM     10  C   UNL A   1      35.112  24.498  24.976  1.00  0.00     0.047 C 
ATOM     11  C   UNL A   1      34.086  22.806  23.648  1.00  0.00    -0.016 C 
BRANCH   8  12
ATOM     12  N   UNL A   1      33.674  26.240  23.968  1.00  0.00    -0.332 N 
ATOM     13  C   UNL A   1      33.417  27.506  24.317  1.00  0.00     0.318 C 
ATOM     14  O   UNL A   1      33.812  28.342  23.493  1.00  0.00    -0.249 OA
ATOM     15  H   UNL A   1      33.936  26.179  23.020  1.00  0.00     0.165 HD
BRANCH  13  16
ATOM     16  N   UNL A   1      32.775  27.899  25.448  1.00  0.00    -0.322 N 
ATOM     17  C   UNL A   1      31.919  27.221  26.434  1.00  0.00     0.086 C 
ATOM     18  C   UNL A   1      31.480  28.336  27.411  1.00  0.00     0.027 C 
ATOM     19  C   UNL A   1      32.521  29.418  27.259  1.00  0.00     0.024 C 
ATOM     20  C   UNL A   1      32.895  29.314  25.794  1.00  0.00     0.122 C 
BRANCH  17  21
ATOM     21  C   UNL A   1      30.640  26.547  25.927  1.00  0.00     0.022 C 
ATOM     22  C   UNL A   1      30.603  25.030  26.078  1.00  0.00     0.006 C 
ENDBRANCH  17  21
ENDBRANCH  13  16
ENDBRANCH   8  12
ENDBRANCH   4   7
ENDBRANCH   2   3
ENDBRANCH   1   2
BRANCH   1  23
ATOM     23  C   UNL A   1      39.647  22.981  26.864  1.00  0.00     0.023 C 
BRANCH  23  24
ATOM     24  C   UNL A   1      41.142  23.258  26.966  1.00  0.00     0.116 C 
BRANCH  24  25
ATOM     25  N   UNL A   1      41.636  24.131  25.912  1.00  0.00    -0.352 N 
ATOM     26  C   UNL A   1      41.837  25.490  25.952  1.00  0.00     0.251 C 
ATOM     27  H   UNL A   1      41.856  23.690  25.060  1.00  0.00     0.163 HD
ATOM     28  O   UNL A   1      42.145  26.100  24.932  1.00  0.00    -0.269 OA
BRANCH  26  29
ATOM     29  C   UNL A   1      41.640  26.215  27.225  1.00  0.00     0.039 A 
ATOM     30  C   UNL A   1      42.689  26.983  27.733  1.00  0.00     0.014 A 
ATOM     31  C   UNL A   1      40.411  26.171  27.890  1.00  0.00     0.014 A 
ATOM     32  C   UNL A   1      42.481  27.762  28.873  1.00  0.00     0.010 A 
ATOM     33  C   UNL A   1      40.182  27.007  28.978  1.00  0.00     0.010 A 
ATOM     34  C   UNL A   1      41.216  27.810  29.483  1.00  0.00    -0.014 A 
BRANCH  34  35
ATOM     35  C   UNL A   1      40.962  28.708  30.639  1.00  0.00     0.031 A 
ATOM     36  C   UNL A   1      41.783  28.584  31.893  1.00  0.00     0.074 A 
ATOM     37  C   UNL A   1      39.958  29.605  30.572  1.00  0.00     0.049 A 
ATOM     38  N   UNL A   1      41.707  29.277  33.000  1.00  0.00    -0.248 NA
ATOM     39  C   UNL A   1      42.803  27.524  31.922  1.00  0.00     0.031 C 
ATOM     40  C   UNL A   1      39.043  29.771  29.439  1.00  0.00     0.029 A 
ATOM     41  N   UNL A   1      39.537  30.548  31.476  1.00  0.00    -0.354 N 
ATOM     42  C   UNL A   1      42.658  28.734  33.855  1.00  0.00     0.074 A 
ATOM     43  C   UNL A   1      43.257  27.614  33.163  1.00  0.00     0.031 C 
ATOM     44  C   UNL A   1      38.194  30.776  29.702  1.00  0.00     0.029 A 
ATOM     45  C   UNL A   1      38.484  31.310  31.028  1.00  0.00     0.049 A 
ATOM     46  H   UNL A   1      39.948  30.666  32.362  1.00  0.00     0.167 HD
ATOM     47  C   UNL A   1      43.021  29.147  35.094  1.00  0.00     0.037 A 
ATOM     48  C   UNL A   1      37.832  32.332  31.616  1.00  0.00     0.037 A 
ATOM     49  C   UNL A   1      42.439  30.279  35.767  1.00  0.00     0.049 A 
ATOM     50  C   UNL A   1      38.280  32.800  32.973  1.00  0.00     0.074 A 
ATOM     51  C   UNL A   1      42.774  30.815  36.999  1.00  0.00     0.029 A 
ATOM     52  N   UNL A   1      41.402  31.053  35.264  1.00  0.00    -0.354 N 
ATOM     53  N   UNL A   1      39.231  32.320  33.739  1.00  0.00    -0.248 NA
ATOM     54  C   UNL A   1      37.578  33.958  33.541  1.00  0.00     0.031 C 
ATOM     55  C   UNL A   1      41.916  31.892  37.255  1.00  0.00     0.029 A 
ATOM     56  C   UNL A   1      41.079  32.055  36.164  1.00  0.00     0.049 A 
ATOM     57  H   UNL A   1      40.962  30.910  34.396  1.00  0.00     0.167 HD
ATOM     58  C   UNL A   1      39.262  33.136  34.863  1.00  0.00     0.074 A 
ATOM     59  C   UNL A   1      38.243  34.148  34.672  1.00  0.00     0.031 C 
ATOM     60  C   UNL A   1      40.065  33.058  35.955  1.00  0.00     0.037 A 
BRANCH  47  61
ATOM     61  C   UNL A   1      44.107  28.376  35.794  1.00  0.00     0.058 A 
ATOM     62  C   UNL A   1      45.464  28.691  35.616  1.00  0.00     0.135 A 
ATOM     63  C   UNL A   1      43.790  27.330  36.675  1.00  0.00     0.135 A 
ATOM     64  F   UNL A   1      45.826  29.671  34.772  1.00  0.00    -0.206 F 
ATOM     65  C   UNL A   1      46.469  27.976  36.259  1.00  0.00     0.059 A 
ATOM     66  C   UNL A   1      44.778  26.620  37.352  1.00  0.00     0.059 A 
ATOM     67  F   UNL A   1      42.509  26.986  36.883  1.00  0.00    -0.206 F 
ATOM     68  C   UNL A   1      46.116  26.940  37.125  1.00  0.00     0.060 A 
BRANCH  68  69
ATOM     69  S   UNL A   1      47.430  26.024  37.956  1.00  0.00     0.124 S 
ATOM     70  O   UNL A   1      48.356  27.098  38.306  1.00  0.00    -0.237 OA
ATOM     71  O   UNL A   1      46.724  25.409  39.075  1.00  0.00    -0.237 OA
ATOM     72  O   UNL A   1      47.901  25.099  36.930  1.00  0.00    -0.744 OA
ENDBRANCH  68  69
ENDBRANCH  47  61
BRANCH  48  73
ATOM     73  C   UNL A   1      36.721  33.014  30.900  1.00  0.00     0.058 A 
ATOM     74  C   UNL A   1      35.387  32.826  31.291  1.00  0.00     0.135 A 
ATOM     75  C   UNL A   1      36.970  33.881  29.824  1.00  0.00     0.135 A 
ATOM     76  F   UNL A   1      35.097  32.006  32.312  1.00  0.00    -0.206 F 
ATOM     77  C   UNL A   1      34.337  33.455  30.630  1.00  0.00     0.059 A 
ATOM     78  C   UNL A   1      35.940  34.541  29.163  1.00  0.00     0.059 A 
ATOM     79  F   UNL A   1      38.232  34.110  29.424  1.00  0.00    -0.206 F 
ATOM     80  C   UNL A   1      34.624  34.313  29.567  1.00  0.00     0.060 A 
BRANCH  80  81
ATOM     81  S   UNL A   1      33.259  35.163  28.745  1.00  0.00     0.124 S 
ATOM     82  O   UNL A   1      32.662  34.082  27.971  1.00  0.00    -0.237 OA
ATOM     83  O   UNL A   1      32.474  35.647  29.877  1.00  0.00    -0.237 OA
ATOM     84  O   UNL A   1      33.930  36.202  27.969  1.00  0.00    -0.744 OA
ENDBRANCH  80  81
ENDBRANCH  48  73
BRANCH  60  85
ATOM     85  C   UNL A   1      39.898  34.120  37.006  1.00  0.00     0.058 A 
ATOM     86  C   UNL A   1      40.505  35.380  36.890  1.00  0.00     0.135 A 
ATOM     87  C   UNL A   1      39.098  33.878  38.135  1.00  0.00     0.135 A 
ATOM     88  F   UNL A   1      41.282  35.661  35.832  1.00  0.00    -0.206 F 
ATOM     89  C   UNL A   1      40.359  36.350  37.878  1.00  0.00     0.059 A 
ATOM     90  C   UNL A   1      38.914  34.843  39.120  1.00  0.00     0.059 A 
ATOM     91  F   UNL A   1      38.482  32.694  38.287  1.00  0.00    -0.206 F 
ATOM     92  C   UNL A   1      39.565  36.069  38.991  1.00  0.00     0.060 A 
BRANCH  92  93
ATOM     93  S   UNL A   1      39.378  37.334  40.265  1.00  0.00     0.124 S 
ATOM     94  O   UNL A   1      38.585  38.340  39.565  1.00  0.00    -0.237 OA
ATOM     95  O   UNL A   1      38.686  36.610  41.328  1.00  0.00    -0.237 OA
ATOM     96  O   UNL A   1      40.753  37.716  40.569  1.00  0.00    -0.744 OA
ENDBRANCH  92  93
ENDBRANCH  60  85
ENDBRANCH  34  35
ENDBRANCH  26  29
ENDBRANCH  24  25
ENDBRANCH  23  24
ENDBRANCH   1  23
TORSDOF 17
ENDMDL
MODEL 3
REMARK VINA RESULT:     -11.2      6.576     12.231
REMARK SMILES CC[C@@H]1CCCN1C(=O)N[C@H]1C=C[C@@H](C(=O)NCCCCNC(=O)c2ccc(-c3c4nc(c(-c5c(F)cc(S(=O)(=O)[O-])cc5F)c5ccc([nH]5)c(-c5c(F)cc(S(=O)(=O)[O-])cc5F)c5nc(c(-c6c(F)cc(S(=O)(=O)[O-])cc6F)c6ccc3[nH]6)C=C5)C=C4)cc2)C1
REMARK SMILES IDX 19 1 18 2 17 3 15 4 16 5 14 7 11 8 12 9 91 10 13 11 10 12
REMARK SMILES IDX 8 13 9 14 7 16 3 17 4 18 5 19 6 20 2 21 1 22 20 23 21 24
REMARK SMILES IDX 22 25 23 26 24 28 25 29 26 30 90 31 27 32 89 33 28 34 29 35
REMARK SMILES IDX 30 36 83 37 31 38 88 39 82 40 84 41 32 42 87 43 81 44 80 45
REMARK SMILES IDX 33 47 67 48 46 49 66 50 47 51 50 52 65 53 85 54 48 55 49 56
REMARK SMILES IDX 64 58 86 59 51 60 34 61 35 62 44 63 36 64 37 65 43 66 45 67
REMARK SMILES IDX 38 68 39 69 40 70 41 71 42 72 68 73 69 74 78 75 70 76 71 77
REMARK SMILES IDX 77 78 79 79 72 80 73 81 74 82 75 83 76 84 52 85 53 86 62 87
REMARK SMILES IDX 54 88 55 89 61 90 63 91 56 92 57 93 58 94 59 95 60 96
REMARK H PARENT 17 6 10 15 22 27 84 46 50 57
REMARK Flexibility Score: inf
ROOT
ATOM      1  C   UNL A   1      34.724  32.848  28.788  1.00  0.00     0.023 C 
ENDROOT
BRANCH   1   2
ATOM      2  C   UNL A   1      34.548  31.509  28.081  1.00  0.00     0.116 C 
BRANCH   2   3
ATOM      3  N   UNL A   1      33.342  31.482  27.270  1.00  0.00    -0.356 N 
ATOM      4  C   UNL A   1      32.572  30.449  26.824  1.00  0.00     0.227 C 
ATOM      5  O   UNL A   1      31.596  30.732  26.122  1.00  0.00    -0.274 OA
ATOM      6  H   UNL A   1      33.023  32.372  26.993  1.00  0.00     0.163 HD
BRANCH   4   7
ATOM      7  C   UNL A   1      32.843  28.986  27.197  1.00  0.00     0.103 C 
ATOM      8  C   UNL A   1      32.393  26.764  26.195  1.00  0.00     0.107 C 
ATOM      9  C   UNL A   1      33.717  27.333  25.802  1.00  0.00    -0.006 C 
ATOM     10  C   UNL A   1      31.722  27.988  26.872  1.00  0.00     0.047 C 
ATOM     11  C   UNL A   1      34.009  28.481  26.417  1.00  0.00    -0.016 C 
BRANCH   8  12
ATOM     12  N   UNL A   1      31.653  26.340  25.029  1.00  0.00    -0.332 N 
ATOM     13  C   UNL A   1      31.275  25.189  24.460  1.00  0.00     0.318 C 
ATOM     14  O   UNL A   1      30.409  25.322  23.585  1.00  0.00    -0.249 OA
ATOM     15  H   UNL A   1      31.338  27.114  24.507  1.00  0.00     0.165 HD
BRANCH  13  16
ATOM     16  N   UNL A   1      31.770  23.960  24.762  1.00  0.00    -0.322 N 
ATOM     17  C   UNL A   1      31.253  22.794  25.495  1.00  0.00     0.086 C 
ATOM     18  C   UNL A   1      32.421  21.781  25.503  1.00  0.00     0.027 C 
ATOM     19  C   UNL A   1      33.293  22.184  24.339  1.00  0.00     0.024 C 
ATOM     20  C   UNL A   1      33.134  23.690  24.313  1.00  0.00     0.122 C 
BRANCH  17  21
ATOM     21  C   UNL A   1      30.833  22.997  26.956  1.00  0.00     0.022 C 
ATOM     22  C   UNL A   1      29.358  22.743  27.246  1.00  0.00     0.006 C 
ENDBRANCH  17  21
ENDBRANCH  13  16
ENDBRANCH   8  12
ENDBRANCH   4   7
ENDBRANCH   2   3
ENDBRANCH   1   2
BRANCH   1  23
ATOM     23  C   UNL A   1      36.180  33.274  28.970  1.00  0.00     0.023 C 
BRANCH  23  24
ATOM     24  C   UNL A   1      36.714  33.150  30.392  1.00  0.00     0.116 C 
BRANCH  24  25
ATOM     25  N   UNL A   1      36.217  31.975  31.090  1.00  0.00    -0.352 N 
ATOM     26  C   UNL A   1      36.788  30.726  31.177  1.00  0.00     0.251 C 
ATOM     27  H   UNL A   1      35.361  32.087  31.562  1.00  0.00     0.163 HD
ATOM     28  O   UNL A   1      36.177  29.803  31.706  1.00  0.00    -0.269 OA
BRANCH  26  29
ATOM     29  C   UNL A   1      38.127  30.500  30.593  1.00  0.00     0.039 A 
ATOM     30  C   UNL A   1      39.230  30.423  31.445  1.00  0.00     0.014 A 
ATOM     31  C   UNL A   1      38.285  30.321  29.216  1.00  0.00     0.014 A 
ATOM     32  C   UNL A   1      40.482  30.098  30.922  1.00  0.00     0.010 A 
ATOM     33  C   UNL A   1      39.516  29.920  28.708  1.00  0.00     0.010 A 
ATOM     34  C   UNL A   1      40.629  29.806  29.555  1.00  0.00    -0.014 A 
BRANCH  34  35
ATOM     35  C   UNL A   1      41.938  29.368  29.006  1.00  0.00     0.031 A 
ATOM     36  C   UNL A   1      43.076  30.344  28.880  1.00  0.00     0.074 A 
ATOM     37  C   UNL A   1      42.086  28.098  28.579  1.00  0.00     0.049 A 
ATOM     38  N   UNL A   1      44.287  30.145  28.427  1.00  0.00    -0.248 NA
ATOM     39  C   UNL A   1      42.812  31.733  29.289  1.00  0.00     0.031 C 
ATOM     40  C   UNL A   1      41.034  27.077  28.578  1.00  0.00     0.029 A 
ATOM     41  N   UNL A   1      43.177  27.447  28.060  1.00  0.00    -0.354 N 
ATOM     42  C   UNL A   1      44.923  31.379  28.488  1.00  0.00     0.074 A 
ATOM     43  C   UNL A   1      43.947  32.334  28.963  1.00  0.00     0.031 C 
ATOM     44  C   UNL A   1      41.541  25.922  28.118  1.00  0.00     0.029 A 
ATOM     45  C   UNL A   1      42.942  26.125  27.766  1.00  0.00     0.049 A 
ATOM     46  H   UNL A   1      44.045  27.885  27.912  1.00  0.00     0.167 HD
ATOM     47  C   UNL A   1      46.212  31.684  28.200  1.00  0.00     0.037 A 
ATOM     48  C   UNL A   1      43.767  25.178  27.277  1.00  0.00     0.037 A 
ATOM     49  C   UNL A   1      47.186  30.723  27.753  1.00  0.00     0.049 A 
ATOM     50  C   UNL A   1      45.204  25.530  27.006  1.00  0.00     0.074 A 
ATOM     51  C   UNL A   1      48.532  30.918  27.489  1.00  0.00     0.029 A 
ATOM     52  N   UNL A   1      46.922  29.384  27.506  1.00  0.00    -0.354 N 
ATOM     53  N   UNL A   1      45.808  26.687  27.137  1.00  0.00    -0.248 NA
ATOM     54  C   UNL A   1      46.075  24.446  26.536  1.00  0.00     0.031 C 
ATOM     55  C   UNL A   1      49.072  29.704  27.050  1.00  0.00     0.029 A 
ATOM     56  C   UNL A   1      48.075  28.743  27.084  1.00  0.00     0.049 A 
ATOM     57  H   UNL A   1      46.044  28.953  27.614  1.00  0.00     0.167 HD
ATOM     58  C   UNL A   1      47.137  26.463  26.797  1.00  0.00     0.074 A 
ATOM     59  C   UNL A   1      47.250  25.057  26.465  1.00  0.00     0.031 C 
ATOM     60  C   UNL A   1      48.171  27.341  26.764  1.00  0.00     0.037 A 
BRANCH  47  61
ATOM     61  C   UNL A   1      46.643  33.115  28.375  1.00  0.00     0.058 A 
ATOM     62  C   UNL A   1      46.556  34.043  27.324  1.00  0.00     0.135 A 
ATOM     63  C   UNL A   1      47.119  33.575  29.613  1.00  0.00     0.135 A 
ATOM     64  F   UNL A   1      46.123  33.655  26.113  1.00  0.00    -0.206 F 
ATOM     65  C   UNL A   1      46.957  35.365  27.483  1.00  0.00     0.059 A 
ATOM     66  C   UNL A   1      47.499  34.901  29.803  1.00  0.00     0.059 A 
ATOM     67  F   UNL A   1      47.223  32.732  30.653  1.00  0.00    -0.206 F 
ATOM     68  C   UNL A   1      47.429  35.785  28.728  1.00  0.00     0.060 A 
BRANCH  68  69
ATOM     69  S   UNL A   1      47.942  37.505  28.921  1.00  0.00     0.124 S 
ATOM     70  O   UNL A   1      46.829  38.212  28.295  1.00  0.00    -0.237 OA
ATOM     71  O   UNL A   1      48.043  37.641  30.371  1.00  0.00    -0.237 OA
ATOM     72  O   UNL A   1      49.209  37.565  28.199  1.00  0.00    -0.744 OA
ENDBRANCH  68  69
ENDBRANCH  47  61
BRANCH  48  73
ATOM     73  C   UNL A   1      43.266  23.794  27.064  1.00  0.00     0.058 A 
ATOM     74  C   UNL A   1      42.923  23.340  25.781  1.00  0.00     0.135 A 
ATOM     75  C   UNL A   1      43.136  22.893  28.132  1.00  0.00     0.135 A 
ATOM     76  F   UNL A   1      43.028  24.165  24.728  1.00  0.00    -0.206 F 
ATOM     77  C   UNL A   1      42.450  22.050  25.566  1.00  0.00     0.059 A 
ATOM     78  C   UNL A   1      42.689  21.590  27.939  1.00  0.00     0.059 A 
ATOM     79  F   UNL A   1      43.469  23.272  29.376  1.00  0.00    -0.206 F 
ATOM     80  C   UNL A   1      42.338  21.181  26.652  1.00  0.00     0.060 A 
BRANCH  80  81
ATOM     81  S   UNL A   1      41.770  19.492  26.356  1.00  0.00     0.124 S 
ATOM     82  O   UNL A   1      42.479  19.154  25.128  1.00  0.00    -0.237 OA
ATOM     83  O   UNL A   1      42.218  18.802  27.562  1.00  0.00    -0.237 OA
ATOM     84  O   UNL A   1      40.324  19.642  26.231  1.00  0.00    -0.744 OA
ENDBRANCH  80  81
ENDBRANCH  48  73
BRANCH  60  85
ATOM     85  C   UNL A   1      49.522  26.794  26.395  1.00  0.00     0.058 A 
ATOM     86  C   UNL A   1      50.343  26.149  27.332  1.00  0.00     0.135 A 
ATOM     87  C   UNL A   1      49.992  26.899  25.075  1.00  0.00     0.135 A 
ATOM     88  F   UNL A   1      49.943  26.024  28.608  1.00  0.00    -0.206 F 
ATOM     89  C   UNL A   1      51.600  25.662  26.985  1.00  0.00     0.059 A 
ATOM     90  C   UNL A   1      51.231  26.394  24.698  1.00  0.00     0.059 A 
ATOM     91  F   UNL A   1      49.239  27.494  24.135  1.00  0.00    -0.206 F 
ATOM     92  C   UNL A   1      52.037  25.794  25.666  1.00  0.00     0.060 A 
BRANCH  92  93
ATOM     93  S   UNL A   1      53.667  25.158  25.223  1.00  0.00     0.124 S 
ATOM     94  O   UNL A   1      54.498  25.716  26.285  1.00  0.00    -0.237 OA
ATOM     95  O   UNL A   1      53.464  23.712  25.272  1.00  0.00    -0.237 OA
ATOM     96  O   UNL A   1      53.895  25.706  23.890  1.00  0.00    -0.744 OA
ENDBRANCH  92  93
ENDBRANCH  60  85
ENDBRANCH  34  35
ENDBRANCH  26  29
ENDBRANCH  24  25
ENDBRANCH  23  24
ENDBRANCH   1  23
TORSDOF 17
ENDMDL
