MODEL 1
REMARK VINA RESULT:     -11.5      0.000      0.000
REMARK SMILES O=C(/C=C/c1ccc(O)c(O)c1)NCCCCNC(=O)c1ccc(-c2c3nc(c(-c4c(F)cc(S(=O)(=O)[O-])cc4F)c4ccc([nH]4)c(-c4c(F)cc(S(=O)(=O)[O-])cc4F)c4nc(c(-c5c(F)cc(S(=O)(=O)[O-])cc5F)c5ccc2[nH]5)C=C4)C=C3)cc1
REMARK SMILES IDX 16 1 15 2 14 3 13 4 1 5 2 6 3 8 4 9 5 10 6 11 12 12 7 13
REMARK SMILES IDX 10 14 8 15 11 16 9 18 17 20 18 21 19 22 20 24 21 25 22 26
REMARK SMILES IDX 86 27 23 28 85 29 24 30 25 31 26 32 79 33 27 34 84 35 78 36
REMARK SMILES IDX 80 37 28 38 83 39 77 40 76 41 29 43 63 44 42 45 62 46 43 47
REMARK SMILES IDX 46 48 61 49 81 50 44 51 45 52 60 54 82 55 47 56 30 57 31 58
REMARK SMILES IDX 40 59 32 60 33 61 39 62 41 63 34 64 35 65 36 66 37 67 38 68
REMARK SMILES IDX 64 69 65 70 74 71 66 72 67 73 73 74 75 75 68 76 69 77 70 78
REMARK SMILES IDX 71 79 72 80 48 81 49 82 58 83 50 84 51 85 57 86 59 87 52 88
REMARK SMILES IDX 53 89 54 90 55 91 56 92
REMARK H PARENT 13 7 11 17 9 19 18 23 80 42 46 53
REMARK Flexibility Score: inf
ROOT
ATOM      1  C   UNL A   1      32.247  27.795  26.920  1.00  0.00     0.023 C 
ENDROOT
BRANCH   1   2
ATOM      2  C   UNL A   1      32.311  26.313  26.538  1.00  0.00     0.023 C 
BRANCH   2   3
ATOM      3  C   UNL A   1      31.815  25.985  25.129  1.00  0.00     0.116 C 
BRANCH   3   4
ATOM      4  N   UNL A   1      31.107  27.097  24.523  1.00  0.00    -0.353 N 
ATOM      5  O   UNL A   1      29.317  25.866  23.783  1.00  0.00    -0.270 OA
ATOM      6  C   UNL A   1      29.913  26.935  23.874  1.00  0.00     0.243 C 
ATOM      7  H   UNL A   1      31.499  27.998  24.581  1.00  0.00     0.163 HD
BRANCH   6   8
ATOM      8  C   UNL A   1      29.310  28.147  23.257  1.00  0.00     0.072 C 
ATOM      9  C   UNL A   1      29.800  29.397  23.262  1.00  0.00     0.014 C 
BRANCH   9  10
ATOM     10  C   UNL A   1      29.144  30.497  22.539  1.00  0.00    -0.022 A 
ATOM     11  C   UNL A   1      28.529  30.309  21.289  1.00  0.00     0.012 A 
ATOM     12  C   UNL A   1      29.112  31.765  23.131  1.00  0.00     0.058 A 
ATOM     13  C   UNL A   1      27.921  31.378  20.620  1.00  0.00     0.051 A 
ATOM     14  C   UNL A   1      28.510  32.822  22.459  1.00  0.00     0.157 A 
ATOM     15  C   UNL A   1      27.922  32.635  21.212  1.00  0.00     0.157 A 
BRANCH  14  16
ATOM     16  O   UNL A   1      28.505  34.058  23.039  1.00  0.00    -0.504 OA
ATOM     17  H   UNL A   1      28.225  34.158  23.927  1.00  0.00     0.293 HD
ENDBRANCH  14  16
BRANCH  15  18
ATOM     18  O   UNL A   1      27.355  33.721  20.605  1.00  0.00    -0.504 OA
ATOM     19  H   UNL A   1      27.892  34.329  20.136  1.00  0.00     0.293 HD
ENDBRANCH  15  18
ENDBRANCH   9  10
ENDBRANCH   6   8
ENDBRANCH   3   4
ENDBRANCH   2   3
ENDBRANCH   1   2
BRANCH   1  20
ATOM     20  C   UNL A   1      33.584  28.529  26.938  1.00  0.00     0.116 C 
BRANCH  20  21
ATOM     21  N   UNL A   1      33.476  29.894  27.426  1.00  0.00    -0.352 N 
ATOM     22  C   UNL A   1      34.394  30.649  28.118  1.00  0.00     0.251 C 
ATOM     23  H   UNL A   1      32.622  30.344  27.233  1.00  0.00     0.163 HD
ATOM     24  O   UNL A   1      34.062  31.744  28.570  1.00  0.00    -0.269 OA
BRANCH  22  25
ATOM     25  C   UNL A   1      35.765  30.139  28.351  1.00  0.00     0.039 A 
ATOM     26  C   UNL A   1      36.676  30.146  27.291  1.00  0.00     0.014 A 
ATOM     27  C   UNL A   1      36.158  29.653  29.601  1.00  0.00     0.014 A 
ATOM     28  C   UNL A   1      37.996  29.737  27.504  1.00  0.00     0.010 A 
ATOM     29  C   UNL A   1      37.491  29.319  29.830  1.00  0.00     0.010 A 
ATOM     30  C   UNL A   1      38.428  29.360  28.785  1.00  0.00    -0.014 A 
BRANCH  30  31
ATOM     31  C   UNL A   1      39.853  29.021  29.053  1.00  0.00     0.031 A 
ATOM     32  C   UNL A   1      40.787  30.053  29.626  1.00  0.00     0.074 A 
ATOM     33  C   UNL A   1      40.322  27.801  28.721  1.00  0.00     0.049 A 
ATOM     34  N   UNL A   1      42.071  29.964  29.866  1.00  0.00    -0.248 NA
ATOM     35  C   UNL A   1      40.210  31.368  29.950  1.00  0.00     0.031 C 
ATOM     36  C   UNL A   1      39.531  26.725  28.119  1.00  0.00     0.029 A 
ATOM     37  N   UNL A   1      41.580  27.261  28.833  1.00  0.00    -0.354 N 
ATOM     38  C   UNL A   1      42.456  31.207  30.353  1.00  0.00     0.074 A 
ATOM     39  C   UNL A   1      41.280  32.050  30.327  1.00  0.00     0.031 C 
ATOM     40  C   UNL A   1      40.314  25.650  27.937  1.00  0.00     0.029 A 
ATOM     41  C   UNL A   1      41.671  25.969  28.368  1.00  0.00     0.049 A 
ATOM     42  H   UNL A   1      42.345  27.752  29.212  1.00  0.00     0.167 HD
ATOM     43  C   UNL A   1      43.671  31.603  30.803  1.00  0.00     0.037 A 
ATOM     44  C   UNL A   1      42.730  25.138  28.284  1.00  0.00     0.037 A 
ATOM     45  C   UNL A   1      44.833  30.753  30.847  1.00  0.00     0.049 A 
ATOM     46  C   UNL A   1      44.074  25.607  28.775  1.00  0.00     0.074 A 
ATOM     47  C   UNL A   1      46.093  31.045  31.340  1.00  0.00     0.029 A 
ATOM     48  N   UNL A   1      44.883  29.449  30.375  1.00  0.00    -0.354 N 
ATOM     49  N   UNL A   1      44.403  26.765  29.296  1.00  0.00    -0.248 NA
ATOM     50  C   UNL A   1      45.189  24.656  28.672  1.00  0.00     0.031 C 
ATOM     51  C   UNL A   1      46.919  29.939  31.117  1.00  0.00     0.029 A 
ATOM     52  C   UNL A   1      46.158  28.933  30.540  1.00  0.00     0.049 A 
ATOM     53  H   UNL A   1      44.124  28.962  29.981  1.00  0.00     0.167 HD
ATOM     54  C   UNL A   1      45.754  26.670  29.612  1.00  0.00     0.074 A 
ATOM     55  C   UNL A   1      46.178  25.339  29.233  1.00  0.00     0.031 C 
ATOM     56  C   UNL A   1      46.569  27.602  30.167  1.00  0.00     0.037 A 
BRANCH  43  57
ATOM     57  C   UNL A   1      43.812  33.025  31.282  1.00  0.00     0.058 A 
ATOM     58  C   UNL A   1      44.144  34.072  30.406  1.00  0.00     0.135 A 
ATOM     59  C   UNL A   1      43.571  33.352  32.626  1.00  0.00     0.135 A 
ATOM     60  F   UNL A   1      44.397  33.816  29.112  1.00  0.00    -0.206 F 
ATOM     61  C   UNL A   1      44.261  35.384  30.850  1.00  0.00     0.059 A 
ATOM     62  C   UNL A   1      43.652  34.664  33.087  1.00  0.00     0.059 A 
ATOM     63  F   UNL A   1      43.250  32.393  33.510  1.00  0.00    -0.206 F 
ATOM     64  C   UNL A   1      44.012  35.671  32.193  1.00  0.00     0.060 A 
BRANCH  64  65
ATOM     65  S   UNL A   1      44.164  37.381  32.751  1.00  0.00     0.124 S 
ATOM     66  O   UNL A   1      44.029  38.110  31.494  1.00  0.00    -0.237 OA
ATOM     67  O   UNL A   1      43.044  37.506  33.678  1.00  0.00    -0.237 OA
ATOM     68  O   UNL A   1      45.488  37.424  33.362  1.00  0.00    -0.744 OA
ENDBRANCH  64  65
ENDBRANCH  43  57
BRANCH  44  69
ATOM     69  C   UNL A   1      42.559  23.767  27.729  1.00  0.00     0.058 A 
ATOM     70  C   UNL A   1      42.420  22.658  28.577  1.00  0.00     0.135 A 
ATOM     71  C   UNL A   1      42.524  23.538  26.345  1.00  0.00     0.135 A 
ATOM     72  F   UNL A   1      42.454  22.823  29.908  1.00  0.00    -0.206 F 
ATOM     73  C   UNL A   1      42.273  21.369  28.075  1.00  0.00     0.059 A 
ATOM     74  C   UNL A   1      42.349  22.261  25.818  1.00  0.00     0.059 A 
ATOM     75  F   UNL A   1      42.637  24.566  25.490  1.00  0.00    -0.206 F 
ATOM     76  C   UNL A   1      42.235  21.181  26.692  1.00  0.00     0.060 A 
BRANCH  76  77
ATOM     77  S   UNL A   1      41.998  19.509  26.052  1.00  0.00     0.124 S 
ATOM     78  O   UNL A   1      42.441  18.698  27.180  1.00  0.00    -0.237 OA
ATOM     79  O   UNL A   1      40.565  19.489  25.774  1.00  0.00    -0.237 OA
ATOM     80  O   UNL A   1      42.859  19.475  24.874  1.00  0.00    -0.744 OA
ENDBRANCH  76  77
ENDBRANCH  44  69
BRANCH  56  81
ATOM     81  C   UNL A   1      47.995  27.206  30.440  1.00  0.00     0.058 A 
ATOM     82  C   UNL A   1      49.039  27.536  29.563  1.00  0.00     0.135 A 
ATOM     83  C   UNL A   1      48.327  26.530  31.626  1.00  0.00     0.135 A 
ATOM     84  F   UNL A   1      48.777  28.176  28.411  1.00  0.00    -0.206 F 
ATOM     85  C   UNL A   1      50.358  27.190  29.838  1.00  0.00     0.059 A 
ATOM     86  C   UNL A   1      49.644  26.203  31.938  1.00  0.00     0.059 A 
ATOM     87  F   UNL A   1      47.370  26.198  32.507  1.00  0.00    -0.206 F 
ATOM     88  C   UNL A   1      50.652  26.526  31.031  1.00  0.00     0.060 A 
BRANCH  88  89
ATOM     89  S   UNL A   1      52.372  26.117  31.393  1.00  0.00     0.124 S 
ATOM     90  O   UNL A   1      52.940  26.020  30.052  1.00  0.00    -0.237 OA
ATOM     91  O   UNL A   1      52.806  27.264  32.184  1.00  0.00    -0.237 OA
ATOM     92  O   UNL A   1      52.275  24.857  32.126  1.00  0.00    -0.744 OA
ENDBRANCH  88  89
ENDBRANCH  56  81
ENDBRANCH  30  31
ENDBRANCH  22  25
ENDBRANCH  20  21
ENDBRANCH   1  20
TORSDOF 17
ENDMDL
MODEL 2
REMARK VINA RESULT:     -11.2      6.046     11.873
REMARK SMILES O=C(/C=C/c1ccc(O)c(O)c1)NCCCCNC(=O)c1ccc(-c2c3nc(c(-c4c(F)cc(S(=O)(=O)[O-])cc4F)c4ccc([nH]4)c(-c4c(F)cc(S(=O)(=O)[O-])cc4F)c4nc(c(-c5c(F)cc(S(=O)(=O)[O-])cc5F)c5ccc2[nH]5)C=C4)C=C3)cc1
REMARK SMILES IDX 16 1 15 2 14 3 13 4 1 5 2 6 3 8 4 9 5 10 6 11 12 12 7 13
REMARK SMILES IDX 10 14 8 15 11 16 9 18 17 20 18 21 19 22 20 24 21 25 22 26
REMARK SMILES IDX 86 27 23 28 85 29 24 30 25 31 26 32 79 33 27 34 84 35 78 36
REMARK SMILES IDX 80 37 28 38 83 39 77 40 76 41 29 43 63 44 42 45 62 46 43 47
REMARK SMILES IDX 46 48 61 49 81 50 44 51 45 52 60 54 82 55 47 56 30 57 31 58
REMARK SMILES IDX 40 59 32 60 33 61 39 62 41 63 34 64 35 65 36 66 37 67 38 68
REMARK SMILES IDX 64 69 65 70 74 71 66 72 67 73 73 74 75 75 68 76 69 77 70 78
REMARK SMILES IDX 71 79 72 80 48 81 49 82 58 83 50 84 51 85 57 86 59 87 52 88
REMARK SMILES IDX 53 89 54 90 55 91 56 92
REMARK H PARENT 13 7 11 17 9 19 18 23 80 42 46 53
REMARK Flexibility Score: inf
ROOT
ATOM      1  C   UNL A   1      37.407  23.151  25.647  1.00  0.00     0.023 C 
ENDROOT
BRANCH   1   2
ATOM      2  C   UNL A   1      36.953  23.700  24.291  1.00  0.00     0.023 C 
BRANCH   2   3
ATOM      3  C   UNL A   1      35.497  23.408  23.929  1.00  0.00     0.116 C 
BRANCH   3   4
ATOM      4  N   UNL A   1      35.127  22.033  24.203  1.00  0.00    -0.353 N 
ATOM      5  O   UNL A   1      33.549  22.522  25.795  1.00  0.00    -0.270 OA
ATOM      6  C   UNL A   1      34.188  21.702  25.142  1.00  0.00     0.243 C 
ATOM      7  H   UNL A   1      35.567  21.312  23.696  1.00  0.00     0.163 HD
BRANCH   6   8
ATOM      8  C   UNL A   1      33.930  20.254  25.359  1.00  0.00     0.072 C 
ATOM      9  C   UNL A   1      33.642  19.326  24.433  1.00  0.00     0.014 C 
BRANCH   9  10
ATOM     10  C   UNL A   1      33.491  17.903  24.771  1.00  0.00    -0.022 A 
ATOM     11  C   UNL A   1      32.247  17.340  25.102  1.00  0.00     0.012 A 
ATOM     12  C   UNL A   1      34.625  17.080  24.737  1.00  0.00     0.058 A 
ATOM     13  C   UNL A   1      32.137  15.983  25.429  1.00  0.00     0.051 A 
ATOM     14  C   UNL A   1      34.508  15.736  25.066  1.00  0.00     0.157 A 
ATOM     15  C   UNL A   1      33.277  15.189  25.415  1.00  0.00     0.157 A 
BRANCH  14  16
ATOM     16  O   UNL A   1      35.625  14.951  25.049  1.00  0.00    -0.504 OA
ATOM     17  H   UNL A   1      36.088  14.812  24.247  1.00  0.00     0.293 HD
ENDBRANCH  14  16
BRANCH  15  18
ATOM     18  O   UNL A   1      33.238  13.861  25.735  1.00  0.00    -0.504 OA
ATOM     19  H   UNL A   1      33.640  13.230  25.171  1.00  0.00     0.293 HD
ENDBRANCH  15  18
ENDBRANCH   9  10
ENDBRANCH   6   8
ENDBRANCH   3   4
ENDBRANCH   2   3
ENDBRANCH   1   2
BRANCH   1  20
ATOM     20  C   UNL A   1      38.308  24.073  26.463  1.00  0.00     0.116 C 
BRANCH  20  21
ATOM     21  N   UNL A   1      39.720  23.895  26.169  1.00  0.00    -0.352 N 
ATOM     22  C   UNL A   1      40.799  24.641  26.581  1.00  0.00     0.251 C 
ATOM     23  H   UNL A   1      39.936  23.128  25.590  1.00  0.00     0.163 HD
ATOM     24  O   UNL A   1      41.911  24.414  26.108  1.00  0.00    -0.269 OA
BRANCH  22  25
ATOM     25  C   UNL A   1      40.624  25.735  27.564  1.00  0.00     0.039 A 
ATOM     26  C   UNL A   1      39.641  25.606  28.549  1.00  0.00     0.014 A 
ATOM     27  C   UNL A   1      41.419  26.884  27.522  1.00  0.00     0.014 A 
ATOM     28  C   UNL A   1      39.505  26.592  29.531  1.00  0.00     0.010 A 
ATOM     29  C   UNL A   1      41.334  27.827  28.545  1.00  0.00     0.010 A 
ATOM     30  C   UNL A   1      40.377  27.692  29.564  1.00  0.00    -0.014 A 
BRANCH  30  31
ATOM     31  C   UNL A   1      40.316  28.697  30.661  1.00  0.00     0.031 A 
ATOM     32  C   UNL A   1      41.212  28.568  31.865  1.00  0.00     0.074 A 
ATOM     33  C   UNL A   1      39.407  29.692  30.604  1.00  0.00     0.049 A 
ATOM     34  N   UNL A   1      41.256  29.306  32.945  1.00  0.00    -0.248 NA
ATOM     35  C   UNL A   1      42.168  27.450  31.866  1.00  0.00     0.031 C 
ATOM     36  C   UNL A   1      38.451  29.903  29.514  1.00  0.00     0.029 A 
ATOM     37  N   UNL A   1      39.130  30.708  31.485  1.00  0.00    -0.354 N 
ATOM     38  C   UNL A   1      42.229  28.736  33.757  1.00  0.00     0.074 A 
ATOM     39  C   UNL A   1      42.715  27.560  33.067  1.00  0.00     0.031 C 
ATOM     40  C   UNL A   1      37.712  30.991  29.779  1.00  0.00     0.029 A 
ATOM     41  C   UNL A   1      38.108  31.533  31.076  1.00  0.00     0.049 A 
ATOM     42  H   UNL A   1      39.618  30.835  32.330  1.00  0.00     0.167 HD
ATOM     43  C   UNL A   1      42.691  29.165  34.956  1.00  0.00     0.037 A 
ATOM     44  C   UNL A   1      37.542  32.597  31.680  1.00  0.00     0.037 A 
ATOM     45  C   UNL A   1      42.219  30.348  35.628  1.00  0.00     0.049 A 
ATOM     46  C   UNL A   1      38.062  33.045  33.020  1.00  0.00     0.074 A 
ATOM     47  C   UNL A   1      42.666  30.898  36.817  1.00  0.00     0.029 A 
ATOM     48  N   UNL A   1      41.188  31.161  35.178  1.00  0.00    -0.354 N 
ATOM     49  N   UNL A   1      39.030  32.532  33.741  1.00  0.00    -0.248 NA
ATOM     50  C   UNL A   1      37.418  34.217  33.626  1.00  0.00     0.031 C 
ATOM     51  C   UNL A   1      41.871  32.009  37.114  1.00  0.00     0.029 A 
ATOM     52  C   UNL A   1      40.968  32.191  36.078  1.00  0.00     0.049 A 
ATOM     53  H   UNL A   1      40.688  31.026  34.341  1.00  0.00     0.167 HD
ATOM     54  C   UNL A   1      39.131  33.339  34.870  1.00  0.00     0.074 A 
ATOM     55  C   UNL A   1      38.134  34.378  34.730  1.00  0.00     0.031 C 
ATOM     56  C   UNL A   1      39.976  33.228  35.926  1.00  0.00     0.037 A 
BRANCH  43  57
ATOM     57  C   UNL A   1      43.764  28.348  35.628  1.00  0.00     0.058 A 
ATOM     58  C   UNL A   1      45.129  28.575  35.385  1.00  0.00     0.135 A 
ATOM     59  C   UNL A   1      43.425  27.353  36.559  1.00  0.00     0.135 A 
ATOM     60  F   UNL A   1      45.512  29.506  34.494  1.00  0.00    -0.206 F 
ATOM     61  C   UNL A   1      46.116  27.827  36.016  1.00  0.00     0.059 A 
ATOM     62  C   UNL A   1      44.398  26.613  37.227  1.00  0.00     0.059 A 
ATOM     63  F   UNL A   1      42.137  27.092  36.833  1.00  0.00    -0.206 F 
ATOM     64  C   UNL A   1      45.741  26.848  36.937  1.00  0.00     0.060 A 
BRANCH  64  65
ATOM     65  S   UNL A   1      47.035  25.889  37.752  1.00  0.00     0.124 S 
ATOM     66  O   UNL A   1      47.471  25.010  36.670  1.00  0.00    -0.237 OA
ATOM     67  O   UNL A   1      47.986  26.923  38.148  1.00  0.00    -0.237 OA
ATOM     68  O   UNL A   1      46.334  25.231  38.849  1.00  0.00    -0.744 OA
ENDBRANCH  64  65
ENDBRANCH  43  57
BRANCH  44  69
ATOM     69  C   UNL A   1      36.429  33.328  31.013  1.00  0.00     0.058 A 
ATOM     70  C   UNL A   1      36.675  34.181  29.927  1.00  0.00     0.135 A 
ATOM     71  C   UNL A   1      35.100  33.185  31.442  1.00  0.00     0.135 A 
ATOM     72  F   UNL A   1      37.928  34.359  29.484  1.00  0.00    -0.206 F 
ATOM     73  C   UNL A   1      35.648  34.882  29.302  1.00  0.00     0.059 A 
ATOM     74  C   UNL A   1      34.052  33.852  30.814  1.00  0.00     0.059 A 
ATOM     75  F   UNL A   1      34.808  32.368  32.466  1.00  0.00    -0.206 F 
ATOM     76  C   UNL A   1      34.338  34.707  29.751  1.00  0.00     0.060 A 
BRANCH  76  77
ATOM     77  S   UNL A   1      33.008  35.586  28.903  1.00  0.00     0.124 S 
ATOM     78  O   UNL A   1      32.440  34.529  28.075  1.00  0.00    -0.237 OA
ATOM     79  O   UNL A   1      32.182  36.040  30.017  1.00  0.00    -0.237 OA
ATOM     80  O   UNL A   1      33.711  36.644  28.182  1.00  0.00    -0.744 OA
ENDBRANCH  76  77
ENDBRANCH  44  69
BRANCH  56  81
ATOM     81  C   UNL A   1      39.892  34.280  36.998  1.00  0.00     0.058 A 
ATOM     82  C   UNL A   1      40.547  35.515  36.880  1.00  0.00     0.135 A 
ATOM     83  C   UNL A   1      39.100  34.067  38.139  1.00  0.00     0.135 A 
ATOM     84  F   UNL A   1      41.323  35.770  35.814  1.00  0.00    -0.206 F 
ATOM     85  C   UNL A   1      40.440  36.493  37.864  1.00  0.00     0.059 A 
ATOM     86  C   UNL A   1      38.952  35.043  39.121  1.00  0.00     0.059 A 
ATOM     87  F   UNL A   1      38.443  32.907  38.300  1.00  0.00    -0.206 F 
ATOM     88  C   UNL A   1      39.637  36.249  38.980  1.00  0.00     0.060 A 
BRANCH  88  89
ATOM     89  S   UNL A   1      39.478  37.540  40.231  1.00  0.00     0.124 S 
ATOM     90  O   UNL A   1      38.536  38.455  39.592  1.00  0.00    -0.237 OA
ATOM     91  O   UNL A   1      38.962  36.801  41.379  1.00  0.00    -0.237 OA
ATOM     92  O   UNL A   1      40.841  38.043  40.377  1.00  0.00    -0.744 OA
ENDBRANCH  88  89
ENDBRANCH  56  81
ENDBRANCH  30  31
ENDBRANCH  22  25
ENDBRANCH  20  21
ENDBRANCH   1  20
TORSDOF 17
ENDMDL
MODEL 3
REMARK VINA RESULT:     -11.1      4.200     10.702
REMARK SMILES O=C(/C=C/c1ccc(O)c(O)c1)NCCCCNC(=O)c1ccc(-c2c3nc(c(-c4c(F)cc(S(=O)(=O)[O-])cc4F)c4ccc([nH]4)c(-c4c(F)cc(S(=O)(=O)[O-])cc4F)c4nc(c(-c5c(F)cc(S(=O)(=O)[O-])cc5F)c5ccc2[nH]5)C=C4)C=C3)cc1
REMARK SMILES IDX 16 1 15 2 14 3 13 4 1 5 2 6 3 8 4 9 5 10 6 11 12 12 7 13
REMARK SMILES IDX 10 14 8 15 11 16 9 18 17 20 18 21 19 22 20 24 21 25 22 26
REMARK SMILES IDX 86 27 23 28 85 29 24 30 25 31 26 32 79 33 27 34 84 35 78 36
REMARK SMILES IDX 80 37 28 38 83 39 77 40 76 41 29 43 63 44 42 45 62 46 43 47
REMARK SMILES IDX 46 48 61 49 81 50 44 51 45 52 60 54 82 55 47 56 30 57 31 58
REMARK SMILES IDX 40 59 32 60 33 61 39 62 41 63 34 64 35 65 36 66 37 67 38 68
REMARK SMILES IDX 64 69 65 70 74 71 66 72 67 73 73 74 75 75 68 76 69 77 70 78
REMARK SMILES IDX 71 79 72 80 48 81 49 82 58 83 50 84 51 85 57 86 59 87 52 88
REMARK SMILES IDX 53 89 54 90 55 91 56 92
REMARK H PARENT 13 7 11 17 9 19 18 23 80 42 46 53
REMARK Flexibility Score: inf
ROOT
ATOM      1  C   UNL A   1      35.586  23.678  25.920  1.00  0.00     0.023 C 
ENDROOT
BRANCH   1   2
ATOM      2  C   UNL A   1      34.384  24.515  25.472  1.00  0.00     0.023 C 
BRANCH   2   3
ATOM      3  C   UNL A   1      33.499  23.861  24.411  1.00  0.00     0.116 C 
BRANCH   3   4
ATOM      4  N   UNL A   1      33.461  22.417  24.540  1.00  0.00    -0.353 N 
ATOM      5  O   UNL A   1      32.341  22.029  22.575  1.00  0.00    -0.270 OA
ATOM      6  C   UNL A   1      32.857  21.616  23.609  1.00  0.00     0.243 C 
ATOM      7  H   UNL A   1      33.884  21.999  25.325  1.00  0.00     0.163 HD
BRANCH   6   8
ATOM      8  C   UNL A   1      32.848  20.154  23.880  1.00  0.00     0.072 C 
ATOM      9  C   UNL A   1      33.715  19.455  24.630  1.00  0.00     0.014 C 
BRANCH   9  10
ATOM     10  C   UNL A   1      33.546  18.018  24.888  1.00  0.00    -0.022 A 
ATOM     11  C   UNL A   1      32.288  17.447  25.148  1.00  0.00     0.012 A 
ATOM     12  C   UNL A   1      34.675  17.190  24.849  1.00  0.00     0.058 A 
ATOM     13  C   UNL A   1      32.160  16.076  25.399  1.00  0.00     0.051 A 
ATOM     14  C   UNL A   1      34.540  15.831  25.103  1.00  0.00     0.157 A 
ATOM     15  C   UNL A   1      33.295  15.276  25.381  1.00  0.00     0.157 A 
BRANCH  14  16
ATOM     16  O   UNL A   1      35.652  15.040  25.082  1.00  0.00    -0.504 OA
ATOM     17  H   UNL A   1      36.465  15.366  25.414  1.00  0.00     0.293 HD
ENDBRANCH  14  16
BRANCH  15  18
ATOM     18  O   UNL A   1      33.237  13.933  25.630  1.00  0.00    -0.504 OA
ATOM     19  H   UNL A   1      34.022  13.456  25.817  1.00  0.00     0.293 HD
ENDBRANCH  15  18
ENDBRANCH   9  10
ENDBRANCH   6   8
ENDBRANCH   3   4
ENDBRANCH   2   3
ENDBRANCH   1   2
BRANCH   1  20
ATOM     20  C   UNL A   1      36.831  23.791  25.045  1.00  0.00     0.116 C 
BRANCH  20  21
ATOM     21  N   UNL A   1      37.836  22.788  25.355  1.00  0.00    -0.352 N 
ATOM     22  C   UNL A   1      39.011  22.917  26.059  1.00  0.00     0.251 C 
ATOM     23  H   UNL A   1      37.649  21.884  25.012  1.00  0.00     0.163 HD
ATOM     24  O   UNL A   1      39.803  21.978  26.095  1.00  0.00    -0.269 OA
BRANCH  22  25
ATOM     25  C   UNL A   1      39.341  24.188  26.744  1.00  0.00     0.039 A 
ATOM     26  C   UNL A   1      38.866  24.398  28.041  1.00  0.00     0.014 A 
ATOM     27  C   UNL A   1      40.112  25.172  26.118  1.00  0.00     0.014 A 
ATOM     28  C   UNL A   1      39.224  25.558  28.735  1.00  0.00     0.010 A 
ATOM     29  C   UNL A   1      40.531  26.290  26.838  1.00  0.00     0.010 A 
ATOM     30  C   UNL A   1      40.094  26.496  28.156  1.00  0.00    -0.014 A 
BRANCH  30  31
ATOM     31  C   UNL A   1      40.569  27.684  28.917  1.00  0.00     0.031 A 
ATOM     32  C   UNL A   1      41.932  27.685  29.558  1.00  0.00     0.074 A 
ATOM     33  C   UNL A   1      39.747  28.741  29.086  1.00  0.00     0.049 A 
ATOM     34  N   UNL A   1      42.491  28.598  30.311  1.00  0.00    -0.248 NA
ATOM     35  C   UNL A   1      42.768  26.493  29.346  1.00  0.00     0.031 C 
ATOM     36  C   UNL A   1      38.387  28.848  28.553  1.00  0.00     0.029 A 
ATOM     37  N   UNL A   1      39.930  29.923  29.760  1.00  0.00    -0.354 N 
ATOM     38  C   UNL A   1      43.732  28.088  30.672  1.00  0.00     0.074 A 
ATOM     39  C   UNL A   1      43.823  26.763  30.098  1.00  0.00     0.031 C 
ATOM     40  C   UNL A   1      37.869  30.037  28.900  1.00  0.00     0.029 A 
ATOM     41  C   UNL A   1      38.839  30.761  29.715  1.00  0.00     0.049 A 
ATOM     42  H   UNL A   1      40.764  30.150  30.231  1.00  0.00     0.167 HD
ATOM     43  C   UNL A   1      44.714  28.677  31.396  1.00  0.00     0.037 A 
ATOM     44  C   UNL A   1      38.636  31.970  30.277  1.00  0.00     0.037 A 
ATOM     45  C   UNL A   1      44.625  30.005  31.948  1.00  0.00     0.049 A 
ATOM     46  C   UNL A   1      39.736  32.597  31.090  1.00  0.00     0.074 A 
ATOM     47  C   UNL A   1      45.589  30.712  32.645  1.00  0.00     0.029 A 
ATOM     48  N   UNL A   1      43.508  30.825  31.873  1.00  0.00    -0.354 N 
ATOM     49  N   UNL A   1      40.930  32.127  31.364  1.00  0.00    -0.248 NA
ATOM     50  C   UNL A   1      39.465  33.920  31.667  1.00  0.00     0.031 C 
ATOM     51  C   UNL A   1      45.038  31.935  33.039  1.00  0.00     0.029 A 
ATOM     52  C   UNL A   1      43.749  32.018  32.534  1.00  0.00     0.049 A 
ATOM     53  H   UNL A   1      42.667  30.592  31.416  1.00  0.00     0.167 HD
ATOM     54  C   UNL A   1      41.563  33.110  32.117  1.00  0.00     0.074 A 
ATOM     55  C   UNL A   1      40.624  34.204  32.247  1.00  0.00     0.031 C 
ATOM     56  C   UNL A   1      42.810  33.106  32.652  1.00  0.00     0.037 A 
BRANCH  43  57
ATOM     57  C   UNL A   1      45.974  27.889  31.641  1.00  0.00     0.058 A 
ATOM     58  C   UNL A   1      46.076  26.965  32.694  1.00  0.00     0.135 A 
ATOM     59  C   UNL A   1      47.080  28.028  30.786  1.00  0.00     0.135 A 
ATOM     60  F   UNL A   1      45.054  26.800  33.551  1.00  0.00    -0.206 F 
ATOM     61  C   UNL A   1      47.237  26.230  32.909  1.00  0.00     0.059 A 
ATOM     62  C   UNL A   1      48.241  27.279  30.963  1.00  0.00     0.059 A 
ATOM     63  F   UNL A   1      47.039  28.895  29.762  1.00  0.00    -0.206 F 
ATOM     64  C   UNL A   1      48.315  26.394  32.037  1.00  0.00     0.060 A 
BRANCH  64  65
ATOM     65  S   UNL A   1      49.812  25.428  32.328  1.00  0.00     0.124 S 
ATOM     66  O   UNL A   1      49.352  24.474  33.333  1.00  0.00    -0.237 OA
ATOM     67  O   UNL A   1      50.086  24.873  31.007  1.00  0.00    -0.237 OA
ATOM     68  O   UNL A   1      50.772  26.421  32.799  1.00  0.00    -0.744 OA
ENDBRANCH  64  65
ENDBRANCH  43  57
BRANCH  44  69
ATOM     69  C   UNL A   1      37.342  32.678  30.072  1.00  0.00     0.058 A 
ATOM     70  C   UNL A   1      37.206  33.659  29.077  1.00  0.00     0.135 A 
ATOM     71  C   UNL A   1      36.217  32.387  30.859  1.00  0.00     0.135 A 
ATOM     72  F   UNL A   1      38.254  33.979  28.304  1.00  0.00    -0.206 F 
ATOM     73  C   UNL A   1      36.008  34.339  28.883  1.00  0.00     0.059 A 
ATOM     74  C   UNL A   1      35.000  33.033  30.665  1.00  0.00     0.059 A 
ATOM     75  F   UNL A   1      36.290  31.446  31.814  1.00  0.00    -0.206 F 
ATOM     76  C   UNL A   1      34.909  34.016  29.680  1.00  0.00     0.060 A 
BRANCH  76  77
ATOM     77  S   UNL A   1      33.347  34.874  29.388  1.00  0.00     0.124 S 
ATOM     78  O   UNL A   1      32.693  33.977  28.442  1.00  0.00    -0.237 OA
ATOM     79  O   UNL A   1      32.769  34.922  30.728  1.00  0.00    -0.237 OA
ATOM     80  O   UNL A   1      33.767  36.163  28.848  1.00  0.00    -0.744 OA
ENDBRANCH  76  77
ENDBRANCH  44  69
BRANCH  56  81
ATOM     81  C   UNL A   1      43.254  34.338  33.392  1.00  0.00     0.058 A 
ATOM     82  C   UNL A   1      43.695  35.490  32.722  1.00  0.00     0.135 A 
ATOM     83  C   UNL A   1      43.186  34.385  34.795  1.00  0.00     0.135 A 
ATOM     84  F   UNL A   1      43.786  35.499  31.382  1.00  0.00    -0.206 F 
ATOM     85  C   UNL A   1      44.076  36.635  33.415  1.00  0.00     0.059 A 
ATOM     86  C   UNL A   1      43.531  35.530  35.507  1.00  0.00     0.059 A 
ATOM     87  F   UNL A   1      42.762  33.316  35.487  1.00  0.00    -0.206 F 
ATOM     88  C   UNL A   1      43.987  36.646  34.808  1.00  0.00     0.060 A 
BRANCH  88  89
ATOM     89  S   UNL A   1      44.450  38.150  35.692  1.00  0.00     0.124 S 
ATOM     90  O   UNL A   1      43.666  38.027  36.916  1.00  0.00    -0.237 OA
ATOM     91  O   UNL A   1      45.893  37.991  35.845  1.00  0.00    -0.237 OA
ATOM     92  O   UNL A   1      44.037  39.219  34.786  1.00  0.00    -0.744 OA
ENDBRANCH  88  89
ENDBRANCH  56  81
ENDBRANCH  30  31
ENDBRANCH  22  25
ENDBRANCH  20  21
ENDBRANCH   1  20
TORSDOF 17
ENDMDL
