MODEL 1
REMARK VINA RESULT:      -9.6      0.000      0.000
REMARK SMILES CC[C@@H](Nc1ccn(C)n1)C(=O)NCCCCNC(=O)c1ccc(-c2c3nc(c(-c4c(F)cc(S(=O)(=O)[O-])cc4F)c4ccc([nH]4)c(-c4c(F)cc(S(=O)(=O)[O-])cc4F)c4nc(c(-c5c(F)cc(S(=O)(=O)[O-])cc5F)c5ccc2[nH]5)C=C4)C=C3)cc1
REMARK SMILES IDX 16 1 15 2 14 3 13 4 11 5 12 6 3 8 2 9 1 10 4 11 5 13 6 14
REMARK SMILES IDX 10 15 7 16 8 17 9 18 17 19 18 20 19 21 20 23 21 24 22 25
REMARK SMILES IDX 86 26 23 27 85 28 24 29 25 30 26 31 79 32 27 33 84 34 78 35
REMARK SMILES IDX 80 36 28 37 83 38 77 39 76 40 29 42 63 43 42 44 62 45 43 46
REMARK SMILES IDX 46 47 61 48 81 49 44 50 45 51 60 53 82 54 47 55 30 56 31 57
REMARK SMILES IDX 40 58 32 59 33 60 39 61 41 62 34 63 35 64 36 65 37 66 38 67
REMARK SMILES IDX 64 68 65 69 74 70 66 71 67 72 73 73 75 74 68 75 69 76 70 77
REMARK SMILES IDX 71 78 72 79 48 80 49 81 58 82 50 83 51 84 57 85 59 86 52 87
REMARK SMILES IDX 53 88 54 89 55 90 56 91
REMARK H PARENT 13 7 4 12 18 22 80 41 46 52
REMARK Flexibility Score: inf
ROOT
ATOM      1  C   UNL A   1      35.866  33.580  28.436  1.00  0.00     0.023 C 
ENDROOT
BRANCH   1   2
ATOM      2  C   UNL A   1      37.133  33.743  29.272  1.00  0.00     0.023 C 
BRANCH   2   3
ATOM      3  C   UNL A   1      36.989  33.306  30.724  1.00  0.00     0.116 C 
BRANCH   3   4
ATOM      4  N   UNL A   1      37.716  34.181  31.626  1.00  0.00    -0.354 N 
ATOM      5  C   UNL A   1      37.689  34.227  32.993  1.00  0.00     0.242 C 
ATOM      6  O   UNL A   1      38.460  35.010  33.560  1.00  0.00    -0.273 OA
ATOM      7  H   UNL A   1      38.315  34.832  31.193  1.00  0.00     0.163 HD
BRANCH   5   8
ATOM      8  C   UNL A   1      36.691  33.375  33.815  1.00  0.00     0.169 C 
BRANCH   8   9
ATOM      9  C   UNL A   1      37.461  32.770  35.008  1.00  0.00     0.031 C 
ATOM     10  C   UNL A   1      37.300  33.533  36.314  1.00  0.00     0.006 C 
ENDBRANCH   8   9
BRANCH   8  11
ATOM     11  N   UNL A   1      35.501  34.112  34.256  1.00  0.00    -0.357 N 
ATOM     12  H   UNL A   1      35.270  34.074  35.212  1.00  0.00     0.162 HD
BRANCH  11  13
ATOM     13  C   UNL A   1      34.702  34.836  33.450  1.00  0.00     0.148 A 
ATOM     14  C   UNL A   1      33.997  34.388  32.313  1.00  0.00     0.068 A 
ATOM     15  N   UNL A   1      34.570  36.150  33.623  1.00  0.00    -0.156 NA
ATOM     16  C   UNL A   1      33.490  35.529  31.735  1.00  0.00     0.110 A 
ATOM     17  N   UNL A   1      33.886  36.554  32.538  1.00  0.00    -0.274 N 
ATOM     18  C   UNL A   1      33.724  37.967  32.293  1.00  0.00     0.173 C 
ENDBRANCH  11  13
ENDBRANCH   8  11
ENDBRANCH   5   8
ENDBRANCH   3   4
ENDBRANCH   2   3
ENDBRANCH   1   2
BRANCH   1  19
ATOM     19  C   UNL A   1      34.790  32.699  29.061  1.00  0.00     0.116 C 
BRANCH  19  20
ATOM     20  N   UNL A   1      34.117  31.842  28.094  1.00  0.00    -0.352 N 
ATOM     21  C   UNL A   1      34.560  30.649  27.572  1.00  0.00     0.251 C 
ATOM     22  H   UNL A   1      33.239  32.155  27.777  1.00  0.00     0.163 HD
ATOM     23  O   UNL A   1      33.941  30.084  26.676  1.00  0.00    -0.269 OA
BRANCH  21  24
ATOM     24  C   UNL A   1      35.814  30.076  28.096  1.00  0.00     0.039 A 
ATOM     25  C   UNL A   1      36.992  30.221  27.360  1.00  0.00     0.014 A 
ATOM     26  C   UNL A   1      35.826  29.471  29.356  1.00  0.00     0.014 A 
ATOM     27  C   UNL A   1      38.206  29.820  27.924  1.00  0.00     0.010 A 
ATOM     28  C   UNL A   1      37.041  29.131  29.937  1.00  0.00     0.010 A 
ATOM     29  C   UNL A   1      38.241  29.306  29.229  1.00  0.00    -0.014 A 
BRANCH  29  30
ATOM     30  C   UNL A   1      39.514  28.933  29.894  1.00  0.00     0.031 A 
ATOM     31  C   UNL A   1      40.008  29.754  31.050  1.00  0.00     0.074 A 
ATOM     32  C   UNL A   1      40.274  27.943  29.387  1.00  0.00     0.049 A 
ATOM     33  N   UNL A   1      41.169  29.726  31.650  1.00  0.00    -0.248 NA
ATOM     34  C   UNL A   1      39.082  30.770  31.575  1.00  0.00     0.031 C 
ATOM     35  C   UNL A   1      39.920  27.103  28.242  1.00  0.00     0.029 A 
ATOM     36  N   UNL A   1      41.520  27.499  29.755  1.00  0.00    -0.354 N 
ATOM     37  C   UNL A   1      41.129  30.744  32.594  1.00  0.00     0.074 A 
ATOM     38  C   UNL A   1      39.841  31.393  32.464  1.00  0.00     0.031 C 
ATOM     39  C   UNL A   1      40.925  26.244  28.002  1.00  0.00     0.029 A 
ATOM     40  C   UNL A   1      42.009  26.499  28.947  1.00  0.00     0.049 A 
ATOM     41  H   UNL A   1      42.016  27.861  30.524  1.00  0.00     0.167 HD
ATOM     42  C   UNL A   1      42.076  31.099  33.495  1.00  0.00     0.037 A 
ATOM     43  C   UNL A   1      43.201  25.872  28.955  1.00  0.00     0.037 A 
ATOM     44  C   UNL A   1      43.337  30.423  33.643  1.00  0.00     0.049 A 
ATOM     45  C   UNL A   1      44.224  26.253  29.989  1.00  0.00     0.074 A 
ATOM     46  C   UNL A   1      44.340  30.664  34.565  1.00  0.00     0.029 A 
ATOM     47  N   UNL A   1      43.765  29.368  32.850  1.00  0.00    -0.354 N 
ATOM     48  N   UNL A   1      44.157  27.190  30.904  1.00  0.00    -0.248 NA
ATOM     49  C   UNL A   1      45.481  25.493  29.998  1.00  0.00     0.031 C 
ATOM     50  C   UNL A   1      45.387  29.771  34.313  1.00  0.00     0.029 A 
ATOM     51  C   UNL A   1      45.020  28.950  33.257  1.00  0.00     0.049 A 
ATOM     52  H   UNL A   1      43.252  28.976  32.107  1.00  0.00     0.167 HD
ATOM     53  C   UNL A   1      45.349  27.114  31.616  1.00  0.00     0.074 A 
ATOM     54  C   UNL A   1      46.120  26.039  31.025  1.00  0.00     0.031 C 
ATOM     55  C   UNL A   1      45.764  27.864  32.666  1.00  0.00     0.037 A 
BRANCH  42  56
ATOM     56  C   UNL A   1      41.775  32.278  34.376  1.00  0.00     0.058 A 
ATOM     57  C   UNL A   1      41.234  32.119  35.662  1.00  0.00     0.135 A 
ATOM     58  C   UNL A   1      42.015  33.585  33.923  1.00  0.00     0.135 A 
ATOM     59  F   UNL A   1      40.970  30.891  36.137  1.00  0.00    -0.206 F 
ATOM     60  C   UNL A   1      40.893  33.215  36.447  1.00  0.00     0.059 A 
ATOM     61  C   UNL A   1      41.707  34.696  34.704  1.00  0.00     0.059 A 
ATOM     62  F   UNL A   1      42.533  33.794  32.703  1.00  0.00    -0.206 F 
ATOM     63  C   UNL A   1      41.122  34.500  35.954  1.00  0.00     0.060 A 
BRANCH  63  64
ATOM     64  S   UNL A   1      40.638  35.915  36.963  1.00  0.00     0.124 S 
ATOM     65  O   UNL A   1      39.981  35.256  38.088  1.00  0.00    -0.237 OA
ATOM     66  O   UNL A   1      41.919  36.546  37.260  1.00  0.00    -0.237 OA
ATOM     67  O   UNL A   1      39.759  36.675  36.080  1.00  0.00    -0.744 OA
ENDBRANCH  63  64
ENDBRANCH  42  56
BRANCH  43  68
ATOM     68  C   UNL A   1      43.470  24.800  27.963  1.00  0.00     0.058 A 
ATOM     69  C   UNL A   1      44.185  25.074  26.788  1.00  0.00     0.135 A 
ATOM     70  C   UNL A   1      43.070  23.475  28.193  1.00  0.00     0.135 A 
ATOM     71  F   UNL A   1      44.583  26.328  26.523  1.00  0.00    -0.206 F 
ATOM     72  C   UNL A   1      44.498  24.072  25.876  1.00  0.00     0.059 A 
ATOM     73  C   UNL A   1      43.387  22.452  27.305  1.00  0.00     0.059 A 
ATOM     74  F   UNL A   1      42.397  23.162  29.312  1.00  0.00    -0.206 F 
ATOM     75  C   UNL A   1      44.101  22.761  26.148  1.00  0.00     0.060 A 
BRANCH  75  76
ATOM     76  S   UNL A   1      44.589  21.454  25.000  1.00  0.00     0.124 S 
ATOM     77  O   UNL A   1      44.505  22.142  23.717  1.00  0.00    -0.237 OA
ATOM     78  O   UNL A   1      45.934  21.126  25.463  1.00  0.00    -0.237 OA
ATOM     79  O   UNL A   1      43.587  20.417  25.231  1.00  0.00    -0.744 OA
ENDBRANCH  75  76
ENDBRANCH  43  68
BRANCH  55  80
ATOM     80  C   UNL A   1      47.092  27.527  33.282  1.00  0.00     0.058 A 
ATOM     81  C   UNL A   1      47.213  26.559  34.289  1.00  0.00     0.135 A 
ATOM     82  C   UNL A   1      48.266  28.121  32.792  1.00  0.00     0.135 A 
ATOM     83  F   UNL A   1      46.119  25.969  34.794  1.00  0.00    -0.206 F 
ATOM     84  C   UNL A   1      48.456  26.191  34.793  1.00  0.00     0.059 A 
ATOM     85  C   UNL A   1      49.521  27.754  33.267  1.00  0.00     0.059 A 
ATOM     86  F   UNL A   1      48.202  29.047  31.822  1.00  0.00    -0.206 F 
ATOM     87  C   UNL A   1      49.605  26.791  34.271  1.00  0.00     0.060 A 
BRANCH  87  88
ATOM     88  S   UNL A   1      51.218  26.258  34.885  1.00  0.00     0.124 S 
ATOM     89  O   UNL A   1      51.478  27.248  35.925  1.00  0.00    -0.237 OA
ATOM     90  O   UNL A   1      50.944  24.903  35.355  1.00  0.00    -0.237 OA
ATOM     91  O   UNL A   1      52.074  26.344  33.706  1.00  0.00    -0.744 OA
ENDBRANCH  87  88
ENDBRANCH  55  80
ENDBRANCH  29  30
ENDBRANCH  21  24
ENDBRANCH  19  20
ENDBRANCH   1  19
TORSDOF 17
ENDMDL
MODEL 2
REMARK VINA RESULT:      -9.6      4.683      7.344
REMARK SMILES CC[C@@H](Nc1ccn(C)n1)C(=O)NCCCCNC(=O)c1ccc(-c2c3nc(c(-c4c(F)cc(S(=O)(=O)[O-])cc4F)c4ccc([nH]4)c(-c4c(F)cc(S(=O)(=O)[O-])cc4F)c4nc(c(-c5c(F)cc(S(=O)(=O)[O-])cc5F)c5ccc2[nH]5)C=C4)C=C3)cc1
REMARK SMILES IDX 16 1 15 2 14 3 13 4 11 5 12 6 3 8 2 9 1 10 4 11 5 13 6 14
REMARK SMILES IDX 10 15 7 16 8 17 9 18 17 19 18 20 19 21 20 23 21 24 22 25
REMARK SMILES IDX 86 26 23 27 85 28 24 29 25 30 26 31 79 32 27 33 84 34 78 35
REMARK SMILES IDX 80 36 28 37 83 38 77 39 76 40 29 42 63 43 42 44 62 45 43 46
REMARK SMILES IDX 46 47 61 48 81 49 44 50 45 51 60 53 82 54 47 55 30 56 31 57
REMARK SMILES IDX 40 58 32 59 33 60 39 61 41 62 34 63 35 64 36 65 37 66 38 67
REMARK SMILES IDX 64 68 65 69 74 70 66 71 67 72 73 73 75 74 68 75 69 76 70 77
REMARK SMILES IDX 71 78 72 79 48 80 49 81 58 82 50 83 51 84 57 85 59 86 52 87
REMARK SMILES IDX 53 88 54 89 55 90 56 91
REMARK H PARENT 13 7 4 12 18 22 80 41 46 52
REMARK Flexibility Score: inf
ROOT
ATOM      1  C   UNL A   1      32.227  27.789  26.729  1.00  0.00     0.023 C 
ENDROOT
BRANCH   1   2
ATOM      2  C   UNL A   1      32.306  26.339  26.257  1.00  0.00     0.023 C 
BRANCH   2   3
ATOM      3  C   UNL A   1      31.045  25.832  25.569  1.00  0.00     0.116 C 
BRANCH   3   4
ATOM      4  N   UNL A   1      30.307  24.906  26.410  1.00  0.00    -0.354 N 
ATOM      5  C   UNL A   1      30.609  23.613  26.741  1.00  0.00     0.242 C 
ATOM      6  O   UNL A   1      29.868  23.035  27.544  1.00  0.00    -0.273 OA
ATOM      7  H   UNL A   1      29.473  25.258  26.797  1.00  0.00     0.163 HD
BRANCH   5   8
ATOM      8  C   UNL A   1      31.803  22.866  26.095  1.00  0.00     0.169 C 
BRANCH   8   9
ATOM      9  C   UNL A   1      32.933  22.793  27.144  1.00  0.00     0.031 C 
ATOM     10  C   UNL A   1      34.232  23.457  26.718  1.00  0.00     0.006 C 
ENDBRANCH   8   9
BRANCH   8  11
ATOM     11  N   UNL A   1      31.462  21.538  25.573  1.00  0.00    -0.357 N 
ATOM     12  H   UNL A   1      30.509  21.329  25.446  1.00  0.00     0.162 HD
BRANCH  11  13
ATOM     13  C   UNL A   1      32.357  20.585  25.253  1.00  0.00     0.148 A 
ATOM     14  C   UNL A   1      33.573  20.748  24.556  1.00  0.00     0.068 A 
ATOM     15  N   UNL A   1      32.109  19.302  25.513  1.00  0.00    -0.156 NA
ATOM     16  C   UNL A   1      34.023  19.470  24.318  1.00  0.00     0.110 A 
ATOM     17  N   UNL A   1      33.098  18.645  24.882  1.00  0.00    -0.274 N 
ATOM     18  C   UNL A   1      33.041  17.206  24.788  1.00  0.00     0.173 C 
ENDBRANCH  11  13
ENDBRANCH   8  11
ENDBRANCH   5   8
ENDBRANCH   3   4
ENDBRANCH   2   3
ENDBRANCH   1   2
BRANCH   1  19
ATOM     19  C   UNL A   1      33.536  28.370  27.253  1.00  0.00     0.116 C 
BRANCH  19  20
ATOM     20  N   UNL A   1      33.444  29.785  27.585  1.00  0.00    -0.352 N 
ATOM     21  C   UNL A   1      34.419  30.589  28.127  1.00  0.00     0.251 C 
ATOM     22  H   UNL A   1      32.579  30.217  27.400  1.00  0.00     0.163 HD
ATOM     23  O   UNL A   1      34.171  31.742  28.465  1.00  0.00    -0.269 OA
BRANCH  21  24
ATOM     24  C   UNL A   1      35.768  30.024  28.319  1.00  0.00     0.039 A 
ATOM     25  C   UNL A   1      36.685  30.069  27.267  1.00  0.00     0.014 A 
ATOM     26  C   UNL A   1      36.139  29.527  29.572  1.00  0.00     0.014 A 
ATOM     27  C   UNL A   1      38.006  29.679  27.492  1.00  0.00     0.010 A 
ATOM     28  C   UNL A   1      37.468  29.200  29.808  1.00  0.00     0.010 A 
ATOM     29  C   UNL A   1      38.414  29.276  28.773  1.00  0.00    -0.014 A 
BRANCH  29  30
ATOM     30  C   UNL A   1      39.822  28.921  29.076  1.00  0.00     0.031 A 
ATOM     31  C   UNL A   1      40.748  29.975  29.611  1.00  0.00     0.074 A 
ATOM     32  C   UNL A   1      40.292  27.699  28.760  1.00  0.00     0.049 A 
ATOM     33  N   UNL A   1      42.046  29.938  29.765  1.00  0.00    -0.248 NA
ATOM     34  C   UNL A   1      40.133  31.258  29.987  1.00  0.00     0.031 C 
ATOM     35  C   UNL A   1      39.500  26.605  28.196  1.00  0.00     0.029 A 
ATOM     36  N   UNL A   1      41.562  27.183  28.840  1.00  0.00    -0.354 N 
ATOM     37  C   UNL A   1      42.407  31.201  30.215  1.00  0.00     0.074 A 
ATOM     38  C   UNL A   1      41.196  31.992  30.278  1.00  0.00     0.031 C 
ATOM     39  C   UNL A   1      40.301  25.548  27.983  1.00  0.00     0.029 A 
ATOM     40  C   UNL A   1      41.668  25.901  28.355  1.00  0.00     0.049 A 
ATOM     41  H   UNL A   1      42.324  27.684  29.211  1.00  0.00     0.167 HD
ATOM     42  C   UNL A   1      43.636  31.657  30.557  1.00  0.00     0.037 A 
ATOM     43  C   UNL A   1      42.747  25.108  28.209  1.00  0.00     0.037 A 
ATOM     44  C   UNL A   1      44.827  30.852  30.528  1.00  0.00     0.049 A 
ATOM     45  C   UNL A   1      44.096  25.618  28.631  1.00  0.00     0.074 A 
ATOM     46  C   UNL A   1      46.111  31.199  30.912  1.00  0.00     0.029 A 
ATOM     47  N   UNL A   1      44.880  29.535  30.096  1.00  0.00    -0.354 N 
ATOM     48  N   UNL A   1      44.419  26.802  29.096  1.00  0.00    -0.248 NA
ATOM     49  C   UNL A   1      45.229  24.689  28.515  1.00  0.00     0.031 C 
ATOM     50  C   UNL A   1      46.946  30.099  30.687  1.00  0.00     0.029 A 
ATOM     51  C   UNL A   1      46.175  29.055  30.198  1.00  0.00     0.049 A 
ATOM     52  H   UNL A   1      44.111  29.018  29.765  1.00  0.00     0.167 HD
ATOM     53  C   UNL A   1      45.784  26.751  29.355  1.00  0.00     0.074 A 
ATOM     54  C   UNL A   1      46.228  25.420  28.993  1.00  0.00     0.031 C 
ATOM     55  C   UNL A   1      46.594  27.719  29.850  1.00  0.00     0.037 A 
BRANCH  42  56
ATOM     56  C   UNL A   1      43.740  33.096  30.977  1.00  0.00     0.058 A 
ATOM     57  C   UNL A   1      43.921  34.126  30.042  1.00  0.00     0.135 A 
ATOM     58  C   UNL A   1      43.675  33.447  32.335  1.00  0.00     0.135 A 
ATOM     59  F   UNL A   1      44.007  33.843  28.732  1.00  0.00    -0.206 F 
ATOM     60  C   UNL A   1      44.085  35.449  30.439  1.00  0.00     0.059 A 
ATOM     61  C   UNL A   1      43.809  34.767  32.754  1.00  0.00     0.059 A 
ATOM     62  F   UNL A   1      43.501  32.501  33.272  1.00  0.00    -0.206 F 
ATOM     63  C   UNL A   1      44.039  35.758  31.800  1.00  0.00     0.060 A 
BRANCH  63  64
ATOM     64  S   UNL A   1      44.296  37.470  32.310  1.00  0.00     0.124 S 
ATOM     65  O   UNL A   1      43.351  37.585  33.417  1.00  0.00    -0.237 OA
ATOM     66  O   UNL A   1      45.707  37.482  32.680  1.00  0.00    -0.237 OA
ATOM     67  O   UNL A   1      43.958  38.234  31.113  1.00  0.00    -0.744 OA
ENDBRANCH  63  64
ENDBRANCH  42  56
BRANCH  43  68
ATOM     68  C   UNL A   1      42.578  23.737  27.663  1.00  0.00     0.058 A 
ATOM     69  C   UNL A   1      42.651  23.502  26.282  1.00  0.00     0.135 A 
ATOM     70  C   UNL A   1      42.396  22.631  28.507  1.00  0.00     0.135 A 
ATOM     71  F   UNL A   1      42.818  24.530  25.436  1.00  0.00    -0.206 F 
ATOM     72  C   UNL A   1      42.554  22.219  25.756  1.00  0.00     0.059 A 
ATOM     73  C   UNL A   1      42.315  21.336  28.007  1.00  0.00     0.059 A 
ATOM     74  F   UNL A   1      42.335  22.805  29.837  1.00  0.00    -0.206 F 
ATOM     75  C   UNL A   1      42.394  21.140  26.628  1.00  0.00     0.060 A 
BRANCH  75  76
ATOM     76  S   UNL A   1      42.358  19.470  25.940  1.00  0.00     0.124 S 
ATOM     77  O   UNL A   1      40.931  19.279  25.705  1.00  0.00    -0.237 OA
ATOM     78  O   UNL A   1      43.189  19.610  24.749  1.00  0.00    -0.237 OA
ATOM     79  O   UNL A   1      42.938  18.658  27.006  1.00  0.00    -0.744 OA
ENDBRANCH  75  76
ENDBRANCH  43  68
BRANCH  55  80
ATOM     80  C   UNL A   1      48.036  27.370  30.079  1.00  0.00     0.058 A 
ATOM     81  C   UNL A   1      48.997  27.512  29.068  1.00  0.00     0.135 A 
ATOM     82  C   UNL A   1      48.472  26.973  31.354  1.00  0.00     0.135 A 
ATOM     83  F   UNL A   1      48.629  27.882  27.832  1.00  0.00    -0.206 F 
ATOM     84  C   UNL A   1      50.345  27.269  29.312  1.00  0.00     0.059 A 
ATOM     85  C   UNL A   1      49.817  26.744  31.625  1.00  0.00     0.059 A 
ATOM     86  F   UNL A   1      47.590  26.832  32.356  1.00  0.00    -0.206 F 
ATOM     87  C   UNL A   1      50.746  26.891  30.596  1.00  0.00     0.060 A 
BRANCH  87  88
ATOM     88  S   UNL A   1      52.505  26.644  30.920  1.00  0.00     0.124 S 
ATOM     89  O   UNL A   1      52.795  27.750  31.826  1.00  0.00    -0.237 OA
ATOM     90  O   UNL A   1      52.531  25.312  31.517  1.00  0.00    -0.237 OA
ATOM     91  O   UNL A   1      53.110  26.741  29.595  1.00  0.00    -0.744 OA
ENDBRANCH  87  88
ENDBRANCH  55  80
ENDBRANCH  29  30
ENDBRANCH  21  24
ENDBRANCH  19  20
ENDBRANCH   1  19
TORSDOF 17
ENDMDL
MODEL 3
REMARK VINA RESULT:      -9.3      5.341      7.751
REMARK SMILES CC[C@@H](Nc1ccn(C)n1)C(=O)NCCCCNC(=O)c1ccc(-c2c3nc(c(-c4c(F)cc(S(=O)(=O)[O-])cc4F)c4ccc([nH]4)c(-c4c(F)cc(S(=O)(=O)[O-])cc4F)c4nc(c(-c5c(F)cc(S(=O)(=O)[O-])cc5F)c5ccc2[nH]5)C=C4)C=C3)cc1
REMARK SMILES IDX 16 1 15 2 14 3 13 4 11 5 12 6 3 8 2 9 1 10 4 11 5 13 6 14
REMARK SMILES IDX 10 15 7 16 8 17 9 18 17 19 18 20 19 21 20 23 21 24 22 25
REMARK SMILES IDX 86 26 23 27 85 28 24 29 25 30 26 31 79 32 27 33 84 34 78 35
REMARK SMILES IDX 80 36 28 37 83 38 77 39 76 40 29 42 63 43 42 44 62 45 43 46
REMARK SMILES IDX 46 47 61 48 81 49 44 50 45 51 60 53 82 54 47 55 30 56 31 57
REMARK SMILES IDX 40 58 32 59 33 60 39 61 41 62 34 63 35 64 36 65 37 66 38 67
REMARK SMILES IDX 64 68 65 69 74 70 66 71 67 72 73 73 75 74 68 75 69 76 70 77
REMARK SMILES IDX 71 78 72 79 48 80 49 81 58 82 50 83 51 84 57 85 59 86 52 87
REMARK SMILES IDX 53 88 54 89 55 90 56 91
REMARK H PARENT 13 7 4 12 18 22 80 41 46 52
REMARK Flexibility Score: inf
ROOT
ATOM      1  C   UNL A   1      34.423  29.261  27.304  1.00  0.00     0.023 C 
ENDROOT
BRANCH   1   2
ATOM      2  C   UNL A   1      33.696  30.533  26.874  1.00  0.00     0.023 C 
BRANCH   2   3
ATOM      3  C   UNL A   1      32.188  30.377  26.730  1.00  0.00     0.116 C 
BRANCH   3   4
ATOM      4  N   UNL A   1      31.808  28.994  26.502  1.00  0.00    -0.354 N 
ATOM      5  C   UNL A   1      31.471  28.373  25.330  1.00  0.00     0.242 C 
ATOM      6  O   UNL A   1      31.258  27.156  25.362  1.00  0.00    -0.273 OA
ATOM      7  H   UNL A   1      31.792  28.422  27.303  1.00  0.00     0.163 HD
BRANCH   5   8
ATOM      8  C   UNL A   1      31.303  29.166  24.010  1.00  0.00     0.169 C 
BRANCH   8   9
ATOM      9  C   UNL A   1      32.288  28.576  22.979  1.00  0.00     0.031 C 
ATOM     10  C   UNL A   1      33.729  28.496  23.458  1.00  0.00     0.006 C 
ENDBRANCH   8   9
BRANCH   8  11
ATOM     11  N   UNL A   1      29.928  29.182  23.497  1.00  0.00    -0.357 N 
ATOM     12  H   UNL A   1      29.426  28.336  23.511  1.00  0.00     0.162 HD
BRANCH  11  13
ATOM     13  C   UNL A   1      29.302  30.270  23.009  1.00  0.00     0.148 A 
ATOM     14  C   UNL A   1      28.517  31.201  23.723  1.00  0.00     0.068 A 
ATOM     15  N   UNL A   1      29.302  30.529  21.703  1.00  0.00    -0.156 NA
ATOM     16  C   UNL A   1      27.953  32.005  22.760  1.00  0.00     0.110 A 
ATOM     17  N   UNL A   1      28.429  31.542  21.571  1.00  0.00    -0.274 N 
ATOM     18  C   UNL A   1      28.030  31.962  20.250  1.00  0.00     0.173 C 
ENDBRANCH  11  13
ENDBRANCH   8  11
ENDBRANCH   5   8
ENDBRANCH   3   4
ENDBRANCH   2   3
ENDBRANCH   1   2
BRANCH   1  19
ATOM     19  C   UNL A   1      35.689  29.486  28.123  1.00  0.00     0.116 C 
BRANCH  19  20
ATOM     20  N   UNL A   1      35.442  30.167  29.387  1.00  0.00    -0.352 N 
ATOM     21  C   UNL A   1      36.354  30.486  30.366  1.00  0.00     0.251 C 
ATOM     22  H   UNL A   1      34.510  30.431  29.561  1.00  0.00     0.163 HD
ATOM     23  O   UNL A   1      35.990  30.960  31.437  1.00  0.00    -0.269 OA
BRANCH  21  24
ATOM     24  C   UNL A   1      37.782  30.217  30.109  1.00  0.00     0.039 A 
ATOM     25  C   UNL A   1      38.530  29.523  31.062  1.00  0.00     0.014 A 
ATOM     26  C   UNL A   1      38.347  30.584  28.884  1.00  0.00     0.014 A 
ATOM     27  C   UNL A   1      39.834  29.131  30.757  1.00  0.00     0.010 A 
ATOM     28  C   UNL A   1      39.621  30.139  28.561  1.00  0.00     0.010 A 
ATOM     29  C   UNL A   1      40.375  29.405  29.491  1.00  0.00    -0.014 A 
BRANCH  29  30
ATOM     30  C   UNL A   1      41.730  28.946  29.097  1.00  0.00     0.031 A 
ATOM     31  C   UNL A   1      42.847  29.945  29.005  1.00  0.00     0.074 A 
ATOM     32  C   UNL A   1      41.924  27.670  28.711  1.00  0.00     0.049 A 
ATOM     33  N   UNL A   1      44.046  29.803  28.506  1.00  0.00    -0.248 NA
ATOM     34  C   UNL A   1      42.559  31.298  29.509  1.00  0.00     0.031 C 
ATOM     35  C   UNL A   1      40.907  26.618  28.717  1.00  0.00     0.029 A 
ATOM     36  N   UNL A   1      43.041  27.051  28.208  1.00  0.00    -0.354 N 
ATOM     37  C   UNL A   1      44.642  31.055  28.597  1.00  0.00     0.074 A 
ATOM     38  C   UNL A   1      43.659  31.951  29.169  1.00  0.00     0.031 C 
ATOM     39  C   UNL A   1      41.447  25.483  28.241  1.00  0.00     0.029 A 
ATOM     40  C   UNL A   1      42.833  25.737  27.859  1.00  0.00     0.049 A 
ATOM     41  H   UNL A   1      43.909  27.504  28.107  1.00  0.00     0.167 HD
ATOM     42  C   UNL A   1      45.898  31.421  28.246  1.00  0.00     0.037 A 
ATOM     43  C   UNL A   1      43.660  24.845  27.281  1.00  0.00     0.037 A 
ATOM     44  C   UNL A   1      46.879  30.514  27.715  1.00  0.00     0.049 A 
ATOM     45  C   UNL A   1      45.062  25.259  26.935  1.00  0.00     0.074 A 
ATOM     46  C   UNL A   1      48.199  30.770  27.385  1.00  0.00     0.029 A 
ATOM     47  N   UNL A   1      46.650  29.174  27.442  1.00  0.00    -0.354 N 
ATOM     48  N   UNL A   1      45.628  26.436  27.066  1.00  0.00    -0.248 NA
ATOM     49  C   UNL A   1      45.944  24.229  26.369  1.00  0.00     0.031 C 
ATOM     50  C   UNL A   1      48.760  29.589  26.887  1.00  0.00     0.029 A 
ATOM     51  C   UNL A   1      47.801  28.589  26.942  1.00  0.00     0.049 A 
ATOM     52  H   UNL A   1      45.794  28.707  27.582  1.00  0.00     0.167 HD
ATOM     53  C   UNL A   1      46.937  26.281  26.626  1.00  0.00     0.074 A 
ATOM     54  C   UNL A   1      47.081  24.897  26.223  1.00  0.00     0.031 C 
ATOM     55  C   UNL A   1      47.930  27.202  26.565  1.00  0.00     0.037 A 
BRANCH  42  56
ATOM     56  C   UNL A   1      46.263  32.868  28.421  1.00  0.00     0.058 A 
ATOM     57  C   UNL A   1      45.947  33.831  27.449  1.00  0.00     0.135 A 
ATOM     58  C   UNL A   1      46.952  33.295  29.567  1.00  0.00     0.135 A 
ATOM     59  F   UNL A   1      45.304  33.473  26.327  1.00  0.00    -0.206 F 
ATOM     60  C   UNL A   1      46.347  35.156  27.582  1.00  0.00     0.059 A 
ATOM     61  C   UNL A   1      47.338  34.622  29.734  1.00  0.00     0.059 A 
ATOM     62  F   UNL A   1      47.277  32.416  30.528  1.00  0.00    -0.206 F 
ATOM     63  C   UNL A   1      47.053  35.539  28.724  1.00  0.00     0.060 A 
BRANCH  63  64
ATOM     64  S   UNL A   1      47.604  37.252  28.868  1.00  0.00     0.124 S 
ATOM     65  O   UNL A   1      47.312  37.762  27.532  1.00  0.00    -0.237 OA
ATOM     66  O   UNL A   1      46.760  37.767  29.941  1.00  0.00    -0.237 OA
ATOM     67  O   UNL A   1      49.021  37.125  29.196  1.00  0.00    -0.744 OA
ENDBRANCH  63  64
ENDBRANCH  42  56
BRANCH  43  68
ATOM     68  C   UNL A   1      43.178  23.463  27.023  1.00  0.00     0.058 A 
ATOM     69  C   UNL A   1      42.907  23.031  25.716  1.00  0.00     0.135 A 
ATOM     70  C   UNL A   1      43.034  22.533  28.064  1.00  0.00     0.135 A 
ATOM     71  F   UNL A   1      43.026  23.887  24.690  1.00  0.00    -0.206 F 
ATOM     72  C   UNL A   1      42.513  21.725  25.448  1.00  0.00     0.059 A 
ATOM     73  C   UNL A   1      42.658  21.216  27.820  1.00  0.00     0.059 A 
ATOM     74  F   UNL A   1      43.297  22.896  29.329  1.00  0.00    -0.206 F 
ATOM     75  C   UNL A   1      42.399  20.821  26.507  1.00  0.00     0.060 A 
BRANCH  75  76
ATOM     76  S   UNL A   1      41.972  19.106  26.138  1.00  0.00     0.124 S 
ATOM     77  O   UNL A   1      42.279  18.447  27.402  1.00  0.00    -0.237 OA
ATOM     78  O   UNL A   1      40.556  19.208  25.799  1.00  0.00    -0.237 OA
ATOM     79  O   UNL A   1      42.853  18.775  25.021  1.00  0.00    -0.744 OA
ENDBRANCH  75  76
ENDBRANCH  43  68
BRANCH  55  80
ATOM     80  C   UNL A   1      49.278  26.743  26.089  1.00  0.00     0.058 A 
ATOM     81  C   UNL A   1      49.680  26.897  24.755  1.00  0.00     0.135 A 
ATOM     82  C   UNL A   1      50.208  26.222  27.004  1.00  0.00     0.135 A 
ATOM     83  F   UNL A   1      48.825  27.384  23.843  1.00  0.00    -0.206 F 
ATOM     84  C   UNL A   1      50.962  26.548  24.341  1.00  0.00     0.059 A 
ATOM     85  C   UNL A   1      51.500  25.884  26.615  1.00  0.00     0.059 A 
ATOM     86  F   UNL A   1      49.872  26.063  28.293  1.00  0.00    -0.206 F 
ATOM     87  C   UNL A   1      51.867  26.048  25.280  1.00  0.00     0.060 A 
BRANCH  87  88
ATOM     88  S   UNL A   1      53.548  25.661  24.747  1.00  0.00     0.124 S 
ATOM     89  O   UNL A   1      53.647  24.246  25.092  1.00  0.00    -0.237 OA
ATOM     90  O   UNL A   1      53.503  25.962  23.319  1.00  0.00    -0.237 OA
ATOM     91  O   UNL A   1      54.372  26.562  25.545  1.00  0.00    -0.744 OA
ENDBRANCH  87  88
ENDBRANCH  55  80
ENDBRANCH  29  30
ENDBRANCH  21  24
ENDBRANCH  19  20
ENDBRANCH   1  19
TORSDOF 17
ENDMDL
