MODEL 1
REMARK VINA RESULT:     -13.7      0.000      0.000
REMARK SMILES O=C(NCCCCNC(=O)c1ccc2c(c1)[C@@H]1C=CC[C@@H]1[C@H](c1ccncc1)N2)c1ccc(-c2c3nc(c(-c4c(F)cc(S(=O)(=O)[O-])cc4F)c4ccc([nH]4)c(-c4c(F)cc(S(=O)(=O)[O-])cc4F)c4nc(c(-c5c(F)cc(S(=O)(=O)[O-])cc5F)c5ccc2[nH]5)C=C4)C=C3)cc1
REMARK SMILES IDX 4 1 3 2 1 3 2 4 30 6 31 7 95 8 32 9 94 10 33 11 34 12 35 13
REMARK SMILES IDX 88 14 36 15 93 16 87 17 89 18 37 19 92 20 86 21 85 22 38 24
REMARK SMILES IDX 72 25 51 26 71 27 52 28 55 29 70 30 90 31 53 32 54 33 69 35
REMARK SMILES IDX 91 36 56 37 39 38 40 39 49 40 41 41 42 42 48 43 50 44 43 45
REMARK SMILES IDX 44 46 45 47 46 48 47 49 73 50 74 51 83 52 75 53 76 54 82 55
REMARK SMILES IDX 84 56 77 57 78 58 79 59 80 60 81 61 57 62 58 63 67 64 59 65
REMARK SMILES IDX 60 66 66 67 68 68 61 69 62 70 63 71 64 72 65 73 5 74 6 75
REMARK SMILES IDX 7 76 8 77 9 78 10 80 11 81 12 82 16 83 13 84 15 85 14 86
REMARK SMILES IDX 17 87 29 88 18 89 21 90 22 91 19 93 20 94 23 95 24 96 28 97
REMARK SMILES IDX 25 98 27 99 26 100
REMARK H PARENT 3 5 89 23 55 34 8 79 29 92
REMARK Flexibility Score: inf
ROOT
ATOM      1  C   UNL A   1      38.868  23.924  26.780  1.00  0.00     0.116 C 
ENDROOT
BRANCH   1   2
ATOM      2  N   UNL A   1      39.908  24.431  25.895  1.00  0.00    -0.352 N 
ATOM      3  O   UNL A   1      41.531  25.823  25.173  1.00  0.00    -0.269 OA
ATOM      4  C   UNL A   1      40.781  25.480  26.083  1.00  0.00     0.251 C 
ATOM      5  H   UNL A   1      40.001  23.955  25.039  1.00  0.00     0.163 HD
BRANCH   4   6
ATOM      6  C   UNL A   1      40.781  26.217  27.366  1.00  0.00     0.039 A 
ATOM      7  C   UNL A   1      39.878  25.890  28.377  1.00  0.00     0.014 A 
ATOM      8  C   UNL A   1      41.674  27.278  27.541  1.00  0.00     0.014 A 
ATOM      9  C   UNL A   1      39.739  26.732  29.475  1.00  0.00     0.010 A 
ATOM     10  C   UNL A   1      41.593  28.072  28.690  1.00  0.00     0.010 A 
ATOM     11  C   UNL A   1      40.588  27.840  29.640  1.00  0.00    -0.014 A 
BRANCH  11  12
ATOM     12  C   UNL A   1      40.393  28.734  30.812  1.00  0.00     0.031 A 
ATOM     13  C   UNL A   1      41.305  28.658  32.009  1.00  0.00     0.074 A 
ATOM     14  C   UNL A   1      39.419  29.666  30.767  1.00  0.00     0.049 A 
ATOM     15  N   UNL A   1      41.316  29.404  33.084  1.00  0.00    -0.248 NA
ATOM     16  C   UNL A   1      42.331  27.602  32.005  1.00  0.00     0.031 C 
ATOM     17  C   UNL A   1      38.462  29.831  29.671  1.00  0.00     0.029 A 
ATOM     18  N   UNL A   1      39.092  30.665  31.647  1.00  0.00    -0.354 N 
ATOM     19  C   UNL A   1      42.323  28.893  33.896  1.00  0.00     0.074 A 
ATOM     20  C   UNL A   1      42.891  27.761  33.196  1.00  0.00     0.031 C 
ATOM     21  C   UNL A   1      37.696  30.904  29.913  1.00  0.00     0.029 A 
ATOM     22  C   UNL A   1      38.074  31.475  31.202  1.00  0.00     0.049 A 
ATOM     23  H   UNL A   1      39.542  30.791  32.513  1.00  0.00     0.167 HD
ATOM     24  C   UNL A   1      42.741  29.331  35.109  1.00  0.00     0.037 A 
ATOM     25  C   UNL A   1      37.510  32.560  31.764  1.00  0.00     0.037 A 
ATOM     26  C   UNL A   1      42.201  30.483  35.787  1.00  0.00     0.049 A 
ATOM     27  C   UNL A   1      38.015  33.047  33.092  1.00  0.00     0.074 A 
ATOM     28  C   UNL A   1      42.584  31.026  37.001  1.00  0.00     0.029 A 
ATOM     29  N   UNL A   1      41.166  31.271  35.306  1.00  0.00    -0.354 N 
ATOM     30  N   UNL A   1      38.982  32.562  33.831  1.00  0.00    -0.248 NA
ATOM     31  C   UNL A   1      37.350  34.227  33.660  1.00  0.00     0.031 C 
ATOM     32  C   UNL A   1      41.764  32.130  37.266  1.00  0.00     0.029 A 
ATOM     33  C   UNL A   1      40.892  32.292  36.203  1.00  0.00     0.049 A 
ATOM     34  H   UNL A   1      40.695  31.127  34.453  1.00  0.00     0.167 HD
ATOM     35  C   UNL A   1      39.055  33.387  34.947  1.00  0.00     0.074 A 
ATOM     36  C   UNL A   1      38.043  34.410  34.776  1.00  0.00     0.031 C 
ATOM     37  C   UNL A   1      39.884  33.304  36.015  1.00  0.00     0.037 A 
BRANCH  24  38
ATOM     38  C   UNL A   1      43.829  28.551  35.794  1.00  0.00     0.058 A 
ATOM     39  C   UNL A   1      45.186  28.844  35.596  1.00  0.00     0.135 A 
ATOM     40  C   UNL A   1      43.505  27.516  36.687  1.00  0.00     0.135 A 
ATOM     41  F   UNL A   1      45.551  29.813  34.742  1.00  0.00    -0.206 F 
ATOM     42  C   UNL A   1      46.188  28.121  36.238  1.00  0.00     0.059 A 
ATOM     43  C   UNL A   1      44.489  26.793  37.356  1.00  0.00     0.059 A 
ATOM     44  F   UNL A   1      42.221  27.196  36.914  1.00  0.00    -0.206 F 
ATOM     45  C   UNL A   1      45.829  27.092  37.112  1.00  0.00     0.060 A 
BRANCH  45  46
ATOM     46  S   UNL A   1      47.134  26.155  37.934  1.00  0.00     0.124 S 
ATOM     47  O   UNL A   1      47.464  25.163  36.914  1.00  0.00    -0.237 OA
ATOM     48  O   UNL A   1      48.151  27.173  38.177  1.00  0.00    -0.237 OA
ATOM     49  O   UNL A   1      46.477  25.633  39.128  1.00  0.00    -0.744 OA
ENDBRANCH  45  46
ENDBRANCH  24  38
BRANCH  25  50
ATOM     50  C   UNL A   1      36.418  33.271  31.051  1.00  0.00     0.058 A 
ATOM     51  C   UNL A   1      35.097  33.209  31.515  1.00  0.00     0.135 A 
ATOM     52  C   UNL A   1      36.682  34.055  29.918  1.00  0.00     0.135 A 
ATOM     53  F   UNL A   1      34.799  32.470  32.595  1.00  0.00    -0.206 F 
ATOM     54  C   UNL A   1      34.070  33.896  30.878  1.00  0.00     0.059 A 
ATOM     55  C   UNL A   1      35.676  34.768  29.276  1.00  0.00     0.059 A 
ATOM     56  F   UNL A   1      37.935  34.159  29.449  1.00  0.00    -0.206 F 
ATOM     57  C   UNL A   1      34.370  34.676  29.759  1.00  0.00     0.060 A 
BRANCH  57  58
ATOM     58  S   UNL A   1      33.047  35.620  28.973  1.00  0.00     0.124 S 
ATOM     59  O   UNL A   1      32.282  36.069  30.129  1.00  0.00    -0.237 OA
ATOM     60  O   UNL A   1      33.788  36.654  28.256  1.00  0.00    -0.237 OA
ATOM     61  O   UNL A   1      32.392  34.630  28.123  1.00  0.00    -0.744 OA
ENDBRANCH  57  58
ENDBRANCH  25  50
BRANCH  37  62
ATOM     62  C   UNL A   1      39.747  34.367  37.066  1.00  0.00     0.058 A 
ATOM     63  C   UNL A   1      40.365  35.619  36.929  1.00  0.00     0.135 A 
ATOM     64  C   UNL A   1      38.973  34.136  38.214  1.00  0.00     0.135 A 
ATOM     65  F   UNL A   1      41.121  35.885  35.852  1.00  0.00    -0.206 F 
ATOM     66  C   UNL A   1      40.244  36.598  37.910  1.00  0.00     0.059 A 
ATOM     67  C   UNL A   1      38.822  35.108  39.198  1.00  0.00     0.059 A 
ATOM     68  F   UNL A   1      38.355  32.956  38.387  1.00  0.00    -0.206 F 
ATOM     69  C   UNL A   1      39.473  36.331  39.043  1.00  0.00     0.060 A 
BRANCH  69  70
ATOM     70  S   UNL A   1      39.310  37.609  40.308  1.00  0.00     0.124 S 
ATOM     71  O   UNL A   1      38.316  38.491  39.705  1.00  0.00    -0.237 OA
ATOM     72  O   UNL A   1      38.860  36.849  41.471  1.00  0.00    -0.237 OA
ATOM     73  O   UNL A   1      40.659  38.156  40.411  1.00  0.00    -0.744 OA
ENDBRANCH  69  70
ENDBRANCH  37  62
ENDBRANCH  11  12
ENDBRANCH   4   6
ENDBRANCH   1   2
BRANCH   1  74
ATOM     74  C   UNL A   1      37.510  23.783  26.103  1.00  0.00     0.023 C 
BRANCH  74  75
ATOM     75  C   UNL A   1      37.347  22.562  25.204  1.00  0.00     0.023 C 
BRANCH  75  76
ATOM     76  C   UNL A   1      35.981  21.888  25.253  1.00  0.00     0.116 C 
BRANCH  76  77
ATOM     77  N   UNL A   1      35.393  21.871  26.586  1.00  0.00    -0.352 N 
ATOM     78  C   UNL A   1      34.306  22.570  27.056  1.00  0.00     0.251 C 
ATOM     79  H   UNL A   1      35.834  21.280  27.238  1.00  0.00     0.163 HD
ATOM     80  O   UNL A   1      33.985  22.526  28.239  1.00  0.00    -0.269 OA
BRANCH  78  81
ATOM     81  C   UNL A   1      33.539  23.414  26.121  1.00  0.00     0.040 A 
ATOM     82  C   UNL A   1      32.346  22.930  25.593  1.00  0.00     0.016 A 
ATOM     83  C   UNL A   1      33.960  24.715  25.840  1.00  0.00     0.020 A 
ATOM     84  C   UNL A   1      31.546  23.778  24.826  1.00  0.00     0.027 A 
ATOM     85  C   UNL A   1      33.114  25.594  25.148  1.00  0.00    -0.017 A 
ATOM     86  C   UNL A   1      31.920  25.110  24.589  1.00  0.00     0.038 A 
ATOM     87  C   UNL A   1      33.480  27.060  25.061  1.00  0.00     0.049 C 
ATOM     88  N   UNL A   1      31.047  25.945  23.904  1.00  0.00    -0.378 N 
ATOM     89  C   UNL A   1      33.723  27.676  26.420  1.00  0.00    -0.023 C 
ATOM     90  C   UNL A   1      32.330  27.950  24.560  1.00  0.00     0.031 C 
ATOM     91  C   UNL A   1      31.495  27.261  23.479  1.00  0.00     0.114 C 
ATOM     92  H   UNL A   1      30.130  25.648  23.706  1.00  0.00     0.161 HD
ATOM     93  C   UNL A   1      32.674  28.394  26.842  1.00  0.00    -0.030 C 
ATOM     94  C   UNL A   1      31.575  28.389  25.827  1.00  0.00     0.034 C 
BRANCH  91  95
ATOM     95  C   UNL A   1      30.338  28.134  23.014  1.00  0.00    -0.022 A 
ATOM     96  C   UNL A   1      30.610  29.300  22.284  1.00  0.00     0.026 A 
ATOM     97  C   UNL A   1      28.999  27.848  23.305  1.00  0.00     0.026 A 
ATOM     98  C   UNL A   1      29.556  30.104  21.877  1.00  0.00     0.111 A 
ATOM     99  C   UNL A   1      28.012  28.707  22.842  1.00  0.00     0.111 A 
ATOM    100  N   UNL A   1      28.261  29.827  22.133  1.00  0.00    -0.265 NA
ENDBRANCH  91  95
ENDBRANCH  78  81
ENDBRANCH  76  77
ENDBRANCH  75  76
ENDBRANCH  74  75
ENDBRANCH   1  74
TORSDOF 15
ENDMDL
MODEL 2
REMARK VINA RESULT:     -13.6      5.146     10.073
REMARK SMILES O=C(NCCCCNC(=O)c1ccc2c(c1)[C@@H]1C=CC[C@@H]1[C@H](c1ccncc1)N2)c1ccc(-c2c3nc(c(-c4c(F)cc(S(=O)(=O)[O-])cc4F)c4ccc([nH]4)c(-c4c(F)cc(S(=O)(=O)[O-])cc4F)c4nc(c(-c5c(F)cc(S(=O)(=O)[O-])cc5F)c5ccc2[nH]5)C=C4)C=C3)cc1
REMARK SMILES IDX 4 1 3 2 1 3 2 4 30 6 31 7 95 8 32 9 94 10 33 11 34 12 35 13
REMARK SMILES IDX 88 14 36 15 93 16 87 17 89 18 37 19 92 20 86 21 85 22 38 24
REMARK SMILES IDX 72 25 51 26 71 27 52 28 55 29 70 30 90 31 53 32 54 33 69 35
REMARK SMILES IDX 91 36 56 37 39 38 40 39 49 40 41 41 42 42 48 43 50 44 43 45
REMARK SMILES IDX 44 46 45 47 46 48 47 49 73 50 74 51 83 52 75 53 76 54 82 55
REMARK SMILES IDX 84 56 77 57 78 58 79 59 80 60 81 61 57 62 58 63 67 64 59 65
REMARK SMILES IDX 60 66 66 67 68 68 61 69 62 70 63 71 64 72 65 73 5 74 6 75
REMARK SMILES IDX 7 76 8 77 9 78 10 80 11 81 12 82 16 83 13 84 15 85 14 86
REMARK SMILES IDX 17 87 29 88 18 89 21 90 22 91 19 93 20 94 23 95 24 96 28 97
REMARK SMILES IDX 25 98 27 99 26 100
REMARK H PARENT 3 5 89 23 55 34 8 79 29 92
REMARK Flexibility Score: inf
ROOT
ATOM      1  C   UNL A   1      33.651  28.371  27.197  1.00  0.00     0.116 C 
ENDROOT
BRANCH   1   2
ATOM      2  N   UNL A   1      33.582  29.754  27.647  1.00  0.00    -0.352 N 
ATOM      3  O   UNL A   1      34.282  31.661  28.629  1.00  0.00    -0.269 OA
ATOM      4  C   UNL A   1      34.559  30.536  28.223  1.00  0.00     0.251 C 
ATOM      5  H   UNL A   1      32.711  30.195  27.520  1.00  0.00     0.163 HD
BRANCH   4   6
ATOM      6  C   UNL A   1      35.927  29.999  28.391  1.00  0.00     0.039 A 
ATOM      7  C   UNL A   1      36.334  29.449  29.607  1.00  0.00     0.014 A 
ATOM      8  C   UNL A   1      36.827  30.085  27.325  1.00  0.00     0.014 A 
ATOM      9  C   UNL A   1      37.678  29.161  29.816  1.00  0.00     0.010 A 
ATOM     10  C   UNL A   1      38.162  29.710  27.511  1.00  0.00     0.010 A 
ATOM     11  C   UNL A   1      38.611  29.299  28.774  1.00  0.00    -0.014 A 
BRANCH  11  12
ATOM     12  C   UNL A   1      40.045  29.009  29.042  1.00  0.00     0.031 A 
ATOM     13  C   UNL A   1      40.662  27.696  28.633  1.00  0.00     0.074 A 
ATOM     14  C   UNL A   1      40.810  29.965  29.605  1.00  0.00     0.049 A 
ATOM     15  N   UNL A   1      41.907  27.305  28.732  1.00  0.00    -0.248 NA
ATOM     16  C   UNL A   1      39.765  26.686  28.047  1.00  0.00     0.031 C 
ATOM     17  C   UNL A   1      40.327  31.271  30.058  1.00  0.00     0.029 A 
ATOM     18  N   UNL A   1      42.156  30.000  29.865  1.00  0.00    -0.354 N 
ATOM     19  C   UNL A   1      41.941  26.001  28.252  1.00  0.00     0.074 A 
ATOM     20  C   UNL A   1      40.586  25.658  27.877  1.00  0.00     0.031 C 
ATOM     21  C   UNL A   1      41.368  32.002  30.483  1.00  0.00     0.029 A 
ATOM     22  C   UNL A   1      42.584  31.202  30.377  1.00  0.00     0.049 A 
ATOM     23  H   UNL A   1      42.758  29.239  29.699  1.00  0.00     0.167 HD
ATOM     24  C   UNL A   1      43.003  25.168  28.130  1.00  0.00     0.037 A 
ATOM     25  C   UNL A   1      43.817  31.618  30.720  1.00  0.00     0.037 A 
ATOM     26  C   UNL A   1      44.358  25.524  28.466  1.00  0.00     0.049 A 
ATOM     27  C   UNL A   1      44.983  30.688  30.540  1.00  0.00     0.074 A 
ATOM     28  C   UNL A   1      45.507  24.761  28.341  1.00  0.00     0.029 A 
ATOM     29  N   UNL A   1      44.748  26.748  28.989  1.00  0.00    -0.354 N 
ATOM     30  N   UNL A   1      44.995  29.467  30.064  1.00  0.00    -0.248 NA
ATOM     31  C   UNL A   1      46.301  31.195  30.945  1.00  0.00     0.031 C 
ATOM     32  C   UNL A   1      46.589  25.516  28.812  1.00  0.00     0.029 A 
ATOM     33  C   UNL A   1      46.118  26.759  29.200  1.00  0.00     0.049 A 
ATOM     34  H   UNL A   1      44.140  27.499  29.183  1.00  0.00     0.167 HD
ATOM     35  C   UNL A   1      46.323  29.062  30.096  1.00  0.00     0.074 A 
ATOM     36  C   UNL A   1      47.087  30.175  30.625  1.00  0.00     0.031 C 
ATOM     37  C   UNL A   1      46.862  27.876  29.723  1.00  0.00     0.037 A 
BRANCH  24  38
ATOM     38  C   UNL A   1      42.741  23.777  27.621  1.00  0.00     0.058 A 
ATOM     39  C   UNL A   1      42.694  23.486  26.250  1.00  0.00     0.135 A 
ATOM     40  C   UNL A   1      42.568  22.713  28.522  1.00  0.00     0.135 A 
ATOM     41  F   UNL A   1      42.838  24.469  25.346  1.00  0.00    -0.206 F 
ATOM     42  C   UNL A   1      42.457  22.195  25.787  1.00  0.00     0.059 A 
ATOM     43  C   UNL A   1      42.350  21.410  28.082  1.00  0.00     0.059 A 
ATOM     44  F   UNL A   1      42.607  22.935  29.846  1.00  0.00    -0.206 F 
ATOM     45  C   UNL A   1      42.280  21.164  26.712  1.00  0.00     0.060 A 
BRANCH  45  46
ATOM     46  S   UNL A   1      41.965  19.495  26.102  1.00  0.00     0.124 S 
ATOM     47  O   UNL A   1      42.404  18.685  27.236  1.00  0.00    -0.237 OA
ATOM     48  O   UNL A   1      40.527  19.512  25.857  1.00  0.00    -0.237 OA
ATOM     49  O   UNL A   1      42.799  19.406  24.908  1.00  0.00    -0.744 OA
ENDBRANCH  45  46
ENDBRANCH  24  38
BRANCH  25  50
ATOM     50  C   UNL A   1      44.007  32.994  31.244  1.00  0.00     0.058 A 
ATOM     51  C   UNL A   1      44.238  34.069  30.374  1.00  0.00     0.135 A 
ATOM     52  C   UNL A   1      43.924  33.266  32.617  1.00  0.00     0.135 A 
ATOM     53  F   UNL A   1      44.327  33.855  29.052  1.00  0.00    -0.206 F 
ATOM     54  C   UNL A   1      44.385  35.368  30.847  1.00  0.00     0.059 A 
ATOM     55  C   UNL A   1      44.046  34.558  33.113  1.00  0.00     0.059 A 
ATOM     56  F   UNL A   1      43.685  32.271  33.486  1.00  0.00    -0.206 F 
ATOM     57  C   UNL A   1      44.284  35.603  32.219  1.00  0.00     0.060 A 
BRANCH  57  58
ATOM     58  S   UNL A   1      44.409  37.300  32.826  1.00  0.00     0.124 S 
ATOM     59  O   UNL A   1      43.343  37.335  33.818  1.00  0.00    -0.237 OA
ATOM     60  O   UNL A   1      45.772  37.342  33.350  1.00  0.00    -0.237 OA
ATOM     61  O   UNL A   1      44.186  38.099  31.625  1.00  0.00    -0.744 OA
ENDBRANCH  57  58
ENDBRANCH  25  50
BRANCH  37  62
ATOM     62  C   UNL A   1      48.351  27.736  29.847  1.00  0.00     0.058 A 
ATOM     63  C   UNL A   1      49.213  28.105  28.804  1.00  0.00     0.135 A 
ATOM     64  C   UNL A   1      48.922  27.245  31.031  1.00  0.00     0.135 A 
ATOM     65  F   UNL A   1      48.713  28.574  27.649  1.00  0.00    -0.206 F 
ATOM     66  C   UNL A   1      50.592  27.966  28.919  1.00  0.00     0.059 A 
ATOM     67  C   UNL A   1      50.300  27.116  31.176  1.00  0.00     0.059 A 
ATOM     68  F   UNL A   1      48.140  26.886  32.063  1.00  0.00    -0.206 F 
ATOM     69  C   UNL A   1      51.126  27.465  30.108  1.00  0.00     0.060 A 
BRANCH  69  70
ATOM     70  S   UNL A   1      52.917  27.296  30.257  1.00  0.00     0.124 S 
ATOM     71  O   UNL A   1      53.211  26.344  29.190  1.00  0.00    -0.237 OA
ATOM     72  O   UNL A   1      53.384  28.662  30.033  1.00  0.00    -0.237 OA
ATOM     73  O   UNL A   1      53.096  26.795  31.616  1.00  0.00    -0.744 OA
ENDBRANCH  69  70
ENDBRANCH  37  62
ENDBRANCH  11  12
ENDBRANCH   4   6
ENDBRANCH   1   2
BRANCH   1  74
ATOM     74  C   UNL A   1      32.416  27.919  26.426  1.00  0.00     0.023 C 
BRANCH  74  75
ATOM     75  C   UNL A   1      31.449  29.029  26.026  1.00  0.00     0.023 C 
BRANCH  75  76
ATOM     76  C   UNL A   1      31.793  29.765  24.736  1.00  0.00     0.116 C 
BRANCH  76  77
ATOM     77  N   UNL A   1      30.751  29.670  23.722  1.00  0.00    -0.352 N 
ATOM     78  C   UNL A   1      30.554  28.687  22.781  1.00  0.00     0.251 C 
ATOM     79  H   UNL A   1      30.100  30.408  23.710  1.00  0.00     0.163 HD
ATOM     80  O   UNL A   1      29.682  28.793  21.925  1.00  0.00    -0.269 OA
BRANCH  78  81
ATOM     81  C   UNL A   1      31.435  27.504  22.786  1.00  0.00     0.040 A 
ATOM     82  C   UNL A   1      32.733  27.624  22.301  1.00  0.00     0.016 A 
ATOM     83  C   UNL A   1      30.998  26.306  23.352  1.00  0.00     0.020 A 
ATOM     84  C   UNL A   1      33.614  26.549  22.439  1.00  0.00     0.027 A 
ATOM     85  C   UNL A   1      31.907  25.260  23.574  1.00  0.00    -0.017 A 
ATOM     86  C   UNL A   1      33.213  25.359  23.066  1.00  0.00     0.038 A 
ATOM     87  C   UNL A   1      31.478  24.068  24.400  1.00  0.00     0.049 C 
ATOM     88  N   UNL A   1      34.150  24.354  23.269  1.00  0.00    -0.378 N 
ATOM     89  C   UNL A   1      30.942  24.466  25.755  1.00  0.00    -0.023 C 
ATOM     90  C   UNL A   1      32.648  23.163  24.824  1.00  0.00     0.031 C 
ATOM     91  C   UNL A   1      33.714  23.047  23.734  1.00  0.00     0.114 C 
ATOM     92  H   UNL A   1      35.104  24.525  23.098  1.00  0.00     0.161 HD
ATOM     93  C   UNL A   1      31.846  24.285  26.728  1.00  0.00    -0.030 C 
ATOM     94  C   UNL A   1      33.117  23.717  26.181  1.00  0.00     0.034 C 
BRANCH  91  95
ATOM     95  C   UNL A   1      34.884  22.180  24.175  1.00  0.00    -0.022 A 
ATOM     96  C   UNL A   1      36.189  22.680  24.057  1.00  0.00     0.026 A 
ATOM     97  C   UNL A   1      34.730  20.880  24.670  1.00  0.00     0.026 A 
ATOM     98  C   UNL A   1      37.256  21.882  24.442  1.00  0.00     0.111 A 
ATOM     99  C   UNL A   1      35.858  20.164  25.042  1.00  0.00     0.111 A 
ATOM    100  N   UNL A   1      37.118  20.637  24.941  1.00  0.00    -0.265 NA
ENDBRANCH  91  95
ENDBRANCH  78  81
ENDBRANCH  76  77
ENDBRANCH  75  76
ENDBRANCH  74  75
ENDBRANCH   1  74
TORSDOF 15
ENDMDL
MODEL 3
REMARK VINA RESULT:     -13.6      6.793     12.262
REMARK SMILES O=C(NCCCCNC(=O)c1ccc2c(c1)[C@@H]1C=CC[C@@H]1[C@H](c1ccncc1)N2)c1ccc(-c2c3nc(c(-c4c(F)cc(S(=O)(=O)[O-])cc4F)c4ccc([nH]4)c(-c4c(F)cc(S(=O)(=O)[O-])cc4F)c4nc(c(-c5c(F)cc(S(=O)(=O)[O-])cc5F)c5ccc2[nH]5)C=C4)C=C3)cc1
REMARK SMILES IDX 4 1 3 2 1 3 2 4 30 6 31 7 95 8 32 9 94 10 33 11 34 12 35 13
REMARK SMILES IDX 88 14 36 15 93 16 87 17 89 18 37 19 92 20 86 21 85 22 38 24
REMARK SMILES IDX 72 25 51 26 71 27 52 28 55 29 70 30 90 31 53 32 54 33 69 35
REMARK SMILES IDX 91 36 56 37 39 38 40 39 49 40 41 41 42 42 48 43 50 44 43 45
REMARK SMILES IDX 44 46 45 47 46 48 47 49 73 50 74 51 83 52 75 53 76 54 82 55
REMARK SMILES IDX 84 56 77 57 78 58 79 59 80 60 81 61 57 62 58 63 67 64 59 65
REMARK SMILES IDX 60 66 66 67 68 68 61 69 62 70 63 71 64 72 65 73 5 74 6 75
REMARK SMILES IDX 7 76 8 77 9 78 10 80 11 81 12 82 16 83 13 84 15 85 14 86
REMARK SMILES IDX 17 87 29 88 18 89 21 90 22 91 19 93 20 94 23 95 24 96 28 97
REMARK SMILES IDX 25 98 27 99 26 100
REMARK H PARENT 3 5 89 23 55 34 8 79 29 92
REMARK Flexibility Score: inf
ROOT
ATOM      1  C   UNL A   1      35.489  29.577  27.640  1.00  0.00     0.116 C 
ENDROOT
BRANCH   1   2
ATOM      2  N   UNL A   1      35.359  29.757  29.079  1.00  0.00    -0.352 N 
ATOM      3  O   UNL A   1      36.021  29.845  31.234  1.00  0.00    -0.269 OA
ATOM      4  C   UNL A   1      36.336  29.778  30.050  1.00  0.00     0.251 C 
ATOM      5  H   UNL A   1      34.439  29.883  29.406  1.00  0.00     0.163 HD
BRANCH   4   6
ATOM      6  C   UNL A   1      37.761  29.675  29.662  1.00  0.00     0.039 A 
ATOM      7  C   UNL A   1      38.178  30.022  28.377  1.00  0.00     0.014 A 
ATOM      8  C   UNL A   1      38.685  29.187  30.591  1.00  0.00     0.014 A 
ATOM      9  C   UNL A   1      39.467  29.706  27.963  1.00  0.00     0.010 A 
ATOM     10  C   UNL A   1      40.007  28.953  30.198  1.00  0.00     0.010 A 
ATOM     11  C   UNL A   1      40.394  29.157  28.866  1.00  0.00    -0.014 A 
BRANCH  11  12
ATOM     12  C   UNL A   1      41.756  28.806  28.381  1.00  0.00     0.031 A 
ATOM     13  C   UNL A   1      42.873  29.817  28.402  1.00  0.00     0.074 A 
ATOM     14  C   UNL A   1      41.999  27.544  27.976  1.00  0.00     0.049 A 
ATOM     15  N   UNL A   1      44.132  29.660  28.078  1.00  0.00    -0.248 NA
ATOM     16  C   UNL A   1      42.534  31.184  28.832  1.00  0.00     0.031 C 
ATOM     17  C   UNL A   1      40.998  26.478  27.896  1.00  0.00     0.029 A 
ATOM     18  N   UNL A   1      43.164  26.935  27.585  1.00  0.00    -0.354 N 
ATOM     19  C   UNL A   1      44.728  30.907  28.234  1.00  0.00     0.074 A 
ATOM     20  C   UNL A   1      43.688  31.817  28.666  1.00  0.00     0.031 C 
ATOM     21  C   UNL A   1      41.601  25.334  27.542  1.00  0.00     0.029 A 
ATOM     22  C   UNL A   1      43.020  25.593  27.323  1.00  0.00     0.049 A 
ATOM     23  H   UNL A   1      44.021  27.412  27.501  1.00  0.00     0.167 HD
ATOM     24  C   UNL A   1      46.022  31.260  28.041  1.00  0.00     0.037 A 
ATOM     25  C   UNL A   1      43.928  24.671  26.953  1.00  0.00     0.037 A 
ATOM     26  C   UNL A   1      47.064  30.345  27.650  1.00  0.00     0.049 A 
ATOM     27  C   UNL A   1      45.363  25.080  26.782  1.00  0.00     0.074 A 
ATOM     28  C   UNL A   1      48.412  30.601  27.466  1.00  0.00     0.029 A 
ATOM     29  N   UNL A   1      46.875  28.996  27.387  1.00  0.00    -0.354 N 
ATOM     30  N   UNL A   1      45.908  26.259  26.956  1.00  0.00    -0.248 NA
ATOM     31  C   UNL A   1      46.304  24.033  26.364  1.00  0.00     0.031 C 
ATOM     32  C   UNL A   1      49.035  29.411  27.068  1.00  0.00     0.029 A 
ATOM     33  C   UNL A   1      48.080  28.408  27.035  1.00  0.00     0.049 A 
ATOM     34  H   UNL A   1      46.012  28.525  27.442  1.00  0.00     0.167 HD
ATOM     35  C   UNL A   1      47.260  26.094  26.684  1.00  0.00     0.074 A 
ATOM     36  C   UNL A   1      47.452  24.697  26.349  1.00  0.00     0.031 C 
ATOM     37  C   UNL A   1      48.253  27.016  26.709  1.00  0.00     0.037 A 
BRANCH  24  38
ATOM     38  C   UNL A   1      46.385  32.706  28.237  1.00  0.00     0.058 A 
ATOM     39  C   UNL A   1      46.833  33.196  29.472  1.00  0.00     0.135 A 
ATOM     40  C   UNL A   1      46.315  33.607  27.161  1.00  0.00     0.135 A 
ATOM     41  F   UNL A   1      46.905  32.381  30.537  1.00  0.00    -0.206 F 
ATOM     42  C   UNL A   1      47.174  34.535  29.644  1.00  0.00     0.059 A 
ATOM     43  C   UNL A   1      46.669  34.946  27.305  1.00  0.00     0.059 A 
ATOM     44  F   UNL A   1      45.895  33.189  25.956  1.00  0.00    -0.206 F 
ATOM     45  C   UNL A   1      47.082  35.404  28.555  1.00  0.00     0.060 A 
BRANCH  45  46
ATOM     46  S   UNL A   1      47.518  37.140  28.789  1.00  0.00     0.124 S 
ATOM     47  O   UNL A   1      48.088  37.117  30.133  1.00  0.00    -0.237 OA
ATOM     48  O   UNL A   1      48.465  37.379  27.705  1.00  0.00    -0.237 OA
ATOM     49  O   UNL A   1      46.238  37.831  28.662  1.00  0.00    -0.744 OA
ENDBRANCH  45  46
ENDBRANCH  24  38
BRANCH  25  50
ATOM     50  C   UNL A   1      43.502  23.264  26.747  1.00  0.00     0.058 A 
ATOM     51  C   UNL A   1      43.444  22.712  25.460  1.00  0.00     0.135 A 
ATOM     52  C   UNL A   1      43.182  22.436  27.833  1.00  0.00     0.135 A 
ATOM     53  F   UNL A   1      43.740  23.468  24.391  1.00  0.00    -0.206 F 
ATOM     54  C   UNL A   1      43.079  21.387  25.253  1.00  0.00     0.059 A 
ATOM     55  C   UNL A   1      42.835  21.102  27.655  1.00  0.00     0.059 A 
ATOM     56  F   UNL A   1      43.241  22.916  29.085  1.00  0.00    -0.206 F 
ATOM     57  C   UNL A   1      42.778  20.588  26.358  1.00  0.00     0.060 A 
BRANCH  57  58
ATOM     58  S   UNL A   1      42.368  18.849  26.094  1.00  0.00     0.124 S 
ATOM     59  O   UNL A   1      40.965  18.935  25.712  1.00  0.00    -0.237 OA
ATOM     60  O   UNL A   1      43.297  18.470  25.032  1.00  0.00    -0.237 OA
ATOM     61  O   UNL A   1      42.637  18.243  27.394  1.00  0.00    -0.744 OA
ENDBRANCH  57  58
ENDBRANCH  25  50
BRANCH  37  62
ATOM     62  C   UNL A   1      49.639  26.532  26.392  1.00  0.00     0.058 A 
ATOM     63  C   UNL A   1      50.429  25.889  27.356  1.00  0.00     0.135 A 
ATOM     64  C   UNL A   1      50.172  26.698  25.105  1.00  0.00     0.135 A 
ATOM     65  F   UNL A   1      49.966  25.714  28.603  1.00  0.00    -0.206 F 
ATOM     66  C   UNL A   1      51.716  25.450  27.062  1.00  0.00     0.059 A 
ATOM     67  C   UNL A   1      51.449  26.248  24.783  1.00  0.00     0.059 A 
ATOM     68  F   UNL A   1      49.451  27.299  24.145  1.00  0.00    -0.206 F 
ATOM     69  C   UNL A   1      52.219  25.639  25.773  1.00  0.00     0.060 A 
BRANCH  69  70
ATOM     70  S   UNL A   1      53.885  25.058  25.393  1.00  0.00     0.124 S 
ATOM     71  O   UNL A   1      53.717  23.611  25.477  1.00  0.00    -0.237 OA
ATOM     72  O   UNL A   1      54.110  25.592  24.052  1.00  0.00    -0.237 OA
ATOM     73  O   UNL A   1      54.700  25.661  26.443  1.00  0.00    -0.744 OA
ENDBRANCH  69  70
ENDBRANCH  37  62
ENDBRANCH  11  12
ENDBRANCH   4   6
ENDBRANCH   1   2
BRANCH   1  74
ATOM     74  C   UNL A   1      34.285  28.896  27.000  1.00  0.00     0.023 C 
BRANCH  74  75
ATOM     75  C   UNL A   1      33.228  29.834  26.426  1.00  0.00     0.023 C 
BRANCH  75  76
ATOM     76  C   UNL A   1      32.508  29.328  25.181  1.00  0.00     0.116 C 
BRANCH  76  77
ATOM     77  N   UNL A   1      33.317  29.413  23.973  1.00  0.00    -0.352 N 
ATOM     78  C   UNL A   1      33.743  28.398  23.149  1.00  0.00     0.251 C 
ATOM     79  H   UNL A   1      33.597  30.320  23.710  1.00  0.00     0.163 HD
ATOM     80  O   UNL A   1      34.505  28.616  22.213  1.00  0.00    -0.269 OA
BRANCH  78  81
ATOM     81  C   UNL A   1      33.298  27.019  23.424  1.00  0.00     0.040 A 
ATOM     82  C   UNL A   1      32.341  26.438  22.598  1.00  0.00     0.016 A 
ATOM     83  C   UNL A   1      33.894  26.278  24.445  1.00  0.00     0.020 A 
ATOM     84  C   UNL A   1      32.025  25.088  22.764  1.00  0.00     0.027 A 
ATOM     85  C   UNL A   1      33.646  24.902  24.554  1.00  0.00    -0.017 A 
ATOM     86  C   UNL A   1      32.664  24.309  23.742  1.00  0.00     0.038 A 
ATOM     87  C   UNL A   1      34.477  24.071  25.506  1.00  0.00     0.049 C 
ATOM     88  N   UNL A   1      32.390  22.949  23.807  1.00  0.00    -0.378 N 
ATOM     89  C   UNL A   1      35.961  24.222  25.262  1.00  0.00    -0.023 C 
ATOM     90  C   UNL A   1      34.319  22.555  25.296  1.00  0.00     0.031 C 
ATOM     91  C   UNL A   1      32.886  22.169  24.929  1.00  0.00     0.114 C 
ATOM     92  H   UNL A   1      31.862  22.516  23.098  1.00  0.00     0.161 HD
ATOM     93  C   UNL A   1      36.467  23.187  24.580  1.00  0.00    -0.030 C 
ATOM     94  C   UNL A   1      35.410  22.171  24.281  1.00  0.00     0.034 C 
BRANCH  91  95
ATOM     95  C   UNL A   1      32.746  20.673  24.688  1.00  0.00    -0.022 A 
ATOM     96  C   UNL A   1      32.376  20.216  23.414  1.00  0.00     0.026 A 
ATOM     97  C   UNL A   1      32.938  19.714  25.690  1.00  0.00     0.026 A 
ATOM     98  C   UNL A   1      32.230  18.854  23.201  1.00  0.00     0.111 A 
ATOM     99  C   UNL A   1      32.782  18.372  25.375  1.00  0.00     0.111 A 
ATOM    100  N   UNL A   1      32.435  17.921  24.152  1.00  0.00    -0.265 NA
ENDBRANCH  91  95
ENDBRANCH  78  81
ENDBRANCH  76  77
ENDBRANCH  75  76
ENDBRANCH  74  75
ENDBRANCH   1  74
TORSDOF 15
ENDMDL
