MODEL 1
REMARK VINA RESULT:     -11.5      0.000      0.000
REMARK SMILES O=C(CC[C@@H]1CN(c2ccncc2)CC[C@@H]1[NH+]1CCOCC1)NCCCCNC(=O)c1ccc(-c2c3nc(c(-c4c(F)cc(S(=O)(=O)[O-])cc4F)c4ccc([nH]4)c(-c4c(F)cc(S(=O)(=O)[O-])cc4F)c4nc(c(-c5c(F)cc(S(=O)(=O)[O-])cc5F)c5ccc2[nH]5)C=C4)C=C3)cc1
REMARK SMILES IDX 25 1 24 2 23 3 1 4 2 5 3 7 4 8 5 9 6 10 16 11 7 12 15 13
REMARK SMILES IDX 14 14 17 15 18 16 22 17 19 19 21 20 20 21 8 22 9 23 13 24
REMARK SMILES IDX 10 25 12 26 11 27 26 28 27 29 28 30 29 31 30 33 31 34 32 35
REMARK SMILES IDX 96 36 33 37 95 38 34 39 35 40 36 41 89 42 37 43 94 44 88 45
REMARK SMILES IDX 90 46 38 47 93 48 87 49 86 50 39 52 73 53 52 54 72 55 53 56
REMARK SMILES IDX 56 57 71 58 91 59 54 60 55 61 70 63 92 64 57 65 40 66 41 67
REMARK SMILES IDX 50 68 42 69 43 70 49 71 51 72 44 73 45 74 46 75 47 76 48 77
REMARK SMILES IDX 74 78 75 79 84 80 76 81 77 82 83 83 85 84 78 85 79 86 80 87
REMARK SMILES IDX 81 88 82 89 58 90 59 91 68 92 60 93 61 94 67 95 69 96 62 97
REMARK SMILES IDX 63 98 64 99 65 100 66 101
REMARK H PARENT 23 6 17 18 28 32 90 51 56 62
REMARK Flexibility Score: inf
ROOT
ATOM      1  C   UNL A   1      42.358  22.095  28.362  1.00  0.00     0.023 C 
ENDROOT
BRANCH   1   2
ATOM      2  C   UNL A   1      41.081  21.861  27.410  1.00  0.00     0.116 C 
BRANCH   2   3
ATOM      3  N   UNL A   1      40.149  22.922  26.928  1.00  0.00    -0.356 N 
ATOM      4  O   UNL A   1      38.710  21.520  25.766  1.00  0.00    -0.275 OA
ATOM      5  C   UNL A   1      38.922  22.632  26.255  1.00  0.00     0.220 C 
ATOM      6  H   UNL A   1      40.389  23.865  27.081  1.00  0.00     0.163 HD
BRANCH   5   7
ATOM      7  C   UNL A   1      37.841  23.811  26.087  1.00  0.00     0.100 C 
BRANCH   7   8
ATOM      8  C   UNL A   1      36.274  23.569  25.797  1.00  0.00     0.021 C 
BRANCH   8   9
ATOM      9  C   UNL A   1      35.370  24.066  24.531  1.00  0.00     0.067 C 
ATOM     10  C   UNL A   1      34.393  25.284  24.690  1.00  0.00     0.126 C 
ATOM     11  C   UNL A   1      34.768  22.868  23.788  1.00  0.00     0.190 C 
ATOM     12  N   UNL A   1      33.287  25.310  23.700  1.00  0.00    -0.371 N 
ATOM     13  C   UNL A   1      33.740  23.157  22.695  1.00  0.00     0.087 C 
ATOM     14  C   UNL A   1      32.670  24.121  23.124  1.00  0.00     0.122 C 
BRANCH  11  15
ATOM     15  N   UNL A   1      34.221  21.996  24.785  1.00  0.00    -0.328 N 
ATOM     16  C   UNL A   1      34.851  20.686  24.867  1.00  0.00     0.291 C 
ATOM     17  C   UNL A   1      32.824  22.177  25.133  1.00  0.00     0.291 C 
ATOM     18  H   UNL A   1      34.552  22.367  25.674  1.00  0.00     0.348 HD
ATOM     19  C   UNL A   1      33.865  19.559  24.685  1.00  0.00     0.221 C 
ATOM     20  C   UNL A   1      31.994  20.949  25.070  1.00  0.00     0.221 C 
ATOM     21  O   UNL A   1      32.730  19.809  25.491  1.00  0.00    -0.370 OA
ENDBRANCH  11  15
BRANCH  12  22
ATOM     22  C   UNL A   1      32.479  26.420  23.445  1.00  0.00     0.040 A 
ATOM     23  C   UNL A   1      32.927  27.523  22.710  1.00  0.00     0.046 A 
ATOM     24  C   UNL A   1      31.349  26.586  24.249  1.00  0.00     0.046 A 
ATOM     25  C   UNL A   1      32.250  28.730  22.838  1.00  0.00     0.113 A 
ATOM     26  C   UNL A   1      30.747  27.830  24.322  1.00  0.00     0.113 A 
ATOM     27  N   UNL A   1      31.167  28.904  23.626  1.00  0.00    -0.265 NA
ENDBRANCH  12  22
ENDBRANCH   8   9
ENDBRANCH   7   8
ENDBRANCH   5   7
ENDBRANCH   2   3
ENDBRANCH   1   2
BRANCH   1  28
ATOM     28  C   UNL A   1      43.626  23.070  28.393  1.00  0.00     0.023 C 
BRANCH  28  29
ATOM     29  C   UNL A   1      44.364  23.988  27.328  1.00  0.00     0.116 C 
BRANCH  29  30
ATOM     30  N   UNL A   1      43.730  24.433  26.106  1.00  0.00    -0.352 N 
ATOM     31  C   UNL A   1      42.787  25.454  25.990  1.00  0.00     0.251 C 
ATOM     32  H   UNL A   1      43.989  23.970  25.277  1.00  0.00     0.163 HD
ATOM     33  O   UNL A   1      42.246  25.660  24.905  1.00  0.00    -0.269 OA
BRANCH  31  34
ATOM     34  C   UNL A   1      42.379  26.312  27.154  1.00  0.00     0.039 A 
ATOM     35  C   UNL A   1      43.139  27.442  27.480  1.00  0.00     0.014 A 
ATOM     36  C   UNL A   1      41.366  25.922  28.041  1.00  0.00     0.014 A 
ATOM     37  C   UNL A   1      42.854  28.197  28.640  1.00  0.00     0.010 A 
ATOM     38  C   UNL A   1      41.068  26.691  29.193  1.00  0.00     0.010 A 
ATOM     39  C   UNL A   1      41.805  27.846  29.511  1.00  0.00    -0.014 A 
BRANCH  39  40
ATOM     40  C   UNL A   1      41.480  28.707  30.705  1.00  0.00     0.031 A 
ATOM     41  C   UNL A   1      42.277  28.637  31.993  1.00  0.00     0.074 A 
ATOM     42  C   UNL A   1      40.451  29.582  30.645  1.00  0.00     0.049 A 
ATOM     43  N   UNL A   1      42.154  29.355  33.085  1.00  0.00    -0.248 NA
ATOM     44  C   UNL A   1      43.342  27.629  32.064  1.00  0.00     0.031 C 
ATOM     45  C   UNL A   1      39.566  29.756  29.493  1.00  0.00     0.029 A 
ATOM     46  N   UNL A   1      39.974  30.491  31.564  1.00  0.00    -0.354 N 
ATOM     47  C   UNL A   1      43.122  28.889  33.974  1.00  0.00     0.074 A 
ATOM     48  C   UNL A   1      43.798  27.798  33.300  1.00  0.00     0.031 C 
ATOM     49  C   UNL A   1      38.676  30.724  29.761  1.00  0.00     0.029 A 
ATOM     50  C   UNL A   1      38.899  31.227  31.117  1.00  0.00     0.049 A 
ATOM     51  H   UNL A   1      40.367  30.605  32.460  1.00  0.00     0.167 HD
ATOM     52  C   UNL A   1      43.434  29.331  35.221  1.00  0.00     0.037 A 
ATOM     53  C   UNL A   1      38.169  32.194  31.713  1.00  0.00     0.037 A 
ATOM     54  C   UNL A   1      42.773  30.423  35.900  1.00  0.00     0.049 A 
ATOM     55  C   UNL A   1      38.518  32.654  33.106  1.00  0.00     0.074 A 
ATOM     56  C   UNL A   1      43.071  30.970  37.139  1.00  0.00     0.029 A 
ATOM     57  N   UNL A   1      41.680  31.123  35.415  1.00  0.00    -0.354 N 
ATOM     58  N   UNL A   1      39.492  32.253  33.887  1.00  0.00    -0.248 NA
ATOM     59  C   UNL A   1      37.675  33.706  33.694  1.00  0.00     0.031 C 
ATOM     60  C   UNL A   1      42.126  31.963  37.424  1.00  0.00     0.029 A 
ATOM     61  C   UNL A   1      41.274  32.076  36.339  1.00  0.00     0.049 A 
ATOM     62  H   UNL A   1      41.253  30.968  34.541  1.00  0.00     0.167 HD
ATOM     63  C   UNL A   1      39.393  33.022  35.044  1.00  0.00     0.074 A 
ATOM     64  C   UNL A   1      38.277  33.922  34.856  1.00  0.00     0.031 C 
ATOM     65  C   UNL A   1      40.166  32.982  36.158  1.00  0.00     0.037 A 
BRANCH  52  66
ATOM     66  C   UNL A   1      44.549  28.632  35.960  1.00  0.00     0.058 A 
ATOM     67  C   UNL A   1      44.301  27.548  36.818  1.00  0.00     0.135 A 
ATOM     68  C   UNL A   1      45.890  29.003  35.756  1.00  0.00     0.135 A 
ATOM     69  F   UNL A   1      43.042  27.144  37.050  1.00  0.00    -0.206 F 
ATOM     70  C   UNL A   1      45.335  26.884  37.475  1.00  0.00     0.059 A 
ATOM     71  C   UNL A   1      46.941  28.337  36.381  1.00  0.00     0.059 A 
ATOM     72  F   UNL A   1      46.191  30.022  34.934  1.00  0.00    -0.206 F 
ATOM     73  C   UNL A   1      46.653  27.289  37.253  1.00  0.00     0.060 A 
BRANCH  73  74
ATOM     74  S   UNL A   1      47.978  26.424  38.123  1.00  0.00     0.124 S 
ATOM     75  O   UNL A   1      47.220  25.559  39.021  1.00  0.00    -0.237 OA
ATOM     76  O   UNL A   1      48.681  25.752  37.038  1.00  0.00    -0.237 OA
ATOM     77  O   UNL A   1      48.719  27.503  38.774  1.00  0.00    -0.744 OA
ENDBRANCH  73  74
ENDBRANCH  52  66
BRANCH  53  78
ATOM     78  C   UNL A   1      37.029  32.821  30.984  1.00  0.00     0.058 A 
ATOM     79  C   UNL A   1      35.704  32.435  31.237  1.00  0.00     0.135 A 
ATOM     80  C   UNL A   1      37.243  33.817  30.017  1.00  0.00     0.135 A 
ATOM     81  F   UNL A   1      35.445  31.477  32.141  1.00  0.00    -0.206 F 
ATOM     82  C   UNL A   1      34.633  33.002  30.553  1.00  0.00     0.059 A 
ATOM     83  C   UNL A   1      36.187  34.419  29.339  1.00  0.00     0.059 A 
ATOM     84  F   UNL A   1      38.490  34.234  29.745  1.00  0.00    -0.206 F 
ATOM     85  C   UNL A   1      34.885  33.998  29.607  1.00  0.00     0.060 A 
BRANCH  85  86
ATOM     86  S   UNL A   1      33.486  34.773  28.768  1.00  0.00     0.124 S 
ATOM     87  O   UNL A   1      33.111  33.743  27.807  1.00  0.00    -0.237 OA
ATOM     88  O   UNL A   1      32.552  34.992  29.869  1.00  0.00    -0.237 OA
ATOM     89  O   UNL A   1      34.067  35.987  28.200  1.00  0.00    -0.744 OA
ENDBRANCH  85  86
ENDBRANCH  53  78
BRANCH  65  90
ATOM     90  C   UNL A   1      39.862  33.965  37.260  1.00  0.00     0.058 A 
ATOM     91  C   UNL A   1      39.055  33.625  38.358  1.00  0.00     0.135 A 
ATOM     92  C   UNL A   1      40.427  35.252  37.243  1.00  0.00     0.135 A 
ATOM     93  F   UNL A   1      38.483  32.411  38.425  1.00  0.00    -0.206 F 
ATOM     94  C   UNL A   1      38.799  34.530  39.385  1.00  0.00     0.059 A 
ATOM     95  C   UNL A   1      40.207  36.163  38.274  1.00  0.00     0.059 A 
ATOM     96  F   UNL A   1      41.213  35.632  36.225  1.00  0.00    -0.206 F 
ATOM     97  C   UNL A   1      39.382  35.798  39.335  1.00  0.00     0.060 A 
BRANCH  97  98
ATOM     98  S   UNL A   1      39.070  36.950  40.690  1.00  0.00     0.124 S 
ATOM     99  O   UNL A   1      38.333  36.111  41.629  1.00  0.00    -0.237 OA
ATOM    100  O   UNL A   1      40.420  37.325  41.101  1.00  0.00    -0.237 OA
ATOM    101  O   UNL A   1      38.296  38.015  40.060  1.00  0.00    -0.744 OA
ENDBRANCH  97  98
ENDBRANCH  65  90
ENDBRANCH  39  40
ENDBRANCH  31  34
ENDBRANCH  29  30
ENDBRANCH  28  29
ENDBRANCH   1  28
TORSDOF 18
ENDMDL
MODEL 2
REMARK VINA RESULT:     -11.3      6.654     12.133
REMARK SMILES O=C(CC[C@@H]1CN(c2ccncc2)CC[C@@H]1[NH+]1CCOCC1)NCCCCNC(=O)c1ccc(-c2c3nc(c(-c4c(F)cc(S(=O)(=O)[O-])cc4F)c4ccc([nH]4)c(-c4c(F)cc(S(=O)(=O)[O-])cc4F)c4nc(c(-c5c(F)cc(S(=O)(=O)[O-])cc5F)c5ccc2[nH]5)C=C4)C=C3)cc1
REMARK SMILES IDX 25 1 24 2 23 3 1 4 2 5 3 7 4 8 5 9 6 10 16 11 7 12 15 13
REMARK SMILES IDX 14 14 17 15 18 16 22 17 19 19 21 20 20 21 8 22 9 23 13 24
REMARK SMILES IDX 10 25 12 26 11 27 26 28 27 29 28 30 29 31 30 33 31 34 32 35
REMARK SMILES IDX 96 36 33 37 95 38 34 39 35 40 36 41 89 42 37 43 94 44 88 45
REMARK SMILES IDX 90 46 38 47 93 48 87 49 86 50 39 52 73 53 52 54 72 55 53 56
REMARK SMILES IDX 56 57 71 58 91 59 54 60 55 61 70 63 92 64 57 65 40 66 41 67
REMARK SMILES IDX 50 68 42 69 43 70 49 71 51 72 44 73 45 74 46 75 47 76 48 77
REMARK SMILES IDX 74 78 75 79 84 80 76 81 77 82 83 83 85 84 78 85 79 86 80 87
REMARK SMILES IDX 81 88 82 89 58 90 59 91 68 92 60 93 61 94 67 95 69 96 62 97
REMARK SMILES IDX 63 98 64 99 65 100 66 101
REMARK H PARENT 23 6 17 18 28 32 90 51 56 62
REMARK Flexibility Score: inf
ROOT
ATOM      1  C   UNL A   1      32.706  28.761  26.175  1.00  0.00     0.023 C 
ENDROOT
BRANCH   1   2
ATOM      2  C   UNL A   1      31.470  28.159  27.012  1.00  0.00     0.116 C 
BRANCH   2   3
ATOM      3  N   UNL A   1      31.171  26.709  27.203  1.00  0.00    -0.356 N 
ATOM      4  O   UNL A   1      30.108  26.376  25.166  1.00  0.00    -0.275 OA
ATOM      5  C   UNL A   1      30.635  25.883  26.167  1.00  0.00     0.220 C 
ATOM      6  H   UNL A   1      31.351  26.303  28.081  1.00  0.00     0.163 HD
BRANCH   5   7
ATOM      7  C   UNL A   1      30.672  24.287  26.360  1.00  0.00     0.100 C 
BRANCH   7   8
ATOM      8  C   UNL A   1      31.098  23.244  25.208  1.00  0.00     0.021 C 
BRANCH   8   9
ATOM      9  C   UNL A   1      32.591  22.839  24.684  1.00  0.00     0.067 C 
ATOM     10  C   UNL A   1      33.812  22.887  25.668  1.00  0.00     0.126 C 
ATOM     11  C   UNL A   1      32.868  23.450  23.305  1.00  0.00     0.190 C 
ATOM     12  N   UNL A   1      35.130  23.017  24.997  1.00  0.00    -0.371 N 
ATOM     13  C   UNL A   1      34.287  23.332  22.751  1.00  0.00     0.087 C 
ATOM     14  C   UNL A   1      35.348  23.726  23.741  1.00  0.00     0.122 C 
BRANCH  11  15
ATOM     15  N   UNL A   1      32.459  24.822  23.372  1.00  0.00    -0.328 N 
ATOM     16  C   UNL A   1      31.447  25.209  22.399  1.00  0.00     0.291 C 
ATOM     17  C   UNL A   1      33.429  25.783  23.863  1.00  0.00     0.291 C 
ATOM     18  H   UNL A   1      31.882  24.888  24.209  1.00  0.00     0.348 HD
ATOM     19  C   UNL A   1      31.891  26.360  21.531  1.00  0.00     0.221 C 
ATOM     20  C   UNL A   1      33.654  26.958  22.986  1.00  0.00     0.221 C 
ATOM     21  O   UNL A   1      32.448  27.365  22.354  1.00  0.00    -0.370 OA
ENDBRANCH  11  15
BRANCH  12  22
ATOM     22  C   UNL A   1      36.360  22.786  25.616  1.00  0.00     0.040 A 
ATOM     23  C   UNL A   1      37.156  23.822  26.117  1.00  0.00     0.046 A 
ATOM     24  C   UNL A   1      36.964  21.546  25.393  1.00  0.00     0.046 A 
ATOM     25  C   UNL A   1      38.507  23.577  26.338  1.00  0.00     0.113 A 
ATOM     26  C   UNL A   1      38.320  21.401  25.632  1.00  0.00     0.113 A 
ATOM     27  N   UNL A   1      39.103  22.388  26.110  1.00  0.00    -0.265 NA
ENDBRANCH  12  22
ENDBRANCH   8   9
ENDBRANCH   7   8
ENDBRANCH   5   7
ENDBRANCH   2   3
ENDBRANCH   1   2
BRANCH   1  28
ATOM     28  C   UNL A   1      34.278  28.959  26.395  1.00  0.00     0.023 C 
BRANCH  28  29
ATOM     29  C   UNL A   1      35.245  28.956  27.656  1.00  0.00     0.116 C 
BRANCH  29  30
ATOM     30  N   UNL A   1      35.150  29.935  28.717  1.00  0.00    -0.352 N 
ATOM     31  C   UNL A   1      36.212  30.469  29.445  1.00  0.00     0.251 C 
ATOM     32  H   UNL A   1      34.247  30.254  28.947  1.00  0.00     0.163 HD
ATOM     33  O   UNL A   1      35.981  31.216  30.395  1.00  0.00    -0.269 OA
BRANCH  31  34
ATOM     34  C   UNL A   1      37.646  30.152  29.131  1.00  0.00     0.039 A 
ATOM     35  C   UNL A   1      38.011  29.819  27.821  1.00  0.00     0.014 A 
ATOM     36  C   UNL A   1      38.607  29.999  30.140  1.00  0.00     0.014 A 
ATOM     37  C   UNL A   1      39.325  29.397  27.519  1.00  0.00     0.010 A 
ATOM     38  C   UNL A   1      39.931  29.595  29.832  1.00  0.00     0.010 A 
ATOM     39  C   UNL A   1      40.314  29.290  28.515  1.00  0.00    -0.014 A 
BRANCH  39  40
ATOM     40  C   UNL A   1      41.725  28.901  28.154  1.00  0.00     0.031 A 
ATOM     41  C   UNL A   1      42.859  29.907  28.125  1.00  0.00     0.074 A 
ATOM     42  C   UNL A   1      42.012  27.616  27.847  1.00  0.00     0.049 A 
ATOM     43  N   UNL A   1      44.136  29.712  27.890  1.00  0.00    -0.248 NA
ATOM     44  C   UNL A   1      42.513  31.309  28.388  1.00  0.00     0.031 C 
ATOM     45  C   UNL A   1      41.034  26.528  27.800  1.00  0.00     0.029 A 
ATOM     46  N   UNL A   1      43.201  27.001  27.521  1.00  0.00    -0.354 N 
ATOM     47  C   UNL A   1      44.747  30.961  27.975  1.00  0.00     0.074 A 
ATOM     48  C   UNL A   1      43.688  31.913  28.247  1.00  0.00     0.031 C 
ATOM     49  C   UNL A   1      41.663  25.382  27.492  1.00  0.00     0.029 A 
ATOM     50  C   UNL A   1      43.086  25.648  27.288  1.00  0.00     0.049 A 
ATOM     51  H   UNL A   1      44.057  27.484  27.461  1.00  0.00     0.167 HD
ATOM     52  C   UNL A   1      46.061  31.290  27.856  1.00  0.00     0.037 A 
ATOM     53  C   UNL A   1      44.006  24.719  26.950  1.00  0.00     0.037 A 
ATOM     54  C   UNL A   1      47.128  30.350  27.593  1.00  0.00     0.049 A 
ATOM     55  C   UNL A   1      45.455  25.109  26.802  1.00  0.00     0.074 A 
ATOM     56  C   UNL A   1      48.491  30.595  27.520  1.00  0.00     0.029 A 
ATOM     57  N   UNL A   1      46.959  28.997  27.347  1.00  0.00    -0.354 N 
ATOM     58  N   UNL A   1      46.015  26.283  26.972  1.00  0.00    -0.248 NA
ATOM     59  C   UNL A   1      46.399  24.045  26.426  1.00  0.00     0.031 C 
ATOM     60  C   UNL A   1      49.139  29.403  27.176  1.00  0.00     0.029 A 
ATOM     61  C   UNL A   1      48.187  28.400  27.093  1.00  0.00     0.049 A 
ATOM     62  H   UNL A   1      46.095  28.525  27.352  1.00  0.00     0.167 HD
ATOM     63  C   UNL A   1      47.376  26.091  26.751  1.00  0.00     0.074 A 
ATOM     64  C   UNL A   1      47.559  24.688  26.450  1.00  0.00     0.031 C 
ATOM     65  C   UNL A   1      48.380  27.001  26.798  1.00  0.00     0.037 A 
BRANCH  52  66
ATOM     66  C   UNL A   1      46.442  32.743  28.004  1.00  0.00     0.058 A 
ATOM     67  C   UNL A   1      46.991  33.245  29.196  1.00  0.00     0.135 A 
ATOM     68  C   UNL A   1      46.321  33.632  26.922  1.00  0.00     0.135 A 
ATOM     69  F   UNL A   1      47.135  32.444  30.264  1.00  0.00    -0.206 F 
ATOM     70  C   UNL A   1      47.370  34.580  29.321  1.00  0.00     0.059 A 
ATOM     71  C   UNL A   1      46.719  34.964  27.015  1.00  0.00     0.059 A 
ATOM     72  F   UNL A   1      45.818  33.207  25.751  1.00  0.00    -0.206 F 
ATOM     73  C   UNL A   1      47.227  35.433  28.225  1.00  0.00     0.060 A 
BRANCH  73  74
ATOM     74  S   UNL A   1      47.713  37.162  28.410  1.00  0.00     0.124 S 
ATOM     75  O   UNL A   1      46.568  37.851  27.825  1.00  0.00    -0.237 OA
ATOM     76  O   UNL A   1      47.863  37.294  29.854  1.00  0.00    -0.237 OA
ATOM     77  O   UNL A   1      48.954  37.251  27.642  1.00  0.00    -0.744 OA
ENDBRANCH  73  74
ENDBRANCH  52  66
BRANCH  53  78
ATOM     78  C   UNL A   1      43.590  23.302  26.744  1.00  0.00     0.058 A 
ATOM     79  C   UNL A   1      43.504  22.749  25.457  1.00  0.00     0.135 A 
ATOM     80  C   UNL A   1      43.267  22.473  27.830  1.00  0.00     0.135 A 
ATOM     81  F   UNL A   1      43.789  23.503  24.383  1.00  0.00    -0.206 F 
ATOM     82  C   UNL A   1      43.103  21.433  25.250  1.00  0.00     0.059 A 
ATOM     83  C   UNL A   1      42.889  21.144  27.652  1.00  0.00     0.059 A 
ATOM     84  F   UNL A   1      43.345  22.945  29.084  1.00  0.00    -0.206 F 
ATOM     85  C   UNL A   1      42.802  20.636  26.356  1.00  0.00     0.060 A 
BRANCH  85  86
ATOM     86  S   UNL A   1      42.342  18.910  26.085  1.00  0.00     0.124 S 
ATOM     87  O   UNL A   1      43.242  18.532  25.002  1.00  0.00    -0.237 OA
ATOM     88  O   UNL A   1      42.620  18.311  27.387  1.00  0.00    -0.237 OA
ATOM     89  O   UNL A   1      40.928  18.993  25.732  1.00  0.00    -0.744 OA
ENDBRANCH  85  86
ENDBRANCH  53  78
BRANCH  65  90
ATOM     90  C   UNL A   1      49.786  26.513  26.554  1.00  0.00     0.058 A 
ATOM     91  C   UNL A   1      50.584  25.998  27.589  1.00  0.00     0.135 A 
ATOM     92  C   UNL A   1      50.326  26.514  25.257  1.00  0.00     0.135 A 
ATOM     93  F   UNL A   1      50.123  25.977  28.850  1.00  0.00    -0.206 F 
ATOM     94  C   UNL A   1      51.872  25.526  27.352  1.00  0.00     0.059 A 
ATOM     95  C   UNL A   1      51.602  26.021  24.992  1.00  0.00     0.059 A 
ATOM     96  F   UNL A   1      49.608  26.987  24.226  1.00  0.00    -0.206 F 
ATOM     97  C   UNL A   1      52.372  25.539  26.048  1.00  0.00     0.060 A 
BRANCH  97  98
ATOM     98  S   UNL A   1      54.032  24.893  25.748  1.00  0.00     0.124 S 
ATOM     99  O   UNL A   1      54.698  25.191  27.012  1.00  0.00    -0.237 OA
ATOM    100  O   UNL A   1      53.775  23.479  25.487  1.00  0.00    -0.237 OA
ATOM    101  O   UNL A   1      54.495  25.662  24.598  1.00  0.00    -0.744 OA
ENDBRANCH  97  98
ENDBRANCH  65  90
ENDBRANCH  39  40
ENDBRANCH  31  34
ENDBRANCH  29  30
ENDBRANCH  28  29
ENDBRANCH   1  28
TORSDOF 18
ENDMDL
MODEL 3
REMARK VINA RESULT:     -11.3      6.187     12.117
REMARK SMILES O=C(CC[C@@H]1CN(c2ccncc2)CC[C@@H]1[NH+]1CCOCC1)NCCCCNC(=O)c1ccc(-c2c3nc(c(-c4c(F)cc(S(=O)(=O)[O-])cc4F)c4ccc([nH]4)c(-c4c(F)cc(S(=O)(=O)[O-])cc4F)c4nc(c(-c5c(F)cc(S(=O)(=O)[O-])cc5F)c5ccc2[nH]5)C=C4)C=C3)cc1
REMARK SMILES IDX 25 1 24 2 23 3 1 4 2 5 3 7 4 8 5 9 6 10 16 11 7 12 15 13
REMARK SMILES IDX 14 14 17 15 18 16 22 17 19 19 21 20 20 21 8 22 9 23 13 24
REMARK SMILES IDX 10 25 12 26 11 27 26 28 27 29 28 30 29 31 30 33 31 34 32 35
REMARK SMILES IDX 96 36 33 37 95 38 34 39 35 40 36 41 89 42 37 43 94 44 88 45
REMARK SMILES IDX 90 46 38 47 93 48 87 49 86 50 39 52 73 53 52 54 72 55 53 56
REMARK SMILES IDX 56 57 71 58 91 59 54 60 55 61 70 63 92 64 57 65 40 66 41 67
REMARK SMILES IDX 50 68 42 69 43 70 49 71 51 72 44 73 45 74 46 75 47 76 48 77
REMARK SMILES IDX 74 78 75 79 84 80 76 81 77 82 83 83 85 84 78 85 79 86 80 87
REMARK SMILES IDX 81 88 82 89 58 90 59 91 68 92 60 93 61 94 67 95 69 96 62 97
REMARK SMILES IDX 63 98 64 99 65 100 66 101
REMARK H PARENT 23 6 17 18 28 32 90 51 56 62
REMARK Flexibility Score: inf
ROOT
ATOM      1  C   UNL A   1      34.959  33.029  28.464  1.00  0.00     0.023 C 
ENDROOT
BRANCH   1   2
ATOM      2  C   UNL A   1      34.789  31.714  27.551  1.00  0.00     0.116 C 
BRANCH   2   3
ATOM      3  N   UNL A   1      34.016  30.492  27.920  1.00  0.00    -0.356 N 
ATOM      4  O   UNL A   1      33.145  30.066  25.811  1.00  0.00    -0.275 OA
ATOM      5  C   UNL A   1      33.364  29.663  26.956  1.00  0.00     0.220 C 
ATOM      6  H   UNL A   1      33.951  30.246  28.871  1.00  0.00     0.163 HD
BRANCH   5   7
ATOM      7  C   UNL A   1      32.859  28.206  27.412  1.00  0.00     0.100 C 
BRANCH   7   8
ATOM      8  C   UNL A   1      31.387  27.622  27.114  1.00  0.00     0.021 C 
BRANCH   8   9
ATOM      9  C   UNL A   1      30.950  26.347  26.191  1.00  0.00     0.067 C 
ATOM     10  C   UNL A   1      31.924  25.128  26.018  1.00  0.00     0.126 C 
ATOM     11  C   UNL A   1      30.291  26.818  24.889  1.00  0.00     0.190 C 
ATOM     12  N   UNL A   1      31.675  24.319  24.798  1.00  0.00    -0.371 N 
ATOM     13  C   UNL A   1      29.997  25.763  23.824  1.00  0.00     0.087 C 
ATOM     14  C   UNL A   1      31.163  24.857  23.544  1.00  0.00     0.122 C 
BRANCH  11  15
ATOM     15  N   UNL A   1      31.122  27.859  24.359  1.00  0.00    -0.328 N 
ATOM     16  C   UNL A   1      30.402  29.011  23.834  1.00  0.00     0.291 C 
ATOM     17  C   UNL A   1      32.410  27.471  23.815  1.00  0.00     0.291 C 
ATOM     18  H   UNL A   1      31.536  28.310  25.174  1.00  0.00     0.348 HD
ATOM     19  C   UNL A   1      30.740  29.294  22.392  1.00  0.00     0.221 C 
ATOM     20  C   UNL A   1      32.686  27.956  22.441  1.00  0.00     0.221 C 
ATOM     21  O   UNL A   1      32.145  29.253  22.234  1.00  0.00    -0.370 OA
ENDBRANCH  11  15
BRANCH  12  22
ATOM     22  C   UNL A   1      32.195  23.042  24.577  1.00  0.00     0.040 A 
ATOM     23  C   UNL A   1      32.198  22.441  23.313  1.00  0.00     0.046 A 
ATOM     24  C   UNL A   1      32.367  22.219  25.692  1.00  0.00     0.046 A 
ATOM     25  C   UNL A   1      32.341  21.060  23.232  1.00  0.00     0.113 A 
ATOM     26  C   UNL A   1      32.490  20.853  25.512  1.00  0.00     0.113 A 
ATOM     27  N   UNL A   1      32.491  20.256  24.305  1.00  0.00    -0.265 NA
ENDBRANCH  12  22
ENDBRANCH   8   9
ENDBRANCH   7   8
ENDBRANCH   5   7
ENDBRANCH   2   3
ENDBRANCH   1   2
BRANCH   1  28
ATOM     28  C   UNL A   1      36.094  33.661  29.397  1.00  0.00     0.023 C 
BRANCH  28  29
ATOM     29  C   UNL A   1      36.828  33.215  30.734  1.00  0.00     0.116 C 
BRANCH  29  30
ATOM     30  N   UNL A   1      36.310  32.180  31.602  1.00  0.00    -0.352 N 
ATOM     31  C   UNL A   1      36.821  30.892  31.748  1.00  0.00     0.251 C 
ATOM     32  H   UNL A   1      35.519  32.409  32.142  1.00  0.00     0.163 HD
ATOM     33  O   UNL A   1      36.219  30.074  32.443  1.00  0.00    -0.269 OA
BRANCH  31  34
ATOM     34  C   UNL A   1      38.083  30.442  31.066  1.00  0.00     0.039 A 
ATOM     35  C   UNL A   1      39.231  30.197  31.829  1.00  0.00     0.014 A 
ATOM     36  C   UNL A   1      38.205  30.433  29.671  1.00  0.00     0.014 A 
ATOM     37  C   UNL A   1      40.463  29.894  31.207  1.00  0.00     0.010 A 
ATOM     38  C   UNL A   1      39.437  30.109  29.048  1.00  0.00     0.010 A 
ATOM     39  C   UNL A   1      40.587  29.829  29.806  1.00  0.00    -0.014 A 
BRANCH  39  40
ATOM     40  C   UNL A   1      41.898  29.438  29.170  1.00  0.00     0.031 A 
ATOM     41  C   UNL A   1      43.039  30.421  29.002  1.00  0.00     0.074 A 
ATOM     42  C   UNL A   1      42.083  28.172  28.734  1.00  0.00     0.049 A 
ATOM     43  N   UNL A   1      44.247  30.218  28.527  1.00  0.00    -0.248 NA
ATOM     44  C   UNL A   1      42.791  31.808  29.414  1.00  0.00     0.031 C 
ATOM     45  C   UNL A   1      41.079  27.110  28.795  1.00  0.00     0.029 A 
ATOM     46  N   UNL A   1      43.175  27.558  28.159  1.00  0.00    -0.354 N 
ATOM     47  C   UNL A   1      44.903  31.446  28.580  1.00  0.00     0.074 A 
ATOM     48  C   UNL A   1      43.941  32.397  29.102  1.00  0.00     0.031 C 
ATOM     49  C   UNL A   1      41.605  25.976  28.305  1.00  0.00     0.029 A 
ATOM     50  C   UNL A   1      42.976  26.227  27.864  1.00  0.00     0.049 A 
ATOM     51  H   UNL A   1      44.021  28.028  27.977  1.00  0.00     0.167 HD
ATOM     52  C   UNL A   1      46.184  31.756  28.247  1.00  0.00     0.037 A 
ATOM     53  C   UNL A   1      43.791  25.306  27.305  1.00  0.00     0.037 A 
ATOM     54  C   UNL A   1      47.155  30.816  27.735  1.00  0.00     0.049 A 
ATOM     55  C   UNL A   1      45.201  25.677  26.923  1.00  0.00     0.074 A 
ATOM     56  C   UNL A   1      48.490  31.039  27.431  1.00  0.00     0.029 A 
ATOM     57  N   UNL A   1      46.902  29.486  27.436  1.00  0.00    -0.354 N 
ATOM     58  N   UNL A   1      45.819  26.824  27.064  1.00  0.00    -0.248 NA
ATOM     59  C   UNL A   1      46.027  24.623  26.313  1.00  0.00     0.031 C 
ATOM     60  C   UNL A   1      49.027  29.860  26.900  1.00  0.00     0.029 A 
ATOM     61  C   UNL A   1      48.045  28.885  26.925  1.00  0.00     0.049 A 
ATOM     62  H   UNL A   1      46.038  29.033  27.567  1.00  0.00     0.167 HD
ATOM     63  C   UNL A   1      47.112  26.621  26.587  1.00  0.00     0.074 A 
ATOM     64  C   UNL A   1      47.193  25.240  26.168  1.00  0.00     0.031 C 
ATOM     65  C   UNL A   1      48.137  27.506  26.510  1.00  0.00     0.037 A 
BRANCH  52  66
ATOM     66  C   UNL A   1      46.631  33.188  28.418  1.00  0.00     0.058 A 
ATOM     67  C   UNL A   1      46.413  34.154  27.421  1.00  0.00     0.135 A 
ATOM     68  C   UNL A   1      47.224  33.617  29.618  1.00  0.00     0.135 A 
ATOM     69  F   UNL A   1      45.849  33.805  26.254  1.00  0.00    -0.206 F 
ATOM     70  C   UNL A   1      46.800  35.481  27.593  1.00  0.00     0.059 A 
ATOM     71  C   UNL A   1      47.593  34.945  29.823  1.00  0.00     0.059 A 
ATOM     72  F   UNL A   1      47.443  32.743  30.614  1.00  0.00    -0.206 F 
ATOM     73  C   UNL A   1      47.393  35.867  28.797  1.00  0.00     0.060 A 
BRANCH  73  74
ATOM     74  S   UNL A   1      47.897  37.589  28.996  1.00  0.00     0.124 S 
ATOM     75  O   UNL A   1      46.984  38.041  30.040  1.00  0.00    -0.237 OA
ATOM     76  O   UNL A   1      49.295  37.465  29.386  1.00  0.00    -0.237 OA
ATOM     77  O   UNL A   1      47.665  38.166  27.672  1.00  0.00    -0.744 OA
ENDBRANCH  73  74
ENDBRANCH  52  66
BRANCH  53  78
ATOM     78  C   UNL A   1      43.299  23.915  27.086  1.00  0.00     0.058 A 
ATOM     79  C   UNL A   1      42.819  23.502  25.834  1.00  0.00     0.135 A 
ATOM     80  C   UNL A   1      43.297  22.972  28.127  1.00  0.00     0.135 A 
ATOM     81  F   UNL A   1      42.786  24.368  24.810  1.00  0.00    -0.206 F 
ATOM     82  C   UNL A   1      42.344  22.211  25.621  1.00  0.00     0.059 A 
ATOM     83  C   UNL A   1      42.853  21.667  27.932  1.00  0.00     0.059 A 
ATOM     84  F   UNL A   1      43.758  23.308  29.342  1.00  0.00    -0.206 F 
ATOM     85  C   UNL A   1      42.370  21.298  26.677  1.00  0.00     0.060 A 
BRANCH  85  86
ATOM     86  S   UNL A   1      41.810  19.607  26.377  1.00  0.00     0.124 S 
ATOM     87  O   UNL A   1      40.366  19.787  26.282  1.00  0.00    -0.237 OA
ATOM     88  O   UNL A   1      42.497  19.274  25.133  1.00  0.00    -0.237 OA
ATOM     89  O   UNL A   1      42.281  18.885  27.556  1.00  0.00    -0.744 OA
ENDBRANCH  85  86
ENDBRANCH  53  78
BRANCH  65  90
ATOM     90  C   UNL A   1      49.459  27.008  25.985  1.00  0.00     0.058 A 
ATOM     91  C   UNL A   1      49.837  27.177  24.643  1.00  0.00     0.135 A 
ATOM     92  C   UNL A   1      50.383  26.395  26.847  1.00  0.00     0.135 A 
ATOM     93  F   UNL A   1      48.992  27.751  23.770  1.00  0.00    -0.206 F 
ATOM     94  C   UNL A   1      51.070  26.737  24.169  1.00  0.00     0.059 A 
ATOM     95  C   UNL A   1      51.634  25.971  26.402  1.00  0.00     0.059 A 
ATOM     96  F   UNL A   1      50.082  26.213  28.142  1.00  0.00    -0.206 F 
ATOM     97  C   UNL A   1      51.964  26.136  25.058  1.00  0.00     0.060 A 
BRANCH  97  98
ATOM     98  S   UNL A   1      53.574  25.599  24.440  1.00  0.00     0.124 S 
ATOM     99  O   UNL A   1      54.475  26.526  25.118  1.00  0.00    -0.237 OA
ATOM    100  O   UNL A   1      53.637  24.212  24.891  1.00  0.00    -0.237 OA
ATOM    101  O   UNL A   1      53.462  25.778  22.995  1.00  0.00    -0.744 OA
ENDBRANCH  97  98
ENDBRANCH  65  90
ENDBRANCH  39  40
ENDBRANCH  31  34
ENDBRANCH  29  30
ENDBRANCH  28  29
ENDBRANCH   1  28
TORSDOF 18
ENDMDL
