MODEL 1
REMARK VINA RESULT:     -12.1      0.000      0.000
REMARK SMILES O=C(CCc1ccc(S(=O)(=O)Nc2cccc(I)c2)cc1)NCCCCNC(=O)c1ccc(-c2c3nc(c(-c4c(F)cc(S(=O)(=O)[O-])cc4F)c4ccc([nH]4)c(-c4c(F)cc(S(=O)(=O)[O-])cc4F)c4nc(c(-c5c(F)cc(S(=O)(=O)[O-])cc5F)c5ccc2[nH]5)C=C4)C=C3)cc1
REMARK SMILES IDX 23 1 22 2 1 3 2 4 3 6 4 7 5 8 6 9 21 10 7 11 20 12 8 13 9 14
REMARK SMILES IDX 10 15 11 16 12 17 13 19 14 20 19 21 15 22 17 23 16 24 18 25
REMARK SMILES IDX 24 26 25 27 26 28 27 29 28 30 29 32 30 33 31 34 95 35 32 36
REMARK SMILES IDX 94 37 33 38 34 39 35 40 88 41 36 42 93 43 87 44 89 45 37 46
REMARK SMILES IDX 92 47 86 48 85 49 38 51 72 52 51 53 71 54 52 55 55 56 70 57
REMARK SMILES IDX 90 58 53 59 54 60 69 62 91 63 56 64 39 65 40 66 49 67 41 68
REMARK SMILES IDX 42 69 48 70 50 71 43 72 44 73 45 74 46 75 47 76 73 77 74 78
REMARK SMILES IDX 83 79 75 80 76 81 82 82 84 83 77 84 78 85 79 86 80 87 81 88
REMARK SMILES IDX 57 89 58 90 67 91 59 92 60 93 66 94 68 95 61 96 62 97 63 98
REMARK SMILES IDX 64 99 65 100
REMARK H PARENT 22 5 12 18 27 31 89 50 55 61
REMARK Flexibility Score: inf
ROOT
ATOM      1  C   UNL A   1      38.470  22.075  25.771  1.00  0.00     0.116 C 
ENDROOT
BRANCH   1   2
ATOM      2  N   UNL A   1      37.069  22.045  26.130  1.00  0.00    -0.356 N 
ATOM      3  O   UNL A   1      36.493  20.143  24.985  1.00  0.00    -0.275 OA
ATOM      4  C   UNL A   1      36.177  21.095  25.692  1.00  0.00     0.220 C 
ATOM      5  H   UNL A   1      36.732  22.752  26.726  1.00  0.00     0.163 HD
BRANCH   4   6
ATOM      6  C   UNL A   1      34.734  21.346  26.097  1.00  0.00     0.105 C 
BRANCH   6   7
ATOM      7  C   UNL A   1      33.734  21.301  24.940  1.00  0.00     0.045 C 
BRANCH   7   8
ATOM      8  C   UNL A   1      33.643  22.523  24.053  1.00  0.00    -0.047 A 
ATOM      9  C   UNL A   1      34.252  23.747  24.371  1.00  0.00     0.005 A 
ATOM     10  C   UNL A   1      32.962  22.414  22.834  1.00  0.00     0.005 A 
ATOM     11  C   UNL A   1      34.032  24.879  23.581  1.00  0.00     0.022 A 
ATOM     12  C   UNL A   1      32.818  23.519  21.998  1.00  0.00     0.022 A 
ATOM     13  C   UNL A   1      33.280  24.768  22.411  1.00  0.00     0.087 A 
BRANCH  13  14
ATOM     14  S   UNL A   1      33.008  26.196  21.391  1.00  0.00     0.261 S 
ATOM     15  O   UNL A   1      33.974  27.200  21.787  1.00  0.00    -0.201 OA
ATOM     16  O   UNL A   1      32.906  25.747  20.022  1.00  0.00    -0.201 OA
BRANCH  14  17
ATOM     17  N   UNL A   1      31.491  26.847  21.853  1.00  0.00    -0.280 N 
ATOM     18  H   UNL A   1      30.908  27.287  21.195  1.00  0.00     0.180 HD
BRANCH  17  19
ATOM     19  C   UNL A   1      31.098  26.733  23.221  1.00  0.00     0.050 A 
ATOM     20  C   UNL A   1      30.287  25.680  23.646  1.00  0.00     0.027 A 
ATOM     21  C   UNL A   1      31.601  27.659  24.135  1.00  0.00     0.041 A 
ATOM     22  C   UNL A   1      30.008  25.531  25.004  1.00  0.00     0.003 A 
ATOM     23  C   UNL A   1      31.325  27.498  25.492  1.00  0.00     0.015 A 
ATOM     24  C   UNL A   1      30.535  26.433  25.930  1.00  0.00     0.015 A 
ATOM     25  I   UNL A   1      32.145  28.819  26.868  1.00  0.00    -0.044 I 
ENDBRANCH  17  19
ENDBRANCH  14  17
ENDBRANCH  13  14
ENDBRANCH   7   8
ENDBRANCH   6   7
ENDBRANCH   4   6
ENDBRANCH   1   2
BRANCH   1  26
ATOM     26  C   UNL A   1      39.300  22.819  26.821  1.00  0.00     0.023 C 
BRANCH  26  27
ATOM     27  C   UNL A   1      40.568  22.098  27.301  1.00  0.00     0.023 C 
BRANCH  27  28
ATOM     28  C   UNL A   1      41.851  22.929  27.301  1.00  0.00     0.116 C 
BRANCH  28  29
ATOM     29  N   UNL A   1      41.938  23.820  26.154  1.00  0.00    -0.352 N 
ATOM     30  C   UNL A   1      41.788  25.187  26.075  1.00  0.00     0.251 C 
ATOM     31  H   UNL A   1      42.136  23.375  25.298  1.00  0.00     0.163 HD
ATOM     32  O   UNL A   1      41.734  25.720  24.969  1.00  0.00    -0.269 OA
BRANCH  30  33
ATOM     33  C   UNL A   1      41.681  26.021  27.296  1.00  0.00     0.039 A 
ATOM     34  C   UNL A   1      42.789  26.764  27.720  1.00  0.00     0.014 A 
ATOM     35  C   UNL A   1      40.510  26.051  28.049  1.00  0.00     0.014 A 
ATOM     36  C   UNL A   1      42.696  27.591  28.851  1.00  0.00     0.010 A 
ATOM     37  C   UNL A   1      40.404  26.926  29.132  1.00  0.00     0.010 A 
ATOM     38  C   UNL A   1      41.485  27.710  29.548  1.00  0.00    -0.014 A 
BRANCH  38  39
ATOM     39  C   UNL A   1      41.287  28.679  30.666  1.00  0.00     0.031 A 
ATOM     40  C   UNL A   1      42.111  28.594  31.930  1.00  0.00     0.074 A 
ATOM     41  C   UNL A   1      40.271  29.564  30.604  1.00  0.00     0.049 A 
ATOM     42  N   UNL A   1      42.004  29.290  33.036  1.00  0.00    -0.248 NA
ATOM     43  C   UNL A   1      43.163  27.567  31.976  1.00  0.00     0.031 C 
ATOM     44  C   UNL A   1      39.327  29.689  29.491  1.00  0.00     0.029 A 
ATOM     45  N   UNL A   1      39.848  30.513  31.502  1.00  0.00    -0.354 N 
ATOM     46  C   UNL A   1      42.952  28.773  33.911  1.00  0.00     0.074 A 
ATOM     47  C   UNL A   1      43.592  27.669  33.226  1.00  0.00     0.031 C 
ATOM     48  C   UNL A   1      38.460  30.680  29.757  1.00  0.00     0.029 A 
ATOM     49  C   UNL A   1      38.761  31.237  31.072  1.00  0.00     0.049 A 
ATOM     50  H   UNL A   1      40.285  30.662  32.373  1.00  0.00     0.167 HD
ATOM     51  C   UNL A   1      43.279  29.191  35.160  1.00  0.00     0.037 A 
ATOM     52  C   UNL A   1      38.078  32.236  31.665  1.00  0.00     0.037 A 
ATOM     53  C   UNL A   1      42.681  30.323  35.823  1.00  0.00     0.049 A 
ATOM     54  C   UNL A   1      38.495  32.719  33.026  1.00  0.00     0.074 A 
ATOM     55  C   UNL A   1      43.024  30.886  37.041  1.00  0.00     0.029 A 
ATOM     56  N   UNL A   1      41.621  31.067  35.328  1.00  0.00    -0.354 N 
ATOM     57  N   UNL A   1      39.459  32.279  33.798  1.00  0.00    -0.248 NA
ATOM     58  C   UNL A   1      37.736  33.843  33.594  1.00  0.00     0.031 C 
ATOM     59  C   UNL A   1      42.150  31.947  37.299  1.00  0.00     0.029 A 
ATOM     60  C   UNL A   1      41.289  32.074  36.222  1.00  0.00     0.049 A 
ATOM     61  H   UNL A   1      41.170  30.904  34.468  1.00  0.00     0.167 HD
ATOM     62  C   UNL A   1      39.442  33.090  34.927  1.00  0.00     0.074 A 
ATOM     63  C   UNL A   1      38.378  34.053  34.736  1.00  0.00     0.031 C 
ATOM     64  C   UNL A   1      40.239  33.039  36.023  1.00  0.00     0.037 A 
BRANCH  51  65
ATOM     65  C   UNL A   1      44.358  28.440  35.894  1.00  0.00     0.058 A 
ATOM     66  C   UNL A   1      44.058  27.361  36.742  1.00  0.00     0.135 A 
ATOM     67  C   UNL A   1      45.712  28.763  35.703  1.00  0.00     0.135 A 
ATOM     68  F   UNL A   1      42.782  27.013  36.966  1.00  0.00    -0.206 F 
ATOM     69  C   UNL A   1      45.058  26.650  37.398  1.00  0.00     0.059 A 
ATOM     70  C   UNL A   1      46.730  28.046  36.327  1.00  0.00     0.059 A 
ATOM     71  F   UNL A   1      46.059  29.780  34.899  1.00  0.00    -0.206 F 
ATOM     72  C   UNL A   1      46.391  27.002  37.186  1.00  0.00     0.060 A 
BRANCH  72  73
ATOM     73  S   UNL A   1      47.676  26.069  38.045  1.00  0.00     0.124 S 
ATOM     74  O   UNL A   1      48.876  26.801  37.650  1.00  0.00    -0.237 OA
ATOM     75  O   UNL A   1      47.283  26.205  39.444  1.00  0.00    -0.237 OA
ATOM     76  O   UNL A   1      47.550  24.725  37.488  1.00  0.00    -0.744 OA
ENDBRANCH  72  73
ENDBRANCH  51  65
BRANCH  52  77
ATOM     77  C   UNL A   1      36.954  32.890  30.944  1.00  0.00     0.058 A 
ATOM     78  C   UNL A   1      35.627  32.640  31.322  1.00  0.00     0.135 A 
ATOM     79  C   UNL A   1      37.178  33.781  29.884  1.00  0.00     0.135 A 
ATOM     80  F   UNL A   1      35.365  31.790  32.327  1.00  0.00    -0.206 F 
ATOM     81  C   UNL A   1      34.558  33.234  30.663  1.00  0.00     0.059 A 
ATOM     82  C   UNL A   1      36.126  34.407  29.224  1.00  0.00     0.059 A 
ATOM     83  F   UNL A   1      38.432  34.066  29.498  1.00  0.00    -0.206 F 
ATOM     84  C   UNL A   1      34.817  34.118  29.615  1.00  0.00     0.060 A 
BRANCH  84  85
ATOM     85  S   UNL A   1      33.423  34.922  28.796  1.00  0.00     0.124 S 
ATOM     86  O   UNL A   1      34.039  36.150  28.306  1.00  0.00    -0.237 OA
ATOM     87  O   UNL A   1      33.055  33.942  27.780  1.00  0.00    -0.237 OA
ATOM     88  O   UNL A   1      32.453  35.089  29.875  1.00  0.00    -0.744 OA
ENDBRANCH  84  85
ENDBRANCH  52  77
BRANCH  64  89
ATOM     89  C   UNL A   1      40.027  34.081  37.087  1.00  0.00     0.058 A 
ATOM     90  C   UNL A   1      40.632  35.345  37.015  1.00  0.00     0.135 A 
ATOM     91  C   UNL A   1      39.168  33.827  38.168  1.00  0.00     0.135 A 
ATOM     92  F   UNL A   1      41.468  35.637  36.005  1.00  0.00    -0.206 F 
ATOM     93  C   UNL A   1      40.408  36.314  37.989  1.00  0.00     0.059 A 
ATOM     94  C   UNL A   1      38.911  34.790  39.140  1.00  0.00     0.059 A 
ATOM     95  F   UNL A   1      38.556  32.637  38.281  1.00  0.00    -0.206 F 
ATOM     96  C   UNL A   1      39.545  36.028  39.047  1.00  0.00     0.060 A 
BRANCH  96  97
ATOM     97  S   UNL A   1      39.233  37.306  40.284  1.00  0.00     0.124 S 
ATOM     98  O   UNL A   1      38.354  38.213  39.553  1.00  0.00    -0.237 OA
ATOM     99  O   UNL A   1      38.607  36.551  41.365  1.00  0.00    -0.237 OA
ATOM    100  O   UNL A   1      40.565  37.825  40.580  1.00  0.00    -0.744 OA
ENDBRANCH  96  97
ENDBRANCH  64  89
ENDBRANCH  38  39
ENDBRANCH  30  33
ENDBRANCH  28  29
ENDBRANCH  27  28
ENDBRANCH  26  27
ENDBRANCH   1  26
TORSDOF 19
ENDMDL
MODEL 2
REMARK VINA RESULT:     -11.6      1.650      2.233
REMARK SMILES O=C(CCc1ccc(S(=O)(=O)Nc2cccc(I)c2)cc1)NCCCCNC(=O)c1ccc(-c2c3nc(c(-c4c(F)cc(S(=O)(=O)[O-])cc4F)c4ccc([nH]4)c(-c4c(F)cc(S(=O)(=O)[O-])cc4F)c4nc(c(-c5c(F)cc(S(=O)(=O)[O-])cc5F)c5ccc2[nH]5)C=C4)C=C3)cc1
REMARK SMILES IDX 23 1 22 2 1 3 2 4 3 6 4 7 5 8 6 9 21 10 7 11 20 12 8 13 9 14
REMARK SMILES IDX 10 15 11 16 12 17 13 19 14 20 19 21 15 22 17 23 16 24 18 25
REMARK SMILES IDX 24 26 25 27 26 28 27 29 28 30 29 32 30 33 31 34 95 35 32 36
REMARK SMILES IDX 94 37 33 38 34 39 35 40 88 41 36 42 93 43 87 44 89 45 37 46
REMARK SMILES IDX 92 47 86 48 85 49 38 51 72 52 51 53 71 54 52 55 55 56 70 57
REMARK SMILES IDX 90 58 53 59 54 60 69 62 91 63 56 64 39 65 40 66 49 67 41 68
REMARK SMILES IDX 42 69 48 70 50 71 43 72 44 73 45 74 46 75 47 76 73 77 74 78
REMARK SMILES IDX 83 79 75 80 76 81 82 82 84 83 77 84 78 85 79 86 80 87 81 88
REMARK SMILES IDX 57 89 58 90 67 91 59 92 60 93 66 94 68 95 61 96 62 97 63 98
REMARK SMILES IDX 64 99 65 100
REMARK H PARENT 22 5 12 18 27 31 89 50 55 61
REMARK Flexibility Score: inf
ROOT
ATOM      1  C   UNL A   1      36.849  21.454  25.498  1.00  0.00     0.116 C 
ENDROOT
BRANCH   1   2
ATOM      2  N   UNL A   1      35.737  21.826  26.346  1.00  0.00    -0.356 N 
ATOM      3  O   UNL A   1      34.125  20.553  25.327  1.00  0.00    -0.275 OA
ATOM      4  C   UNL A   1      34.452  21.366  26.185  1.00  0.00     0.220 C 
ATOM      5  H   UNL A   1      35.914  22.449  27.087  1.00  0.00     0.163 HD
BRANCH   4   6
ATOM      6  C   UNL A   1      33.431  21.998  27.118  1.00  0.00     0.105 C 
BRANCH   6   7
ATOM      7  C   UNL A   1      32.319  22.774  26.409  1.00  0.00     0.045 C 
BRANCH   7   8
ATOM      8  C   UNL A   1      32.507  24.267  26.251  1.00  0.00    -0.047 A 
ATOM      9  C   UNL A   1      33.690  24.842  25.762  1.00  0.00     0.005 A 
ATOM     10  C   UNL A   1      31.433  25.112  26.562  1.00  0.00     0.005 A 
ATOM     11  C   UNL A   1      33.858  26.230  25.755  1.00  0.00     0.022 A 
ATOM     12  C   UNL A   1      31.567  26.495  26.469  1.00  0.00     0.022 A 
ATOM     13  C   UNL A   1      32.802  27.055  26.147  1.00  0.00     0.087 A 
BRANCH  13  14
ATOM     14  S   UNL A   1      32.998  28.819  26.128  1.00  0.00     0.261 S 
ATOM     15  O   UNL A   1      31.845  29.389  26.793  1.00  0.00    -0.201 OA
ATOM     16  O   UNL A   1      34.343  29.119  26.562  1.00  0.00    -0.201 OA
BRANCH  14  17
ATOM     17  N   UNL A   1      32.844  29.311  24.493  1.00  0.00    -0.280 N 
ATOM     18  H   UNL A   1      33.591  29.745  24.023  1.00  0.00     0.180 HD
BRANCH  17  19
ATOM     19  C   UNL A   1      31.600  29.075  23.833  1.00  0.00     0.050 A 
ATOM     20  C   UNL A   1      31.317  27.832  23.265  1.00  0.00     0.027 A 
ATOM     21  C   UNL A   1      30.646  30.093  23.831  1.00  0.00     0.041 A 
ATOM     22  C   UNL A   1      30.055  27.594  22.724  1.00  0.00     0.003 A 
ATOM     23  C   UNL A   1      29.384  29.844  23.297  1.00  0.00     0.015 A 
ATOM     24  C   UNL A   1      29.082  28.596  22.747  1.00  0.00     0.015 A 
ATOM     25  I   UNL A   1      27.929  31.324  23.371  1.00  0.00    -0.044 I 
ENDBRANCH  17  19
ENDBRANCH  14  17
ENDBRANCH  13  14
ENDBRANCH   7   8
ENDBRANCH   6   7
ENDBRANCH   4   6
ENDBRANCH   1   2
BRANCH   1  26
ATOM     26  C   UNL A   1      37.951  22.516  25.523  1.00  0.00     0.023 C 
BRANCH  26  27
ATOM     27  C   UNL A   1      39.223  22.136  26.295  1.00  0.00     0.023 C 
BRANCH  27  28
ATOM     28  C   UNL A   1      40.004  23.298  26.910  1.00  0.00     0.116 C 
BRANCH  28  29
ATOM     29  N   UNL A   1      40.938  23.901  25.972  1.00  0.00    -0.352 N 
ATOM     30  C   UNL A   1      41.573  25.122  26.008  1.00  0.00     0.251 C 
ATOM     31  H   UNL A   1      41.151  23.346  25.186  1.00  0.00     0.163 HD
ATOM     32  O   UNL A   1      42.195  25.503  25.019  1.00  0.00    -0.269 OA
BRANCH  30  33
ATOM     33  C   UNL A   1      41.511  25.985  27.212  1.00  0.00     0.039 A 
ATOM     34  C   UNL A   1      42.432  27.030  27.357  1.00  0.00     0.014 A 
ATOM     35  C   UNL A   1      40.575  25.755  28.218  1.00  0.00     0.014 A 
ATOM     36  C   UNL A   1      42.365  27.883  28.471  1.00  0.00     0.010 A 
ATOM     37  C   UNL A   1      40.472  26.648  29.286  1.00  0.00     0.010 A 
ATOM     38  C   UNL A   1      41.355  27.723  29.430  1.00  0.00    -0.014 A 
BRANCH  38  39
ATOM     39  C   UNL A   1      41.147  28.684  30.553  1.00  0.00     0.031 A 
ATOM     40  C   UNL A   1      41.964  28.594  31.821  1.00  0.00     0.074 A 
ATOM     41  C   UNL A   1      40.127  29.564  30.492  1.00  0.00     0.049 A 
ATOM     42  N   UNL A   1      41.849  29.282  32.931  1.00  0.00    -0.248 NA
ATOM     43  C   UNL A   1      43.021  27.572  31.865  1.00  0.00     0.031 C 
ATOM     44  C   UNL A   1      39.188  29.692  29.376  1.00  0.00     0.029 A 
ATOM     45  N   UNL A   1      39.695  30.505  31.394  1.00  0.00    -0.354 N 
ATOM     46  C   UNL A   1      42.795  28.764  33.808  1.00  0.00     0.074 A 
ATOM     47  C   UNL A   1      43.444  27.668  33.118  1.00  0.00     0.031 C 
ATOM     48  C   UNL A   1      38.315  30.677  29.644  1.00  0.00     0.029 A 
ATOM     49  C   UNL A   1      38.606  31.227  30.964  1.00  0.00     0.049 A 
ATOM     50  H   UNL A   1      40.126  30.651  32.268  1.00  0.00     0.167 HD
ATOM     51  C   UNL A   1      43.114  29.175  35.061  1.00  0.00     0.037 A 
ATOM     52  C   UNL A   1      37.916  32.219  31.560  1.00  0.00     0.037 A 
ATOM     53  C   UNL A   1      42.507  30.300  35.728  1.00  0.00     0.049 A 
ATOM     54  C   UNL A   1      38.324  32.695  32.927  1.00  0.00     0.074 A 
ATOM     55  C   UNL A   1      42.842  30.856  36.952  1.00  0.00     0.029 A 
ATOM     56  N   UNL A   1      41.446  31.042  35.233  1.00  0.00    -0.354 N 
ATOM     57  N   UNL A   1      39.286  32.254  33.700  1.00  0.00    -0.248 NA
ATOM     58  C   UNL A   1      37.557  33.811  33.498  1.00  0.00     0.031 C 
ATOM     59  C   UNL A   1      41.962  31.912  37.212  1.00  0.00     0.029 A 
ATOM     60  C   UNL A   1      41.105  32.041  36.132  1.00  0.00     0.049 A 
ATOM     61  H   UNL A   1      41.000  30.883  34.370  1.00  0.00     0.167 HD
ATOM     62  C   UNL A   1      39.259  33.058  34.834  1.00  0.00     0.074 A 
ATOM     63  C   UNL A   1      38.192  34.017  34.644  1.00  0.00     0.031 C 
ATOM     64  C   UNL A   1      40.051  33.003  35.933  1.00  0.00     0.037 A 
BRANCH  51  65
ATOM     65  C   UNL A   1      44.193  28.424  35.795  1.00  0.00     0.058 A 
ATOM     66  C   UNL A   1      43.893  27.346  36.643  1.00  0.00     0.135 A 
ATOM     67  C   UNL A   1      45.547  28.747  35.604  1.00  0.00     0.135 A 
ATOM     68  F   UNL A   1      42.616  26.998  36.867  1.00  0.00    -0.206 F 
ATOM     69  C   UNL A   1      44.893  26.635  37.299  1.00  0.00     0.059 A 
ATOM     70  C   UNL A   1      46.565  28.031  36.229  1.00  0.00     0.059 A 
ATOM     71  F   UNL A   1      45.894  29.765  34.800  1.00  0.00    -0.206 F 
ATOM     72  C   UNL A   1      46.226  26.987  37.088  1.00  0.00     0.060 A 
BRANCH  72  73
ATOM     73  S   UNL A   1      47.511  26.054  37.948  1.00  0.00     0.124 S 
ATOM     74  O   UNL A   1      47.809  25.010  36.972  1.00  0.00    -0.237 OA
ATOM     75  O   UNL A   1      48.552  27.057  38.141  1.00  0.00    -0.237 OA
ATOM     76  O   UNL A   1      46.845  25.601  39.165  1.00  0.00    -0.744 OA
ENDBRANCH  72  73
ENDBRANCH  51  65
BRANCH  52  77
ATOM     77  C   UNL A   1      36.793  32.873  30.838  1.00  0.00     0.058 A 
ATOM     78  C   UNL A   1      35.464  32.537  31.138  1.00  0.00     0.135 A 
ATOM     79  C   UNL A   1      37.017  33.846  29.853  1.00  0.00     0.135 A 
ATOM     80  F   UNL A   1      35.202  31.607  32.069  1.00  0.00    -0.206 F 
ATOM     81  C   UNL A   1      34.396  33.129  30.476  1.00  0.00     0.059 A 
ATOM     82  C   UNL A   1      35.964  34.470  29.193  1.00  0.00     0.059 A 
ATOM     83  F   UNL A   1      38.270  34.214  29.544  1.00  0.00    -0.206 F 
ATOM     84  C   UNL A   1      34.656  34.097  29.504  1.00  0.00     0.060 A 
BRANCH  84  85
ATOM     85  S   UNL A   1      33.259  34.894  28.684  1.00  0.00     0.124 S 
ATOM     86  O   UNL A   1      32.446  35.305  29.822  1.00  0.00    -0.237 OA
ATOM     87  O   UNL A   1      33.910  35.970  27.943  1.00  0.00    -0.237 OA
ATOM     88  O   UNL A   1      32.700  33.826  27.860  1.00  0.00    -0.744 OA
ENDBRANCH  84  85
ENDBRANCH  52  77
BRANCH  64  89
ATOM     89  C   UNL A   1      39.829  34.037  37.004  1.00  0.00     0.058 A 
ATOM     90  C   UNL A   1      39.092  33.752  38.164  1.00  0.00     0.135 A 
ATOM     91  C   UNL A   1      40.402  35.313  36.888  1.00  0.00     0.135 A 
ATOM     92  F   UNL A   1      38.516  32.549  38.321  1.00  0.00    -0.206 F 
ATOM     93  C   UNL A   1      38.914  34.704  39.164  1.00  0.00     0.059 A 
ATOM     94  C   UNL A   1      40.257  36.272  37.887  1.00  0.00     0.059 A 
ATOM     95  F   UNL A   1      41.124  35.635  35.803  1.00  0.00    -0.206 F 
ATOM     96  C   UNL A   1      39.502  35.962  39.017  1.00  0.00     0.060 A 
BRANCH  96  97
ATOM     97  S   UNL A   1      39.297  37.176  40.337  1.00  0.00     0.124 S 
ATOM     98  O   UNL A   1      38.365  36.490  41.225  1.00  0.00    -0.237 OA
ATOM     99  O   UNL A   1      40.659  37.326  40.841  1.00  0.00    -0.237 OA
ATOM    100  O   UNL A   1      38.761  38.344  39.644  1.00  0.00    -0.744 OA
ENDBRANCH  96  97
ENDBRANCH  64  89
ENDBRANCH  38  39
ENDBRANCH  30  33
ENDBRANCH  28  29
ENDBRANCH  27  28
ENDBRANCH  26  27
ENDBRANCH   1  26
TORSDOF 19
ENDMDL
MODEL 3
REMARK VINA RESULT:     -11.6      1.607      2.499
REMARK SMILES O=C(CCc1ccc(S(=O)(=O)Nc2cccc(I)c2)cc1)NCCCCNC(=O)c1ccc(-c2c3nc(c(-c4c(F)cc(S(=O)(=O)[O-])cc4F)c4ccc([nH]4)c(-c4c(F)cc(S(=O)(=O)[O-])cc4F)c4nc(c(-c5c(F)cc(S(=O)(=O)[O-])cc5F)c5ccc2[nH]5)C=C4)C=C3)cc1
REMARK SMILES IDX 23 1 22 2 1 3 2 4 3 6 4 7 5 8 6 9 21 10 7 11 20 12 8 13 9 14
REMARK SMILES IDX 10 15 11 16 12 17 13 19 14 20 19 21 15 22 17 23 16 24 18 25
REMARK SMILES IDX 24 26 25 27 26 28 27 29 28 30 29 32 30 33 31 34 95 35 32 36
REMARK SMILES IDX 94 37 33 38 34 39 35 40 88 41 36 42 93 43 87 44 89 45 37 46
REMARK SMILES IDX 92 47 86 48 85 49 38 51 72 52 51 53 71 54 52 55 55 56 70 57
REMARK SMILES IDX 90 58 53 59 54 60 69 62 91 63 56 64 39 65 40 66 49 67 41 68
REMARK SMILES IDX 42 69 48 70 50 71 43 72 44 73 45 74 46 75 47 76 73 77 74 78
REMARK SMILES IDX 83 79 75 80 76 81 82 82 84 83 77 84 78 85 79 86 80 87 81 88
REMARK SMILES IDX 57 89 58 90 67 91 59 92 60 93 66 94 68 95 61 96 62 97 63 98
REMARK SMILES IDX 64 99 65 100
REMARK H PARENT 22 5 12 18 27 31 89 50 55 61
REMARK Flexibility Score: inf
ROOT
ATOM      1  C   UNL A   1      40.287  21.223  26.460  1.00  0.00     0.116 C 
ENDROOT
BRANCH   1   2
ATOM      2  N   UNL A   1      38.981  21.644  26.000  1.00  0.00    -0.356 N 
ATOM      3  O   UNL A   1      38.395  19.713  24.912  1.00  0.00    -0.275 OA
ATOM      4  C   UNL A   1      38.140  20.867  25.240  1.00  0.00     0.220 C 
ATOM      5  H   UNL A   1      38.676  22.546  26.247  1.00  0.00     0.163 HD
BRANCH   4   6
ATOM      6  C   UNL A   1      36.878  21.571  24.769  1.00  0.00     0.105 C 
BRANCH   6   7
ATOM      7  C   UNL A   1      36.697  22.985  25.323  1.00  0.00     0.045 C 
BRANCH   7   8
ATOM      8  C   UNL A   1      35.279  23.485  25.500  1.00  0.00    -0.047 A 
ATOM      9  C   UNL A   1      34.925  24.838  25.382  1.00  0.00     0.005 A 
ATOM     10  C   UNL A   1      34.267  22.550  25.746  1.00  0.00     0.005 A 
ATOM     11  C   UNL A   1      33.627  25.264  25.680  1.00  0.00     0.022 A 
ATOM     12  C   UNL A   1      32.952  22.962  25.953  1.00  0.00     0.022 A 
ATOM     13  C   UNL A   1      32.649  24.321  26.003  1.00  0.00     0.087 A 
BRANCH  13  14
ATOM     14  S   UNL A   1      30.993  24.848  26.367  1.00  0.00     0.261 S 
ATOM     15  O   UNL A   1      30.370  23.802  27.150  1.00  0.00    -0.201 OA
ATOM     16  O   UNL A   1      31.058  26.209  26.844  1.00  0.00    -0.201 OA
BRANCH  14  17
ATOM     17  N   UNL A   1      30.140  24.845  24.881  1.00  0.00    -0.280 N 
ATOM     18  H   UNL A   1      29.568  24.085  24.628  1.00  0.00     0.180 HD
BRANCH  17  19
ATOM     19  C   UNL A   1      30.282  25.975  24.019  1.00  0.00     0.050 A 
ATOM     20  C   UNL A   1      31.389  26.099  23.180  1.00  0.00     0.027 A 
ATOM     21  C   UNL A   1      29.254  26.917  23.986  1.00  0.00     0.041 A 
ATOM     22  C   UNL A   1      31.450  27.154  22.272  1.00  0.00     0.003 A 
ATOM     23  C   UNL A   1      29.317  27.964  23.069  1.00  0.00     0.015 A 
ATOM     24  C   UNL A   1      30.409  28.084  22.208  1.00  0.00     0.015 A 
ATOM     25  I   UNL A   1      27.748  29.319  22.950  1.00  0.00    -0.044 I 
ENDBRANCH  17  19
ENDBRANCH  14  17
ENDBRANCH  13  14
ENDBRANCH   7   8
ENDBRANCH   6   7
ENDBRANCH   4   6
ENDBRANCH   1   2
BRANCH   1  26
ATOM     26  C   UNL A   1      40.720  22.006  27.702  1.00  0.00     0.023 C 
BRANCH  26  27
ATOM     27  C   UNL A   1      42.216  21.935  28.046  1.00  0.00     0.023 C 
BRANCH  27  28
ATOM     28  C   UNL A   1      43.009  23.227  27.850  1.00  0.00     0.116 C 
BRANCH  28  29
ATOM     29  N   UNL A   1      42.768  23.838  26.552  1.00  0.00    -0.352 N 
ATOM     30  C   UNL A   1      42.191  25.046  26.230  1.00  0.00     0.251 C 
ATOM     31  H   UNL A   1      43.066  23.302  25.781  1.00  0.00     0.163 HD
ATOM     32  O   UNL A   1      41.932  25.290  25.054  1.00  0.00    -0.269 OA
BRANCH  30  33
ATOM     33  C   UNL A   1      41.871  26.048  27.275  1.00  0.00     0.039 A 
ATOM     34  C   UNL A   1      40.827  25.794  28.173  1.00  0.00     0.014 A 
ATOM     35  C   UNL A   1      42.566  27.252  27.358  1.00  0.00     0.014 A 
ATOM     36  C   UNL A   1      40.534  26.712  29.194  1.00  0.00     0.010 A 
ATOM     37  C   UNL A   1      42.313  28.127  28.416  1.00  0.00     0.010 A 
ATOM     38  C   UNL A   1      41.303  27.874  29.350  1.00  0.00    -0.014 A 
BRANCH  38  39
ATOM     39  C   UNL A   1      41.131  28.810  30.500  1.00  0.00     0.031 A 
ATOM     40  C   UNL A   1      41.982  28.687  31.743  1.00  0.00     0.074 A 
ATOM     41  C   UNL A   1      40.116  29.698  30.486  1.00  0.00     0.049 A 
ATOM     42  N   UNL A   1      41.900  29.349  32.871  1.00  0.00    -0.248 NA
ATOM     43  C   UNL A   1      43.033  27.658  31.735  1.00  0.00     0.031 C 
ATOM     44  C   UNL A   1      39.149  29.857  29.398  1.00  0.00     0.029 A 
ATOM     45  N   UNL A   1      39.715  30.621  31.420  1.00  0.00    -0.354 N 
ATOM     46  C   UNL A   1      42.866  28.805  33.710  1.00  0.00     0.074 A 
ATOM     47  C   UNL A   1      43.489  27.722  32.979  1.00  0.00     0.031 C 
ATOM     48  C   UNL A   1      38.290  30.841  29.712  1.00  0.00     0.029 A 
ATOM     49  C   UNL A   1      38.620  31.359  31.036  1.00  0.00     0.049 A 
ATOM     50  H   UNL A   1      40.170  30.744  32.286  1.00  0.00     0.167 HD
ATOM     51  C   UNL A   1      43.220  29.186  34.964  1.00  0.00     0.037 A 
ATOM     52  C   UNL A   1      37.952  32.340  31.672  1.00  0.00     0.037 A 
ATOM     53  C   UNL A   1      42.639  30.299  35.672  1.00  0.00     0.049 A 
ATOM     54  C   UNL A   1      38.399  32.783  33.038  1.00  0.00     0.074 A 
ATOM     55  C   UNL A   1      43.010  30.825  36.899  1.00  0.00     0.029 A 
ATOM     56  N   UNL A   1      41.570  31.059  35.222  1.00  0.00    -0.354 N 
ATOM     57  N   UNL A   1      39.378  32.318  33.776  1.00  0.00    -0.248 NA
ATOM     58  C   UNL A   1      37.655  33.890  33.655  1.00  0.00     0.031 C 
ATOM     59  C   UNL A   1      42.144  31.879  37.207  1.00  0.00     0.029 A 
ATOM     60  C   UNL A   1      41.260  32.039  36.153  1.00  0.00     0.049 A 
ATOM     61  H   UNL A   1      41.100  30.922  34.368  1.00  0.00     0.167 HD
ATOM     62  C   UNL A   1      39.387  33.096  34.928  1.00  0.00     0.074 A 
ATOM     63  C   UNL A   1      38.321  34.065  34.788  1.00  0.00     0.031 C 
ATOM     64  C   UNL A   1      40.207  33.011  36.004  1.00  0.00     0.037 A 
BRANCH  51  65
ATOM     65  C   UNL A   1      44.314  28.412  35.652  1.00  0.00     0.058 A 
ATOM     66  C   UNL A   1      45.667  28.751  35.493  1.00  0.00     0.135 A 
ATOM     67  C   UNL A   1      44.003  27.357  36.527  1.00  0.00     0.135 A 
ATOM     68  F   UNL A   1      46.021  29.746  34.664  1.00  0.00    -0.206 F 
ATOM     69  C   UNL A   1      46.675  28.054  36.151  1.00  0.00     0.059 A 
ATOM     70  C   UNL A   1      44.995  26.664  37.217  1.00  0.00     0.059 A 
ATOM     71  F   UNL A   1      42.726  26.993  36.723  1.00  0.00    -0.206 F 
ATOM     72  C   UNL A   1      46.329  27.010  37.008  1.00  0.00     0.060 A 
BRANCH  72  73
ATOM     73  S   UNL A   1      47.649  26.115  37.854  1.00  0.00     0.124 S 
ATOM     74  O   UNL A   1      48.828  26.853  37.409  1.00  0.00    -0.237 OA
ATOM     75  O   UNL A   1      47.292  26.279  39.259  1.00  0.00    -0.237 OA
ATOM     76  O   UNL A   1      47.528  24.757  37.333  1.00  0.00    -0.744 OA
ENDBRANCH  72  73
ENDBRANCH  51  65
BRANCH  52  77
ATOM     77  C   UNL A   1      36.815  33.018  30.996  1.00  0.00     0.058 A 
ATOM     78  C   UNL A   1      37.050  33.956  29.979  1.00  0.00     0.135 A 
ATOM     79  C   UNL A   1      35.483  32.737  31.335  1.00  0.00     0.135 A 
ATOM     80  F   UNL A   1      38.308  34.260  29.626  1.00  0.00    -0.206 F 
ATOM     81  C   UNL A   1      36.006  34.607  29.333  1.00  0.00     0.059 A 
ATOM     82  C   UNL A   1      34.420  33.358  30.686  1.00  0.00     0.059 A 
ATOM     83  F   UNL A   1      35.207  31.834  32.288  1.00  0.00    -0.206 F 
ATOM     84  C   UNL A   1      34.693  34.300  29.693  1.00  0.00     0.060 A 
BRANCH  84  85
ATOM     85  S   UNL A   1      33.342  35.116  28.814  1.00  0.00     0.124 S 
ATOM     86  O   UNL A   1      32.777  34.009  28.053  1.00  0.00    -0.237 OA
ATOM     87  O   UNL A   1      32.523  35.621  29.910  1.00  0.00    -0.237 OA
ATOM     88  O   UNL A   1      34.025  36.140  28.029  1.00  0.00    -0.744 OA
ENDBRANCH  84  85
ENDBRANCH  52  77
BRANCH  64  89
ATOM     89  C   UNL A   1      40.020  34.021  37.103  1.00  0.00     0.058 A 
ATOM     90  C   UNL A   1      39.133  33.799  38.168  1.00  0.00     0.135 A 
ATOM     91  C   UNL A   1      40.775  35.205  37.116  1.00  0.00     0.135 A 
ATOM     92  F   UNL A   1      38.381  32.686  38.200  1.00  0.00    -0.206 F 
ATOM     93  C   UNL A   1      38.986  34.725  39.197  1.00  0.00     0.059 A 
ATOM     94  C   UNL A   1      40.662  36.133  38.148  1.00  0.00     0.059 A 
ATOM     95  F   UNL A   1      41.645  35.463  36.127  1.00  0.00    -0.206 F 
ATOM     96  C   UNL A   1      39.756  35.889  39.179  1.00  0.00     0.060 A 
BRANCH  96  97
ATOM     97  S   UNL A   1      39.585  37.065  40.538  1.00  0.00     0.124 S 
ATOM     98  O   UNL A   1      40.679  37.991  40.265  1.00  0.00    -0.237 OA
ATOM     99  O   UNL A   1      38.240  37.593  40.329  1.00  0.00    -0.237 OA
ATOM    100  O   UNL A   1      39.746  36.235  41.728  1.00  0.00    -0.744 OA
ENDBRANCH  96  97
ENDBRANCH  64  89
ENDBRANCH  38  39
ENDBRANCH  30  33
ENDBRANCH  28  29
ENDBRANCH  27  28
ENDBRANCH  26  27
ENDBRANCH   1  26
TORSDOF 19
ENDMDL
