MODEL 1
REMARK VINA RESULT:     -11.8      0.000      0.000
REMARK SMILES [NH3+][C@H](Cc1cnc2ccccc2c1)C(=O)NCCCCNC(=O)c1ccc(-c2c3nc(c(-c4c(F)cc(S(=O)(=O)[O-])cc4F)c4ccc([nH]4)c(-c4c(F)cc(S(=O)(=O)[O-])cc4F)c4nc(c(-c5c(F)cc(S(=O)(=O)[O-])cc5F)c5ccc2[nH]5)C=C4)C=C3)cc1
REMARK SMILES IDX 19 1 18 2 17 3 16 4 14 5 15 6 2 8 1 9 3 13 4 14 5 15 13 16
REMARK SMILES IDX 6 17 12 18 7 19 11 20 8 21 10 22 9 23 20 24 21 25 22 26
REMARK SMILES IDX 23 28 24 29 25 30 89 31 26 32 88 33 27 34 28 35 29 36 82 37
REMARK SMILES IDX 30 38 87 39 81 40 83 41 31 42 86 43 80 44 79 45 32 47 66 48
REMARK SMILES IDX 45 49 65 50 46 51 49 52 64 53 84 54 47 55 48 56 63 58 85 59
REMARK SMILES IDX 50 60 33 61 34 62 43 63 35 64 36 65 42 66 44 67 37 68 38 69
REMARK SMILES IDX 39 70 40 71 41 72 67 73 68 74 77 75 69 76 70 77 76 78 78 79
REMARK SMILES IDX 71 80 72 81 73 82 74 83 75 84 51 85 52 86 61 87 53 88 54 89
REMARK SMILES IDX 60 90 62 91 55 92 56 93 57 94 58 95 59 96
REMARK H PARENT 16 7 1 10 1 11 1 12 21 27 83 46 49 57
REMARK Flexibility Score: inf
ROOT
ATOM      1  C   UNL A   1      40.984  21.254  27.295  1.00  0.00     0.023 C 
ENDROOT
BRANCH   1   2
ATOM      2  C   UNL A   1      42.307  20.600  26.933  1.00  0.00     0.023 C 
BRANCH   2   3
ATOM      3  C   UNL A   1      42.238  19.313  26.114  1.00  0.00     0.116 C 
BRANCH   3   4
ATOM      4  N   UNL A   1      43.531  18.656  26.093  1.00  0.00    -0.351 N 
ATOM      5  C   UNL A   1      44.636  18.777  25.315  1.00  0.00     0.278 C 
ATOM      6  O   UNL A   1      45.477  17.874  25.425  1.00  0.00    -0.268 OA
ATOM      7  H   UNL A   1      43.629  17.974  26.797  1.00  0.00     0.163 HD
BRANCH   5   8
ATOM      8  C   UNL A   1      44.896  19.939  24.331  1.00  0.00     0.275 C 
BRANCH   8   9
ATOM      9  N   UNL A   1      44.597  19.582  22.935  1.00  0.00    -0.347 N 
ATOM     10  H   UNL A   1      43.628  19.271  22.863  1.00  0.00     0.345 HD
ATOM     11  H   UNL A   1      45.218  18.830  22.636  1.00  0.00     0.345 HD
ATOM     12  H   UNL A   1      44.738  20.396  22.337  1.00  0.00     0.345 HD
ENDBRANCH   8   9
BRANCH   8  13
ATOM     13  C   UNL A   1      46.148  20.803  24.619  1.00  0.00     0.112 C 
BRANCH  13  14
ATOM     14  C   UNL A   1      46.034  22.227  25.097  1.00  0.00    -0.023 A 
ATOM     15  C   UNL A   1      46.205  23.333  24.280  1.00  0.00     0.115 A 
ATOM     16  C   UNL A   1      45.683  22.493  26.427  1.00  0.00     0.016 A 
ATOM     17  N   UNL A   1      46.212  24.615  24.715  1.00  0.00    -0.256 NA
ATOM     18  C   UNL A   1      45.657  23.811  26.915  1.00  0.00     0.000 A 
ATOM     19  C   UNL A   1      45.970  24.851  26.018  1.00  0.00     0.070 A 
ATOM     20  C   UNL A   1      45.388  24.097  28.266  1.00  0.00     0.010 A 
ATOM     21  C   UNL A   1      46.073  26.142  26.520  1.00  0.00     0.029 A 
ATOM     22  C   UNL A   1      45.490  25.402  28.742  1.00  0.00     0.001 A 
ATOM     23  C   UNL A   1      45.852  26.424  27.871  1.00  0.00     0.002 A 
ENDBRANCH  13  14
ENDBRANCH   8  13
ENDBRANCH   5   8
ENDBRANCH   3   4
ENDBRANCH   2   3
ENDBRANCH   1   2
BRANCH   1  24
ATOM     24  C   UNL A   1      41.015  22.749  27.572  1.00  0.00     0.116 C 
BRANCH  24  25
ATOM     25  N   UNL A   1      40.925  23.615  26.405  1.00  0.00    -0.352 N 
ATOM     26  C   UNL A   1      40.923  24.998  26.387  1.00  0.00     0.251 C 
ATOM     27  H   UNL A   1      40.857  23.166  25.532  1.00  0.00     0.163 HD
ATOM     28  O   UNL A   1      40.818  25.620  25.334  1.00  0.00    -0.269 OA
BRANCH  26  29
ATOM     29  C   UNL A   1      40.974  25.728  27.678  1.00  0.00     0.039 A 
ATOM     30  C   UNL A   1      42.127  26.444  28.004  1.00  0.00     0.014 A 
ATOM     31  C   UNL A   1      39.839  25.817  28.486  1.00  0.00     0.014 A 
ATOM     32  C   UNL A   1      42.100  27.348  29.072  1.00  0.00     0.010 A 
ATOM     33  C   UNL A   1      39.783  26.791  29.479  1.00  0.00     0.010 A 
ATOM     34  C   UNL A   1      40.907  27.581  29.774  1.00  0.00    -0.014 A 
BRANCH  34  35
ATOM     35  C   UNL A   1      40.791  28.644  30.812  1.00  0.00     0.031 A 
ATOM     36  C   UNL A   1      41.666  28.590  32.036  1.00  0.00     0.074 A 
ATOM     37  C   UNL A   1      39.834  29.592  30.714  1.00  0.00     0.049 A 
ATOM     38  N   UNL A   1      41.612  29.312  33.126  1.00  0.00    -0.248 NA
ATOM     39  C   UNL A   1      42.713  27.556  32.055  1.00  0.00     0.031 C 
ATOM     40  C   UNL A   1      38.877  29.727  29.613  1.00  0.00     0.029 A 
ATOM     41  N   UNL A   1      39.497  30.615  31.567  1.00  0.00    -0.354 N 
ATOM     42  C   UNL A   1      42.582  28.789  33.973  1.00  0.00     0.074 A 
ATOM     43  C   UNL A   1      43.176  27.662  33.291  1.00  0.00     0.031 C 
ATOM     44  C   UNL A   1      38.083  30.786  29.843  1.00  0.00     0.029 A 
ATOM     45  C   UNL A   1      38.440  31.381  31.127  1.00  0.00     0.049 A 
ATOM     46  H   UNL A   1      39.966  30.785  32.416  1.00  0.00     0.167 HD
ATOM     47  C   UNL A   1      42.962  29.222  35.200  1.00  0.00     0.037 A 
ATOM     48  C   UNL A   1      37.824  32.436  31.696  1.00  0.00     0.037 A 
ATOM     49  C   UNL A   1      42.418  30.385  35.848  1.00  0.00     0.049 A 
ATOM     50  C   UNL A   1      38.298  32.932  33.036  1.00  0.00     0.074 A 
ATOM     51  C   UNL A   1      42.797  30.955  37.051  1.00  0.00     0.029 A 
ATOM     52  N   UNL A   1      41.390  31.165  35.341  1.00  0.00    -0.354 N 
ATOM     53  N   UNL A   1      39.253  32.455  33.799  1.00  0.00    -0.248 NA
ATOM     54  C   UNL A   1      37.614  34.108  33.591  1.00  0.00     0.031 C 
ATOM     55  C   UNL A   1      41.980  32.068  37.284  1.00  0.00     0.029 A 
ATOM     56  C   UNL A   1      41.116  32.208  36.210  1.00  0.00     0.049 A 
ATOM     57  H   UNL A   1      40.924  31.002  34.490  1.00  0.00     0.167 HD
ATOM     58  C   UNL A   1      39.302  33.290  34.911  1.00  0.00     0.074 A 
ATOM     59  C   UNL A   1      38.287  34.305  34.717  1.00  0.00     0.031 C 
ATOM     60  C   UNL A   1      40.115  33.221  35.994  1.00  0.00     0.037 A 
BRANCH  47  61
ATOM     61  C   UNL A   1      44.029  28.437  35.911  1.00  0.00     0.058 A 
ATOM     62  C   UNL A   1      43.712  27.370  36.765  1.00  0.00     0.135 A 
ATOM     63  C   UNL A   1      45.386  28.749  35.728  1.00  0.00     0.135 A 
ATOM     64  F   UNL A   1      42.429  27.040  36.989  1.00  0.00    -0.206 F 
ATOM     65  C   UNL A   1      44.698  26.663  37.444  1.00  0.00     0.059 A 
ATOM     66  C   UNL A   1      46.391  28.037  36.373  1.00  0.00     0.059 A 
ATOM     67  F   UNL A   1      45.745  29.760  34.921  1.00  0.00    -0.206 F 
ATOM     68  C   UNL A   1      46.037  27.007  37.245  1.00  0.00     0.060 A 
BRANCH  68  69
ATOM     69  S   UNL A   1      47.307  26.087  38.137  1.00  0.00     0.124 S 
ATOM     70  O   UNL A   1      47.105  26.564  39.501  1.00  0.00    -0.237 OA
ATOM     71  O   UNL A   1      46.925  24.701  37.889  1.00  0.00    -0.237 OA
ATOM     72  O   UNL A   1      48.547  26.515  37.499  1.00  0.00    -0.744 OA
ENDBRANCH  68  69
ENDBRANCH  47  61
BRANCH  48  73
ATOM     73  C   UNL A   1      36.713  33.124  30.987  1.00  0.00     0.058 A 
ATOM     74  C   UNL A   1      35.383  32.949  31.400  1.00  0.00     0.135 A 
ATOM     75  C   UNL A   1      36.950  33.970  29.893  1.00  0.00     0.135 A 
ATOM     76  F   UNL A   1      35.105  32.142  32.436  1.00  0.00    -0.206 F 
ATOM     77  C   UNL A   1      34.327  33.573  30.746  1.00  0.00     0.059 A 
ATOM     78  C   UNL A   1      35.911  34.623  29.235  1.00  0.00     0.059 A 
ATOM     79  F   UNL A   1      38.204  34.183  29.467  1.00  0.00    -0.206 F 
ATOM     80  C   UNL A   1      34.600  34.411  29.665  1.00  0.00     0.060 A 
BRANCH  80  81
ATOM     81  S   UNL A   1      33.226  35.260  28.855  1.00  0.00     0.124 S 
ATOM     82  O   UNL A   1      32.657  34.190  28.045  1.00  0.00    -0.237 OA
ATOM     83  O   UNL A   1      32.421  35.697  29.992  1.00  0.00    -0.237 OA
ATOM     84  O   UNL A   1      33.885  36.332  28.116  1.00  0.00    -0.744 OA
ENDBRANCH  80  81
ENDBRANCH  48  73
BRANCH  60  85
ATOM     85  C   UNL A   1      39.972  34.293  37.035  1.00  0.00     0.058 A 
ATOM     86  C   UNL A   1      40.647  35.519  36.927  1.00  0.00     0.135 A 
ATOM     87  C   UNL A   1      39.102  34.116  38.123  1.00  0.00     0.135 A 
ATOM     88  F   UNL A   1      41.494  35.737  35.909  1.00  0.00    -0.206 F 
ATOM     89  C   UNL A   1      40.476  36.527  37.872  1.00  0.00     0.059 A 
ATOM     90  C   UNL A   1      38.899  35.117  39.066  1.00  0.00     0.059 A 
ATOM     91  F   UNL A   1      38.427  32.964  38.266  1.00  0.00    -0.206 F 
ATOM     92  C   UNL A   1      39.598  36.316  38.937  1.00  0.00     0.060 A 
BRANCH  92  93
ATOM     93  S   UNL A   1      39.352  37.645  40.134  1.00  0.00     0.124 S 
ATOM     94  O   UNL A   1      39.055  36.894  41.349  1.00  0.00    -0.237 OA
ATOM     95  O   UNL A   1      40.640  38.332  40.111  1.00  0.00    -0.237 OA
ATOM     96  O   UNL A   1      38.235  38.402  39.574  1.00  0.00    -0.744 OA
ENDBRANCH  92  93
ENDBRANCH  60  85
ENDBRANCH  34  35
ENDBRANCH  26  29
ENDBRANCH  24  25
ENDBRANCH   1  24
TORSDOF 17
ENDMDL
MODEL 2
REMARK VINA RESULT:     -11.7      4.619     12.955
REMARK SMILES [NH3+][C@H](Cc1cnc2ccccc2c1)C(=O)NCCCCNC(=O)c1ccc(-c2c3nc(c(-c4c(F)cc(S(=O)(=O)[O-])cc4F)c4ccc([nH]4)c(-c4c(F)cc(S(=O)(=O)[O-])cc4F)c4nc(c(-c5c(F)cc(S(=O)(=O)[O-])cc5F)c5ccc2[nH]5)C=C4)C=C3)cc1
REMARK SMILES IDX 19 1 18 2 17 3 16 4 14 5 15 6 2 8 1 9 3 13 4 14 5 15 13 16
REMARK SMILES IDX 6 17 12 18 7 19 11 20 8 21 10 22 9 23 20 24 21 25 22 26
REMARK SMILES IDX 23 28 24 29 25 30 89 31 26 32 88 33 27 34 28 35 29 36 82 37
REMARK SMILES IDX 30 38 87 39 81 40 83 41 31 42 86 43 80 44 79 45 32 47 66 48
REMARK SMILES IDX 45 49 65 50 46 51 49 52 64 53 84 54 47 55 48 56 63 58 85 59
REMARK SMILES IDX 50 60 33 61 34 62 43 63 35 64 36 65 42 66 44 67 37 68 38 69
REMARK SMILES IDX 39 70 40 71 41 72 67 73 68 74 77 75 69 76 70 77 76 78 78 79
REMARK SMILES IDX 71 80 72 81 73 82 74 83 75 84 51 85 52 86 61 87 53 88 54 89
REMARK SMILES IDX 60 90 62 91 55 92 56 93 57 94 58 95 59 96
REMARK H PARENT 16 7 1 10 1 11 1 12 21 27 83 46 49 57
REMARK Flexibility Score: inf
ROOT
ATOM      1  C   UNL A   1      35.203  34.644  28.696  1.00  0.00     0.023 C 
ENDROOT
BRANCH   1   2
ATOM      2  C   UNL A   1      33.959  35.053  29.468  1.00  0.00     0.023 C 
BRANCH   2   3
ATOM      3  C   UNL A   1      33.299  36.369  29.061  1.00  0.00     0.116 C 
BRANCH   3   4
ATOM      4  N   UNL A   1      33.343  37.317  30.159  1.00  0.00    -0.351 N 
ATOM      5  C   UNL A   1      33.236  37.202  31.506  1.00  0.00     0.278 C 
ATOM      6  O   UNL A   1      33.070  38.261  32.128  1.00  0.00    -0.268 OA
ATOM      7  H   UNL A   1      33.480  38.245  29.861  1.00  0.00     0.163 HD
BRANCH   5   8
ATOM      8  C   UNL A   1      33.306  35.869  32.284  1.00  0.00     0.275 C 
BRANCH   8   9
ATOM      9  N   UNL A   1      32.011  35.479  32.865  1.00  0.00    -0.347 N 
ATOM     10  H   UNL A   1      31.370  36.272  32.831  1.00  0.00     0.345 HD
ATOM     11  H   UNL A   1      32.145  35.194  33.836  1.00  0.00     0.345 HD
ATOM     12  H   UNL A   1      31.620  34.702  32.334  1.00  0.00     0.345 HD
ENDBRANCH   8   9
BRANCH   8  13
ATOM     13  C   UNL A   1      34.588  35.640  33.121  1.00  0.00     0.112 C 
BRANCH  13  14
ATOM     14  C   UNL A   1      35.388  34.369  33.011  1.00  0.00    -0.023 A 
ATOM     15  C   UNL A   1      34.887  33.182  32.499  1.00  0.00     0.115 A 
ATOM     16  C   UNL A   1      36.738  34.355  33.386  1.00  0.00     0.016 A 
ATOM     17  N   UNL A   1      35.557  32.005  32.493  1.00  0.00    -0.256 NA
ATOM     18  C   UNL A   1      37.477  33.160  33.373  1.00  0.00     0.000 A 
ATOM     19  C   UNL A   1      36.823  31.987  32.949  1.00  0.00     0.070 A 
ATOM     20  C   UNL A   1      38.808  33.106  33.824  1.00  0.00     0.010 A 
ATOM     21  C   UNL A   1      37.504  30.781  33.055  1.00  0.00     0.029 A 
ATOM     22  C   UNL A   1      39.472  31.885  33.912  1.00  0.00     0.001 A 
ATOM     23  C   UNL A   1      38.812  30.717  33.545  1.00  0.00     0.002 A 
ENDBRANCH  13  14
ENDBRANCH   8  13
ENDBRANCH   5   8
ENDBRANCH   3   4
ENDBRANCH   2   3
ENDBRANCH   1   2
BRANCH   1  24
ATOM     24  C   UNL A   1      35.477  33.152  28.585  1.00  0.00     0.116 C 
BRANCH  24  25
ATOM     25  N   UNL A   1      34.351  32.328  28.168  1.00  0.00    -0.352 N 
ATOM     26  C   UNL A   1      34.336  30.955  27.998  1.00  0.00     0.251 C 
ATOM     27  H   UNL A   1      33.506  32.800  27.986  1.00  0.00     0.163 HD
ATOM     28  O   UNL A   1      33.325  30.372  27.618  1.00  0.00    -0.269 OA
BRANCH  26  29
ATOM     29  C   UNL A   1      35.593  30.196  28.211  1.00  0.00     0.039 A 
ATOM     30  C   UNL A   1      36.509  30.098  27.160  1.00  0.00     0.014 A 
ATOM     31  C   UNL A   1      35.923  29.713  29.478  1.00  0.00     0.014 A 
ATOM     32  C   UNL A   1      37.802  29.628  27.414  1.00  0.00     0.010 A 
ATOM     33  C   UNL A   1      37.238  29.347  29.748  1.00  0.00     0.010 A 
ATOM     34  C   UNL A   1      38.200  29.314  28.723  1.00  0.00    -0.014 A 
BRANCH  34  35
ATOM     35  C   UNL A   1      39.607  28.962  29.063  1.00  0.00     0.031 A 
ATOM     36  C   UNL A   1      40.503  29.994  29.696  1.00  0.00     0.074 A 
ATOM     37  C   UNL A   1      40.114  27.762  28.707  1.00  0.00     0.049 A 
ATOM     38  N   UNL A   1      41.791  29.949  29.916  1.00  0.00    -0.248 NA
ATOM     39  C   UNL A   1      39.871  31.262  30.093  1.00  0.00     0.031 C 
ATOM     40  C   UNL A   1      39.378  26.690  28.033  1.00  0.00     0.029 A 
ATOM     41  N   UNL A   1      41.381  27.248  28.849  1.00  0.00    -0.354 N 
ATOM     42  C   UNL A   1      42.129  31.195  30.432  1.00  0.00     0.074 A 
ATOM     43  C   UNL A   1      40.920  31.988  30.447  1.00  0.00     0.031 C 
ATOM     44  C   UNL A   1      40.194  25.640  27.847  1.00  0.00     0.029 A 
ATOM     45  C   UNL A   1      41.524  25.975  28.346  1.00  0.00     0.049 A 
ATOM     46  H   UNL A   1      42.119  27.745  29.271  1.00  0.00     0.167 HD
ATOM     47  C   UNL A   1      43.332  31.634  30.875  1.00  0.00     0.037 A 
ATOM     48  C   UNL A   1      42.605  25.171  28.286  1.00  0.00     0.037 A 
ATOM     49  C   UNL A   1      44.518  30.821  30.924  1.00  0.00     0.049 A 
ATOM     50  C   UNL A   1      43.919  25.661  28.832  1.00  0.00     0.074 A 
ATOM     51  C   UNL A   1      45.762  31.146  31.436  1.00  0.00     0.029 A 
ATOM     52  N   UNL A   1      44.604  29.518  30.458  1.00  0.00    -0.354 N 
ATOM     53  N   UNL A   1      44.207  26.825  29.364  1.00  0.00    -0.248 NA
ATOM     54  C   UNL A   1      45.054  24.729  28.773  1.00  0.00     0.031 C 
ATOM     55  C   UNL A   1      46.609  30.047  31.256  1.00  0.00     0.029 A 
ATOM     56  C   UNL A   1      45.882  29.027  30.663  1.00  0.00     0.049 A 
ATOM     57  H   UNL A   1      43.866  29.017  30.042  1.00  0.00     0.167 HD
ATOM     58  C   UNL A   1      45.547  26.755  29.727  1.00  0.00     0.074 A 
ATOM     59  C   UNL A   1      46.012  25.433  29.363  1.00  0.00     0.031 C 
ATOM     60  C   UNL A   1      46.323  27.701  30.311  1.00  0.00     0.037 A 
BRANCH  47  61
ATOM     61  C   UNL A   1      43.416  33.055  31.357  1.00  0.00     0.058 A 
ATOM     62  C   UNL A   1      43.768  34.106  30.495  1.00  0.00     0.135 A 
ATOM     63  C   UNL A   1      43.130  33.374  32.694  1.00  0.00     0.135 A 
ATOM     64  F   UNL A   1      44.068  33.854  29.210  1.00  0.00    -0.206 F 
ATOM     65  C   UNL A   1      43.872  35.415  30.948  1.00  0.00     0.059 A 
ATOM     66  C   UNL A   1      43.199  34.682  33.163  1.00  0.00     0.059 A 
ATOM     67  F   UNL A   1      42.787  32.408  33.562  1.00  0.00    -0.206 F 
ATOM     68  C   UNL A   1      43.590  35.694  32.287  1.00  0.00     0.060 A 
BRANCH  68  69
ATOM     69  S   UNL A   1      43.735  37.397  32.865  1.00  0.00     0.124 S 
ATOM     70  O   UNL A   1      42.649  37.466  33.837  1.00  0.00    -0.237 OA
ATOM     71  O   UNL A   1      45.084  37.427  33.421  1.00  0.00    -0.237 OA
ATOM     72  O   UNL A   1      43.544  38.184  31.651  1.00  0.00    -0.744 OA
ENDBRANCH  68  69
ENDBRANCH  47  61
BRANCH  48  73
ATOM     73  C   UNL A   1      42.487  23.802  27.718  1.00  0.00     0.058 A 
ATOM     74  C   UNL A   1      42.465  23.603  26.328  1.00  0.00     0.135 A 
ATOM     75  C   UNL A   1      42.400  22.669  28.541  1.00  0.00     0.135 A 
ATOM     76  F   UNL A   1      42.537  24.656  25.500  1.00  0.00    -0.206 F 
ATOM     77  C   UNL A   1      42.345  22.333  25.774  1.00  0.00     0.059 A 
ATOM     78  C   UNL A   1      42.301  21.385  28.010  1.00  0.00     0.059 A 
ATOM     79  F   UNL A   1      42.431  22.803  29.875  1.00  0.00    -0.206 F 
ATOM     80  C   UNL A   1      42.265  21.228  26.624  1.00  0.00     0.060 A 
BRANCH  80  81
ATOM     81  S   UNL A   1      42.164  19.578  25.894  1.00  0.00     0.124 S 
ATOM     82  O   UNL A   1      40.775  19.538  25.452  1.00  0.00    -0.237 OA
ATOM     83  O   UNL A   1      43.169  19.646  24.838  1.00  0.00    -0.237 OA
ATOM     84  O   UNL A   1      42.498  18.699  27.010  1.00  0.00    -0.744 OA
ENDBRANCH  80  81
ENDBRANCH  48  73
BRANCH  60  85
ATOM     85  C   UNL A   1      47.743  27.332  30.631  1.00  0.00     0.058 A 
ATOM     86  C   UNL A   1      48.795  27.610  29.745  1.00  0.00     0.135 A 
ATOM     87  C   UNL A   1      48.062  26.748  31.867  1.00  0.00     0.135 A 
ATOM     88  F   UNL A   1      48.542  28.162  28.548  1.00  0.00    -0.206 F 
ATOM     89  C   UNL A   1      50.114  27.306  30.066  1.00  0.00     0.059 A 
ATOM     90  C   UNL A   1      49.376  26.456  32.219  1.00  0.00     0.059 A 
ATOM     91  F   UNL A   1      47.093  26.471  32.754  1.00  0.00    -0.206 F 
ATOM     92  C   UNL A   1      50.395  26.731  31.308  1.00  0.00     0.060 A 
BRANCH  92  93
ATOM     93  S   UNL A   1      52.114  26.379  31.733  1.00  0.00     0.124 S 
ATOM     94  O   UNL A   1      52.074  24.936  31.945  1.00  0.00    -0.237 OA
ATOM     95  O   UNL A   1      52.830  26.825  30.542  1.00  0.00    -0.237 OA
ATOM     96  O   UNL A   1      52.338  27.185  32.930  1.00  0.00    -0.744 OA
ENDBRANCH  92  93
ENDBRANCH  60  85
ENDBRANCH  34  35
ENDBRANCH  26  29
ENDBRANCH  24  25
ENDBRANCH   1  24
TORSDOF 17
ENDMDL
MODEL 3
REMARK VINA RESULT:     -11.6      3.553     12.292
REMARK SMILES [NH3+][C@H](Cc1cnc2ccccc2c1)C(=O)NCCCCNC(=O)c1ccc(-c2c3nc(c(-c4c(F)cc(S(=O)(=O)[O-])cc4F)c4ccc([nH]4)c(-c4c(F)cc(S(=O)(=O)[O-])cc4F)c4nc(c(-c5c(F)cc(S(=O)(=O)[O-])cc5F)c5ccc2[nH]5)C=C4)C=C3)cc1
REMARK SMILES IDX 19 1 18 2 17 3 16 4 14 5 15 6 2 8 1 9 3 13 4 14 5 15 13 16
REMARK SMILES IDX 6 17 12 18 7 19 11 20 8 21 10 22 9 23 20 24 21 25 22 26
REMARK SMILES IDX 23 28 24 29 25 30 89 31 26 32 88 33 27 34 28 35 29 36 82 37
REMARK SMILES IDX 30 38 87 39 81 40 83 41 31 42 86 43 80 44 79 45 32 47 66 48
REMARK SMILES IDX 45 49 65 50 46 51 49 52 64 53 84 54 47 55 48 56 63 58 85 59
REMARK SMILES IDX 50 60 33 61 34 62 43 63 35 64 36 65 42 66 44 67 37 68 38 69
REMARK SMILES IDX 39 70 40 71 41 72 67 73 68 74 77 75 69 76 70 77 76 78 78 79
REMARK SMILES IDX 71 80 72 81 73 82 74 83 75 84 51 85 52 86 61 87 53 88 54 89
REMARK SMILES IDX 60 90 62 91 55 92 56 93 57 94 58 95 59 96
REMARK H PARENT 16 7 1 10 1 11 1 12 21 27 83 46 49 57
REMARK Flexibility Score: inf
ROOT
ATOM      1  C   UNL A   1      33.262  33.693  27.969  1.00  0.00     0.023 C 
ENDROOT
BRANCH   1   2
ATOM      2  C   UNL A   1      33.875  34.968  28.524  1.00  0.00     0.023 C 
BRANCH   2   3
ATOM      3  C   UNL A   1      32.906  36.057  28.975  1.00  0.00     0.116 C 
BRANCH   3   4
ATOM      4  N   UNL A   1      33.454  36.785  30.105  1.00  0.00    -0.351 N 
ATOM      5  C   UNL A   1      33.268  36.717  31.447  1.00  0.00     0.278 C 
ATOM      6  O   UNL A   1      33.717  37.667  32.104  1.00  0.00    -0.268 OA
ATOM      7  H   UNL A   1      34.100  37.479  29.840  1.00  0.00     0.163 HD
BRANCH   5   8
ATOM      8  C   UNL A   1      32.552  35.561  32.179  1.00  0.00     0.275 C 
BRANCH   8   9
ATOM      9  N   UNL A   1      31.333  35.997  32.879  1.00  0.00    -0.347 N 
ATOM     10  H   UNL A   1      31.422  36.980  33.137  1.00  0.00     0.345 HD
ATOM     11  H   UNL A   1      31.205  35.436  33.722  1.00  0.00     0.345 HD
ATOM     12  H   UNL A   1      30.527  35.878  32.266  1.00  0.00     0.345 HD
ENDBRANCH   8   9
BRANCH   8  13
ATOM     13  C   UNL A   1      33.470  34.526  32.874  1.00  0.00     0.112 C 
BRANCH  13  14
ATOM     14  C   UNL A   1      34.946  34.455  32.581  1.00  0.00    -0.023 A 
ATOM     15  C   UNL A   1      35.929  34.912  33.446  1.00  0.00     0.115 A 
ATOM     16  C   UNL A   1      35.398  33.850  31.401  1.00  0.00     0.016 A 
ATOM     17  N   UNL A   1      37.250  34.953  33.153  1.00  0.00    -0.256 NA
ATOM     18  C   UNL A   1      36.763  33.851  31.069  1.00  0.00     0.000 A 
ATOM     19  C   UNL A   1      37.660  34.457  31.970  1.00  0.00     0.070 A 
ATOM     20  C   UNL A   1      37.231  33.323  29.851  1.00  0.00     0.010 A 
ATOM     21  C   UNL A   1      38.990  34.577  31.592  1.00  0.00     0.029 A 
ATOM     22  C   UNL A   1      38.573  33.450  29.500  1.00  0.00     0.001 A 
ATOM     23  C   UNL A   1      39.451  34.094  30.363  1.00  0.00     0.002 A 
ENDBRANCH  13  14
ENDBRANCH   8  13
ENDBRANCH   5   8
ENDBRANCH   3   4
ENDBRANCH   2   3
ENDBRANCH   1   2
BRANCH   1  24
ATOM     24  C   UNL A   1      33.883  32.382  28.427  1.00  0.00     0.116 C 
BRANCH  24  25
ATOM     25  N   UNL A   1      33.760  31.263  27.503  1.00  0.00    -0.352 N 
ATOM     26  C   UNL A   1      34.629  30.196  27.359  1.00  0.00     0.251 C 
ATOM     27  H   UNL A   1      32.970  31.266  26.915  1.00  0.00     0.163 HD
ATOM     28  O   UNL A   1      34.427  29.320  26.525  1.00  0.00    -0.269 OA
BRANCH  26  29
ATOM     29  C   UNL A   1      35.861  30.164  28.186  1.00  0.00     0.039 A 
ATOM     30  C   UNL A   1      35.785  29.682  29.495  1.00  0.00     0.014 A 
ATOM     31  C   UNL A   1      37.100  30.474  27.621  1.00  0.00     0.014 A 
ATOM     32  C   UNL A   1      36.962  29.392  30.193  1.00  0.00     0.010 A 
ATOM     33  C   UNL A   1      38.265  30.086  28.278  1.00  0.00     0.010 A 
ATOM     34  C   UNL A   1      38.211  29.525  29.565  1.00  0.00    -0.014 A 
BRANCH  34  35
ATOM     35  C   UNL A   1      39.477  29.081  30.213  1.00  0.00     0.031 A 
ATOM     36  C   UNL A   1      39.982  29.801  31.436  1.00  0.00     0.074 A 
ATOM     37  C   UNL A   1      40.228  28.111  29.650  1.00  0.00     0.049 A 
ATOM     38  N   UNL A   1      41.131  29.686  32.050  1.00  0.00    -0.248 NA
ATOM     39  C   UNL A   1      39.092  30.818  32.018  1.00  0.00     0.031 C 
ATOM     40  C   UNL A   1      39.891  27.370  28.432  1.00  0.00     0.029 A 
ATOM     41  N   UNL A   1      41.444  27.590  30.021  1.00  0.00    -0.354 N 
ATOM     42  C   UNL A   1      41.119  30.644  33.056  1.00  0.00     0.074 A 
ATOM     43  C   UNL A   1      39.869  31.363  32.941  1.00  0.00     0.031 C 
ATOM     44  C   UNL A   1      40.860  26.476  28.173  1.00  0.00     0.029 A 
ATOM     45  C   UNL A   1      41.909  26.606  29.179  1.00  0.00     0.049 A 
ATOM     46  H   UNL A   1      41.940  27.895  30.816  1.00  0.00     0.167 HD
ATOM     47  C   UNL A   1      42.052  30.890  34.007  1.00  0.00     0.037 A 
ATOM     48  C   UNL A   1      43.054  25.894  29.208  1.00  0.00     0.037 A 
ATOM     49  C   UNL A   1      43.263  30.129  34.165  1.00  0.00     0.049 A 
ATOM     50  C   UNL A   1      44.052  26.149  30.305  1.00  0.00     0.074 A 
ATOM     51  C   UNL A   1      44.229  30.244  35.149  1.00  0.00     0.029 A 
ATOM     52  N   UNL A   1      43.666  29.103  33.324  1.00  0.00    -0.354 N 
ATOM     53  N   UNL A   1      43.999  27.025  31.279  1.00  0.00    -0.248 NA
ATOM     54  C   UNL A   1      45.265  25.318  30.308  1.00  0.00     0.031 C 
ATOM     55  C   UNL A   1      45.231  29.302  34.889  1.00  0.00     0.029 A 
ATOM     56  C   UNL A   1      44.871  28.579  33.763  1.00  0.00     0.049 A 
ATOM     57  H   UNL A   1      43.170  28.791  32.533  1.00  0.00     0.167 HD
ATOM     58  C   UNL A   1      45.156  26.832  32.027  1.00  0.00     0.074 A 
ATOM     59  C   UNL A   1      45.886  25.751  31.397  1.00  0.00     0.031 C 
ATOM     60  C   UNL A   1      45.576  27.491  33.135  1.00  0.00     0.037 A 
BRANCH  47  61
ATOM     61  C   UNL A   1      41.788  32.022  34.961  1.00  0.00     0.058 A 
ATOM     62  C   UNL A   1      41.057  31.833  36.144  1.00  0.00     0.135 A 
ATOM     63  C   UNL A   1      42.282  33.309  34.695  1.00  0.00     0.135 A 
ATOM     64  F   UNL A   1      40.547  30.626  36.439  1.00  0.00    -0.206 F 
ATOM     65  C   UNL A   1      40.790  32.887  37.010  1.00  0.00     0.059 A 
ATOM     66  C   UNL A   1      42.053  34.372  35.562  1.00  0.00     0.059 A 
ATOM     67  F   UNL A   1      42.989  33.546  33.578  1.00  0.00    -0.206 F 
ATOM     68  C   UNL A   1      41.289  34.156  36.709  1.00  0.00     0.060 A 
BRANCH  68  69
ATOM     69  S   UNL A   1      40.930  35.517  37.838  1.00  0.00     0.124 S 
ATOM     70  O   UNL A   1      40.161  34.835  38.875  1.00  0.00    -0.237 OA
ATOM     71  O   UNL A   1      42.263  35.961  38.229  1.00  0.00    -0.237 OA
ATOM     72  O   UNL A   1      40.178  36.454  37.012  1.00  0.00    -0.744 OA
ENDBRANCH  68  69
ENDBRANCH  47  61
BRANCH  48  73
ATOM     73  C   UNL A   1      43.306  24.842  28.187  1.00  0.00     0.058 A 
ATOM     74  C   UNL A   1      43.968  25.153  26.989  1.00  0.00     0.135 A 
ATOM     75  C   UNL A   1      42.901  23.514  28.383  1.00  0.00     0.135 A 
ATOM     76  F   UNL A   1      44.366  26.412  26.751  1.00  0.00    -0.206 F 
ATOM     77  C   UNL A   1      44.205  24.190  26.015  1.00  0.00     0.059 A 
ATOM     78  C   UNL A   1      43.147  22.526  27.432  1.00  0.00     0.059 A 
ATOM     79  F   UNL A   1      42.278  23.161  29.517  1.00  0.00    -0.206 F 
ATOM     80  C   UNL A   1      43.793  22.877  26.246  1.00  0.00     0.060 A 
BRANCH  80  81
ATOM     81  S   UNL A   1      44.154  21.621  24.998  1.00  0.00     0.124 S 
ATOM     82  O   UNL A   1      43.189  20.582  25.339  1.00  0.00    -0.237 OA
ATOM     83  O   UNL A   1      43.903  22.342  23.754  1.00  0.00    -0.237 OA
ATOM     84  O   UNL A   1      45.553  21.292  25.251  1.00  0.00    -0.744 OA
ENDBRANCH  80  81
ENDBRANCH  48  73
BRANCH  60  85
ATOM     85  C   UNL A   1      46.861  27.038  33.765  1.00  0.00     0.058 A 
ATOM     86  C   UNL A   1      46.891  26.013  34.723  1.00  0.00     0.135 A 
ATOM     87  C   UNL A   1      48.085  27.594  33.360  1.00  0.00     0.135 A 
ATOM     88  F   UNL A   1      45.747  25.452  35.148  1.00  0.00    -0.206 F 
ATOM     89  C   UNL A   1      48.089  25.565  35.270  1.00  0.00     0.059 A 
ATOM     90  C   UNL A   1      49.296  27.147  33.877  1.00  0.00     0.059 A 
ATOM     91  F   UNL A   1      48.110  28.571  32.440  1.00  0.00    -0.206 F 
ATOM     92  C   UNL A   1      49.288  26.139  34.839  1.00  0.00     0.060 A 
BRANCH  92  93
ATOM     93  S   UNL A   1      50.840  25.522  35.524  1.00  0.00     0.124 S 
ATOM     94  O   UNL A   1      51.822  26.221  34.700  1.00  0.00    -0.237 OA
ATOM     95  O   UNL A   1      50.761  25.951  36.917  1.00  0.00    -0.237 OA
ATOM     96  O   UNL A   1      50.754  24.080  35.313  1.00  0.00    -0.744 OA
ENDBRANCH  92  93
ENDBRANCH  60  85
ENDBRANCH  34  35
ENDBRANCH  26  29
ENDBRANCH  24  25
ENDBRANCH   1  24
TORSDOF 17
ENDMDL
