MODEL 1
REMARK VINA RESULT:     -11.5      0.000      0.000
REMARK SMILES O=C(NCCCCNC(=O)[C@H]1C[C@@H]1C(=O)Nc1ccc(Cl)c(Br)c1)c1ccc(-c2c3nc(c(-c4c(F)cc(S(=O)(=O)[O-])cc4F)c4ccc([nH]4)c(-c4c(F)cc(S(=O)(=O)[O-])cc4F)c4nc(c(-c5c(F)cc(S(=O)(=O)[O-])cc5F)c5ccc2[nH]5)C=C4)C=C3)cc1
REMARK SMILES IDX 5 1 4 2 3 3 1 4 2 5 25 7 26 8 90 9 27 10 89 11 28 12 29 13
REMARK SMILES IDX 30 14 83 15 31 16 88 17 82 18 84 19 32 20 87 21 81 22 80 23
REMARK SMILES IDX 33 25 67 26 46 27 66 28 47 29 50 30 65 31 85 32 48 33 49 34
REMARK SMILES IDX 64 36 86 37 51 38 34 39 35 40 44 41 36 42 37 43 43 44 45 45
REMARK SMILES IDX 38 46 39 47 40 48 41 49 42 50 68 51 69 52 78 53 70 54 71 55
REMARK SMILES IDX 77 56 79 57 72 58 73 59 74 60 75 61 76 62 52 63 53 64 62 65
REMARK SMILES IDX 54 66 55 67 61 68 63 69 56 70 57 71 58 72 59 73 60 74 6 75
REMARK SMILES IDX 7 76 8 77 9 78 10 80 11 81 12 82 13 83 14 84 15 85 16 86
REMARK SMILES IDX 17 88 18 89 24 90 19 91 22 92 20 93 23 94 21 95
REMARK H PARENT 3 6 84 24 50 35 8 79 16 87
REMARK Flexibility Score: inf
ROOT
ATOM      1  C   UNL A   1      33.548  28.172  25.695  1.00  0.00     0.023 C 
ENDROOT
BRANCH   1   2
ATOM      2  C   UNL A   1      33.325  28.413  27.186  1.00  0.00     0.116 C 
BRANCH   2   3
ATOM      3  N   UNL A   1      33.265  29.827  27.516  1.00  0.00    -0.352 N 
ATOM      4  O   UNL A   1      33.920  31.760  28.452  1.00  0.00    -0.269 OA
ATOM      5  C   UNL A   1      34.219  30.627  28.089  1.00  0.00     0.251 C 
ATOM      6  H   UNL A   1      32.415  30.275  27.296  1.00  0.00     0.163 HD
BRANCH   5   7
ATOM      7  C   UNL A   1      35.597  30.126  28.276  1.00  0.00     0.039 A 
ATOM      8  C   UNL A   1      35.978  29.665  29.539  1.00  0.00     0.014 A 
ATOM      9  C   UNL A   1      36.528  30.172  27.234  1.00  0.00     0.014 A 
ATOM     10  C   UNL A   1      37.290  29.241  29.757  1.00  0.00     0.010 A 
ATOM     11  C   UNL A   1      37.818  29.692  27.435  1.00  0.00     0.010 A 
ATOM     12  C   UNL A   1      38.219  29.253  28.705  1.00  0.00    -0.014 A 
BRANCH  12  13
ATOM     13  C   UNL A   1      39.646  28.921  28.935  1.00  0.00     0.031 A 
ATOM     14  C   UNL A   1      40.546  29.952  29.556  1.00  0.00     0.074 A 
ATOM     15  C   UNL A   1      40.136  27.722  28.572  1.00  0.00     0.049 A 
ATOM     16  N   UNL A   1      41.840  29.920  29.746  1.00  0.00    -0.248 NA
ATOM     17  C   UNL A   1      39.903  31.198  30.008  1.00  0.00     0.031 C 
ATOM     18  C   UNL A   1      39.359  26.633  27.982  1.00  0.00     0.029 A 
ATOM     19  N   UNL A   1      41.409  27.221  28.652  1.00  0.00    -0.354 N 
ATOM     20  C   UNL A   1      42.165  31.139  30.330  1.00  0.00     0.074 A 
ATOM     21  C   UNL A   1      40.944  31.912  30.404  1.00  0.00     0.031 C 
ATOM     22  C   UNL A   1      40.167  25.578  27.782  1.00  0.00     0.029 A 
ATOM     23  C   UNL A   1      41.525  25.933  28.188  1.00  0.00     0.049 A 
ATOM     24  H   UNL A   1      42.170  27.734  29.010  1.00  0.00     0.167 HD
ATOM     25  C   UNL A   1      43.366  31.567  30.788  1.00  0.00     0.037 A 
ATOM     26  C   UNL A   1      42.606  25.134  28.095  1.00  0.00     0.037 A 
ATOM     27  C   UNL A   1      44.576  30.791  30.719  1.00  0.00     0.049 A 
ATOM     28  C   UNL A   1      43.944  25.654  28.545  1.00  0.00     0.074 A 
ATOM     29  C   UNL A   1      45.847  31.135  31.142  1.00  0.00     0.029 A 
ATOM     30  N   UNL A   1      44.662  29.509  30.195  1.00  0.00    -0.354 N 
ATOM     31  N   UNL A   1      44.244  26.820  29.066  1.00  0.00    -0.248 NA
ATOM     32  C   UNL A   1      45.091  24.751  28.384  1.00  0.00     0.031 C 
ATOM     33  C   UNL A   1      46.708  30.070  30.847  1.00  0.00     0.029 A 
ATOM     34  C   UNL A   1      45.966  29.048  30.276  1.00  0.00     0.049 A 
ATOM     35  H   UNL A   1      43.906  29.001  29.822  1.00  0.00     0.167 HD
ATOM     36  C   UNL A   1      45.613  26.785  29.314  1.00  0.00     0.074 A 
ATOM     37  C   UNL A   1      46.077  25.477  28.896  1.00  0.00     0.031 C 
ATOM     38  C   UNL A   1      46.412  27.748  29.840  1.00  0.00     0.037 A 
BRANCH  25  39
ATOM     39  C   UNL A   1      43.411  32.942  31.398  1.00  0.00     0.058 A 
ATOM     40  C   UNL A   1      43.695  34.078  30.622  1.00  0.00     0.135 A 
ATOM     41  C   UNL A   1      43.198  33.126  32.773  1.00  0.00     0.135 A 
ATOM     42  F   UNL A   1      43.928  33.956  29.306  1.00  0.00    -0.206 F 
ATOM     43  C   UNL A   1      43.814  35.340  31.195  1.00  0.00     0.059 A 
ATOM     44  C   UNL A   1      43.281  34.384  33.363  1.00  0.00     0.059 A 
ATOM     45  F   UNL A   1      42.924  32.075  33.563  1.00  0.00    -0.206 F 
ATOM     46  C   UNL A   1      43.614  35.481  32.569  1.00  0.00     0.060 A 
BRANCH  46  47
ATOM     47  S   UNL A   1      43.811  37.118  33.303  1.00  0.00     0.124 S 
ATOM     48  O   UNL A   1      42.643  37.186  34.178  1.00  0.00    -0.237 OA
ATOM     49  O   UNL A   1      45.101  37.006  33.978  1.00  0.00    -0.237 OA
ATOM     50  O   UNL A   1      43.784  38.014  32.152  1.00  0.00    -0.744 OA
ENDBRANCH  46  47
ENDBRANCH  25  39
BRANCH  26  51
ATOM     51  C   UNL A   1      42.449  23.745  27.593  1.00  0.00     0.058 A 
ATOM     52  C   UNL A   1      42.468  23.482  26.216  1.00  0.00     0.135 A 
ATOM     53  C   UNL A   1      42.337  22.654  28.468  1.00  0.00     0.135 A 
ATOM     54  F   UNL A   1      42.561  24.495  25.341  1.00  0.00    -0.206 F 
ATOM     55  C   UNL A   1      42.392  22.185  25.722  1.00  0.00     0.059 A 
ATOM     56  C   UNL A   1      42.280  21.346  27.998  1.00  0.00     0.059 A 
ATOM     57  F   UNL A   1      42.324  22.855  29.795  1.00  0.00    -0.206 F 
ATOM     58  C   UNL A   1      42.311  21.121  26.622  1.00  0.00     0.060 A 
BRANCH  58  59
ATOM     59  S   UNL A   1      42.311  19.438  25.967  1.00  0.00     0.124 S 
ATOM     60  O   UNL A   1      42.849  18.683  27.092  1.00  0.00    -0.237 OA
ATOM     61  O   UNL A   1      40.896  19.227  25.674  1.00  0.00    -0.237 OA
ATOM     62  O   UNL A   1      43.178  19.533  24.796  1.00  0.00    -0.744 OA
ENDBRANCH  58  59
ENDBRANCH  26  51
BRANCH  38  63
ATOM     63  C   UNL A   1      47.869  27.416  30.002  1.00  0.00     0.058 A 
ATOM     64  C   UNL A   1      48.809  27.731  29.009  1.00  0.00     0.135 A 
ATOM     65  C   UNL A   1      48.337  26.811  31.180  1.00  0.00     0.135 A 
ATOM     66  F   UNL A   1      48.413  28.305  27.862  1.00  0.00    -0.206 F 
ATOM     67  C   UNL A   1      50.159  27.432  29.165  1.00  0.00     0.059 A 
ATOM     68  C   UNL A   1      49.687  26.527  31.368  1.00  0.00     0.059 A 
ATOM     69  F   UNL A   1      47.482  26.500  32.167  1.00  0.00    -0.206 F 
ATOM     70  C   UNL A   1      50.588  26.828  30.349  1.00  0.00     0.060 A 
BRANCH  70  71
ATOM     71  S   UNL A   1      52.345  26.461  30.544  1.00  0.00     0.124 S 
ATOM     72  O   UNL A   1      52.304  25.271  31.388  1.00  0.00    -0.237 OA
ATOM     73  O   UNL A   1      52.773  26.246  29.165  1.00  0.00    -0.237 OA
ATOM     74  O   UNL A   1      52.875  27.663  31.180  1.00  0.00    -0.744 OA
ENDBRANCH  70  71
ENDBRANCH  38  63
ENDBRANCH  12  13
ENDBRANCH   5   7
ENDBRANCH   2   3
ENDBRANCH   1   2
BRANCH   1  75
ATOM     75  C   UNL A   1      33.032  29.283  24.771  1.00  0.00     0.023 C 
BRANCH  75  76
ATOM     76  C   UNL A   1      31.603  29.068  24.276  1.00  0.00     0.116 C 
BRANCH  76  77
ATOM     77  N   UNL A   1      31.591  28.374  23.004  1.00  0.00    -0.356 N 
ATOM     78  C   UNL A   1      31.150  27.113  22.723  1.00  0.00     0.223 C 
ATOM     79  H   UNL A   1      31.948  28.881  22.239  1.00  0.00     0.163 HD
ATOM     80  O   UNL A   1      31.260  26.662  21.586  1.00  0.00    -0.275 OA
BRANCH  78  81
ATOM     81  C   UNL A   1      30.513  26.306  23.796  1.00  0.00     0.091 C 
ATOM     82  C   UNL A   1      30.344  24.820  23.598  1.00  0.00     0.028 C 
ATOM     83  C   UNL A   1      31.368  25.331  24.588  1.00  0.00     0.092 C 
BRANCH  83  84
ATOM     84  C   UNL A   1      31.119  25.147  26.040  1.00  0.00     0.228 C 
ATOM     85  O   UNL A   1      30.293  25.849  26.618  1.00  0.00    -0.274 OA
ATOM     86  N   UNL A   1      31.676  24.071  26.689  1.00  0.00    -0.326 N 
ATOM     87  H   UNL A   1      31.257  23.848  27.551  1.00  0.00     0.169 HD
BRANCH  86  88
ATOM     88  C   UNL A   1      32.745  23.243  26.323  1.00  0.00     0.042 A 
ATOM     89  C   UNL A   1      34.083  23.582  26.524  1.00  0.00     0.028 A 
ATOM     90  C   UNL A   1      32.437  21.987  25.790  1.00  0.00     0.043 A 
ATOM     91  C   UNL A   1      35.103  22.715  26.126  1.00  0.00     0.024 A 
ATOM     92  C   UNL A   1      33.458  21.119  25.380  1.00  0.00     0.038 A 
ATOM     93  C   UNL A   1      34.797  21.489  25.538  1.00  0.00     0.055 A 
ATOM     94  Br  UNL A   1      32.937  19.464  24.605  1.00  0.00    -0.049 Br
ATOM     95  Cl  UNL A   1      36.111  20.482  25.052  1.00  0.00    -0.083 Cl
ENDBRANCH  86  88
ENDBRANCH  83  84
ENDBRANCH  78  81
ENDBRANCH  76  77
ENDBRANCH  75  76
ENDBRANCH   1  75
TORSDOF 16
ENDMDL
MODEL 2
REMARK VINA RESULT:     -11.3      4.899     10.577
REMARK SMILES O=C(NCCCCNC(=O)[C@H]1C[C@@H]1C(=O)Nc1ccc(Cl)c(Br)c1)c1ccc(-c2c3nc(c(-c4c(F)cc(S(=O)(=O)[O-])cc4F)c4ccc([nH]4)c(-c4c(F)cc(S(=O)(=O)[O-])cc4F)c4nc(c(-c5c(F)cc(S(=O)(=O)[O-])cc5F)c5ccc2[nH]5)C=C4)C=C3)cc1
REMARK SMILES IDX 5 1 4 2 3 3 1 4 2 5 25 7 26 8 90 9 27 10 89 11 28 12 29 13
REMARK SMILES IDX 30 14 83 15 31 16 88 17 82 18 84 19 32 20 87 21 81 22 80 23
REMARK SMILES IDX 33 25 67 26 46 27 66 28 47 29 50 30 65 31 85 32 48 33 49 34
REMARK SMILES IDX 64 36 86 37 51 38 34 39 35 40 44 41 36 42 37 43 43 44 45 45
REMARK SMILES IDX 38 46 39 47 40 48 41 49 42 50 68 51 69 52 78 53 70 54 71 55
REMARK SMILES IDX 77 56 79 57 72 58 73 59 74 60 75 61 76 62 52 63 53 64 62 65
REMARK SMILES IDX 54 66 55 67 61 68 63 69 56 70 57 71 58 72 59 73 60 74 6 75
REMARK SMILES IDX 7 76 8 77 9 78 10 80 11 81 12 82 13 83 14 84 15 85 16 86
REMARK SMILES IDX 17 88 18 89 24 90 19 91 22 92 20 93 23 94 21 95
REMARK H PARENT 3 6 84 24 50 35 8 79 16 87
REMARK Flexibility Score: inf
ROOT
ATOM      1  C   UNL A   1      37.343  23.241  25.258  1.00  0.00     0.023 C 
ENDROOT
BRANCH   1   2
ATOM      2  C   UNL A   1      38.201  24.062  26.218  1.00  0.00     0.116 C 
BRANCH   2   3
ATOM      3  N   UNL A   1      39.607  23.704  26.148  1.00  0.00    -0.352 N 
ATOM      4  O   UNL A   1      41.825  23.985  26.369  1.00  0.00    -0.269 OA
ATOM      5  C   UNL A   1      40.695  24.346  26.683  1.00  0.00     0.251 C 
ATOM      6  H   UNL A   1      39.809  22.881  25.645  1.00  0.00     0.163 HD
BRANCH   5   7
ATOM      7  C   UNL A   1      40.508  25.468  27.626  1.00  0.00     0.039 A 
ATOM      8  C   UNL A   1      41.361  26.572  27.533  1.00  0.00     0.014 A 
ATOM      9  C   UNL A   1      39.545  25.407  28.638  1.00  0.00     0.014 A 
ATOM     10  C   UNL A   1      41.243  27.620  28.448  1.00  0.00     0.010 A 
ATOM     11  C   UNL A   1      39.388  26.479  29.511  1.00  0.00     0.010 A 
ATOM     12  C   UNL A   1      40.256  27.578  29.444  1.00  0.00    -0.014 A 
BRANCH  12  13
ATOM     13  C   UNL A   1      40.184  28.618  30.499  1.00  0.00     0.031 A 
ATOM     14  C   UNL A   1      41.136  28.548  31.661  1.00  0.00     0.074 A 
ATOM     15  C   UNL A   1      39.265  29.598  30.433  1.00  0.00     0.049 A 
ATOM     16  N   UNL A   1      41.180  29.279  32.744  1.00  0.00    -0.248 NA
ATOM     17  C   UNL A   1      42.168  27.499  31.601  1.00  0.00     0.031 C 
ATOM     18  C   UNL A   1      38.303  29.784  29.346  1.00  0.00     0.029 A 
ATOM     19  N   UNL A   1      38.996  30.624  31.300  1.00  0.00    -0.354 N 
ATOM     20  C   UNL A   1      42.234  28.775  33.496  1.00  0.00     0.074 A 
ATOM     21  C   UNL A   1      42.762  27.637  32.775  1.00  0.00     0.031 C 
ATOM     22  C   UNL A   1      37.568  30.881  29.598  1.00  0.00     0.029 A 
ATOM     23  C   UNL A   1      37.977  31.446  30.881  1.00  0.00     0.049 A 
ATOM     24  H   UNL A   1      39.486  30.761  32.143  1.00  0.00     0.167 HD
ATOM     25  C   UNL A   1      42.737  29.233  34.669  1.00  0.00     0.037 A 
ATOM     26  C   UNL A   1      37.433  32.528  31.471  1.00  0.00     0.037 A 
ATOM     27  C   UNL A   1      42.213  30.370  35.378  1.00  0.00     0.049 A 
ATOM     28  C   UNL A   1      37.959  32.979  32.807  1.00  0.00     0.074 A 
ATOM     29  C   UNL A   1      42.639  30.911  36.578  1.00  0.00     0.029 A 
ATOM     30  N   UNL A   1      41.147  31.147  34.945  1.00  0.00    -0.354 N 
ATOM     31  N   UNL A   1      38.936  32.475  33.523  1.00  0.00    -0.248 NA
ATOM     32  C   UNL A   1      37.301  34.142  33.417  1.00  0.00     0.031 C 
ATOM     33  C   UNL A   1      41.811  31.998  36.885  1.00  0.00     0.029 A 
ATOM     34  C   UNL A   1      40.895  32.158  35.858  1.00  0.00     0.049 A 
ATOM     35  H   UNL A   1      40.645  31.001  34.111  1.00  0.00     0.167 HD
ATOM     36  C   UNL A   1      39.023  33.270  34.661  1.00  0.00     0.074 A 
ATOM     37  C   UNL A   1      38.006  34.295  34.530  1.00  0.00     0.031 C 
ATOM     38  C   UNL A   1      39.868  33.161  35.718  1.00  0.00     0.037 A 
BRANCH  25  39
ATOM     39  C   UNL A   1      43.910  28.487  35.244  1.00  0.00     0.058 A 
ATOM     40  C   UNL A   1      45.229  28.806  34.880  1.00  0.00     0.135 A 
ATOM     41  C   UNL A   1      43.718  27.428  36.144  1.00  0.00     0.135 A 
ATOM     42  F   UNL A   1      45.469  29.796  34.006  1.00  0.00    -0.206 F 
ATOM     43  C   UNL A   1      46.312  28.070  35.350  1.00  0.00     0.059 A 
ATOM     44  C   UNL A   1      44.789  26.697  36.651  1.00  0.00     0.059 A 
ATOM     45  F   UNL A   1      42.479  27.080  36.526  1.00  0.00    -0.206 F 
ATOM     46  C   UNL A   1      46.081  27.010  36.228  1.00  0.00     0.060 A 
BRANCH  46  47
ATOM     47  S   UNL A   1      47.492  26.040  36.797  1.00  0.00     0.124 S 
ATOM     48  O   UNL A   1      47.062  24.683  36.470  1.00  0.00    -0.237 OA
ATOM     49  O   UNL A   1      48.584  26.570  35.986  1.00  0.00    -0.237 OA
ATOM     50  O   UNL A   1      47.565  26.348  38.221  1.00  0.00    -0.744 OA
ENDBRANCH  46  47
ENDBRANCH  25  39
BRANCH  26  51
ATOM     51  C   UNL A   1      36.357  33.279  30.775  1.00  0.00     0.058 A 
ATOM     52  C   UNL A   1      35.025  33.164  31.196  1.00  0.00     0.135 A 
ATOM     53  C   UNL A   1      36.638  34.162  29.722  1.00  0.00     0.135 A 
ATOM     54  F   UNL A   1      34.706  32.322  32.191  1.00  0.00    -0.206 F 
ATOM     55  C   UNL A   1      34.008  33.907  30.607  1.00  0.00     0.059 A 
ATOM     56  C   UNL A   1      35.641  34.932  29.130  1.00  0.00     0.059 A 
ATOM     57  F   UNL A   1      37.900  34.313  29.289  1.00  0.00    -0.206 F 
ATOM     58  C   UNL A   1      34.329  34.798  29.581  1.00  0.00     0.060 A 
BRANCH  58  59
ATOM     59  S   UNL A   1      33.013  35.826  28.892  1.00  0.00     0.124 S 
ATOM     60  O   UNL A   1      32.282  36.215  30.093  1.00  0.00    -0.237 OA
ATOM     61  O   UNL A   1      33.771  36.886  28.234  1.00  0.00    -0.237 OA
ATOM     62  O   UNL A   1      32.312  34.916  27.992  1.00  0.00    -0.744 OA
ENDBRANCH  58  59
ENDBRANCH  26  51
BRANCH  38  63
ATOM     63  C   UNL A   1      39.734  34.185  36.811  1.00  0.00     0.058 A 
ATOM     64  C   UNL A   1      38.962  33.939  37.957  1.00  0.00     0.135 A 
ATOM     65  C   UNL A   1      40.416  35.410  36.729  1.00  0.00     0.135 A 
ATOM     66  F   UNL A   1      38.286  32.785  38.081  1.00  0.00    -0.206 F 
ATOM     67  C   UNL A   1      38.847  34.884  38.971  1.00  0.00     0.059 A 
ATOM     68  C   UNL A   1      40.336  36.359  37.744  1.00  0.00     0.059 A 
ATOM     69  F   UNL A   1      41.178  35.690  35.660  1.00  0.00    -0.206 F 
ATOM     70  C   UNL A   1      39.538  36.092  38.855  1.00  0.00     0.060 A 
BRANCH  70  71
ATOM     71  S   UNL A   1      39.392  37.302  40.187  1.00  0.00     0.124 S 
ATOM     72  O   UNL A   1      40.792  37.628  40.442  1.00  0.00    -0.237 OA
ATOM     73  O   UNL A   1      38.599  38.358  39.565  1.00  0.00    -0.237 OA
ATOM     74  O   UNL A   1      38.717  36.560  41.248  1.00  0.00    -0.744 OA
ENDBRANCH  70  71
ENDBRANCH  38  63
ENDBRANCH  12  13
ENDBRANCH   5   7
ENDBRANCH   2   3
ENDBRANCH   1   2
BRANCH   1  75
ATOM     75  C   UNL A   1      37.819  21.801  25.027  1.00  0.00     0.023 C 
BRANCH  75  76
ATOM     76  C   UNL A   1      36.689  20.777  24.943  1.00  0.00     0.116 C 
BRANCH  76  77
ATOM     77  N   UNL A   1      35.692  21.015  25.968  1.00  0.00    -0.356 N 
ATOM     78  C   UNL A   1      34.332  21.033  25.848  1.00  0.00     0.223 C 
ATOM     79  H   UNL A   1      36.043  21.185  26.871  1.00  0.00     0.163 HD
ATOM     80  O   UNL A   1      33.634  21.301  26.821  1.00  0.00    -0.275 OA
BRANCH  78  81
ATOM     81  C   UNL A   1      33.709  20.699  24.541  1.00  0.00     0.091 C 
ATOM     82  C   UNL A   1      32.416  19.923  24.519  1.00  0.00     0.028 C 
ATOM     83  C   UNL A   1      32.415  21.390  24.147  1.00  0.00     0.092 C 
BRANCH  83  84
ATOM     84  C   UNL A   1      32.188  21.771  22.730  1.00  0.00     0.228 C 
ATOM     85  O   UNL A   1      31.909  20.912  21.897  1.00  0.00    -0.274 OA
ATOM     86  N   UNL A   1      32.109  23.101  22.393  1.00  0.00    -0.326 N 
ATOM     87  H   UNL A   1      31.685  23.282  21.523  1.00  0.00     0.169 HD
BRANCH  86  88
ATOM     88  C   UNL A   1      32.536  24.241  23.087  1.00  0.00     0.042 A 
ATOM     89  C   UNL A   1      33.831  24.400  23.579  1.00  0.00     0.028 A 
ATOM     90  C   UNL A   1      31.624  25.292  23.227  1.00  0.00     0.043 A 
ATOM     91  C   UNL A   1      34.191  25.558  24.273  1.00  0.00     0.024 A 
ATOM     92  C   UNL A   1      31.977  26.451  23.932  1.00  0.00     0.038 A 
ATOM     93  C   UNL A   1      33.263  26.580  24.466  1.00  0.00     0.055 A 
ATOM     94  Br  UNL A   1      30.646  27.793  24.128  1.00  0.00    -0.049 Br
ATOM     95  Cl  UNL A   1      33.774  27.970  25.353  1.00  0.00    -0.083 Cl
ENDBRANCH  86  88
ENDBRANCH  83  84
ENDBRANCH  78  81
ENDBRANCH  76  77
ENDBRANCH  75  76
ENDBRANCH   1  75
TORSDOF 16
ENDMDL
MODEL 3
REMARK VINA RESULT:     -11.2      2.734      3.491
REMARK SMILES O=C(NCCCCNC(=O)[C@H]1C[C@@H]1C(=O)Nc1ccc(Cl)c(Br)c1)c1ccc(-c2c3nc(c(-c4c(F)cc(S(=O)(=O)[O-])cc4F)c4ccc([nH]4)c(-c4c(F)cc(S(=O)(=O)[O-])cc4F)c4nc(c(-c5c(F)cc(S(=O)(=O)[O-])cc5F)c5ccc2[nH]5)C=C4)C=C3)cc1
REMARK SMILES IDX 5 1 4 2 3 3 1 4 2 5 25 7 26 8 90 9 27 10 89 11 28 12 29 13
REMARK SMILES IDX 30 14 83 15 31 16 88 17 82 18 84 19 32 20 87 21 81 22 80 23
REMARK SMILES IDX 33 25 67 26 46 27 66 28 47 29 50 30 65 31 85 32 48 33 49 34
REMARK SMILES IDX 64 36 86 37 51 38 34 39 35 40 44 41 36 42 37 43 43 44 45 45
REMARK SMILES IDX 38 46 39 47 40 48 41 49 42 50 68 51 69 52 78 53 70 54 71 55
REMARK SMILES IDX 77 56 79 57 72 58 73 59 74 60 75 61 76 62 52 63 53 64 62 65
REMARK SMILES IDX 54 66 55 67 61 68 63 69 56 70 57 71 58 72 59 73 60 74 6 75
REMARK SMILES IDX 7 76 8 77 9 78 10 80 11 81 12 82 13 83 14 84 15 85 16 86
REMARK SMILES IDX 17 88 18 89 24 90 19 91 22 92 20 93 23 94 21 95
REMARK H PARENT 3 6 84 24 50 35 8 79 16 87
REMARK Flexibility Score: inf
ROOT
ATOM      1  C   UNL A   1      34.490  28.991  27.126  1.00  0.00     0.023 C 
ENDROOT
BRANCH   1   2
ATOM      2  C   UNL A   1      35.430  30.080  27.639  1.00  0.00     0.116 C 
BRANCH   2   3
ATOM      3  N   UNL A   1      35.309  30.287  29.072  1.00  0.00    -0.352 N 
ATOM      4  O   UNL A   1      35.901  30.163  31.235  1.00  0.00    -0.269 OA
ATOM      5  C   UNL A   1      36.243  30.102  30.058  1.00  0.00     0.251 C 
ATOM      6  H   UNL A   1      34.429  30.606  29.379  1.00  0.00     0.163 HD
BRANCH   5   7
ATOM      7  C   UNL A   1      37.652  29.825  29.707  1.00  0.00     0.039 A 
ATOM      8  C   UNL A   1      38.037  29.897  28.366  1.00  0.00     0.014 A 
ATOM      9  C   UNL A   1      38.573  29.430  30.683  1.00  0.00     0.014 A 
ATOM     10  C   UNL A   1      39.347  29.584  28.001  1.00  0.00     0.010 A 
ATOM     11  C   UNL A   1      39.894  29.178  30.327  1.00  0.00     0.010 A 
ATOM     12  C   UNL A   1      40.284  29.221  28.980  1.00  0.00    -0.014 A 
BRANCH  12  13
ATOM     13  C   UNL A   1      41.648  28.771  28.611  1.00  0.00     0.031 A 
ATOM     14  C   UNL A   1      42.779  29.761  28.644  1.00  0.00     0.074 A 
ATOM     15  C   UNL A   1      41.869  27.500  28.229  1.00  0.00     0.049 A 
ATOM     16  N   UNL A   1      44.020  29.617  28.259  1.00  0.00    -0.248 NA
ATOM     17  C   UNL A   1      42.462  31.101  29.166  1.00  0.00     0.031 C 
ATOM     18  C   UNL A   1      40.859  26.443  28.177  1.00  0.00     0.029 A 
ATOM     19  N   UNL A   1      43.021  26.884  27.814  1.00  0.00    -0.354 N 
ATOM     20  C   UNL A   1      44.629  30.847  28.483  1.00  0.00     0.074 A 
ATOM     21  C   UNL A   1      43.605  31.741  28.979  1.00  0.00     0.031 C 
ATOM     22  C   UNL A   1      41.444  25.299  27.785  1.00  0.00     0.029 A 
ATOM     23  C   UNL A   1      42.857  25.553  27.514  1.00  0.00     0.049 A 
ATOM     24  H   UNL A   1      43.885  27.350  27.739  1.00  0.00     0.167 HD
ATOM     25  C   UNL A   1      45.928  31.194  28.318  1.00  0.00     0.037 A 
ATOM     26  C   UNL A   1      43.746  24.645  27.067  1.00  0.00     0.037 A 
ATOM     27  C   UNL A   1      46.944  30.298  27.833  1.00  0.00     0.049 A 
ATOM     28  C   UNL A   1      45.169  25.068  26.823  1.00  0.00     0.074 A 
ATOM     29  C   UNL A   1      48.287  30.551  27.618  1.00  0.00     0.029 A 
ATOM     30  N   UNL A   1      46.728  28.970  27.493  1.00  0.00    -0.354 N 
ATOM     31  N   UNL A   1      45.725  26.243  27.009  1.00  0.00    -0.248 NA
ATOM     32  C   UNL A   1      46.082  24.044  26.300  1.00  0.00     0.031 C 
ATOM     33  C   UNL A   1      48.876  29.382  27.118  1.00  0.00     0.029 A 
ATOM     34  C   UNL A   1      47.910  28.391  27.061  1.00  0.00     0.049 A 
ATOM     35  H   UNL A   1      45.861  28.507  27.551  1.00  0.00     0.167 HD
ATOM     36  C   UNL A   1      47.059  26.094  26.644  1.00  0.00     0.074 A 
ATOM     37  C   UNL A   1      47.226  24.713  26.237  1.00  0.00     0.031 C 
ATOM     38  C   UNL A   1      48.054  27.017  26.645  1.00  0.00     0.037 A 
BRANCH  25  39
ATOM     39  C   UNL A   1      46.305  32.608  28.667  1.00  0.00     0.058 A 
ATOM     40  C   UNL A   1      46.260  33.635  27.710  1.00  0.00     0.135 A 
ATOM     41  C   UNL A   1      46.741  32.938  29.960  1.00  0.00     0.135 A 
ATOM     42  F   UNL A   1      45.871  33.370  26.453  1.00  0.00    -0.206 F 
ATOM     43  C   UNL A   1      46.680  34.927  28.007  1.00  0.00     0.059 A 
ATOM     44  C   UNL A   1      47.137  34.232  30.289  1.00  0.00     0.059 A 
ATOM     45  F   UNL A   1      46.804  31.996  30.915  1.00  0.00    -0.206 F 
ATOM     46  C   UNL A   1      47.126  35.213  29.298  1.00  0.00     0.060 A 
BRANCH  46  47
ATOM     47  S   UNL A   1      47.706  36.884  29.658  1.00  0.00     0.124 S 
ATOM     48  O   UNL A   1      46.540  37.458  30.326  1.00  0.00    -0.237 OA
ATOM     49  O   UNL A   1      48.865  36.637  30.510  1.00  0.00    -0.237 OA
ATOM     50  O   UNL A   1      48.005  37.432  28.339  1.00  0.00    -0.744 OA
ENDBRANCH  46  47
ENDBRANCH  25  39
BRANCH  26  51
ATOM     51  C   UNL A   1      43.317  23.238  26.864  1.00  0.00     0.058 A 
ATOM     52  C   UNL A   1      43.139  22.730  25.569  1.00  0.00     0.135 A 
ATOM     53  C   UNL A   1      43.132  22.361  27.944  1.00  0.00     0.135 A 
ATOM     54  F   UNL A   1      43.293  23.534  24.506  1.00  0.00    -0.206 F 
ATOM     55  C   UNL A   1      42.804  21.399  25.350  1.00  0.00     0.059 A 
ATOM     56  C   UNL A   1      42.817  21.020  27.749  1.00  0.00     0.059 A 
ATOM     57  F   UNL A   1      43.300  22.799  29.202  1.00  0.00    -0.206 F 
ATOM     58  C   UNL A   1      42.657  20.547  26.446  1.00  0.00     0.060 A 
BRANCH  58  59
ATOM     59  S   UNL A   1      42.318  18.800  26.140  1.00  0.00     0.124 S 
ATOM     60  O   UNL A   1      42.609  18.210  27.442  1.00  0.00    -0.237 OA
ATOM     61  O   UNL A   1      40.911  18.829  25.751  1.00  0.00    -0.237 OA
ATOM     62  O   UNL A   1      43.250  18.460  25.069  1.00  0.00    -0.744 OA
ENDBRANCH  58  59
ENDBRANCH  26  51
BRANCH  38  63
ATOM     63  C   UNL A   1      49.415  26.558  26.202  1.00  0.00     0.058 A 
ATOM     64  C   UNL A   1      49.885  26.799  24.901  1.00  0.00     0.135 A 
ATOM     65  C   UNL A   1      50.275  25.904  27.100  1.00  0.00     0.135 A 
ATOM     66  F   UNL A   1      49.100  27.416  24.004  1.00  0.00    -0.206 F 
ATOM     67  C   UNL A   1      51.148  26.381  24.497  1.00  0.00     0.059 A 
ATOM     68  C   UNL A   1      51.553  25.502  26.723  1.00  0.00     0.059 A 
ATOM     69  F   UNL A   1      49.880  25.660  28.359  1.00  0.00    -0.206 F 
ATOM     70  C   UNL A   1      51.976  25.732  25.416  1.00  0.00     0.060 A 
BRANCH  70  71
ATOM     71  S   UNL A   1      53.619  25.212  24.881  1.00  0.00     0.124 S 
ATOM     72  O   UNL A   1      54.475  25.919  25.828  1.00  0.00    -0.237 OA
ATOM     73  O   UNL A   1      53.556  23.763  25.044  1.00  0.00    -0.237 OA
ATOM     74  O   UNL A   1      53.692  25.679  23.500  1.00  0.00    -0.744 OA
ENDBRANCH  70  71
ENDBRANCH  38  63
ENDBRANCH  12  13
ENDBRANCH   5   7
ENDBRANCH   2   3
ENDBRANCH   1   2
BRANCH   1  75
ATOM     75  C   UNL A   1      32.998  29.341  27.177  1.00  0.00     0.023 C 
BRANCH  75  76
ATOM     76  C   UNL A   1      32.514  30.181  25.997  1.00  0.00     0.116 C 
BRANCH  76  77
ATOM     77  N   UNL A   1      33.075  29.701  24.750  1.00  0.00    -0.356 N 
ATOM     78  C   UNL A   1      32.445  29.070  23.716  1.00  0.00     0.223 C 
ATOM     79  H   UNL A   1      34.041  29.850  24.633  1.00  0.00     0.163 HD
ATOM     80  O   UNL A   1      33.090  28.685  22.746  1.00  0.00    -0.275 OA
BRANCH  78  81
ATOM     81  C   UNL A   1      30.971  28.881  23.765  1.00  0.00     0.091 C 
ATOM     82  C   UNL A   1      30.167  29.035  22.499  1.00  0.00     0.028 C 
ATOM     83  C   UNL A   1      30.366  27.659  23.096  1.00  0.00     0.092 C 
BRANCH  83  84
ATOM     84  C   UNL A   1      29.208  26.975  23.726  1.00  0.00     0.228 C 
ATOM     85  O   UNL A   1      28.064  27.365  23.501  1.00  0.00    -0.274 OA
ATOM     86  N   UNL A   1      29.408  25.799  24.408  1.00  0.00    -0.326 N 
ATOM     87  H   UNL A   1      28.595  25.262  24.549  1.00  0.00     0.169 HD
BRANCH  86  88
ATOM     88  C   UNL A   1      30.581  25.242  24.934  1.00  0.00     0.042 A 
ATOM     89  C   UNL A   1      31.274  25.790  26.012  1.00  0.00     0.028 A 
ATOM     90  C   UNL A   1      31.029  24.037  24.381  1.00  0.00     0.043 A 
ATOM     91  C   UNL A   1      32.445  25.190  26.483  1.00  0.00     0.024 A 
ATOM     92  C   UNL A   1      32.208  23.439  24.844  1.00  0.00     0.038 A 
ATOM     93  C   UNL A   1      32.925  24.023  25.892  1.00  0.00     0.055 A 
ATOM     94  Br  UNL A   1      32.772  21.841  23.982  1.00  0.00    -0.049 Br
ATOM     95  Cl  UNL A   1      34.390  23.354  26.514  1.00  0.00    -0.083 Cl
ENDBRANCH  86  88
ENDBRANCH  83  84
ENDBRANCH  78  81
ENDBRANCH  76  77
ENDBRANCH  75  76
ENDBRANCH   1  75
TORSDOF 16
ENDMDL
