MODEL 1
REMARK VINA RESULT:     -11.0      0.000      0.000
REMARK SMILES O=C(NCCCCNC(=O)c1ccc(NC2CC2)c(F)c1F)c1ccc(-c2c3nc(c(-c4c(F)cc(S(=O)(=O)[O-])cc4F)c4ccc([nH]4)c(-c4c(F)cc(S(=O)(=O)[O-])cc4F)c4nc(c(-c5c(F)cc(S(=O)(=O)[O-])cc5F)c5ccc2[nH]5)C=C4)C=C3)cc1
REMARK SMILES IDX 5 1 4 2 3 3 1 4 2 5 23 7 24 8 88 9 25 10 87 11 26 12 27 13
REMARK SMILES IDX 28 14 81 15 29 16 86 17 80 18 82 19 30 20 85 21 79 22 78 23
REMARK SMILES IDX 31 25 65 26 44 27 64 28 45 29 48 30 63 31 83 32 46 33 47 34
REMARK SMILES IDX 62 36 84 37 49 38 32 39 33 40 42 41 34 42 35 43 41 44 43 45
REMARK SMILES IDX 36 46 37 47 38 48 39 49 40 50 66 51 67 52 76 53 68 54 69 55
REMARK SMILES IDX 75 56 77 57 70 58 71 59 72 60 73 61 74 62 50 63 51 64 60 65
REMARK SMILES IDX 52 66 53 67 59 68 61 69 54 70 55 71 56 72 57 73 58 74 6 75
REMARK SMILES IDX 7 76 8 77 9 78 10 80 11 81 12 82 21 83 13 84 19 85 22 86
REMARK SMILES IDX 14 87 20 88 15 89 16 91 17 92 18 93
REMARK H PARENT 3 6 82 24 48 35 8 79 15 90
REMARK Flexibility Score: inf
ROOT
ATOM      1  C   UNL A   1      32.875  27.966  25.998  1.00  0.00     0.023 C 
ENDROOT
BRANCH   1   2
ATOM      2  C   UNL A   1      34.034  28.332  26.914  1.00  0.00     0.116 C 
BRANCH   2   3
ATOM      3  N   UNL A   1      33.913  29.665  27.491  1.00  0.00    -0.352 N 
ATOM      4  O   UNL A   1      34.511  31.460  28.719  1.00  0.00    -0.269 OA
ATOM      5  C   UNL A   1      34.839  30.398  28.199  1.00  0.00     0.251 C 
ATOM      6  H   UNL A   1      33.043  30.106  27.353  1.00  0.00     0.163 HD
BRANCH   5   7
ATOM      7  C   UNL A   1      36.216  29.880  28.361  1.00  0.00     0.039 A 
ATOM      8  C   UNL A   1      36.635  29.348  29.582  1.00  0.00     0.014 A 
ATOM      9  C   UNL A   1      37.110  29.964  27.291  1.00  0.00     0.014 A 
ATOM     10  C   UNL A   1      37.983  29.090  29.793  1.00  0.00     0.010 A 
ATOM     11  C   UNL A   1      38.449  29.600  27.475  1.00  0.00     0.010 A 
ATOM     12  C   UNL A   1      38.909  29.210  28.742  1.00  0.00    -0.014 A 
BRANCH  12  13
ATOM     13  C   UNL A   1      40.342  28.899  28.995  1.00  0.00     0.031 A 
ATOM     14  C   UNL A   1      40.934  27.570  28.598  1.00  0.00     0.074 A 
ATOM     15  C   UNL A   1      41.125  29.842  29.553  1.00  0.00     0.049 A 
ATOM     16  N   UNL A   1      42.169  27.150  28.715  1.00  0.00    -0.248 NA
ATOM     17  C   UNL A   1      40.022  26.579  28.004  1.00  0.00     0.031 C 
ATOM     18  C   UNL A   1      40.667  31.167  29.984  1.00  0.00     0.029 A 
ATOM     19  N   UNL A   1      42.466  29.849  29.836  1.00  0.00    -0.354 N 
ATOM     20  C   UNL A   1      42.179  25.843  28.237  1.00  0.00     0.074 A 
ATOM     21  C   UNL A   1      40.819  25.531  27.853  1.00  0.00     0.031 C 
ATOM     22  C   UNL A   1      41.717  31.876  30.422  1.00  0.00     0.029 A 
ATOM     23  C   UNL A   1      42.909  31.036  30.371  1.00  0.00     0.049 A 
ATOM     24  H   UNL A   1      43.056  29.078  29.673  1.00  0.00     0.167 HD
ATOM     25  C   UNL A   1      43.225  24.988  28.122  1.00  0.00     0.037 A 
ATOM     26  C   UNL A   1      44.133  31.409  30.788  1.00  0.00     0.037 A 
ATOM     27  C   UNL A   1      44.580  25.317  28.493  1.00  0.00     0.049 A 
ATOM     28  C   UNL A   1      45.270  30.435  30.673  1.00  0.00     0.074 A 
ATOM     29  C   UNL A   1      45.717  24.537  28.376  1.00  0.00     0.029 A 
ATOM     30  N   UNL A   1      44.981  26.518  29.063  1.00  0.00    -0.354 N 
ATOM     31  N   UNL A   1      45.267  29.216  30.186  1.00  0.00    -0.248 NA
ATOM     32  C   UNL A   1      46.579  30.885  31.164  1.00  0.00     0.031 C 
ATOM     33  C   UNL A   1      46.792  25.240  28.930  1.00  0.00     0.029 A 
ATOM     34  C   UNL A   1      46.342  26.488  29.328  1.00  0.00     0.049 A 
ATOM     35  H   UNL A   1      44.386  27.279  29.251  1.00  0.00     0.167 HD
ATOM     36  C   UNL A   1      46.580  28.768  30.277  1.00  0.00     0.074 A 
ATOM     37  C   UNL A   1      47.349  29.849  30.861  1.00  0.00     0.031 C 
ATOM     38  C   UNL A   1      47.100  27.573  29.904  1.00  0.00     0.037 A 
BRANCH  25  39
ATOM     39  C   UNL A   1      42.945  23.600  27.607  1.00  0.00     0.058 A 
ATOM     40  C   UNL A   1      42.492  22.567  28.443  1.00  0.00     0.135 A 
ATOM     41  C   UNL A   1      43.107  23.305  26.241  1.00  0.00     0.135 A 
ATOM     42  F   UNL A   1      42.328  22.784  29.758  1.00  0.00    -0.206 F 
ATOM     43  C   UNL A   1      42.251  21.285  27.956  1.00  0.00     0.059 A 
ATOM     44  C   UNL A   1      42.841  22.039  25.726  1.00  0.00     0.059 A 
ATOM     45  F   UNL A   1      43.530  24.253  25.391  1.00  0.00    -0.206 F 
ATOM     46  C   UNL A   1      42.433  21.030  26.595  1.00  0.00     0.060 A 
BRANCH  46  47
ATOM     47  S   UNL A   1      42.139  19.357  25.982  1.00  0.00     0.124 S 
ATOM     48  O   UNL A   1      42.599  18.550  27.107  1.00  0.00    -0.237 OA
ATOM     49  O   UNL A   1      40.698  19.358  25.751  1.00  0.00    -0.237 OA
ATOM     50  O   UNL A   1      42.963  19.284  24.780  1.00  0.00    -0.744 OA
ENDBRANCH  46  47
ENDBRANCH  25  39
BRANCH  26  51
ATOM     51  C   UNL A   1      44.341  32.776  31.335  1.00  0.00     0.058 A 
ATOM     52  C   UNL A   1      44.602  33.860  30.484  1.00  0.00     0.135 A 
ATOM     53  C   UNL A   1      44.254  33.031  32.712  1.00  0.00     0.135 A 
ATOM     54  F   UNL A   1      44.699  33.666  29.160  1.00  0.00    -0.206 F 
ATOM     55  C   UNL A   1      44.778  35.148  30.979  1.00  0.00     0.059 A 
ATOM     56  C   UNL A   1      44.396  34.314  33.229  1.00  0.00     0.059 A 
ATOM     57  F   UNL A   1      43.989  32.030  33.566  1.00  0.00    -0.206 F 
ATOM     58  C   UNL A   1      44.667  35.365  32.353  1.00  0.00     0.060 A 
BRANCH  58  59
ATOM     59  S   UNL A   1      44.841  37.051  32.978  1.00  0.00     0.124 S 
ATOM     60  O   UNL A   1      44.726  37.831  31.753  1.00  0.00    -0.237 OA
ATOM     61  O   UNL A   1      43.719  37.148  33.907  1.00  0.00    -0.237 OA
ATOM     62  O   UNL A   1      46.162  37.043  33.601  1.00  0.00    -0.744 OA
ENDBRANCH  58  59
ENDBRANCH  26  51
BRANCH  38  63
ATOM     63  C   UNL A   1      48.586  27.388  30.060  1.00  0.00     0.058 A 
ATOM     64  C   UNL A   1      49.496  27.763  29.058  1.00  0.00     0.135 A 
ATOM     65  C   UNL A   1      49.108  26.849  31.248  1.00  0.00     0.135 A 
ATOM     66  F   UNL A   1      49.053  28.276  27.899  1.00  0.00    -0.206 F 
ATOM     67  C   UNL A   1      50.866  27.579  29.215  1.00  0.00     0.059 A 
ATOM     68  C   UNL A   1      50.475  26.687  31.439  1.00  0.00     0.059 A 
ATOM     69  F   UNL A   1      48.284  26.482  32.243  1.00  0.00    -0.206 F 
ATOM     70  C   UNL A   1      51.346  27.039  30.410  1.00  0.00     0.060 A 
BRANCH  70  71
ATOM     71  S   UNL A   1      53.128  26.819  30.608  1.00  0.00     0.124 S 
ATOM     72  O   UNL A   1      53.545  28.158  31.014  1.00  0.00    -0.237 OA
ATOM     73  O   UNL A   1      53.202  25.791  31.641  1.00  0.00    -0.237 OA
ATOM     74  O   UNL A   1      53.569  26.400  29.281  1.00  0.00    -0.744 OA
ENDBRANCH  70  71
ENDBRANCH  38  63
ENDBRANCH  12  13
ENDBRANCH   5   7
ENDBRANCH   2   3
ENDBRANCH   1   2
BRANCH   1  75
ATOM     75  C   UNL A   1      31.812  27.067  26.623  1.00  0.00     0.023 C 
BRANCH  75  76
ATOM     76  C   UNL A   1      31.691  25.681  26.001  1.00  0.00     0.116 C 
BRANCH  76  77
ATOM     77  N   UNL A   1      30.682  24.855  26.646  1.00  0.00    -0.352 N 
ATOM     78  C   UNL A   1      30.728  23.516  26.960  1.00  0.00     0.254 C 
ATOM     79  H   UNL A   1      29.849  25.319  26.893  1.00  0.00     0.163 HD
ATOM     80  O   UNL A   1      29.766  22.946  27.453  1.00  0.00    -0.269 OA
BRANCH  78  81
ATOM     81  C   UNL A   1      31.976  22.779  26.723  1.00  0.00     0.078 A 
ATOM     82  C   UNL A   1      32.898  22.623  27.761  1.00  0.00     0.019 A 
ATOM     83  C   UNL A   1      32.250  22.270  25.463  1.00  0.00     0.173 A 
ATOM     84  C   UNL A   1      34.143  22.042  27.504  1.00  0.00     0.030 A 
ATOM     85  C   UNL A   1      33.487  21.680  25.227  1.00  0.00     0.182 A 
ATOM     86  F   UNL A   1      31.372  22.389  24.458  1.00  0.00    -0.203 F 
ATOM     87  C   UNL A   1      34.477  21.585  26.228  1.00  0.00     0.074 A 
ATOM     88  F   UNL A   1      33.768  21.220  23.995  1.00  0.00    -0.201 F 
BRANCH  87  89
ATOM     89  N   UNL A   1      35.740  21.075  25.862  1.00  0.00    -0.380 N 
ATOM     90  H   UNL A   1      35.880  20.127  26.086  1.00  0.00     0.160 HD
BRANCH  89  91
ATOM     91  C   UNL A   1      36.872  21.718  25.208  1.00  0.00     0.079 C 
ATOM     92  C   UNL A   1      36.806  22.706  24.083  1.00  0.00     0.027 C 
ATOM     93  C   UNL A   1      37.276  23.140  25.447  1.00  0.00     0.027 C 
ENDBRANCH  89  91
ENDBRANCH  87  89
ENDBRANCH  78  81
ENDBRANCH  76  77
ENDBRANCH  75  76
ENDBRANCH   1  75
TORSDOF 16
ENDMDL
MODEL 2
REMARK VINA RESULT:     -10.8      5.394      9.984
REMARK SMILES O=C(NCCCCNC(=O)c1ccc(NC2CC2)c(F)c1F)c1ccc(-c2c3nc(c(-c4c(F)cc(S(=O)(=O)[O-])cc4F)c4ccc([nH]4)c(-c4c(F)cc(S(=O)(=O)[O-])cc4F)c4nc(c(-c5c(F)cc(S(=O)(=O)[O-])cc5F)c5ccc2[nH]5)C=C4)C=C3)cc1
REMARK SMILES IDX 5 1 4 2 3 3 1 4 2 5 23 7 24 8 88 9 25 10 87 11 26 12 27 13
REMARK SMILES IDX 28 14 81 15 29 16 86 17 80 18 82 19 30 20 85 21 79 22 78 23
REMARK SMILES IDX 31 25 65 26 44 27 64 28 45 29 48 30 63 31 83 32 46 33 47 34
REMARK SMILES IDX 62 36 84 37 49 38 32 39 33 40 42 41 34 42 35 43 41 44 43 45
REMARK SMILES IDX 36 46 37 47 38 48 39 49 40 50 66 51 67 52 76 53 68 54 69 55
REMARK SMILES IDX 75 56 77 57 70 58 71 59 72 60 73 61 74 62 50 63 51 64 60 65
REMARK SMILES IDX 52 66 53 67 59 68 61 69 54 70 55 71 56 72 57 73 58 74 6 75
REMARK SMILES IDX 7 76 8 77 9 78 10 80 11 81 12 82 21 83 13 84 19 85 22 86
REMARK SMILES IDX 14 87 20 88 15 89 16 91 17 92 18 93
REMARK H PARENT 3 6 82 24 48 35 8 79 15 90
REMARK Flexibility Score: inf
ROOT
ATOM      1  C   UNL A   1      37.172  23.355  26.035  1.00  0.00     0.023 C 
ENDROOT
BRANCH   1   2
ATOM      2  C   UNL A   1      38.220  24.215  26.727  1.00  0.00     0.116 C 
BRANCH   2   3
ATOM      3  N   UNL A   1      39.416  24.426  25.921  1.00  0.00    -0.352 N 
ATOM      4  O   UNL A   1      41.329  25.423  25.264  1.00  0.00    -0.269 OA
ATOM      5  C   UNL A   1      40.465  25.294  26.125  1.00  0.00     0.251 C 
ATOM      6  H   UNL A   1      39.483  23.867  25.114  1.00  0.00     0.163 HD
BRANCH   5   7
ATOM      7  C   UNL A   1      40.522  26.097  27.368  1.00  0.00     0.039 A 
ATOM      8  C   UNL A   1      39.715  25.773  28.459  1.00  0.00     0.014 A 
ATOM      9  C   UNL A   1      41.366  27.209  27.427  1.00  0.00     0.014 A 
ATOM     10  C   UNL A   1      39.602  26.665  29.518  1.00  0.00     0.010 A 
ATOM     11  C   UNL A   1      41.329  28.049  28.545  1.00  0.00     0.010 A 
ATOM     12  C   UNL A   1      40.409  27.814  29.578  1.00  0.00    -0.014 A 
BRANCH  12  13
ATOM     13  C   UNL A   1      40.282  28.733  30.741  1.00  0.00     0.031 A 
ATOM     14  C   UNL A   1      41.202  28.617  31.931  1.00  0.00     0.074 A 
ATOM     15  C   UNL A   1      39.353  29.707  30.703  1.00  0.00     0.049 A 
ATOM     16  N   UNL A   1      41.249  29.358  33.010  1.00  0.00    -0.248 NA
ATOM     17  C   UNL A   1      42.187  27.525  31.914  1.00  0.00     0.031 C 
ATOM     18  C   UNL A   1      38.402  29.920  29.607  1.00  0.00     0.029 A 
ATOM     19  N   UNL A   1      39.064  30.713  31.590  1.00  0.00    -0.354 N 
ATOM     20  C   UNL A   1      42.246  28.808  33.811  1.00  0.00     0.074 A 
ATOM     21  C   UNL A   1      42.758  27.655  33.104  1.00  0.00     0.031 C 
ATOM     22  C   UNL A   1      37.676  31.018  29.859  1.00  0.00     0.029 A 
ATOM     23  C   UNL A   1      38.057  31.548  31.164  1.00  0.00     0.049 A 
ATOM     24  H   UNL A   1      39.531  30.825  32.449  1.00  0.00     0.167 HD
ATOM     25  C   UNL A   1      42.695  29.231  35.019  1.00  0.00     0.037 A 
ATOM     26  C   UNL A   1      37.492  32.615  31.758  1.00  0.00     0.037 A 
ATOM     27  C   UNL A   1      42.187  30.393  35.707  1.00  0.00     0.049 A 
ATOM     28  C   UNL A   1      37.991  33.048  33.106  1.00  0.00     0.074 A 
ATOM     29  C   UNL A   1      42.603  30.928  36.913  1.00  0.00     0.029 A 
ATOM     30  N   UNL A   1      41.144  31.192  35.258  1.00  0.00    -0.354 N 
ATOM     31  N   UNL A   1      38.957  32.537  33.831  1.00  0.00    -0.248 NA
ATOM     32  C   UNL A   1      37.323  34.204  33.718  1.00  0.00     0.031 C 
ATOM     33  C   UNL A   1      41.775  32.012  37.223  1.00  0.00     0.029 A 
ATOM     34  C   UNL A   1      40.887  32.198  36.177  1.00  0.00     0.049 A 
ATOM     35  H   UNL A   1      40.658  31.063  34.412  1.00  0.00     0.167 HD
ATOM     36  C   UNL A   1      39.039  33.332  34.969  1.00  0.00     0.074 A 
ATOM     37  C   UNL A   1      38.026  34.360  34.831  1.00  0.00     0.031 C 
ATOM     38  C   UNL A   1      39.880  33.223  36.027  1.00  0.00     0.037 A 
BRANCH  25  39
ATOM     39  C   UNL A   1      43.767  28.415  35.695  1.00  0.00     0.058 A 
ATOM     40  C   UNL A   1      45.134  28.622  35.450  1.00  0.00     0.135 A 
ATOM     41  C   UNL A   1      43.418  27.422  36.628  1.00  0.00     0.135 A 
ATOM     42  F   UNL A   1      45.528  29.550  34.563  1.00  0.00    -0.206 F 
ATOM     43  C   UNL A   1      46.112  27.851  36.071  1.00  0.00     0.059 A 
ATOM     44  C   UNL A   1      44.380  26.660  37.284  1.00  0.00     0.059 A 
ATOM     45  F   UNL A   1      42.127  27.182  36.908  1.00  0.00    -0.206 F 
ATOM     46  C   UNL A   1      45.725  26.868  36.984  1.00  0.00     0.060 A 
BRANCH  46  47
ATOM     47  S   UNL A   1      47.004  25.860  37.764  1.00  0.00     0.124 S 
ATOM     48  O   UNL A   1      48.009  26.866  38.088  1.00  0.00    -0.237 OA
ATOM     49  O   UNL A   1      46.295  25.283  38.903  1.00  0.00    -0.237 OA
ATOM     50  O   UNL A   1      47.378  24.914  36.718  1.00  0.00    -0.744 OA
ENDBRANCH  46  47
ENDBRANCH  25  39
BRANCH  26  51
ATOM     51  C   UNL A   1      36.403  33.353  31.065  1.00  0.00     0.058 A 
ATOM     52  C   UNL A   1      36.678  34.178  29.964  1.00  0.00     0.135 A 
ATOM     53  C   UNL A   1      35.065  33.225  31.469  1.00  0.00     0.135 A 
ATOM     54  F   UNL A   1      37.942  34.335  29.543  1.00  0.00    -0.206 F 
ATOM     55  C   UNL A   1      35.667  34.859  29.294  1.00  0.00     0.059 A 
ATOM     56  C   UNL A   1      34.033  33.871  30.796  1.00  0.00     0.059 A 
ATOM     57  F   UNL A   1      34.747  32.435  32.505  1.00  0.00    -0.206 F 
ATOM     58  C   UNL A   1      34.347  34.693  29.714  1.00  0.00     0.060 A 
BRANCH  58  59
ATOM     59  S   UNL A   1      33.037  35.537  28.800  1.00  0.00     0.124 S 
ATOM     60  O   UNL A   1      32.424  34.429  28.077  1.00  0.00    -0.237 OA
ATOM     61  O   UNL A   1      32.240  36.118  29.877  1.00  0.00    -0.237 OA
ATOM     62  O   UNL A   1      33.767  36.500  27.980  1.00  0.00    -0.744 OA
ENDBRANCH  58  59
ENDBRANCH  26  51
BRANCH  38  63
ATOM     63  C   UNL A   1      39.785  34.278  37.096  1.00  0.00     0.058 A 
ATOM     64  C   UNL A   1      39.066  34.076  38.285  1.00  0.00     0.135 A 
ATOM     65  C   UNL A   1      40.450  35.506  36.935  1.00  0.00     0.135 A 
ATOM     66  F   UNL A   1      38.405  32.926  38.488  1.00  0.00    -0.206 F 
ATOM     67  C   UNL A   1      38.982  35.065  39.260  1.00  0.00     0.059 A 
ATOM     68  C   UNL A   1      40.407  36.495  37.911  1.00  0.00     0.059 A 
ATOM     69  F   UNL A   1      41.160  35.749  35.822  1.00  0.00    -0.206 F 
ATOM     70  C   UNL A   1      39.656  36.272  39.064  1.00  0.00     0.060 A 
BRANCH  70  71
ATOM     71  S   UNL A   1      39.553  37.542  40.344  1.00  0.00     0.124 S 
ATOM     72  O   UNL A   1      38.709  38.542  39.697  1.00  0.00    -0.237 OA
ATOM     73  O   UNL A   1      38.941  36.817  41.453  1.00  0.00    -0.237 OA
ATOM     74  O   UNL A   1      40.944  37.932  40.549  1.00  0.00    -0.744 OA
ENDBRANCH  70  71
ENDBRANCH  38  63
ENDBRANCH  12  13
ENDBRANCH   5   7
ENDBRANCH   2   3
ENDBRANCH   1   2
BRANCH   1  75
ATOM     75  C   UNL A   1      37.447  23.055  24.565  1.00  0.00     0.023 C 
BRANCH  75  76
ATOM     76  C   UNL A   1      36.217  23.058  23.664  1.00  0.00     0.116 C 
BRANCH  76  77
ATOM     77  N   UNL A   1      35.219  24.035  24.069  1.00  0.00    -0.352 N 
ATOM     78  C   UNL A   1      33.913  23.833  24.453  1.00  0.00     0.254 C 
ATOM     79  H   UNL A   1      35.519  24.973  24.068  1.00  0.00     0.163 HD
ATOM     80  O   UNL A   1      33.174  24.772  24.710  1.00  0.00    -0.269 OA
BRANCH  78  81
ATOM     81  C   UNL A   1      33.423  22.456  24.584  1.00  0.00     0.078 A 
ATOM     82  C   UNL A   1      33.558  21.783  25.802  1.00  0.00     0.019 A 
ATOM     83  C   UNL A   1      32.858  21.815  23.493  1.00  0.00     0.173 A 
ATOM     84  C   UNL A   1      33.217  20.431  25.892  1.00  0.00     0.030 A 
ATOM     85  C   UNL A   1      32.508  20.474  23.603  1.00  0.00     0.182 A 
ATOM     86  F   UNL A   1      32.698  22.446  22.322  1.00  0.00    -0.203 F 
ATOM     87  C   UNL A   1      32.713  19.738  24.790  1.00  0.00     0.074 A 
ATOM     88  F   UNL A   1      31.995  19.842  22.532  1.00  0.00    -0.201 F 
BRANCH  87  89
ATOM     89  N   UNL A   1      32.434  18.357  24.767  1.00  0.00    -0.380 N 
ATOM     90  H   UNL A   1      31.513  18.120  25.022  1.00  0.00     0.160 HD
BRANCH  89  91
ATOM     91  C   UNL A   1      33.281  17.220  24.431  1.00  0.00     0.079 C 
ATOM     92  C   UNL A   1      34.006  17.004  23.137  1.00  0.00     0.027 C 
ATOM     93  C   UNL A   1      34.778  17.275  24.404  1.00  0.00     0.027 C 
ENDBRANCH  89  91
ENDBRANCH  87  89
ENDBRANCH  78  81
ENDBRANCH  76  77
ENDBRANCH  75  76
ENDBRANCH   1  75
TORSDOF 16
ENDMDL
MODEL 3
REMARK VINA RESULT:     -10.7      4.114      9.733
REMARK SMILES O=C(NCCCCNC(=O)c1ccc(NC2CC2)c(F)c1F)c1ccc(-c2c3nc(c(-c4c(F)cc(S(=O)(=O)[O-])cc4F)c4ccc([nH]4)c(-c4c(F)cc(S(=O)(=O)[O-])cc4F)c4nc(c(-c5c(F)cc(S(=O)(=O)[O-])cc5F)c5ccc2[nH]5)C=C4)C=C3)cc1
REMARK SMILES IDX 5 1 4 2 3 3 1 4 2 5 23 7 24 8 88 9 25 10 87 11 26 12 27 13
REMARK SMILES IDX 28 14 81 15 29 16 86 17 80 18 82 19 30 20 85 21 79 22 78 23
REMARK SMILES IDX 31 25 65 26 44 27 64 28 45 29 48 30 63 31 83 32 46 33 47 34
REMARK SMILES IDX 62 36 84 37 49 38 32 39 33 40 42 41 34 42 35 43 41 44 43 45
REMARK SMILES IDX 36 46 37 47 38 48 39 49 40 50 66 51 67 52 76 53 68 54 69 55
REMARK SMILES IDX 75 56 77 57 70 58 71 59 72 60 73 61 74 62 50 63 51 64 60 65
REMARK SMILES IDX 52 66 53 67 59 68 61 69 54 70 55 71 56 72 57 73 58 74 6 75
REMARK SMILES IDX 7 76 8 77 9 78 10 80 11 81 12 82 21 83 13 84 19 85 22 86
REMARK SMILES IDX 14 87 20 88 15 89 16 91 17 92 18 93
REMARK H PARENT 3 6 82 24 48 35 8 79 15 90
REMARK Flexibility Score: inf
ROOT
ATOM      1  C   UNL A   1      41.393  21.875  26.232  1.00  0.00     0.023 C 
ENDROOT
BRANCH   1   2
ATOM      2  C   UNL A   1      39.970  21.465  26.584  1.00  0.00     0.116 C 
BRANCH   2   3
ATOM      3  N   UNL A   1      38.964  22.091  25.735  1.00  0.00    -0.352 N 
ATOM      4  O   UNL A   1      37.552  23.701  25.029  1.00  0.00    -0.269 OA
ATOM      5  C   UNL A   1      38.501  23.388  25.740  1.00  0.00     0.251 C 
ATOM      6  H   UNL A   1      38.557  21.501  25.060  1.00  0.00     0.163 HD
BRANCH   5   7
ATOM      7  C   UNL A   1      39.129  24.388  26.634  1.00  0.00     0.039 A 
ATOM      8  C   UNL A   1      38.799  24.433  27.989  1.00  0.00     0.014 A 
ATOM      9  C   UNL A   1      40.026  25.316  26.100  1.00  0.00     0.014 A 
ATOM     10  C   UNL A   1      39.205  25.516  28.758  1.00  0.00     0.010 A 
ATOM     11  C   UNL A   1      40.521  26.345  26.907  1.00  0.00     0.010 A 
ATOM     12  C   UNL A   1      40.074  26.486  28.230  1.00  0.00    -0.014 A 
BRANCH  12  13
ATOM     13  C   UNL A   1      40.513  27.618  29.091  1.00  0.00     0.031 A 
ATOM     14  C   UNL A   1      41.875  27.624  29.737  1.00  0.00     0.074 A 
ATOM     15  C   UNL A   1      39.685  28.667  29.258  1.00  0.00     0.049 A 
ATOM     16  N   UNL A   1      42.427  28.545  30.487  1.00  0.00    -0.248 NA
ATOM     17  C   UNL A   1      42.725  26.442  29.524  1.00  0.00     0.031 C 
ATOM     18  C   UNL A   1      38.340  28.776  28.686  1.00  0.00     0.029 A 
ATOM     19  N   UNL A   1      39.853  29.849  29.933  1.00  0.00    -0.354 N 
ATOM     20  C   UNL A   1      43.672  28.047  30.857  1.00  0.00     0.074 A 
ATOM     21  C   UNL A   1      43.783  26.729  30.270  1.00  0.00     0.031 C 
ATOM     22  C   UNL A   1      37.829  29.979  28.986  1.00  0.00     0.029 A 
ATOM     23  C   UNL A   1      38.777  30.699  29.829  1.00  0.00     0.049 A 
ATOM     24  H   UNL A   1      40.666  30.068  30.444  1.00  0.00     0.167 HD
ATOM     25  C   UNL A   1      44.634  28.636  31.609  1.00  0.00     0.037 A 
ATOM     26  C   UNL A   1      38.565  31.917  30.360  1.00  0.00     0.037 A 
ATOM     27  C   UNL A   1      44.519  29.958  32.176  1.00  0.00     0.049 A 
ATOM     28  C   UNL A   1      39.637  32.538  31.210  1.00  0.00     0.074 A 
ATOM     29  C   UNL A   1      45.453  30.661  32.916  1.00  0.00     0.029 A 
ATOM     30  N   UNL A   1      43.399  30.773  32.075  1.00  0.00    -0.354 N 
ATOM     31  N   UNL A   1      40.821  32.065  31.519  1.00  0.00    -0.248 NA
ATOM     32  C   UNL A   1      39.344  33.857  31.783  1.00  0.00     0.031 C 
ATOM     33  C   UNL A   1      44.878  31.872  33.315  1.00  0.00     0.029 A 
ATOM     34  C   UNL A   1      43.610  31.958  32.764  1.00  0.00     0.049 A 
ATOM     35  H   UNL A   1      42.576  30.542  31.588  1.00  0.00     0.167 HD
ATOM     36  C   UNL A   1      41.430  33.047  32.293  1.00  0.00     0.074 A 
ATOM     37  C   UNL A   1      40.484  34.140  32.398  1.00  0.00     0.031 C 
ATOM     38  C   UNL A   1      42.663  33.044  32.857  1.00  0.00     0.037 A 
BRANCH  25  39
ATOM     39  C   UNL A   1      45.885  27.845  31.897  1.00  0.00     0.058 A 
ATOM     40  C   UNL A   1      46.015  27.036  33.037  1.00  0.00     0.135 A 
ATOM     41  C   UNL A   1      46.965  27.876  30.997  1.00  0.00     0.135 A 
ATOM     42  F   UNL A   1      45.021  26.973  33.938  1.00  0.00    -0.206 F 
ATOM     43  C   UNL A   1      47.182  26.322  33.297  1.00  0.00     0.059 A 
ATOM     44  C   UNL A   1      48.128  27.145  31.220  1.00  0.00     0.059 A 
ATOM     45  F   UNL A   1      46.897  28.625  29.885  1.00  0.00    -0.206 F 
ATOM     46  C   UNL A   1      48.236  26.387  32.383  1.00  0.00     0.060 A 
BRANCH  46  47
ATOM     47  S   UNL A   1      49.751  25.473  32.745  1.00  0.00     0.124 S 
ATOM     48  O   UNL A   1      50.255  25.205  31.402  1.00  0.00    -0.237 OA
ATOM     49  O   UNL A   1      50.517  26.437  33.528  1.00  0.00    -0.237 OA
ATOM     50  O   UNL A   1      49.278  24.306  33.482  1.00  0.00    -0.744 OA
ENDBRANCH  46  47
ENDBRANCH  25  39
BRANCH  26  51
ATOM     51  C   UNL A   1      37.291  32.631  30.083  1.00  0.00     0.058 A 
ATOM     52  C   UNL A   1      36.135  32.358  30.829  1.00  0.00     0.135 A 
ATOM     53  C   UNL A   1      37.212  33.620  29.090  1.00  0.00     0.135 A 
ATOM     54  F   UNL A   1      36.160  31.419  31.786  1.00  0.00    -0.206 F 
ATOM     55  C   UNL A   1      34.941  33.033  30.594  1.00  0.00     0.059 A 
ATOM     56  C   UNL A   1      36.038  34.330  28.857  1.00  0.00     0.059 A 
ATOM     57  F   UNL A   1      38.295  33.931  28.361  1.00  0.00    -0.206 F 
ATOM     58  C   UNL A   1      34.905  34.022  29.610  1.00  0.00     0.060 A 
BRANCH  58  59
ATOM     59  S   UNL A   1      33.366  34.930  29.353  1.00  0.00     0.124 S 
ATOM     60  O   UNL A   1      32.795  34.925  30.695  1.00  0.00    -0.237 OA
ATOM     61  O   UNL A   1      33.850  36.219  28.869  1.00  0.00    -0.237 OA
ATOM     62  O   UNL A   1      32.660  34.122  28.363  1.00  0.00    -0.744 OA
ENDBRANCH  58  59
ENDBRANCH  26  51
BRANCH  38  63
ATOM     63  C   UNL A   1      43.088  34.287  33.592  1.00  0.00     0.058 A 
ATOM     64  C   UNL A   1      43.720  35.360  32.945  1.00  0.00     0.135 A 
ATOM     65  C   UNL A   1      42.833  34.413  34.968  1.00  0.00     0.135 A 
ATOM     66  F   UNL A   1      43.996  35.291  31.633  1.00  0.00    -0.206 F 
ATOM     67  C   UNL A   1      44.114  36.499  33.641  1.00  0.00     0.059 A 
ATOM     68  C   UNL A   1      43.188  35.555  35.677  1.00  0.00     0.059 A 
ATOM     69  F   UNL A   1      42.223  33.421  35.637  1.00  0.00    -0.206 F 
ATOM     70  C   UNL A   1      43.843  36.587  35.007  1.00  0.00     0.060 A 
BRANCH  70  71
ATOM     71  S   UNL A   1      44.344  38.077  35.897  1.00  0.00     0.124 S 
ATOM     72  O   UNL A   1      43.641  37.912  37.165  1.00  0.00    -0.237 OA
ATOM     73  O   UNL A   1      45.795  37.934  35.952  1.00  0.00    -0.237 OA
ATOM     74  O   UNL A   1      43.859  39.160  35.047  1.00  0.00    -0.744 OA
ENDBRANCH  70  71
ENDBRANCH  38  63
ENDBRANCH  12  13
ENDBRANCH   5   7
ENDBRANCH   2   3
ENDBRANCH   1   2
BRANCH   1  75
ATOM     75  C   UNL A   1      42.400  21.763  27.373  1.00  0.00     0.023 C 
BRANCH  75  76
ATOM     76  C   UNL A   1      43.358  22.942  27.506  1.00  0.00     0.116 C 
BRANCH  76  77
ATOM     77  N   UNL A   1      44.686  22.657  26.982  1.00  0.00    -0.352 N 
ATOM     78  C   UNL A   1      45.583  23.511  26.384  1.00  0.00     0.254 C 
ATOM     79  H   UNL A   1      44.983  21.723  27.068  1.00  0.00     0.163 HD
ATOM     80  O   UNL A   1      46.645  23.106  25.938  1.00  0.00    -0.269 OA
BRANCH  78  81
ATOM     81  C   UNL A   1      45.257  24.942  26.318  1.00  0.00     0.078 A 
ATOM     82  C   UNL A   1      45.918  25.844  27.156  1.00  0.00     0.019 A 
ATOM     83  C   UNL A   1      44.275  25.388  25.449  1.00  0.00     0.173 A 
ATOM     84  C   UNL A   1      45.517  27.182  27.192  1.00  0.00     0.030 A 
ATOM     85  C   UNL A   1      43.897  26.726  25.485  1.00  0.00     0.182 A 
ATOM     86  F   UNL A   1      43.643  24.546  24.620  1.00  0.00    -0.203 F 
ATOM     87  C   UNL A   1      44.480  27.647  26.380  1.00  0.00     0.074 A 
ATOM     88  F   UNL A   1      42.917  27.152  24.667  1.00  0.00    -0.201 F 
BRANCH  87  89
ATOM     89  N   UNL A   1      43.951  28.953  26.422  1.00  0.00    -0.380 N 
ATOM     90  H   UNL A   1      43.046  29.041  26.044  1.00  0.00     0.160 HD
BRANCH  89  91
ATOM     91  C   UNL A   1      44.519  30.195  26.930  1.00  0.00     0.079 C 
ATOM     92  C   UNL A   1      43.770  31.309  27.595  1.00  0.00     0.027 C 
ATOM     93  C   UNL A   1      44.746  30.474  28.384  1.00  0.00     0.027 C 
ENDBRANCH  89  91
ENDBRANCH  87  89
ENDBRANCH  78  81
ENDBRANCH  76  77
ENDBRANCH  75  76
ENDBRANCH   1  75
TORSDOF 16
ENDMDL
