MODEL 1
REMARK VINA RESULT:     -13.6      0.000      0.000
REMARK SMILES Cc1ccc(/C=C2/SC(=O)N(CC(=O)NCCCCNC(=O)c3ccc(-c4c5nc(c(-c6c(F)cc(S(=O)(=O)[O-])cc6F)c6ccc([nH]6)c(-c6c(F)cc(S(=O)(=O)[O-])cc6F)c6nc(c(-c7c(F)cc(S(=O)(=O)[O-])cc7F)c7ccc4[nH]7)C=C6)C=C5)cc3)C2=O)cc1
REMARK SMILES IDX 18 1 17 2 16 3 15 4 13 5 14 6 12 8 11 9 6 10 7 11 8 12 89 13
REMARK SMILES IDX 9 14 90 15 10 16 5 17 1 18 2 19 3 20 92 21 4 22 91 23 19 24
REMARK SMILES IDX 20 25 21 26 22 28 23 29 24 30 88 31 25 32 87 33 26 34 27 35
REMARK SMILES IDX 28 36 81 37 29 38 86 39 80 40 82 41 30 42 85 43 79 44 78 45
REMARK SMILES IDX 31 47 65 48 44 49 64 50 45 51 48 52 63 53 83 54 46 55 47 56
REMARK SMILES IDX 62 58 84 59 49 60 32 61 33 62 42 63 34 64 35 65 41 66 43 67
REMARK SMILES IDX 36 68 37 69 38 70 39 71 40 72 66 73 67 74 76 75 68 76 69 77
REMARK SMILES IDX 75 78 77 79 70 80 71 81 72 82 73 83 74 84 50 85 51 86 60 87
REMARK SMILES IDX 52 88 53 89 59 90 61 91 54 92 55 93 56 94 57 95 58 96
REMARK H PARENT 15 7 20 27 82 46 48 57
REMARK Flexibility Score: inf
ROOT
ATOM      1  C   UNL A   1      33.441  29.849  27.574  1.00  0.00     0.023 C 
ENDROOT
BRANCH   1   2
ATOM      2  C   UNL A   1      32.663  30.948  26.853  1.00  0.00     0.023 C 
BRANCH   2   3
ATOM      3  C   UNL A   1      31.533  30.461  25.937  1.00  0.00     0.116 C 
BRANCH   3   4
ATOM      4  N   UNL A   1      32.019  29.850  24.712  1.00  0.00    -0.355 N 
ATOM      5  C   UNL A   1      32.049  28.540  24.331  1.00  0.00     0.240 C 
ATOM      6  O   UNL A   1      32.305  28.292  23.150  1.00  0.00    -0.273 OA
ATOM      7  H   UNL A   1      32.384  30.480  24.051  1.00  0.00     0.163 HD
BRANCH   5   8
ATOM      8  C   UNL A   1      31.667  27.419  25.302  1.00  0.00     0.229 C 
BRANCH   8   9
ATOM      9  N   UNL A   1      31.562  26.137  24.633  1.00  0.00    -0.259 N 
ATOM     10  C   UNL A   1      33.047  22.941  23.751  1.00  0.00     0.029 C 
ATOM     11  C   UNL A   1      32.291  24.043  23.863  1.00  0.00     0.083 C 
ATOM     12  S   UNL A   1      30.672  24.149  23.276  1.00  0.00    -0.022 SA
ATOM     13  C   UNL A   1      32.671  25.338  24.503  1.00  0.00     0.268 C 
ATOM     14  C   UNL A   1      30.453  25.759  23.939  1.00  0.00     0.294 C 
ATOM     15  O   UNL A   1      33.803  25.660  24.823  1.00  0.00    -0.268 OA
ATOM     16  O   UNL A   1      29.447  26.426  23.734  1.00  0.00    -0.261 OA
BRANCH  10  17
ATOM     17  C   UNL A   1      34.422  22.854  24.247  1.00  0.00    -0.024 A 
ATOM     18  C   UNL A   1      38.408  21.983  25.617  1.00  0.00     0.044 C 
ATOM     19  C   UNL A   1      37.031  22.354  25.151  1.00  0.00    -0.051 A 
ATOM     20  C   UNL A   1      35.946  22.259  26.031  1.00  0.00     0.004 A 
ATOM     21  C   UNL A   1      36.807  22.756  23.830  1.00  0.00     0.004 A 
ATOM     22  C   UNL A   1      34.648  22.507  25.582  1.00  0.00     0.008 A 
ATOM     23  C   UNL A   1      35.509  23.015  23.382  1.00  0.00     0.008 A 
ENDBRANCH  10  17
ENDBRANCH   8   9
ENDBRANCH   5   8
ENDBRANCH   3   4
ENDBRANCH   2   3
ENDBRANCH   1   2
BRANCH   1  24
ATOM     24  C   UNL A   1      34.866  29.653  27.080  1.00  0.00     0.116 C 
BRANCH  24  25
ATOM     25  N   UNL A   1      35.775  30.757  27.363  1.00  0.00    -0.352 N 
ATOM     26  C   UNL A   1      36.951  30.704  28.105  1.00  0.00     0.251 C 
ATOM     27  H   UNL A   1      35.530  31.635  26.989  1.00  0.00     0.163 HD
ATOM     28  O   UNL A   1      37.438  31.678  28.664  1.00  0.00    -0.269 OA
BRANCH  26  29
ATOM     29  C   UNL A   1      37.704  29.432  28.049  1.00  0.00     0.039 A 
ATOM     30  C   UNL A   1      37.616  28.596  29.172  1.00  0.00     0.014 A 
ATOM     31  C   UNL A   1      38.754  29.326  27.149  1.00  0.00     0.014 A 
ATOM     32  C   UNL A   1      38.720  27.846  29.545  1.00  0.00     0.010 A 
ATOM     33  C   UNL A   1      39.896  28.720  27.595  1.00  0.00     0.010 A 
ATOM     34  C   UNL A   1      39.885  28.029  28.816  1.00  0.00    -0.014 A 
BRANCH  34  35
ATOM     35  C   UNL A   1      41.172  27.468  29.159  1.00  0.00     0.031 A 
ATOM     36  C   UNL A   1      41.378  26.060  28.793  1.00  0.00     0.074 A 
ATOM     37  C   UNL A   1      42.154  28.326  29.504  1.00  0.00     0.049 A 
ATOM     38  N   UNL A   1      42.392  25.355  29.132  1.00  0.00    -0.248 NA
ATOM     39  C   UNL A   1      40.395  25.312  28.009  1.00  0.00     0.031 C 
ATOM     40  C   UNL A   1      43.596  28.123  29.474  1.00  0.00     0.029 A 
ATOM     41  N   UNL A   1      41.994  29.544  30.174  1.00  0.00    -0.354 N 
ATOM     42  C   UNL A   1      42.371  24.214  28.355  1.00  0.00     0.074 A 
ATOM     43  C   UNL A   1      41.050  24.173  27.788  1.00  0.00     0.031 C 
ATOM     44  C   UNL A   1      44.168  28.986  30.335  1.00  0.00     0.029 A 
ATOM     45  C   UNL A   1      43.091  29.644  31.060  1.00  0.00     0.049 A 
ATOM     46  H   UNL A   1      41.267  30.198  30.053  1.00  0.00     0.167 HD
ATOM     47  C   UNL A   1      43.550  23.554  28.174  1.00  0.00     0.037 A 
ATOM     48  C   UNL A   1      42.853  29.503  32.403  1.00  0.00     0.037 A 
ATOM     49  C   UNL A   1      44.562  24.118  29.077  1.00  0.00     0.049 A 
ATOM     50  C   UNL A   1      43.399  28.206  32.979  1.00  0.00     0.074 A 
ATOM     51  C   UNL A   1      45.567  25.059  28.933  1.00  0.00     0.029 A 
ATOM     52  N   UNL A   1      44.357  23.988  30.438  1.00  0.00    -0.354 N 
ATOM     53  N   UNL A   1      43.909  27.241  32.260  1.00  0.00    -0.248 NA
ATOM     54  C   UNL A   1      43.386  27.879  34.404  1.00  0.00     0.031 C 
ATOM     55  C   UNL A   1      45.869  25.574  30.233  1.00  0.00     0.029 A 
ATOM     56  C   UNL A   1      45.068  24.927  31.159  1.00  0.00     0.049 A 
ATOM     57  H   UNL A   1      43.773  23.308  30.845  1.00  0.00     0.167 HD
ATOM     58  C   UNL A   1      44.265  26.196  33.065  1.00  0.00     0.074 A 
ATOM     59  C   UNL A   1      43.902  26.636  34.402  1.00  0.00     0.031 C 
ATOM     60  C   UNL A   1      44.821  25.041  32.591  1.00  0.00     0.037 A 
BRANCH  47  61
ATOM     61  C   UNL A   1      43.878  22.576  27.063  1.00  0.00     0.058 A 
ATOM     62  C   UNL A   1      43.071  21.428  26.900  1.00  0.00     0.135 A 
ATOM     63  C   UNL A   1      44.978  22.636  26.179  1.00  0.00     0.135 A 
ATOM     64  F   UNL A   1      41.964  21.241  27.632  1.00  0.00    -0.206 F 
ATOM     65  C   UNL A   1      43.359  20.409  25.991  1.00  0.00     0.059 A 
ATOM     66  C   UNL A   1      45.292  21.625  25.263  1.00  0.00     0.059 A 
ATOM     67  F   UNL A   1      45.812  23.676  26.131  1.00  0.00    -0.206 F 
ATOM     68  C   UNL A   1      44.481  20.508  25.183  1.00  0.00     0.060 A 
BRANCH  68  69
ATOM     69  S   UNL A   1      44.843  19.181  24.025  1.00  0.00     0.124 S 
ATOM     70  O   UNL A   1      43.989  18.106  24.523  1.00  0.00    -0.237 OA
ATOM     71  O   UNL A   1      44.446  19.771  22.752  1.00  0.00    -0.237 OA
ATOM     72  O   UNL A   1      46.278  18.963  24.192  1.00  0.00    -0.744 OA
ENDBRANCH  68  69
ENDBRANCH  47  61
BRANCH  48  73
ATOM     73  C   UNL A   1      41.581  30.189  32.801  1.00  0.00     0.058 A 
ATOM     74  C   UNL A   1      40.479  29.366  33.128  1.00  0.00     0.135 A 
ATOM     75  C   UNL A   1      41.584  31.490  33.323  1.00  0.00     0.135 A 
ATOM     76  F   UNL A   1      40.413  28.113  32.646  1.00  0.00    -0.206 F 
ATOM     77  C   UNL A   1      39.534  29.743  34.076  1.00  0.00     0.059 A 
ATOM     78  C   UNL A   1      40.628  31.897  34.261  1.00  0.00     0.059 A 
ATOM     79  F   UNL A   1      42.594  32.328  33.047  1.00  0.00    -0.206 F 
ATOM     80  C   UNL A   1      39.655  30.988  34.685  1.00  0.00     0.060 A 
BRANCH  80  81
ATOM     81  S   UNL A   1      38.634  31.317  36.145  1.00  0.00     0.124 S 
ATOM     82  O   UNL A   1      37.512  32.046  35.566  1.00  0.00    -0.237 OA
ATOM     83  O   UNL A   1      38.335  29.965  36.622  1.00  0.00    -0.237 OA
ATOM     84  O   UNL A   1      39.518  32.102  36.998  1.00  0.00    -0.744 OA
ENDBRANCH  80  81
ENDBRANCH  48  73
BRANCH  60  85
ATOM     85  C   UNL A   1      45.191  23.904  33.494  1.00  0.00     0.058 A 
ATOM     86  C   UNL A   1      44.256  22.928  33.869  1.00  0.00     0.135 A 
ATOM     87  C   UNL A   1      46.466  23.819  34.095  1.00  0.00     0.135 A 
ATOM     88  F   UNL A   1      43.002  22.963  33.394  1.00  0.00    -0.206 F 
ATOM     89  C   UNL A   1      44.586  21.891  34.739  1.00  0.00     0.059 A 
ATOM     90  C   UNL A   1      46.793  22.837  35.020  1.00  0.00     0.059 A 
ATOM     91  F   UNL A   1      47.451  24.669  33.772  1.00  0.00    -0.206 F 
ATOM     92  C   UNL A   1      45.858  21.854  35.307  1.00  0.00     0.060 A 
BRANCH  92  93
ATOM     93  S   UNL A   1      46.292  20.503  36.412  1.00  0.00     0.124 S 
ATOM     94  O   UNL A   1      45.602  19.366  35.810  1.00  0.00    -0.237 OA
ATOM     95  O   UNL A   1      47.747  20.494  36.294  1.00  0.00    -0.237 OA
ATOM     96  O   UNL A   1      45.766  20.937  37.702  1.00  0.00    -0.744 OA
ENDBRANCH  92  93
ENDBRANCH  60  85
ENDBRANCH  34  35
ENDBRANCH  26  29
ENDBRANCH  24  25
ENDBRANCH   1  24
TORSDOF 16
ENDMDL
MODEL 2
REMARK VINA RESULT:     -12.9      2.236      3.146
REMARK SMILES Cc1ccc(/C=C2/SC(=O)N(CC(=O)NCCCCNC(=O)c3ccc(-c4c5nc(c(-c6c(F)cc(S(=O)(=O)[O-])cc6F)c6ccc([nH]6)c(-c6c(F)cc(S(=O)(=O)[O-])cc6F)c6nc(c(-c7c(F)cc(S(=O)(=O)[O-])cc7F)c7ccc4[nH]7)C=C6)C=C5)cc3)C2=O)cc1
REMARK SMILES IDX 18 1 17 2 16 3 15 4 13 5 14 6 12 8 11 9 6 10 7 11 8 12 89 13
REMARK SMILES IDX 9 14 90 15 10 16 5 17 1 18 2 19 3 20 92 21 4 22 91 23 19 24
REMARK SMILES IDX 20 25 21 26 22 28 23 29 24 30 88 31 25 32 87 33 26 34 27 35
REMARK SMILES IDX 28 36 81 37 29 38 86 39 80 40 82 41 30 42 85 43 79 44 78 45
REMARK SMILES IDX 31 47 65 48 44 49 64 50 45 51 48 52 63 53 83 54 46 55 47 56
REMARK SMILES IDX 62 58 84 59 49 60 32 61 33 62 42 63 34 64 35 65 41 66 43 67
REMARK SMILES IDX 36 68 37 69 38 70 39 71 40 72 66 73 67 74 76 75 68 76 69 77
REMARK SMILES IDX 75 78 77 79 70 80 71 81 72 82 73 83 74 84 50 85 51 86 60 87
REMARK SMILES IDX 52 88 53 89 59 90 61 91 54 92 55 93 56 94 57 95 58 96
REMARK H PARENT 15 7 20 27 82 46 48 57
REMARK Flexibility Score: inf
ROOT
ATOM      1  C   UNL A   1      33.870  29.090  26.153  1.00  0.00     0.023 C 
ENDROOT
BRANCH   1   2
ATOM      2  C   UNL A   1      32.896  28.399  25.199  1.00  0.00     0.023 C 
BRANCH   2   3
ATOM      3  C   UNL A   1      33.184  28.599  23.706  1.00  0.00     0.116 C 
BRANCH   3   4
ATOM      4  N   UNL A   1      32.052  29.147  22.978  1.00  0.00    -0.355 N 
ATOM      5  C   UNL A   1      31.036  28.515  22.322  1.00  0.00     0.240 C 
ATOM      6  O   UNL A   1      30.070  29.197  21.970  1.00  0.00    -0.273 OA
ATOM      7  H   UNL A   1      32.011  30.129  22.954  1.00  0.00     0.163 HD
BRANCH   5   8
ATOM      8  C   UNL A   1      31.034  26.997  22.129  1.00  0.00     0.229 C 
BRANCH   8   9
ATOM      9  N   UNL A   1      30.905  26.291  23.390  1.00  0.00    -0.259 N 
ATOM     10  C   UNL A   1      32.320  24.059  25.882  1.00  0.00     0.029 C 
ATOM     11  C   UNL A   1      31.536  24.832  25.116  1.00  0.00     0.083 C 
ATOM     12  S   UNL A   1      29.984  25.402  25.614  1.00  0.00    -0.022 SA
ATOM     13  C   UNL A   1      31.837  25.349  23.747  1.00  0.00     0.268 C 
ATOM     14  C   UNL A   1      29.786  26.368  24.162  1.00  0.00     0.294 C 
ATOM     15  O   UNL A   1      32.747  24.962  23.033  1.00  0.00    -0.268 OA
ATOM     16  O   UNL A   1      28.749  26.965  23.903  1.00  0.00    -0.261 OA
BRANCH  10  17
ATOM     17  C   UNL A   1      33.634  23.574  25.456  1.00  0.00    -0.024 A 
ATOM     18  C   UNL A   1      37.565  21.952  24.795  1.00  0.00     0.044 C 
ATOM     19  C   UNL A   1      36.193  22.536  24.958  1.00  0.00    -0.051 A 
ATOM     20  C   UNL A   1      36.041  23.827  25.479  1.00  0.00     0.004 A 
ATOM     21  C   UNL A   1      35.054  21.791  24.636  1.00  0.00     0.004 A 
ATOM     22  C   UNL A   1      34.768  24.344  25.728  1.00  0.00     0.008 A 
ATOM     23  C   UNL A   1      33.780  22.311  24.874  1.00  0.00     0.008 A 
ENDBRANCH  10  17
ENDBRANCH   8   9
ENDBRANCH   5   8
ENDBRANCH   3   4
ENDBRANCH   2   3
ENDBRANCH   1   2
BRANCH   1  24
ATOM     24  C   UNL A   1      33.211  29.960  27.211  1.00  0.00     0.116 C 
BRANCH  24  25
ATOM     25  N   UNL A   1      33.881  31.228  27.472  1.00  0.00    -0.352 N 
ATOM     26  C   UNL A   1      34.949  31.447  28.337  1.00  0.00     0.251 C 
ATOM     27  H   UNL A   1      33.543  32.013  26.984  1.00  0.00     0.163 HD
ATOM     28  O   UNL A   1      35.195  32.536  28.840  1.00  0.00    -0.269 OA
BRANCH  26  29
ATOM     29  C   UNL A   1      35.903  30.329  28.496  1.00  0.00     0.039 A 
ATOM     30  C   UNL A   1      35.955  29.717  29.758  1.00  0.00     0.014 A 
ATOM     31  C   UNL A   1      36.958  30.228  27.600  1.00  0.00     0.014 A 
ATOM     32  C   UNL A   1      37.168  29.242  30.230  1.00  0.00     0.010 A 
ATOM     33  C   UNL A   1      38.185  29.913  28.117  1.00  0.00     0.010 A 
ATOM     34  C   UNL A   1      38.287  29.472  29.445  1.00  0.00    -0.014 A 
BRANCH  34  35
ATOM     35  C   UNL A   1      39.649  29.205  29.847  1.00  0.00     0.031 A 
ATOM     36  C   UNL A   1      40.218  27.931  29.384  1.00  0.00     0.074 A 
ATOM     37  C   UNL A   1      40.366  30.234  30.344  1.00  0.00     0.049 A 
ATOM     38  N   UNL A   1      41.352  27.460  29.749  1.00  0.00    -0.248 NA
ATOM     39  C   UNL A   1      39.500  27.052  28.462  1.00  0.00     0.031 C 
ATOM     40  C   UNL A   1      41.812  30.387  30.418  1.00  0.00     0.029 A 
ATOM     41  N   UNL A   1      39.870  31.304  31.096  1.00  0.00    -0.354 N 
ATOM     42  C   UNL A   1      41.661  26.432  28.881  1.00  0.00     0.074 A 
ATOM     43  C   UNL A   1      40.428  26.132  28.204  1.00  0.00     0.031 C 
ATOM     44  C   UNL A   1      42.101  31.271  31.392  1.00  0.00     0.029 A 
ATOM     45  C   UNL A   1      40.851  31.575  32.076  1.00  0.00     0.049 A 
ATOM     46  H   UNL A   1      39.013  31.773  30.969  1.00  0.00     0.167 HD
ATOM     47  C   UNL A   1      42.975  26.096  28.746  1.00  0.00     0.037 A 
ATOM     48  C   UNL A   1      40.574  31.247  33.378  1.00  0.00     0.037 A 
ATOM     49  C   UNL A   1      43.759  26.792  29.773  1.00  0.00     0.049 A 
ATOM     50  C   UNL A   1      41.386  30.067  33.888  1.00  0.00     0.074 A 
ATOM     51  C   UNL A   1      44.508  27.956  29.793  1.00  0.00     0.029 A 
ATOM     52  N   UNL A   1      43.510  26.480  31.097  1.00  0.00    -0.354 N 
ATOM     53  N   UNL A   1      42.162  29.330  33.138  1.00  0.00    -0.248 NA
ATOM     54  C   UNL A   1      41.367  29.604  35.276  1.00  0.00     0.031 C 
ATOM     55  C   UNL A   1      44.593  28.395  31.153  1.00  0.00     0.029 A 
ATOM     56  C   UNL A   1      43.921  27.485  31.951  1.00  0.00     0.049 A 
ATOM     57  H   UNL A   1      43.088  25.642  31.396  1.00  0.00     0.167 HD
ATOM     58  C   UNL A   1      42.714  28.325  33.881  1.00  0.00     0.074 A 
ATOM     59  C   UNL A   1      42.173  28.528  35.214  1.00  0.00     0.031 C 
ATOM     60  C   UNL A   1      43.567  27.392  33.361  1.00  0.00     0.037 A 
BRANCH  47  61
ATOM     61  C   UNL A   1      43.601  25.342  27.589  1.00  0.00     0.058 A 
ATOM     62  C   UNL A   1      43.437  23.940  27.514  1.00  0.00     0.135 A 
ATOM     63  C   UNL A   1      44.423  25.879  26.573  1.00  0.00     0.135 A 
ATOM     64  F   UNL A   1      42.653  23.280  28.379  1.00  0.00    -0.206 F 
ATOM     65  C   UNL A   1      44.073  23.142  26.563  1.00  0.00     0.059 A 
ATOM     66  C   UNL A   1      45.076  25.099  25.612  1.00  0.00     0.059 A 
ATOM     67  F   UNL A   1      44.638  27.188  26.434  1.00  0.00    -0.206 F 
ATOM     68  C   UNL A   1      44.903  23.728  25.620  1.00  0.00     0.060 A 
BRANCH  68  69
ATOM     69  S   UNL A   1      45.722  22.682  24.408  1.00  0.00     0.124 S 
ATOM     70  O   UNL A   1      44.609  22.279  23.556  1.00  0.00    -0.237 OA
ATOM     71  O   UNL A   1      46.682  23.604  23.810  1.00  0.00    -0.237 OA
ATOM     72  O   UNL A   1      46.305  21.613  25.217  1.00  0.00    -0.744 OA
ENDBRANCH  68  69
ENDBRANCH  47  61
BRANCH  48  73
ATOM     73  C   UNL A   1      39.150  31.564  33.723  1.00  0.00     0.058 A 
ATOM     74  C   UNL A   1      38.830  32.922  33.951  1.00  0.00     0.135 A 
ATOM     75  C   UNL A   1      38.100  30.713  33.352  1.00  0.00     0.135 A 
ATOM     76  F   UNL A   1      39.792  33.783  34.323  1.00  0.00    -0.206 F 
ATOM     77  C   UNL A   1      37.579  33.447  33.639  1.00  0.00     0.059 A 
ATOM     78  C   UNL A   1      36.828  31.218  33.055  1.00  0.00     0.059 A 
ATOM     79  F   UNL A   1      38.331  29.411  33.127  1.00  0.00    -0.206 F 
ATOM     80  C   UNL A   1      36.604  32.595  33.130  1.00  0.00     0.060 A 
BRANCH  80  81
ATOM     81  S   UNL A   1      35.118  33.345  32.414  1.00  0.00     0.124 S 
ATOM     82  O   UNL A   1      35.690  34.270  31.442  1.00  0.00    -0.237 OA
ATOM     83  O   UNL A   1      34.426  32.182  31.853  1.00  0.00    -0.237 OA
ATOM     84  O   UNL A   1      34.473  33.965  33.564  1.00  0.00    -0.744 OA
ENDBRANCH  80  81
ENDBRANCH  48  73
BRANCH  60  85
ATOM     85  C   UNL A   1      44.149  26.291  34.195  1.00  0.00     0.058 A 
ATOM     86  C   UNL A   1      45.530  26.185  34.415  1.00  0.00     0.135 A 
ATOM     87  C   UNL A   1      43.348  25.249  34.711  1.00  0.00     0.135 A 
ATOM     88  F   UNL A   1      46.375  27.098  33.912  1.00  0.00    -0.206 F 
ATOM     89  C   UNL A   1      46.079  25.142  35.157  1.00  0.00     0.059 A 
ATOM     90  C   UNL A   1      43.881  24.162  35.391  1.00  0.00     0.059 A 
ATOM     91  F   UNL A   1      42.011  25.273  34.603  1.00  0.00    -0.206 F 
ATOM     92  C   UNL A   1      45.244  24.137  35.643  1.00  0.00     0.060 A 
BRANCH  92  93
ATOM     93  S   UNL A   1      45.947  22.801  36.621  1.00  0.00     0.124 S 
ATOM     94  O   UNL A   1      47.377  22.932  36.355  1.00  0.00    -0.237 OA
ATOM     95  O   UNL A   1      45.518  23.175  37.965  1.00  0.00    -0.237 OA
ATOM     96  O   UNL A   1      45.318  21.607  36.067  1.00  0.00    -0.744 OA
ENDBRANCH  92  93
ENDBRANCH  60  85
ENDBRANCH  34  35
ENDBRANCH  26  29
ENDBRANCH  24  25
ENDBRANCH   1  24
TORSDOF 16
ENDMDL
MODEL 3
REMARK VINA RESULT:     -12.8      2.506      3.661
REMARK SMILES Cc1ccc(/C=C2/SC(=O)N(CC(=O)NCCCCNC(=O)c3ccc(-c4c5nc(c(-c6c(F)cc(S(=O)(=O)[O-])cc6F)c6ccc([nH]6)c(-c6c(F)cc(S(=O)(=O)[O-])cc6F)c6nc(c(-c7c(F)cc(S(=O)(=O)[O-])cc7F)c7ccc4[nH]7)C=C6)C=C5)cc3)C2=O)cc1
REMARK SMILES IDX 18 1 17 2 16 3 15 4 13 5 14 6 12 8 11 9 6 10 7 11 8 12 89 13
REMARK SMILES IDX 9 14 90 15 10 16 5 17 1 18 2 19 3 20 92 21 4 22 91 23 19 24
REMARK SMILES IDX 20 25 21 26 22 28 23 29 24 30 88 31 25 32 87 33 26 34 27 35
REMARK SMILES IDX 28 36 81 37 29 38 86 39 80 40 82 41 30 42 85 43 79 44 78 45
REMARK SMILES IDX 31 47 65 48 44 49 64 50 45 51 48 52 63 53 83 54 46 55 47 56
REMARK SMILES IDX 62 58 84 59 49 60 32 61 33 62 42 63 34 64 35 65 41 66 43 67
REMARK SMILES IDX 36 68 37 69 38 70 39 71 40 72 66 73 67 74 76 75 68 76 69 77
REMARK SMILES IDX 75 78 77 79 70 80 71 81 72 82 73 83 74 84 50 85 51 86 60 87
REMARK SMILES IDX 52 88 53 89 59 90 61 91 54 92 55 93 56 94 57 95 58 96
REMARK H PARENT 15 7 20 27 82 46 48 57
REMARK Flexibility Score: inf
ROOT
ATOM      1  C   UNL A   1      33.406  28.827  25.997  1.00  0.00     0.023 C 
ENDROOT
BRANCH   1   2
ATOM      2  C   UNL A   1      33.438  27.337  26.331  1.00  0.00     0.023 C 
BRANCH   2   3
ATOM      3  C   UNL A   1      32.809  26.413  25.280  1.00  0.00     0.116 C 
BRANCH   3   4
ATOM      4  N   UNL A   1      31.452  26.016  25.612  1.00  0.00    -0.355 N 
ATOM      5  C   UNL A   1      30.977  24.849  26.137  1.00  0.00     0.240 C 
ATOM      6  O   UNL A   1      29.810  24.834  26.537  1.00  0.00    -0.273 OA
ATOM      7  H   UNL A   1      30.765  26.696  25.429  1.00  0.00     0.163 HD
BRANCH   5   8
ATOM      8  C   UNL A   1      31.888  23.634  26.331  1.00  0.00     0.229 C 
BRANCH   8   9
ATOM      9  N   UNL A   1      32.694  23.369  25.155  1.00  0.00    -0.259 N 
ATOM     10  C   UNL A   1      35.936  22.640  23.687  1.00  0.00     0.029 C 
ATOM     11  C   UNL A   1      34.659  22.963  23.936  1.00  0.00     0.083 C 
ATOM     12  S   UNL A   1      33.428  22.979  22.727  1.00  0.00    -0.022 SA
ATOM     13  C   UNL A   1      34.064  23.341  25.254  1.00  0.00     0.268 C 
ATOM     14  C   UNL A   1      32.172  23.340  23.899  1.00  0.00     0.294 C 
ATOM     15  O   UNL A   1      34.696  23.628  26.256  1.00  0.00    -0.268 OA
ATOM     16  O   UNL A   1      31.014  23.576  23.574  1.00  0.00    -0.261 OA
BRANCH  10  17
ATOM     17  C   UNL A   1      36.980  22.631  24.714  1.00  0.00    -0.024 A 
ATOM     18  C   UNL A   1      40.451  22.625  27.257  1.00  0.00     0.044 C 
ATOM     19  C   UNL A   1      39.202  22.626  26.428  1.00  0.00    -0.051 A 
ATOM     20  C   UNL A   1      38.727  21.428  25.879  1.00  0.00     0.004 A 
ATOM     21  C   UNL A   1      38.522  23.818  26.157  1.00  0.00     0.004 A 
ATOM     22  C   UNL A   1      37.622  21.429  25.026  1.00  0.00     0.008 A 
ATOM     23  C   UNL A   1      37.410  23.820  25.312  1.00  0.00     0.008 A 
ENDBRANCH  10  17
ENDBRANCH   8   9
ENDBRANCH   5   8
ENDBRANCH   3   4
ENDBRANCH   2   3
ENDBRANCH   1   2
BRANCH   1  24
ATOM     24  C   UNL A   1      33.053  29.733  27.167  1.00  0.00     0.116 C 
BRANCH  24  25
ATOM     25  N   UNL A   1      33.749  31.013  27.187  1.00  0.00    -0.352 N 
ATOM     26  C   UNL A   1      34.863  31.347  27.950  1.00  0.00     0.251 C 
ATOM     27  H   UNL A   1      33.392  31.717  26.599  1.00  0.00     0.163 HD
ATOM     28  O   UNL A   1      35.147  32.497  28.260  1.00  0.00    -0.269 OA
BRANCH  26  29
ATOM     29  C   UNL A   1      35.814  30.251  28.235  1.00  0.00     0.039 A 
ATOM     30  C   UNL A   1      35.851  29.773  29.554  1.00  0.00     0.014 A 
ATOM     31  C   UNL A   1      36.878  30.057  27.366  1.00  0.00     0.014 A 
ATOM     32  C   UNL A   1      37.059  29.350  30.087  1.00  0.00     0.010 A 
ATOM     33  C   UNL A   1      38.099  29.796  27.926  1.00  0.00     0.010 A 
ATOM     34  C   UNL A   1      38.187  29.497  29.294  1.00  0.00    -0.014 A 
BRANCH  34  35
ATOM     35  C   UNL A   1      39.543  29.272  29.737  1.00  0.00     0.031 A 
ATOM     36  C   UNL A   1      40.115  27.956  29.416  1.00  0.00     0.074 A 
ATOM     37  C   UNL A   1      40.257  30.346  30.130  1.00  0.00     0.049 A 
ATOM     38  N   UNL A   1      41.244  27.525  29.839  1.00  0.00    -0.248 NA
ATOM     39  C   UNL A   1      39.405  26.986  28.582  1.00  0.00     0.031 C 
ATOM     40  C   UNL A   1      41.702  30.506  30.204  1.00  0.00     0.029 A 
ATOM     41  N   UNL A   1      39.755  31.490  30.761  1.00  0.00    -0.354 N 
ATOM     42  C   UNL A   1      41.561  26.411  29.087  1.00  0.00     0.074 A 
ATOM     43  C   UNL A   1      40.334  26.043  28.431  1.00  0.00     0.031 C 
ATOM     44  C   UNL A   1      41.982  31.486  31.083  1.00  0.00     0.029 A 
ATOM     45  C   UNL A   1      40.726  31.861  31.718  1.00  0.00     0.049 A 
ATOM     46  H   UNL A   1      38.900  31.944  30.577  1.00  0.00     0.167 HD
ATOM     47  C   UNL A   1      42.875  26.062  29.002  1.00  0.00     0.037 A 
ATOM     48  C   UNL A   1      40.434  31.671  33.044  1.00  0.00     0.037 A 
ATOM     49  C   UNL A   1      43.650  26.861  29.960  1.00  0.00     0.049 A 
ATOM     50  C   UNL A   1      41.239  30.550  33.684  1.00  0.00     0.074 A 
ATOM     51  C   UNL A   1      44.400  28.021  29.866  1.00  0.00     0.029 A 
ATOM     52  N   UNL A   1      43.386  26.689  31.306  1.00  0.00    -0.354 N 
ATOM     53  N   UNL A   1      42.022  29.739  33.023  1.00  0.00    -0.248 NA
ATOM     54  C   UNL A   1      41.204  30.235  35.112  1.00  0.00     0.031 C 
ATOM     55  C   UNL A   1      44.472  28.599  31.173  1.00  0.00     0.029 A 
ATOM     56  C   UNL A   1      43.790  27.778  32.054  1.00  0.00     0.049 A 
ATOM     57  H   UNL A   1      42.959  25.888  31.686  1.00  0.00     0.167 HD
ATOM     58  C   UNL A   1      42.564  28.816  33.873  1.00  0.00     0.074 A 
ATOM     59  C   UNL A   1      42.009  29.158  35.172  1.00  0.00     0.031 C 
ATOM     60  C   UNL A   1      43.420  27.833  33.463  1.00  0.00     0.037 A 
BRANCH  47  61
ATOM     61  C   UNL A   1      43.513  25.191  27.937  1.00  0.00     0.058 A 
ATOM     62  C   UNL A   1      43.581  25.670  26.610  1.00  0.00     0.135 A 
ATOM     63  C   UNL A   1      44.002  23.876  28.099  1.00  0.00     0.135 A 
ATOM     64  F   UNL A   1      43.196  26.915  26.294  1.00  0.00    -0.206 F 
ATOM     65  C   UNL A   1      44.034  24.901  25.537  1.00  0.00     0.059 A 
ATOM     66  C   UNL A   1      44.456  23.082  27.040  1.00  0.00     0.059 A 
ATOM     67  F   UNL A   1      44.087  23.277  29.288  1.00  0.00    -0.206 F 
ATOM     68  C   UNL A   1      44.459  23.600  25.758  1.00  0.00     0.060 A 
BRANCH  68  69
ATOM     69  S   UNL A   1      45.029  22.620  24.363  1.00  0.00     0.124 S 
ATOM     70  O   UNL A   1      43.837  22.569  23.522  1.00  0.00    -0.237 OA
ATOM     71  O   UNL A   1      46.133  23.427  23.855  1.00  0.00    -0.237 OA
ATOM     72  O   UNL A   1      45.415  21.349  24.972  1.00  0.00    -0.744 OA
ENDBRANCH  68  69
ENDBRANCH  47  61
BRANCH  48  73
ATOM     73  C   UNL A   1      39.007  32.023  33.339  1.00  0.00     0.058 A 
ATOM     74  C   UNL A   1      38.671  33.397  33.346  1.00  0.00     0.135 A 
ATOM     75  C   UNL A   1      37.967  31.112  33.114  1.00  0.00     0.135 A 
ATOM     76  F   UNL A   1      39.624  34.318  33.570  1.00  0.00    -0.206 F 
ATOM     77  C   UNL A   1      37.414  33.849  32.958  1.00  0.00     0.059 A 
ATOM     78  C   UNL A   1      36.689  31.547  32.745  1.00  0.00     0.059 A 
ATOM     79  F   UNL A   1      38.213  29.793  33.101  1.00  0.00    -0.206 F 
ATOM     80  C   UNL A   1      36.448  32.916  32.597  1.00  0.00     0.060 A 
BRANCH  80  81
ATOM     81  S   UNL A   1      34.952  33.523  31.774  1.00  0.00     0.124 S 
ATOM     82  O   UNL A   1      34.274  32.279  31.432  1.00  0.00    -0.237 OA
ATOM     83  O   UNL A   1      34.323  34.320  32.830  1.00  0.00    -0.237 OA
ATOM     84  O   UNL A   1      35.479  34.281  30.646  1.00  0.00    -0.744 OA
ENDBRANCH  80  81
ENDBRANCH  48  73
BRANCH  60  85
ATOM     85  C   UNL A   1      43.992  26.825  34.414  1.00  0.00     0.058 A 
ATOM     86  C   UNL A   1      45.359  26.800  34.726  1.00  0.00     0.135 A 
ATOM     87  C   UNL A   1      43.202  25.788  34.957  1.00  0.00     0.135 A 
ATOM     88  F   UNL A   1      46.196  27.711  34.208  1.00  0.00    -0.206 F 
ATOM     89  C   UNL A   1      45.900  25.841  35.579  1.00  0.00     0.059 A 
ATOM     90  C   UNL A   1      43.734  24.780  35.750  1.00  0.00     0.059 A 
ATOM     91  F   UNL A   1      41.876  25.743  34.765  1.00  0.00    -0.206 F 
ATOM     92  C   UNL A   1      45.077  24.837  36.087  1.00  0.00     0.060 A 
BRANCH  92  93
ATOM     93  S   UNL A   1      45.770  23.611  37.207  1.00  0.00     0.124 S 
ATOM     94  O   UNL A   1      47.201  23.896  37.144  1.00  0.00    -0.237 OA
ATOM     95  O   UNL A   1      45.110  23.965  38.460  1.00  0.00    -0.237 OA
ATOM     96  O   UNL A   1      45.362  22.341  36.616  1.00  0.00    -0.744 OA
ENDBRANCH  92  93
ENDBRANCH  60  85
ENDBRANCH  34  35
ENDBRANCH  26  29
ENDBRANCH  24  25
ENDBRANCH   1  24
TORSDOF 16
ENDMDL
