MODEL 1
REMARK VINA RESULT:     -10.3      0.000      0.000
REMARK SMILES C[NH2+][C@](C)(C(=O)NCCCCNC(=O)c1ccc(-c2c3nc(c(-c4c(F)cc(S(=O)(=O)[O-])cc4F)c4ccc([nH]4)c(-c4c(F)cc(S(=O)(=O)[O-])cc4F)c4nc(c(-c5c(F)cc(S(=O)(=O)[O-])cc5F)c5ccc2[nH]5)C=C4)C=C3)cc1)c1cccc(Cl)c1
REMARK SMILES IDX 10 1 9 2 8 3 7 4 5 5 6 6 3 8 4 9 2 10 1 11 81 14 82 15 87 16
REMARK SMILES IDX 83 17 85 18 84 19 86 20 11 21 12 22 13 23 14 25 15 26 16 27
REMARK SMILES IDX 80 28 17 29 79 30 18 31 19 32 20 33 73 34 21 35 78 36 72 37
REMARK SMILES IDX 74 38 22 39 77 40 71 41 70 42 23 44 57 45 36 46 56 47 37 48
REMARK SMILES IDX 40 49 55 50 75 51 38 52 39 53 54 55 76 56 41 57 24 58 25 59
REMARK SMILES IDX 34 60 26 61 27 62 33 63 35 64 28 65 29 66 30 67 31 68 32 69
REMARK SMILES IDX 58 70 59 71 68 72 60 73 61 74 67 75 69 76 62 77 63 78 64 79
REMARK SMILES IDX 65 80 66 81 42 82 43 83 52 84 44 85 45 86 51 87 53 88 46 89
REMARK SMILES IDX 47 90 48 91 49 92 50 93
REMARK H PARENT 7 7 2 12 2 13 12 24 74 43 40 54
REMARK Flexibility Score: inf
ROOT
ATOM      1  C   UNL A   1      41.054  20.914  27.425  1.00  0.00     0.023 C 
ENDROOT
BRANCH   1   2
ATOM      2  C   UNL A   1      41.925  19.667  27.294  1.00  0.00     0.023 C 
BRANCH   2   3
ATOM      3  C   UNL A   1      42.368  19.343  25.874  1.00  0.00     0.116 C 
BRANCH   3   4
ATOM      4  N   UNL A   1      43.561  18.523  25.824  1.00  0.00    -0.350 N 
ATOM      5  C   UNL A   1      44.838  18.772  25.391  1.00  0.00     0.285 C 
ATOM      6  O   UNL A   1      45.648  17.905  25.735  1.00  0.00    -0.267 OA
ATOM      7  H   UNL A   1      43.430  17.610  26.168  1.00  0.00     0.163 HD
BRANCH   5   8
ATOM      8  C   UNL A   1      45.231  20.081  24.562  1.00  0.00     0.198 C 
ATOM      9  C   UNL A   1      46.778  20.258  24.626  1.00  0.00     0.096 C 
BRANCH   8  10
ATOM     10  N   UNL A   1      44.589  19.951  23.220  1.00  0.00    -0.332 N 
ATOM     11  C   UNL A   1      44.888  18.829  22.363  1.00  0.00     0.332 C 
ATOM     12  H   UNL A   1      43.583  19.935  23.379  1.00  0.00     0.347 HD
ATOM     13  H   UNL A   1      44.982  20.740  22.705  1.00  0.00     0.347 HD
ENDBRANCH   8  10
BRANCH   8  14
ATOM     14  C   UNL A   1      44.664  21.437  25.136  1.00  0.00     0.023 A 
ATOM     15  C   UNL A   1      43.990  22.305  24.231  1.00  0.00     0.011 A 
ATOM     16  C   UNL A   1      44.733  21.858  26.472  1.00  0.00     0.031 A 
ATOM     17  C   UNL A   1      43.446  23.527  24.629  1.00  0.00     0.002 A 
ATOM     18  C   UNL A   1      44.175  23.081  26.871  1.00  0.00     0.041 A 
ATOM     19  C   UNL A   1      43.541  23.917  25.956  1.00  0.00     0.020 A 
ATOM     20  Cl  UNL A   1      44.268  23.567  28.522  1.00  0.00    -0.084 Cl
ENDBRANCH   8  14
ENDBRANCH   5   8
ENDBRANCH   3   4
ENDBRANCH   2   3
ENDBRANCH   1   2
BRANCH   1  21
ATOM     21  C   UNL A   1      40.743  21.627  26.116  1.00  0.00     0.116 C 
BRANCH  21  22
ATOM     22  N   UNL A   1      39.319  21.847  25.914  1.00  0.00    -0.352 N 
ATOM     23  C   UNL A   1      38.556  22.947  26.227  1.00  0.00     0.251 C 
ATOM     24  H   UNL A   1      38.833  21.101  25.493  1.00  0.00     0.163 HD
ATOM     25  O   UNL A   1      37.338  22.893  26.117  1.00  0.00    -0.269 OA
BRANCH  23  26
ATOM     26  C   UNL A   1      39.213  24.177  26.718  1.00  0.00     0.039 A 
ATOM     27  C   UNL A   1      39.830  25.027  25.797  1.00  0.00     0.014 A 
ATOM     28  C   UNL A   1      39.218  24.493  28.078  1.00  0.00     0.014 A 
ATOM     29  C   UNL A   1      40.419  26.212  26.241  1.00  0.00     0.010 A 
ATOM     30  C   UNL A   1      39.715  25.720  28.503  1.00  0.00     0.010 A 
ATOM     31  C   UNL A   1      40.349  26.579  27.596  1.00  0.00    -0.014 A 
BRANCH  31  32
ATOM     32  C   UNL A   1      40.993  27.824  28.088  1.00  0.00     0.031 A 
ATOM     33  C   UNL A   1      42.490  27.974  28.001  1.00  0.00     0.074 A 
ATOM     34  C   UNL A   1      40.244  28.799  28.639  1.00  0.00     0.049 A 
ATOM     35  N   UNL A   1      43.245  28.967  28.392  1.00  0.00    -0.248 NA
ATOM     36  C   UNL A   1      43.241  26.846  27.425  1.00  0.00     0.031 C 
ATOM     37  C   UNL A   1      38.792  28.748  28.831  1.00  0.00     0.029 A 
ATOM     38  N   UNL A   1      40.599  30.026  29.141  1.00  0.00    -0.354 N 
ATOM     39  C   UNL A   1      44.553  28.578  28.123  1.00  0.00     0.074 A 
ATOM     40  C   UNL A   1      44.495  27.230  27.604  1.00  0.00     0.031 C 
ATOM     41  C   UNL A   1      38.378  29.903  29.375  1.00  0.00     0.029 A 
ATOM     42  C   UNL A   1      39.535  30.763  29.605  1.00  0.00     0.049 A 
ATOM     43  H   UNL A   1      41.529  30.347  29.167  1.00  0.00     0.167 HD
ATOM     44  C   UNL A   1      45.697  29.289  28.262  1.00  0.00     0.037 A 
ATOM     45  C   UNL A   1      39.497  31.996  30.150  1.00  0.00     0.037 A 
ATOM     46  C   UNL A   1      45.744  30.641  28.752  1.00  0.00     0.049 A 
ATOM     47  C   UNL A   1      40.781  32.773  30.282  1.00  0.00     0.074 A 
ATOM     48  C   UNL A   1      46.843  31.470  28.887  1.00  0.00     0.029 A 
ATOM     49  N   UNL A   1      44.641  31.364  29.185  1.00  0.00    -0.354 N 
ATOM     50  N   UNL A   1      42.002  32.412  29.965  1.00  0.00    -0.248 NA
ATOM     51  C   UNL A   1      40.679  34.132  30.831  1.00  0.00     0.031 C 
ATOM     52  C   UNL A   1      46.413  32.678  29.447  1.00  0.00     0.029 A 
ATOM     53  C   UNL A   1      45.036  32.624  29.601  1.00  0.00     0.049 A 
ATOM     54  H   UNL A   1      43.716  31.030  29.195  1.00  0.00     0.167 HD
ATOM     55  C   UNL A   1      42.808  33.514  30.235  1.00  0.00     0.074 A 
ATOM     56  C   UNL A   1      41.931  34.555  30.734  1.00  0.00     0.031 C 
ATOM     57  C   UNL A   1      44.148  33.655  30.079  1.00  0.00     0.037 A 
BRANCH  44  58
ATOM     58  C   UNL A   1      46.988  28.619  27.870  1.00  0.00     0.058 A 
ATOM     59  C   UNL A   1      47.763  27.906  28.800  1.00  0.00     0.135 A 
ATOM     60  C   UNL A   1      47.444  28.667  26.543  1.00  0.00     0.135 A 
ATOM     61  F   UNL A   1      47.388  27.842  30.087  1.00  0.00    -0.206 F 
ATOM     62  C   UNL A   1      48.958  27.294  28.436  1.00  0.00     0.059 A 
ATOM     63  C   UNL A   1      48.619  28.033  26.148  1.00  0.00     0.059 A 
ATOM     64  F   UNL A   1      46.745  29.335  25.611  1.00  0.00    -0.206 F 
ATOM     65  C   UNL A   1      49.377  27.362  27.106  1.00  0.00     0.060 A 
BRANCH  65  66
ATOM     66  S   UNL A   1      50.925  26.553  26.650  1.00  0.00     0.124 S 
ATOM     67  O   UNL A   1      50.760  26.401  25.208  1.00  0.00    -0.237 OA
ATOM     68  O   UNL A   1      51.923  27.531  27.075  1.00  0.00    -0.237 OA
ATOM     69  O   UNL A   1      50.901  25.313  27.419  1.00  0.00    -0.744 OA
ENDBRANCH  65  66
ENDBRANCH  44  58
BRANCH  45  70
ATOM     70  C   UNL A   1      38.199  32.586  30.573  1.00  0.00     0.058 A 
ATOM     71  C   UNL A   1      37.762  32.500  31.904  1.00  0.00     0.135 A 
ATOM     72  C   UNL A   1      37.366  33.248  29.657  1.00  0.00     0.135 A 
ATOM     73  F   UNL A   1      38.518  31.873  32.818  1.00  0.00    -0.206 F 
ATOM     74  C   UNL A   1      36.540  33.027  32.307  1.00  0.00     0.059 A 
ATOM     75  C   UNL A   1      36.153  33.809  30.042  1.00  0.00     0.059 A 
ATOM     76  F   UNL A   1      37.744  33.375  28.375  1.00  0.00    -0.206 F 
ATOM     77  C   UNL A   1      35.741  33.681  31.369  1.00  0.00     0.060 A 
BRANCH  77  78
ATOM     78  S   UNL A   1      34.174  34.395  31.911  1.00  0.00     0.124 S 
ATOM     79  O   UNL A   1      33.479  34.577  30.641  1.00  0.00    -0.237 OA
ATOM     80  O   UNL A   1      33.648  33.350  32.784  1.00  0.00    -0.237 OA
ATOM     81  O   UNL A   1      34.580  35.623  32.589  1.00  0.00    -0.744 OA
ENDBRANCH  77  78
ENDBRANCH  45  70
BRANCH  57  82
ATOM     82  C   UNL A   1      44.744  35.002  30.389  1.00  0.00     0.058 A 
ATOM     83  C   UNL A   1      45.243  35.325  31.660  1.00  0.00     0.135 A 
ATOM     84  C   UNL A   1      44.840  35.976  29.381  1.00  0.00     0.135 A 
ATOM     85  F   UNL A   1      45.175  34.432  32.660  1.00  0.00    -0.206 F 
ATOM     86  C   UNL A   1      45.779  36.580  31.932  1.00  0.00     0.059 A 
ATOM     87  C   UNL A   1      45.404  37.225  29.621  1.00  0.00     0.059 A 
ATOM     88  F   UNL A   1      44.392  35.715  28.142  1.00  0.00    -0.206 F 
ATOM     89  C   UNL A   1      45.852  37.524  30.906  1.00  0.00     0.060 A 
BRANCH  89  90
ATOM     90  S   UNL A   1      46.551  39.147  31.270  1.00  0.00     0.124 S 
ATOM     91  O   UNL A   1      45.943  39.969  30.230  1.00  0.00    -0.237 OA
ATOM     92  O   UNL A   1      46.078  39.394  32.629  1.00  0.00    -0.237 OA
ATOM     93  O   UNL A   1      47.989  38.935  31.142  1.00  0.00    -0.744 OA
ENDBRANCH  89  90
ENDBRANCH  57  82
ENDBRANCH  31  32
ENDBRANCH  23  26
ENDBRANCH  21  22
ENDBRANCH   1  21
TORSDOF 16
ENDMDL
MODEL 2
REMARK VINA RESULT:     -10.1      4.276     10.517
REMARK SMILES C[NH2+][C@](C)(C(=O)NCCCCNC(=O)c1ccc(-c2c3nc(c(-c4c(F)cc(S(=O)(=O)[O-])cc4F)c4ccc([nH]4)c(-c4c(F)cc(S(=O)(=O)[O-])cc4F)c4nc(c(-c5c(F)cc(S(=O)(=O)[O-])cc5F)c5ccc2[nH]5)C=C4)C=C3)cc1)c1cccc(Cl)c1
REMARK SMILES IDX 10 1 9 2 8 3 7 4 5 5 6 6 3 8 4 9 2 10 1 11 81 14 82 15 87 16
REMARK SMILES IDX 83 17 85 18 84 19 86 20 11 21 12 22 13 23 14 25 15 26 16 27
REMARK SMILES IDX 80 28 17 29 79 30 18 31 19 32 20 33 73 34 21 35 78 36 72 37
REMARK SMILES IDX 74 38 22 39 77 40 71 41 70 42 23 44 57 45 36 46 56 47 37 48
REMARK SMILES IDX 40 49 55 50 75 51 38 52 39 53 54 55 76 56 41 57 24 58 25 59
REMARK SMILES IDX 34 60 26 61 27 62 33 63 35 64 28 65 29 66 30 67 31 68 32 69
REMARK SMILES IDX 58 70 59 71 68 72 60 73 61 74 67 75 69 76 62 77 63 78 64 79
REMARK SMILES IDX 65 80 66 81 42 82 43 83 52 84 44 85 45 86 51 87 53 88 46 89
REMARK SMILES IDX 47 90 48 91 49 92 50 93
REMARK H PARENT 7 7 2 12 2 13 12 24 74 43 40 54
REMARK Flexibility Score: inf
ROOT
ATOM      1  C   UNL A   1      32.943  27.793  25.652  1.00  0.00     0.023 C 
ENDROOT
BRANCH   1   2
ATOM      2  C   UNL A   1      33.496  27.567  24.247  1.00  0.00     0.023 C 
BRANCH   2   3
ATOM      3  C   UNL A   1      32.444  27.499  23.149  1.00  0.00     0.116 C 
BRANCH   3   4
ATOM      4  N   UNL A   1      32.903  26.804  21.964  1.00  0.00    -0.350 N 
ATOM      5  C   UNL A   1      32.846  25.488  21.583  1.00  0.00     0.285 C 
ATOM      6  O   UNL A   1      33.122  25.313  20.391  1.00  0.00    -0.267 OA
ATOM      7  H   UNL A   1      33.339  27.389  21.304  1.00  0.00     0.163 HD
BRANCH   5   8
ATOM      8  C   UNL A   1      32.423  24.315  22.583  1.00  0.00     0.198 C 
ATOM      9  C   UNL A   1      31.016  24.649  23.166  1.00  0.00     0.096 C 
BRANCH   8  10
ATOM     10  N   UNL A   1      32.593  23.032  21.839  1.00  0.00    -0.332 N 
ATOM     11  C   UNL A   1      32.150  21.783  22.409  1.00  0.00     0.332 C 
ATOM     12  H   UNL A   1      32.097  23.139  20.955  1.00  0.00     0.347 HD
ATOM     13  H   UNL A   1      33.607  22.921  21.811  1.00  0.00     0.347 HD
ENDBRANCH   8  10
BRANCH   8  14
ATOM     14  C   UNL A   1      33.339  24.153  23.857  1.00  0.00     0.023 A 
ATOM     15  C   UNL A   1      32.695  24.041  25.121  1.00  0.00     0.011 A 
ATOM     16  C   UNL A   1      34.740  24.076  23.859  1.00  0.00     0.031 A 
ATOM     17  C   UNL A   1      33.405  23.891  26.314  1.00  0.00     0.002 A 
ATOM     18  C   UNL A   1      35.450  23.913  25.058  1.00  0.00     0.041 A 
ATOM     19  C   UNL A   1      34.790  23.828  26.281  1.00  0.00     0.020 A 
ATOM     20  Cl  UNL A   1      37.170  23.813  25.028  1.00  0.00    -0.084 Cl
ENDBRANCH   8  14
ENDBRANCH   5   8
ENDBRANCH   3   4
ENDBRANCH   2   3
ENDBRANCH   1   2
BRANCH   1  21
ATOM     21  C   UNL A   1      33.970  28.222  26.692  1.00  0.00     0.116 C 
BRANCH  21  22
ATOM     22  N   UNL A   1      33.687  29.530  27.262  1.00  0.00    -0.352 N 
ATOM     23  C   UNL A   1      34.490  30.331  28.040  1.00  0.00     0.251 C 
ATOM     24  H   UNL A   1      32.794  29.894  27.062  1.00  0.00     0.163 HD
ATOM     25  O   UNL A   1      34.025  31.340  28.554  1.00  0.00    -0.269 OA
BRANCH  23  26
ATOM     26  C   UNL A   1      35.901  29.952  28.268  1.00  0.00     0.039 A 
ATOM     27  C   UNL A   1      36.821  30.116  27.230  1.00  0.00     0.014 A 
ATOM     28  C   UNL A   1      36.315  29.439  29.500  1.00  0.00     0.014 A 
ATOM     29  C   UNL A   1      38.164  29.799  27.445  1.00  0.00     0.010 A 
ATOM     30  C   UNL A   1      37.667  29.222  29.741  1.00  0.00     0.010 A 
ATOM     31  C   UNL A   1      38.602  29.369  28.709  1.00  0.00    -0.014 A 
BRANCH  31  32
ATOM     32  C   UNL A   1      40.023  29.004  28.945  1.00  0.00     0.031 A 
ATOM     33  C   UNL A   1      40.963  30.017  29.544  1.00  0.00     0.074 A 
ATOM     34  C   UNL A   1      40.473  27.784  28.593  1.00  0.00     0.049 A 
ATOM     35  N   UNL A   1      42.239  29.906  29.809  1.00  0.00    -0.248 NA
ATOM     36  C   UNL A   1      40.404  31.343  29.860  1.00  0.00     0.031 C 
ATOM     37  C   UNL A   1      39.673  26.736  27.954  1.00  0.00     0.029 A 
ATOM     38  N   UNL A   1      41.715  27.216  28.723  1.00  0.00    -0.354 N 
ATOM     39  C   UNL A   1      42.633  31.143  30.306  1.00  0.00     0.074 A 
ATOM     40  C   UNL A   1      41.481  32.013  30.238  1.00  0.00     0.031 C 
ATOM     41  C   UNL A   1      40.435  25.644  27.781  1.00  0.00     0.029 A 
ATOM     42  C   UNL A   1      41.784  25.923  28.262  1.00  0.00     0.049 A 
ATOM     43  H   UNL A   1      42.485  27.691  29.112  1.00  0.00     0.167 HD
ATOM     44  C   UNL A   1      43.835  31.515  30.807  1.00  0.00     0.037 A 
ATOM     45  C   UNL A   1      42.818  25.059  28.234  1.00  0.00     0.037 A 
ATOM     46  C   UNL A   1      44.970  30.634  30.898  1.00  0.00     0.049 A 
ATOM     47  C   UNL A   1      44.143  25.489  28.809  1.00  0.00     0.074 A 
ATOM     48  C   UNL A   1      46.219  30.892  31.433  1.00  0.00     0.029 A 
ATOM     49  N   UNL A   1      44.991  29.322  30.446  1.00  0.00    -0.354 N 
ATOM     50  N   UNL A   1      44.480  26.644  29.332  1.00  0.00    -0.248 NA
ATOM     51  C   UNL A   1      45.222  24.493  28.806  1.00  0.00     0.031 C 
ATOM     52  C   UNL A   1      47.013  29.753  31.260  1.00  0.00     0.029 A 
ATOM     53  C   UNL A   1      46.237  28.763  30.676  1.00  0.00     0.049 A 
ATOM     54  H   UNL A   1      44.233  28.858  30.023  1.00  0.00     0.167 HD
ATOM     55  C   UNL A   1      45.797  26.500  29.759  1.00  0.00     0.074 A 
ATOM     56  C   UNL A   1      46.188  25.142  29.439  1.00  0.00     0.031 C 
ATOM     57  C   UNL A   1      46.605  27.404  30.366  1.00  0.00     0.037 A 
BRANCH  44  58
ATOM     58  C   UNL A   1      43.979  32.930  31.302  1.00  0.00     0.058 A 
ATOM     59  C   UNL A   1      44.442  33.962  30.468  1.00  0.00     0.135 A 
ATOM     60  C   UNL A   1      43.626  33.266  32.619  1.00  0.00     0.135 A 
ATOM     61  F   UNL A   1      44.813  33.697  29.205  1.00  0.00    -0.206 F 
ATOM     62  C   UNL A   1      44.580  35.266  30.930  1.00  0.00     0.059 A 
ATOM     63  C   UNL A   1      43.723  34.571  33.093  1.00  0.00     0.059 A 
ATOM     64  F   UNL A   1      43.179  32.320  33.462  1.00  0.00    -0.206 F 
ATOM     65  C   UNL A   1      44.216  35.561  32.245  1.00  0.00     0.060 A 
BRANCH  65  66
ATOM     66  S   UNL A   1      44.392  37.262  32.824  1.00  0.00     0.124 S 
ATOM     67  O   UNL A   1      45.797  37.290  33.220  1.00  0.00    -0.237 OA
ATOM     68  O   UNL A   1      44.053  38.033  31.632  1.00  0.00    -0.237 OA
ATOM     69  O   UNL A   1      43.430  37.350  33.919  1.00  0.00    -0.744 OA
ENDBRANCH  65  66
ENDBRANCH  44  58
BRANCH  45  70
ATOM     70  C   UNL A   1      42.634  23.690  27.680  1.00  0.00     0.058 A 
ATOM     71  C   UNL A   1      42.455  22.584  28.525  1.00  0.00     0.135 A 
ATOM     72  C   UNL A   1      42.631  23.458  26.296  1.00  0.00     0.135 A 
ATOM     73  F   UNL A   1      42.455  22.750  29.856  1.00  0.00    -0.206 F 
ATOM     74  C   UNL A   1      42.306  21.296  28.021  1.00  0.00     0.059 A 
ATOM     75  C   UNL A   1      42.453  22.184  25.766  1.00  0.00     0.059 A 
ATOM     76  F   UNL A   1      42.778  24.484  25.442  1.00  0.00    -0.206 F 
ATOM     77  C   UNL A   1      42.305  21.106  26.638  1.00  0.00     0.060 A 
BRANCH  77  78
ATOM     78  S   UNL A   1      42.071  19.435  25.993  1.00  0.00     0.124 S 
ATOM     79  O   UNL A   1      42.938  19.450  24.820  1.00  0.00    -0.237 OA
ATOM     80  O   UNL A   1      42.520  18.611  27.111  1.00  0.00    -0.237 OA
ATOM     81  O   UNL A   1      40.638  19.379  25.718  1.00  0.00    -0.744 OA
ENDBRANCH  77  78
ENDBRANCH  45  70
BRANCH  57  82
ATOM     82  C   UNL A   1      47.974  26.938  30.784  1.00  0.00     0.058 A 
ATOM     83  C   UNL A   1      49.107  27.124  29.977  1.00  0.00     0.135 A 
ATOM     84  C   UNL A   1      48.155  26.320  32.033  1.00  0.00     0.135 A 
ATOM     85  F   UNL A   1      48.991  27.708  28.774  1.00  0.00    -0.206 F 
ATOM     86  C   UNL A   1      50.363  26.675  30.374  1.00  0.00     0.059 A 
ATOM     87  C   UNL A   1      49.407  25.895  32.465  1.00  0.00     0.059 A 
ATOM     88  F   UNL A   1      47.108  26.131  32.853  1.00  0.00    -0.206 F 
ATOM     89  C   UNL A   1      50.501  26.059  31.619  1.00  0.00     0.060 A 
BRANCH  89  90
ATOM     90  S   UNL A   1      52.136  25.484  32.124  1.00  0.00     0.124 S 
ATOM     91  O   UNL A   1      52.944  25.843  30.964  1.00  0.00    -0.237 OA
ATOM     92  O   UNL A   1      52.382  26.263  33.333  1.00  0.00    -0.237 OA
ATOM     93  O   UNL A   1      51.943  24.053  32.335  1.00  0.00    -0.744 OA
ENDBRANCH  89  90
ENDBRANCH  57  82
ENDBRANCH  31  32
ENDBRANCH  23  26
ENDBRANCH  21  22
ENDBRANCH   1  21
TORSDOF 16
ENDMDL
MODEL 3
REMARK VINA RESULT:     -10.0      5.374     11.180
REMARK SMILES C[NH2+][C@](C)(C(=O)NCCCCNC(=O)c1ccc(-c2c3nc(c(-c4c(F)cc(S(=O)(=O)[O-])cc4F)c4ccc([nH]4)c(-c4c(F)cc(S(=O)(=O)[O-])cc4F)c4nc(c(-c5c(F)cc(S(=O)(=O)[O-])cc5F)c5ccc2[nH]5)C=C4)C=C3)cc1)c1cccc(Cl)c1
REMARK SMILES IDX 10 1 9 2 8 3 7 4 5 5 6 6 3 8 4 9 2 10 1 11 81 14 82 15 87 16
REMARK SMILES IDX 83 17 85 18 84 19 86 20 11 21 12 22 13 23 14 25 15 26 16 27
REMARK SMILES IDX 80 28 17 29 79 30 18 31 19 32 20 33 73 34 21 35 78 36 72 37
REMARK SMILES IDX 74 38 22 39 77 40 71 41 70 42 23 44 57 45 36 46 56 47 37 48
REMARK SMILES IDX 40 49 55 50 75 51 38 52 39 53 54 55 76 56 41 57 24 58 25 59
REMARK SMILES IDX 34 60 26 61 27 62 33 63 35 64 28 65 29 66 30 67 31 68 32 69
REMARK SMILES IDX 58 70 59 71 68 72 60 73 61 74 67 75 69 76 62 77 63 78 64 79
REMARK SMILES IDX 65 80 66 81 42 82 43 83 52 84 44 85 45 86 51 87 53 88 46 89
REMARK SMILES IDX 47 90 48 91 49 92 50 93
REMARK H PARENT 7 7 2 12 2 13 12 24 74 43 40 54
REMARK Flexibility Score: inf
ROOT
ATOM      1  C   UNL A   1      34.084  27.605  24.898  1.00  0.00     0.023 C 
ENDROOT
BRANCH   1   2
ATOM      2  C   UNL A   1      33.198  28.404  23.946  1.00  0.00     0.023 C 
BRANCH   2   3
ATOM      3  C   UNL A   1      32.193  27.573  23.159  1.00  0.00     0.116 C 
BRANCH   3   4
ATOM      4  N   UNL A   1      32.773  26.928  22.000  1.00  0.00    -0.350 N 
ATOM      5  C   UNL A   1      32.836  25.616  21.607  1.00  0.00     0.285 C 
ATOM      6  O   UNL A   1      33.195  25.475  20.432  1.00  0.00    -0.267 OA
ATOM      7  H   UNL A   1      33.204  27.551  21.372  1.00  0.00     0.163 HD
BRANCH   5   8
ATOM      8  C   UNL A   1      32.440  24.403  22.569  1.00  0.00     0.198 C 
ATOM      9  C   UNL A   1      31.018  24.678  23.147  1.00  0.00     0.096 C 
BRANCH   8  10
ATOM     10  N   UNL A   1      32.657  23.147  21.793  1.00  0.00    -0.332 N 
ATOM     11  C   UNL A   1      32.216  21.874  22.309  1.00  0.00     0.332 C 
ATOM     12  H   UNL A   1      32.189  23.274  20.897  1.00  0.00     0.347 HD
ATOM     13  H   UNL A   1      33.673  23.053  21.796  1.00  0.00     0.347 HD
ENDBRANCH   8  10
BRANCH   8  14
ATOM     14  C   UNL A   1      33.349  24.234  23.848  1.00  0.00     0.023 A 
ATOM     15  C   UNL A   1      32.701  24.182  25.114  1.00  0.00     0.011 A 
ATOM     16  C   UNL A   1      34.745  24.098  23.853  1.00  0.00     0.031 A 
ATOM     17  C   UNL A   1      33.405  24.032  26.311  1.00  0.00     0.002 A 
ATOM     18  C   UNL A   1      35.448  23.935  25.056  1.00  0.00     0.041 A 
ATOM     19  C   UNL A   1      34.785  23.910  26.280  1.00  0.00     0.020 A 
ATOM     20  Cl  UNL A   1      37.162  23.761  25.029  1.00  0.00    -0.084 Cl
ENDBRANCH   8  14
ENDBRANCH   5   8
ENDBRANCH   3   4
ENDBRANCH   2   3
ENDBRANCH   1   2
BRANCH   1  21
ATOM     21  C   UNL A   1      34.007  28.024  26.360  1.00  0.00     0.116 C 
BRANCH  21  22
ATOM     22  N   UNL A   1      33.658  29.426  26.531  1.00  0.00    -0.352 N 
ATOM     23  C   UNL A   1      34.279  30.391  27.288  1.00  0.00     0.251 C 
ATOM     24  H   UNL A   1      32.863  29.726  26.032  1.00  0.00     0.163 HD
ATOM     25  O   UNL A   1      33.752  31.487  27.426  1.00  0.00    -0.269 OA
BRANCH  23  26
ATOM     26  C   UNL A   1      35.566  30.086  27.949  1.00  0.00     0.039 A 
ATOM     27  C   UNL A   1      35.559  29.671  29.282  1.00  0.00     0.014 A 
ATOM     28  C   UNL A   1      36.773  30.206  27.257  1.00  0.00     0.014 A 
ATOM     29  C   UNL A   1      36.763  29.341  29.907  1.00  0.00     0.010 A 
ATOM     30  C   UNL A   1      37.957  29.780  27.849  1.00  0.00     0.010 A 
ATOM     31  C   UNL A   1      37.971  29.373  29.190  1.00  0.00    -0.014 A 
BRANCH  31  32
ATOM     32  C   UNL A   1      39.263  29.050  29.848  1.00  0.00     0.031 A 
ATOM     33  C   UNL A   1      39.689  29.818  31.072  1.00  0.00     0.074 A 
ATOM     34  C   UNL A   1      40.063  28.097  29.331  1.00  0.00     0.049 A 
ATOM     35  N   UNL A   1      40.784  29.706  31.779  1.00  0.00    -0.248 NA
ATOM     36  C   UNL A   1      38.779  30.873  31.549  1.00  0.00     0.031 C 
ATOM     37  C   UNL A   1      39.787  27.323  28.118  1.00  0.00     0.029 A 
ATOM     38  N   UNL A   1      41.274  27.615  29.760  1.00  0.00    -0.354 N 
ATOM     39  C   UNL A   1      40.698  30.680  32.768  1.00  0.00     0.074 A 
ATOM     40  C   UNL A   1      39.481  31.422  32.527  1.00  0.00     0.031 C 
ATOM     41  C   UNL A   1      40.781  26.441  27.922  1.00  0.00     0.029 A 
ATOM     42  C   UNL A   1      41.781  26.610  28.972  1.00  0.00     0.049 A 
ATOM     43  H   UNL A   1      41.736  27.958  30.559  1.00  0.00     0.167 HD
ATOM     44  C   UNL A   1      41.537  30.915  33.804  1.00  0.00     0.037 A 
ATOM     45  C   UNL A   1      42.922  25.901  29.084  1.00  0.00     0.037 A 
ATOM     46  C   UNL A   1      42.732  30.154  34.054  1.00  0.00     0.049 A 
ATOM     47  C   UNL A   1      43.834  26.171  30.253  1.00  0.00     0.074 A 
ATOM     48  C   UNL A   1      43.628  30.275  35.101  1.00  0.00     0.029 A 
ATOM     49  N   UNL A   1      43.197  29.124  33.248  1.00  0.00    -0.354 N 
ATOM     50  N   UNL A   1      43.707  27.056  31.214  1.00  0.00    -0.248 NA
ATOM     51  C   UNL A   1      45.037  25.335  30.362  1.00  0.00     0.031 C 
ATOM     52  C   UNL A   1      44.661  29.352  34.903  1.00  0.00     0.029 A 
ATOM     53  C   UNL A   1      44.374  28.612  33.767  1.00  0.00     0.049 A 
ATOM     54  H   UNL A   1      42.756  28.805  32.428  1.00  0.00     0.167 HD
ATOM     55  C   UNL A   1      44.789  26.853  32.065  1.00  0.00     0.074 A 
ATOM     56  C   UNL A   1      45.555  25.758  31.506  1.00  0.00     0.031 C 
ATOM     57  C   UNL A   1      45.116  27.509  33.206  1.00  0.00     0.037 A 
BRANCH  44  58
ATOM     58  C   UNL A   1      41.186  32.035  34.748  1.00  0.00     0.058 A 
ATOM     59  C   UNL A   1      41.670  33.341  34.559  1.00  0.00     0.135 A 
ATOM     60  C   UNL A   1      40.333  31.808  35.840  1.00  0.00     0.135 A 
ATOM     61  F   UNL A   1      42.505  33.613  33.543  1.00  0.00    -0.206 F 
ATOM     62  C   UNL A   1      41.349  34.371  35.436  1.00  0.00     0.059 A 
ATOM     63  C   UNL A   1      39.971  32.831  36.711  1.00  0.00     0.059 A 
ATOM     64  F   UNL A   1      39.841  30.580  36.071  1.00  0.00    -0.206 F 
ATOM     65  C   UNL A   1      40.496  34.107  36.509  1.00  0.00     0.060 A 
BRANCH  65  66
ATOM     66  S   UNL A   1      40.082  35.459  37.632  1.00  0.00     0.124 S 
ATOM     67  O   UNL A   1      38.912  34.920  38.317  1.00  0.00    -0.237 OA
ATOM     68  O   UNL A   1      41.293  35.574  38.439  1.00  0.00    -0.237 OA
ATOM     69  O   UNL A   1      39.822  36.579  36.733  1.00  0.00    -0.744 OA
ENDBRANCH  65  66
ENDBRANCH  44  58
BRANCH  45  70
ATOM     70  C   UNL A   1      43.247  24.844  28.089  1.00  0.00     0.058 A 
ATOM     71  C   UNL A   1      43.905  25.156  26.889  1.00  0.00     0.135 A 
ATOM     72  C   UNL A   1      42.907  23.501  28.314  1.00  0.00     0.135 A 
ATOM     73  F   UNL A   1      44.248  26.425  26.622  1.00  0.00    -0.206 F 
ATOM     74  C   UNL A   1      44.194  24.181  25.940  1.00  0.00     0.059 A 
ATOM     75  C   UNL A   1      43.211  22.503  27.394  1.00  0.00     0.059 A 
ATOM     76  F   UNL A   1      42.293  23.146  29.454  1.00  0.00    -0.206 F 
ATOM     77  C   UNL A   1      43.844  22.856  26.201  1.00  0.00     0.060 A 
BRANCH  77  78
ATOM     78  S   UNL A   1      44.257  21.592  24.979  1.00  0.00     0.124 S 
ATOM     79  O   UNL A   1      43.225  20.592  25.231  1.00  0.00    -0.237 OA
ATOM     80  O   UNL A   1      44.139  22.330  23.726  1.00  0.00    -0.237 OA
ATOM     81  O   UNL A   1      45.616  21.203  25.344  1.00  0.00    -0.744 OA
ENDBRANCH  77  78
ENDBRANCH  45  70
BRANCH  57  82
ATOM     82  C   UNL A   1      46.319  27.019  33.966  1.00  0.00     0.058 A 
ATOM     83  C   UNL A   1      47.605  27.537  33.746  1.00  0.00     0.135 A 
ATOM     84  C   UNL A   1      46.172  26.030  34.954  1.00  0.00     0.135 A 
ATOM     85  F   UNL A   1      47.802  28.482  32.813  1.00  0.00    -0.206 F 
ATOM     86  C   UNL A   1      48.709  27.063  34.449  1.00  0.00     0.059 A 
ATOM     87  C   UNL A   1      47.256  25.567  35.693  1.00  0.00     0.059 A 
ATOM     88  F   UNL A   1      44.962  25.511  35.217  1.00  0.00    -0.206 F 
ATOM     89  C   UNL A   1      48.523  26.075  35.418  1.00  0.00     0.060 A 
BRANCH  89  90
ATOM     90  S   UNL A   1      49.962  25.470  36.324  1.00  0.00     0.124 S 
ATOM     91  O   UNL A   1      50.692  24.763  35.278  1.00  0.00    -0.237 OA
ATOM     92  O   UNL A   1      50.575  26.706  36.800  1.00  0.00    -0.237 OA
ATOM     93  O   UNL A   1      49.380  24.626  37.363  1.00  0.00    -0.744 OA
ENDBRANCH  89  90
ENDBRANCH  57  82
ENDBRANCH  31  32
ENDBRANCH  23  26
ENDBRANCH  21  22
ENDBRANCH   1  21
TORSDOF 16
ENDMDL
