MODEL 1
REMARK VINA RESULT:     -12.0      0.000      0.000
REMARK SMILES Cc1cc2c(c(C)c1Cl)C=C(C(=O)NCCCCNC(=O)c1ccc(-c3c4nc(c(-c5c(F)cc(S(=O)(=O)[O-])cc5F)c5ccc([nH]5)c(-c5c(F)cc(S(=O)(=O)[O-])cc5F)c5nc(c(-c6c(F)cc(S(=O)(=O)[O-])cc6F)c6ccc3[nH]6)C=C5)C=C4)cc1)[C@@H](C(F)(F)F)O2
REMARK SMILES IDX 17 1 16 2 15 3 14 4 12 5 13 6 11 8 1 9 2 10 3 11 8 12 4 13
REMARK SMILES IDX 6 14 9 15 5 16 93 17 7 18 10 19 88 20 89 21 90 22 91 23
REMARK SMILES IDX 92 24 18 25 19 26 20 27 21 29 22 30 23 31 87 32 24 33 86 34
REMARK SMILES IDX 25 35 26 36 27 37 80 38 28 39 85 40 79 41 81 42 29 43 84 44
REMARK SMILES IDX 78 45 77 46 30 48 64 49 43 50 63 51 44 52 47 53 62 54 82 55
REMARK SMILES IDX 45 56 46 57 61 59 83 60 48 61 31 62 32 63 41 64 33 65 34 66
REMARK SMILES IDX 40 67 42 68 35 69 36 70 37 71 38 72 39 73 65 74 66 75 75 76
REMARK SMILES IDX 67 77 68 78 74 79 76 80 69 81 70 82 71 83 72 84 73 85 49 86
REMARK SMILES IDX 50 87 59 88 51 89 52 90 58 91 60 92 53 93 54 94 55 95 56 96
REMARK SMILES IDX 57 97
REMARK H PARENT 14 7 19 28 81 47 47 58
REMARK Flexibility Score: inf
ROOT
ATOM      1  C   UNL A   1      33.570  28.483  25.543  1.00  0.00     0.023 C 
ENDROOT
BRANCH   1   2
ATOM      2  C   UNL A   1      33.659  27.099  24.895  1.00  0.00     0.023 C 
BRANCH   2   3
ATOM      3  C   UNL A   1      32.311  26.508  24.494  1.00  0.00     0.116 C 
BRANCH   3   4
ATOM      4  N   UNL A   1      31.663  25.831  25.604  1.00  0.00    -0.352 N 
ATOM      5  C   UNL A   1      31.733  24.619  26.199  1.00  0.00     0.251 C 
ATOM      6  O   UNL A   1      30.963  24.456  27.151  1.00  0.00    -0.270 OA
ATOM      7  H   UNL A   1      30.997  26.410  26.039  1.00  0.00     0.163 HD
BRANCH   5   8
ATOM      8  C   UNL A   1      32.649  23.507  25.799  1.00  0.00     0.067 C 
ATOM      9  C   UNL A   1      37.590  19.398  24.729  1.00  0.00     0.046 C 
ATOM     10  C   UNL A   1      36.703  20.565  25.070  1.00  0.00    -0.028 A 
ATOM     11  C   UNL A   1      35.319  20.401  24.951  1.00  0.00     0.052 A 
ATOM     12  C   UNL A   1      37.203  21.791  25.554  1.00  0.00     0.047 A 
ATOM     13  C   UNL A   1      34.453  21.437  25.279  1.00  0.00     0.128 A 
ATOM     14  C   UNL A   1      36.331  22.860  25.880  1.00  0.00    -0.021 A 
ATOM     15  Cl  UNL A   1      38.921  21.956  25.770  1.00  0.00    -0.084 Cl
ATOM     16  C   UNL A   1      34.935  22.662  25.750  1.00  0.00     0.022 A 
ATOM     17  O   UNL A   1      33.123  21.153  25.157  1.00  0.00    -0.475 OA
ATOM     18  C   UNL A   1      36.852  24.186  26.383  1.00  0.00     0.047 C 
ATOM     19  C   UNL A   1      33.942  23.671  26.133  1.00  0.00     0.026 C 
ATOM     20  C   UNL A   1      32.224  22.289  25.037  1.00  0.00     0.314 C 
BRANCH  20  21
ATOM     21  C   UNL A   1      31.963  22.575  23.547  1.00  0.00     0.429 C 
ATOM     22  F   UNL A   1      30.768  23.197  23.387  1.00  0.00    -0.167 F 
ATOM     23  F   UNL A   1      32.896  23.391  23.003  1.00  0.00    -0.167 F 
ATOM     24  F   UNL A   1      31.935  21.450  22.799  1.00  0.00    -0.167 F 
ENDBRANCH  20  21
ENDBRANCH   5   8
ENDBRANCH   3   4
ENDBRANCH   2   3
ENDBRANCH   1   2
BRANCH   1  25
ATOM     25  C   UNL A   1      33.830  28.524  27.048  1.00  0.00     0.116 C 
BRANCH  25  26
ATOM     26  N   UNL A   1      33.709  29.853  27.630  1.00  0.00    -0.352 N 
ATOM     27  C   UNL A   1      34.670  30.576  28.297  1.00  0.00     0.251 C 
ATOM     28  H   UNL A   1      32.831  30.288  27.533  1.00  0.00     0.163 HD
ATOM     29  O   UNL A   1      34.398  31.662  28.797  1.00  0.00    -0.269 OA
BRANCH  27  30
ATOM     30  C   UNL A   1      36.018  29.996  28.440  1.00  0.00     0.039 A 
ATOM     31  C   UNL A   1      36.911  30.102  27.373  1.00  0.00     0.014 A 
ATOM     32  C   UNL A   1      36.415  29.422  29.652  1.00  0.00     0.014 A 
ATOM     33  C   UNL A   1      38.234  29.699  27.547  1.00  0.00     0.010 A 
ATOM     34  C   UNL A   1      37.747  29.073  29.841  1.00  0.00     0.010 A 
ATOM     35  C   UNL A   1      38.669  29.218  28.793  1.00  0.00    -0.014 A 
BRANCH  35  36
ATOM     36  C   UNL A   1      40.091  28.868  29.019  1.00  0.00     0.031 A 
ATOM     37  C   UNL A   1      41.024  29.877  29.622  1.00  0.00     0.074 A 
ATOM     38  C   UNL A   1      40.548  27.661  28.633  1.00  0.00     0.049 A 
ATOM     39  N   UNL A   1      42.308  29.780  29.850  1.00  0.00    -0.248 NA
ATOM     40  C   UNL A   1      40.440  31.175  30.000  1.00  0.00     0.031 C 
ATOM     41  C   UNL A   1      39.743  26.613  28.000  1.00  0.00     0.029 A 
ATOM     42  N   UNL A   1      41.802  27.109  28.717  1.00  0.00    -0.354 N 
ATOM     43  C   UNL A   1      42.687  31.001  30.390  1.00  0.00     0.074 A 
ATOM     44  C   UNL A   1      41.510  31.842  30.409  1.00  0.00     0.031 C 
ATOM     45  C   UNL A   1      40.515  25.536  27.783  1.00  0.00     0.029 A 
ATOM     46  C   UNL A   1      41.873  25.824  28.234  1.00  0.00     0.049 A 
ATOM     47  H   UNL A   1      42.576  27.589  29.089  1.00  0.00     0.167 HD
ATOM     48  C   UNL A   1      43.902  31.379  30.854  1.00  0.00     0.037 A 
ATOM     49  C   UNL A   1      42.916  24.974  28.169  1.00  0.00     0.037 A 
ATOM     50  C   UNL A   1      45.063  30.530  30.856  1.00  0.00     0.049 A 
ATOM     51  C   UNL A   1      44.255  25.416  28.686  1.00  0.00     0.074 A 
ATOM     52  C   UNL A   1      46.329  30.806  31.339  1.00  0.00     0.029 A 
ATOM     53  N   UNL A   1      45.096  29.236  30.358  1.00  0.00    -0.354 N 
ATOM     54  N   UNL A   1      44.591  26.565  29.225  1.00  0.00    -0.248 NA
ATOM     55  C   UNL A   1      45.361  24.452  28.586  1.00  0.00     0.031 C 
ATOM     56  C   UNL A   1      47.136  29.684  31.113  1.00  0.00     0.029 A 
ATOM     57  C   UNL A   1      46.363  28.702  30.514  1.00  0.00     0.049 A 
ATOM     58  H   UNL A   1      44.331  28.767  29.954  1.00  0.00     0.167 HD
ATOM     59  C   UNL A   1      45.939  26.456  29.543  1.00  0.00     0.074 A 
ATOM     60  C   UNL A   1      46.357  25.127  29.145  1.00  0.00     0.031 C 
ATOM     61  C   UNL A   1      46.756  27.375  30.113  1.00  0.00     0.037 A 
BRANCH  48  62
ATOM     62  C   UNL A   1      44.022  32.766  31.413  1.00  0.00     0.058 A 
ATOM     63  C   UNL A   1      43.722  33.036  32.758  1.00  0.00     0.135 A 
ATOM     64  C   UNL A   1      44.450  33.832  30.607  1.00  0.00     0.135 A 
ATOM     65  F   UNL A   1      43.291  32.054  33.564  1.00  0.00    -0.206 F 
ATOM     66  C   UNL A   1      43.814  34.322  33.278  1.00  0.00     0.059 A 
ATOM     67  C   UNL A   1      44.570  35.124  31.113  1.00  0.00     0.059 A 
ATOM     68  F   UNL A   1      44.744  33.627  29.314  1.00  0.00    -0.206 F 
ATOM     69  C   UNL A   1      44.235  35.361  32.445  1.00  0.00     0.060 A 
BRANCH  69  70
ATOM     70  S   UNL A   1      44.340  37.026  33.133  1.00  0.00     0.124 S 
ATOM     71  O   UNL A   1      43.590  36.875  34.375  1.00  0.00    -0.237 OA
ATOM     72  O   UNL A   1      45.780  37.215  33.282  1.00  0.00    -0.237 OA
ATOM     73  O   UNL A   1      43.706  37.855  32.113  1.00  0.00    -0.744 OA
ENDBRANCH  69  70
ENDBRANCH  48  62
BRANCH  49  74
ATOM     74  C   UNL A   1      42.719  23.604  27.630  1.00  0.00     0.058 A 
ATOM     75  C   UNL A   1      42.864  23.351  26.259  1.00  0.00     0.135 A 
ATOM     76  C   UNL A   1      42.419  22.522  28.470  1.00  0.00     0.135 A 
ATOM     77  F   UNL A   1      43.147  24.358  25.417  1.00  0.00    -0.206 F 
ATOM     78  C   UNL A   1      42.715  22.072  25.735  1.00  0.00     0.059 A 
ATOM     79  C   UNL A   1      42.281  21.229  27.972  1.00  0.00     0.059 A 
ATOM     80  F   UNL A   1      42.286  22.712  29.792  1.00  0.00    -0.206 F 
ATOM     81  C   UNL A   1      42.428  21.015  26.601  1.00  0.00     0.060 A 
BRANCH  81  82
ATOM     82  S   UNL A   1      42.303  19.347  25.920  1.00  0.00     0.124 S 
ATOM     83  O   UNL A   1      43.096  19.467  24.702  1.00  0.00    -0.237 OA
ATOM     84  O   UNL A   1      42.888  18.537  26.986  1.00  0.00    -0.237 OA
ATOM     85  O   UNL A   1      40.867  19.171  25.728  1.00  0.00    -0.744 OA
ENDBRANCH  81  82
ENDBRANCH  49  74
BRANCH  61  86
ATOM     86  C   UNL A   1      48.183  26.978  30.350  1.00  0.00     0.058 A 
ATOM     87  C   UNL A   1      49.194  27.317  29.438  1.00  0.00     0.135 A 
ATOM     88  C   UNL A   1      48.554  26.326  31.536  1.00  0.00     0.135 A 
ATOM     89  F   UNL A   1      48.887  27.934  28.287  1.00  0.00    -0.206 F 
ATOM     90  C   UNL A   1      50.528  27.022  29.695  1.00  0.00     0.059 A 
ATOM     91  C   UNL A   1      49.885  26.037  31.822  1.00  0.00     0.059 A 
ATOM     92  F   UNL A   1      47.622  25.987  32.441  1.00  0.00    -0.206 F 
ATOM     93  C   UNL A   1      50.864  26.386  30.892  1.00  0.00     0.060 A 
BRANCH  93  94
ATOM     94  S   UNL A   1      52.606  26.065  31.242  1.00  0.00     0.124 S 
ATOM     95  O   UNL A   1      52.950  27.205  32.085  1.00  0.00    -0.237 OA
ATOM     96  O   UNL A   1      52.560  24.770  31.913  1.00  0.00    -0.237 OA
ATOM     97  O   UNL A   1      53.222  26.056  29.917  1.00  0.00    -0.744 OA
ENDBRANCH  93  94
ENDBRANCH  61  86
ENDBRANCH  35  36
ENDBRANCH  27  30
ENDBRANCH  25  26
ENDBRANCH   1  25
TORSDOF 15
ENDMDL
MODEL 2
REMARK VINA RESULT:     -11.6      3.268      9.567
REMARK SMILES Cc1cc2c(c(C)c1Cl)C=C(C(=O)NCCCCNC(=O)c1ccc(-c3c4nc(c(-c5c(F)cc(S(=O)(=O)[O-])cc5F)c5ccc([nH]5)c(-c5c(F)cc(S(=O)(=O)[O-])cc5F)c5nc(c(-c6c(F)cc(S(=O)(=O)[O-])cc6F)c6ccc3[nH]6)C=C5)C=C4)cc1)[C@@H](C(F)(F)F)O2
REMARK SMILES IDX 17 1 16 2 15 3 14 4 12 5 13 6 11 8 1 9 2 10 3 11 8 12 4 13
REMARK SMILES IDX 6 14 9 15 5 16 93 17 7 18 10 19 88 20 89 21 90 22 91 23
REMARK SMILES IDX 92 24 18 25 19 26 20 27 21 29 22 30 23 31 87 32 24 33 86 34
REMARK SMILES IDX 25 35 26 36 27 37 80 38 28 39 85 40 79 41 81 42 29 43 84 44
REMARK SMILES IDX 78 45 77 46 30 48 64 49 43 50 63 51 44 52 47 53 62 54 82 55
REMARK SMILES IDX 45 56 46 57 61 59 83 60 48 61 31 62 32 63 41 64 33 65 34 66
REMARK SMILES IDX 40 67 42 68 35 69 36 70 37 71 38 72 39 73 65 74 66 75 75 76
REMARK SMILES IDX 67 77 68 78 74 79 76 80 69 81 70 82 71 83 72 84 73 85 49 86
REMARK SMILES IDX 50 87 59 88 51 89 52 90 58 91 60 92 53 93 54 94 55 95 56 96
REMARK SMILES IDX 57 97
REMARK H PARENT 14 7 19 28 81 47 47 58
REMARK Flexibility Score: inf
ROOT
ATOM      1  C   UNL A   1      35.484  22.970  25.919  1.00  0.00     0.023 C 
ENDROOT
BRANCH   1   2
ATOM      2  C   UNL A   1      34.213  23.798  26.126  1.00  0.00     0.023 C 
BRANCH   2   3
ATOM      3  C   UNL A   1      33.113  23.522  25.105  1.00  0.00     0.116 C 
BRANCH   3   4
ATOM      4  N   UNL A   1      33.454  24.032  23.789  1.00  0.00    -0.352 N 
ATOM      5  C   UNL A   1      33.312  25.195  23.113  1.00  0.00     0.251 C 
ATOM      6  O   UNL A   1      33.761  25.191  21.961  1.00  0.00    -0.270 OA
ATOM      7  H   UNL A   1      33.909  23.350  23.245  1.00  0.00     0.163 HD
BRANCH   5   8
ATOM      8  C   UNL A   1      32.678  26.438  23.647  1.00  0.00     0.067 C 
ATOM      9  C   UNL A   1      31.152  32.072  26.542  1.00  0.00     0.046 C 
ATOM     10  C   UNL A   1      31.782  30.785  26.082  1.00  0.00    -0.028 A 
ATOM     11  C   UNL A   1      31.146  30.063  25.067  1.00  0.00     0.052 A 
ATOM     12  C   UNL A   1      33.007  30.309  26.589  1.00  0.00     0.047 A 
ATOM     13  C   UNL A   1      31.699  28.882  24.585  1.00  0.00     0.128 A 
ATOM     14  C   UNL A   1      33.577  29.100  26.116  1.00  0.00    -0.021 A 
ATOM     15  Cl  UNL A   1      33.827  31.256  27.796  1.00  0.00    -0.084 Cl
ATOM     16  C   UNL A   1      32.909  28.392  25.087  1.00  0.00     0.022 A 
ATOM     17  O   UNL A   1      31.010  28.280  23.572  1.00  0.00    -0.475 OA
ATOM     18  C   UNL A   1      34.881  28.567  26.661  1.00  0.00     0.047 C 
ATOM     19  C   UNL A   1      33.447  27.175  24.470  1.00  0.00     0.026 C 
ATOM     20  C   UNL A   1      31.271  26.866  23.358  1.00  0.00     0.314 C 
BRANCH  20  21
ATOM     21  C   UNL A   1      30.225  26.036  24.122  1.00  0.00     0.429 C 
ATOM     22  F   UNL A   1      30.031  24.840  23.510  1.00  0.00    -0.167 F 
ATOM     23  F   UNL A   1      30.604  25.760  25.391  1.00  0.00    -0.167 F 
ATOM     24  F   UNL A   1      29.023  26.651  24.192  1.00  0.00    -0.167 F 
ENDBRANCH  20  21
ENDBRANCH   5   8
ENDBRANCH   3   4
ENDBRANCH   2   3
ENDBRANCH   1   2
BRANCH   1  25
ATOM     25  C   UNL A   1      36.780  23.771  25.800  1.00  0.00     0.116 C 
BRANCH  25  26
ATOM     26  N   UNL A   1      37.978  22.946  25.756  1.00  0.00    -0.352 N 
ATOM     27  C   UNL A   1      39.228  23.242  26.248  1.00  0.00     0.251 C 
ATOM     28  H   UNL A   1      37.883  22.069  25.320  1.00  0.00     0.163 HD
ATOM     29  O   UNL A   1      40.166  22.472  26.073  1.00  0.00    -0.269 OA
BRANCH  27  30
ATOM     30  C   UNL A   1      39.426  24.524  26.948  1.00  0.00     0.039 A 
ATOM     31  C   UNL A   1      38.965  24.652  28.259  1.00  0.00     0.014 A 
ATOM     32  C   UNL A   1      40.134  25.562  26.333  1.00  0.00     0.014 A 
ATOM     33  C   UNL A   1      39.281  25.799  28.986  1.00  0.00     0.010 A 
ATOM     34  C   UNL A   1      40.494  26.680  27.077  1.00  0.00     0.010 A 
ATOM     35  C   UNL A   1      40.079  26.802  28.412  1.00  0.00    -0.014 A 
BRANCH  35  36
ATOM     36  C   UNL A   1      40.496  27.986  29.199  1.00  0.00     0.031 A 
ATOM     37  C   UNL A   1      41.855  28.021  29.837  1.00  0.00     0.074 A 
ATOM     38  C   UNL A   1      39.631  29.003  29.380  1.00  0.00     0.049 A 
ATOM     39  N   UNL A   1      42.381  28.940  30.604  1.00  0.00    -0.248 NA
ATOM     40  C   UNL A   1      42.728  26.860  29.598  1.00  0.00     0.031 C 
ATOM     41  C   UNL A   1      38.269  29.062  28.842  1.00  0.00     0.029 A 
ATOM     42  N   UNL A   1      39.767  30.183  30.067  1.00  0.00    -0.354 N 
ATOM     43  C   UNL A   1      43.642  28.468  30.944  1.00  0.00     0.074 A 
ATOM     44  C   UNL A   1      43.782  27.159  30.344  1.00  0.00     0.031 C 
ATOM     45  C   UNL A   1      37.709  30.232  29.192  1.00  0.00     0.029 A 
ATOM     46  C   UNL A   1      38.657  30.992  30.000  1.00  0.00     0.049 A 
ATOM     47  H   UNL A   1      40.583  30.428  30.559  1.00  0.00     0.167 HD
ATOM     48  C   UNL A   1      44.606  29.082  31.670  1.00  0.00     0.037 A 
ATOM     49  C   UNL A   1      38.434  32.211  30.528  1.00  0.00     0.037 A 
ATOM     50  C   UNL A   1      44.472  30.393  32.243  1.00  0.00     0.049 A 
ATOM     51  C   UNL A   1      39.517  32.871  31.332  1.00  0.00     0.074 A 
ATOM     52  C   UNL A   1      45.404  31.118  32.962  1.00  0.00     0.029 A 
ATOM     53  N   UNL A   1      43.333  31.180  32.154  1.00  0.00    -0.354 N 
ATOM     54  N   UNL A   1      40.718  32.424  31.618  1.00  0.00    -0.248 NA
ATOM     55  C   UNL A   1      39.219  34.198  31.890  1.00  0.00     0.031 C 
ATOM     56  C   UNL A   1      44.822  32.337  33.328  1.00  0.00     0.029 A 
ATOM     57  C   UNL A   1      43.536  32.380  32.813  1.00  0.00     0.049 A 
ATOM     58  H   UNL A   1      42.503  30.923  31.691  1.00  0.00     0.167 HD
ATOM     59  C   UNL A   1      41.324  33.420  32.373  1.00  0.00     0.074 A 
ATOM     60  C   UNL A   1      40.362  34.498  32.494  1.00  0.00     0.031 C 
ATOM     61  C   UNL A   1      42.564  33.440  32.918  1.00  0.00     0.037 A 
BRANCH  48  62
ATOM     62  C   UNL A   1      45.897  28.340  31.862  1.00  0.00     0.058 A 
ATOM     63  C   UNL A   1      46.965  28.494  30.964  1.00  0.00     0.135 A 
ATOM     64  C   UNL A   1      46.075  27.478  32.956  1.00  0.00     0.135 A 
ATOM     65  F   UNL A   1      46.837  29.291  29.892  1.00  0.00    -0.206 F 
ATOM     66  C   UNL A   1      48.156  27.796  31.127  1.00  0.00     0.059 A 
ATOM     67  C   UNL A   1      47.268  26.787  33.150  1.00  0.00     0.059 A 
ATOM     68  F   UNL A   1      45.083  27.293  33.840  1.00  0.00    -0.206 F 
ATOM     69  C   UNL A   1      48.296  26.940  32.221  1.00  0.00     0.060 A 
BRANCH  69  70
ATOM     70  S   UNL A   1      49.845  26.035  32.413  1.00  0.00     0.124 S 
ATOM     71  O   UNL A   1      50.827  27.071  32.107  1.00  0.00    -0.237 OA
ATOM     72  O   UNL A   1      49.790  25.609  33.809  1.00  0.00    -0.237 OA
ATOM     73  O   UNL A   1      49.736  24.963  31.430  1.00  0.00    -0.744 OA
ENDBRANCH  69  70
ENDBRANCH  48  62
BRANCH  49  74
ATOM     74  C   UNL A   1      37.144  32.901  30.272  1.00  0.00     0.058 A 
ATOM     75  C   UNL A   1      36.088  32.800  31.191  1.00  0.00     0.135 A 
ATOM     76  C   UNL A   1      36.950  33.696  29.134  1.00  0.00     0.135 A 
ATOM     77  F   UNL A   1      36.228  32.046  32.292  1.00  0.00    -0.206 F 
ATOM     78  C   UNL A   1      34.882  33.462  30.989  1.00  0.00     0.059 A 
ATOM     79  C   UNL A   1      35.758  34.382  28.917  1.00  0.00     0.059 A 
ATOM     80  F   UNL A   1      37.936  33.835  28.234  1.00  0.00    -0.206 F 
ATOM     81  C   UNL A   1      34.728  34.254  29.850  1.00  0.00     0.060 A 
BRANCH  81  82
ATOM     82  S   UNL A   1      33.183  35.163  29.631  1.00  0.00     0.124 S 
ATOM     83  O   UNL A   1      32.556  34.421  28.543  1.00  0.00    -0.237 OA
ATOM     84  O   UNL A   1      32.556  35.023  30.943  1.00  0.00    -0.237 OA
ATOM     85  O   UNL A   1      33.631  36.512  29.301  1.00  0.00    -0.744 OA
ENDBRANCH  81  82
ENDBRANCH  49  74
BRANCH  61  86
ATOM     86  C   UNL A   1      42.962  34.665  33.688  1.00  0.00     0.058 A 
ATOM     87  C   UNL A   1      42.900  34.696  35.089  1.00  0.00     0.135 A 
ATOM     88  C   UNL A   1      43.487  35.784  33.024  1.00  0.00     0.135 A 
ATOM     89  F   UNL A   1      42.398  33.652  35.766  1.00  0.00    -0.206 F 
ATOM     90  C   UNL A   1      43.344  35.800  35.808  1.00  0.00     0.059 A 
ATOM     91  C   UNL A   1      43.954  36.893  33.724  1.00  0.00     0.059 A 
ATOM     92  F   UNL A   1      43.573  35.798  31.684  1.00  0.00    -0.206 F 
ATOM     93  C   UNL A   1      43.875  36.892  35.117  1.00  0.00     0.060 A 
BRANCH  93  94
ATOM     94  S   UNL A   1      44.507  38.291  36.066  1.00  0.00     0.124 S 
ATOM     95  O   UNL A   1      44.153  39.414  35.203  1.00  0.00    -0.237 OA
ATOM     96  O   UNL A   1      43.758  38.189  37.314  1.00  0.00    -0.237 OA
ATOM     97  O   UNL A   1      45.935  38.009  36.175  1.00  0.00    -0.744 OA
ENDBRANCH  93  94
ENDBRANCH  61  86
ENDBRANCH  35  36
ENDBRANCH  27  30
ENDBRANCH  25  26
ENDBRANCH   1  25
TORSDOF 15
ENDMDL
MODEL 3
REMARK VINA RESULT:     -11.5      3.265      4.307
REMARK SMILES Cc1cc2c(c(C)c1Cl)C=C(C(=O)NCCCCNC(=O)c1ccc(-c3c4nc(c(-c5c(F)cc(S(=O)(=O)[O-])cc5F)c5ccc([nH]5)c(-c5c(F)cc(S(=O)(=O)[O-])cc5F)c5nc(c(-c6c(F)cc(S(=O)(=O)[O-])cc6F)c6ccc3[nH]6)C=C5)C=C4)cc1)[C@@H](C(F)(F)F)O2
REMARK SMILES IDX 17 1 16 2 15 3 14 4 12 5 13 6 11 8 1 9 2 10 3 11 8 12 4 13
REMARK SMILES IDX 6 14 9 15 5 16 93 17 7 18 10 19 88 20 89 21 90 22 91 23
REMARK SMILES IDX 92 24 18 25 19 26 20 27 21 29 22 30 23 31 87 32 24 33 86 34
REMARK SMILES IDX 25 35 26 36 27 37 80 38 28 39 85 40 79 41 81 42 29 43 84 44
REMARK SMILES IDX 78 45 77 46 30 48 64 49 43 50 63 51 44 52 47 53 62 54 82 55
REMARK SMILES IDX 45 56 46 57 61 59 83 60 48 61 31 62 32 63 41 64 33 65 34 66
REMARK SMILES IDX 40 67 42 68 35 69 36 70 37 71 38 72 39 73 65 74 66 75 75 76
REMARK SMILES IDX 67 77 68 78 74 79 76 80 69 81 70 82 71 83 72 84 73 85 49 86
REMARK SMILES IDX 50 87 59 88 51 89 52 90 58 91 60 92 53 93 54 94 55 95 56 96
REMARK SMILES IDX 57 97
REMARK H PARENT 14 7 19 28 81 47 47 58
REMARK Flexibility Score: inf
ROOT
ATOM      1  C   UNL A   1      33.862  28.521  27.267  1.00  0.00     0.023 C 
ENDROOT
BRANCH   1   2
ATOM      2  C   UNL A   1      32.586  29.338  27.048  1.00  0.00     0.023 C 
BRANCH   2   3
ATOM      3  C   UNL A   1      32.672  30.337  25.898  1.00  0.00     0.116 C 
BRANCH   3   4
ATOM      4  N   UNL A   1      31.429  30.414  25.151  1.00  0.00    -0.352 N 
ATOM      5  C   UNL A   1      30.744  29.630  24.288  1.00  0.00     0.251 C 
ATOM      6  O   UNL A   1      29.685  30.109  23.869  1.00  0.00    -0.270 OA
ATOM      7  H   UNL A   1      30.960  31.263  25.318  1.00  0.00     0.163 HD
BRANCH   5   8
ATOM      8  C   UNL A   1      31.165  28.271  23.829  1.00  0.00     0.067 C 
ATOM      9  C   UNL A   1      32.227  21.913  22.882  1.00  0.00     0.046 C 
ATOM     10  C   UNL A   1      31.860  23.274  23.408  1.00  0.00    -0.028 A 
ATOM     11  C   UNL A   1      32.066  24.382  22.579  1.00  0.00     0.052 A 
ATOM     12  C   UNL A   1      31.267  23.472  24.671  1.00  0.00     0.047 A 
ATOM     13  C   UNL A   1      31.720  25.659  23.005  1.00  0.00     0.128 A 
ATOM     14  C   UNL A   1      30.920  24.771  25.123  1.00  0.00    -0.021 A 
ATOM     15  Cl  UNL A   1      30.943  22.079  25.661  1.00  0.00    -0.084 Cl
ATOM     16  C   UNL A   1      31.142  25.872  24.260  1.00  0.00     0.022 A 
ATOM     17  O   UNL A   1      31.936  26.659  22.101  1.00  0.00    -0.475 OA
ATOM     18  C   UNL A   1      30.300  25.002  26.481  1.00  0.00     0.047 C 
ATOM     19  C   UNL A   1      30.748  27.245  24.594  1.00  0.00     0.026 C 
ATOM     20  C   UNL A   1      32.030  28.008  22.634  1.00  0.00     0.314 C 
BRANCH  20  21
ATOM     21  C   UNL A   1      33.509  28.356  22.877  1.00  0.00     0.429 C 
ATOM     22  F   UNL A   1      34.281  27.870  21.872  1.00  0.00    -0.167 F 
ATOM     23  F   UNL A   1      33.730  29.690  22.920  1.00  0.00    -0.167 F 
ATOM     24  F   UNL A   1      33.982  27.838  24.033  1.00  0.00    -0.167 F 
ENDBRANCH  20  21
ENDBRANCH   5   8
ENDBRANCH   3   4
ENDBRANCH   2   3
ENDBRANCH   1   2
BRANCH   1  25
ATOM     25  C   UNL A   1      35.139  29.335  27.468  1.00  0.00     0.116 C 
BRANCH  25  26
ATOM     26  N   UNL A   1      35.164  30.091  28.712  1.00  0.00    -0.352 N 
ATOM     27  C   UNL A   1      36.225  30.279  29.567  1.00  0.00     0.251 C 
ATOM     28  H   UNL A   1      34.318  30.520  28.973  1.00  0.00     0.163 HD
ATOM     29  O   UNL A   1      36.076  30.886  30.622  1.00  0.00    -0.269 OA
BRANCH  27  30
ATOM     30  C   UNL A   1      37.531  29.694  29.212  1.00  0.00     0.039 A 
ATOM     31  C   UNL A   1      37.969  29.784  27.890  1.00  0.00     0.014 A 
ATOM     32  C   UNL A   1      38.345  29.132  30.200  1.00  0.00     0.014 A 
ATOM     33  C   UNL A   1      39.264  29.376  27.570  1.00  0.00     0.010 A 
ATOM     34  C   UNL A   1      39.653  28.778  29.890  1.00  0.00     0.010 A 
ATOM     35  C   UNL A   1      40.126  28.907  28.575  1.00  0.00    -0.014 A 
BRANCH  35  36
ATOM     36  C   UNL A   1      41.531  28.553  28.267  1.00  0.00     0.031 A 
ATOM     37  C   UNL A   1      42.596  29.611  28.304  1.00  0.00     0.074 A 
ATOM     38  C   UNL A   1      41.835  27.291  27.906  1.00  0.00     0.049 A 
ATOM     39  N   UNL A   1      43.867  29.510  28.016  1.00  0.00    -0.248 NA
ATOM     40  C   UNL A   1      42.170  30.965  28.696  1.00  0.00     0.031 C 
ATOM     41  C   UNL A   1      40.877  26.187  27.797  1.00  0.00     0.029 A 
ATOM     42  N   UNL A   1      43.036  26.722  27.564  1.00  0.00    -0.354 N 
ATOM     43  C   UNL A   1      44.392  30.785  28.185  1.00  0.00     0.074 A 
ATOM     44  C   UNL A   1      43.293  31.652  28.550  1.00  0.00     0.031 C 
ATOM     45  C   UNL A   1      41.534  25.069  27.446  1.00  0.00     0.029 A 
ATOM     46  C   UNL A   1      42.950  25.380  27.278  1.00  0.00     0.049 A 
ATOM     47  H   UNL A   1      43.880  27.227  27.528  1.00  0.00     0.167 HD
ATOM     48  C   UNL A   1      45.679  31.189  28.072  1.00  0.00     0.037 A 
ATOM     49  C   UNL A   1      43.907  24.501  26.926  1.00  0.00     0.037 A 
ATOM     50  C   UNL A   1      46.772  30.318  27.735  1.00  0.00     0.049 A 
ATOM     51  C   UNL A   1      45.328  24.974  26.804  1.00  0.00     0.074 A 
ATOM     52  C   UNL A   1      48.117  30.623  27.634  1.00  0.00     0.029 A 
ATOM     53  N   UNL A   1      46.644  28.966  27.452  1.00  0.00    -0.354 N 
ATOM     54  N   UNL A   1      45.814  26.177  26.998  1.00  0.00    -0.248 NA
ATOM     55  C   UNL A   1      46.332  23.974  26.411  1.00  0.00     0.031 C 
ATOM     56  C   UNL A   1      48.802  29.459  27.267  1.00  0.00     0.029 A 
ATOM     57  C   UNL A   1      47.885  28.424  27.167  1.00  0.00     0.049 A 
ATOM     58  H   UNL A   1      45.796  28.466  27.454  1.00  0.00     0.167 HD
ATOM     59  C   UNL A   1      47.180  26.076  26.769  1.00  0.00     0.074 A 
ATOM     60  C   UNL A   1      47.447  24.693  26.429  1.00  0.00     0.031 C 
ATOM     61  C   UNL A   1      48.128  27.043  26.834  1.00  0.00     0.037 A 
BRANCH  48  62
ATOM     62  C   UNL A   1      45.968  32.638  28.338  1.00  0.00     0.058 A 
ATOM     63  C   UNL A   1      45.937  33.588  27.304  1.00  0.00     0.135 A 
ATOM     64  C   UNL A   1      46.267  33.086  29.634  1.00  0.00     0.135 A 
ATOM     65  F   UNL A   1      45.675  33.205  26.044  1.00  0.00    -0.206 F 
ATOM     66  C   UNL A   1      46.221  34.928  27.540  1.00  0.00     0.059 A 
ATOM     67  C   UNL A   1      46.532  34.427  29.897  1.00  0.00     0.059 A 
ATOM     68  F   UNL A   1      46.314  32.218  30.656  1.00  0.00    -0.206 F 
ATOM     69  C   UNL A   1      46.522  35.337  28.840  1.00  0.00     0.060 A 
BRANCH  69  70
ATOM     70  S   UNL A   1      46.898  37.078  29.129  1.00  0.00     0.124 S 
ATOM     71  O   UNL A   1      47.355  37.500  27.808  1.00  0.00    -0.237 OA
ATOM     72  O   UNL A   1      45.606  37.613  29.551  1.00  0.00    -0.237 OA
ATOM     73  O   UNL A   1      47.924  37.037  30.165  1.00  0.00    -0.744 OA
ENDBRANCH  69  70
ENDBRANCH  48  62
BRANCH  49  74
ATOM     74  C   UNL A   1      43.555  23.074  26.707  1.00  0.00     0.058 A 
ATOM     75  C   UNL A   1      43.189  22.258  27.787  1.00  0.00     0.135 A 
ATOM     76  C   UNL A   1      43.544  22.510  25.423  1.00  0.00     0.135 A 
ATOM     77  F   UNL A   1      43.190  22.754  29.034  1.00  0.00    -0.206 F 
ATOM     78  C   UNL A   1      42.826  20.928  27.603  1.00  0.00     0.059 A 
ATOM     79  C   UNL A   1      43.169  21.186  25.212  1.00  0.00     0.059 A 
ATOM     80  F   UNL A   1      43.873  23.256  24.358  1.00  0.00    -0.206 F 
ATOM     81  C   UNL A   1      42.815  20.402  26.310  1.00  0.00     0.060 A 
BRANCH  81  82
ATOM     82  S   UNL A   1      42.277  18.694  26.075  1.00  0.00     0.124 S 
ATOM     83  O   UNL A   1      43.167  18.249  25.010  1.00  0.00    -0.237 OA
ATOM     84  O   UNL A   1      42.518  18.113  27.394  1.00  0.00    -0.237 OA
ATOM     85  O   UNL A   1      40.871  18.834  25.710  1.00  0.00    -0.744 OA
ENDBRANCH  81  82
ENDBRANCH  49  74
BRANCH  61  86
ATOM     86  C   UNL A   1      49.544  26.644  26.540  1.00  0.00     0.058 A 
ATOM     87  C   UNL A   1      50.363  26.088  27.534  1.00  0.00     0.135 A 
ATOM     88  C   UNL A   1      50.057  26.742  25.238  1.00  0.00     0.135 A 
ATOM     89  F   UNL A   1      49.919  25.980  28.795  1.00  0.00    -0.206 F 
ATOM     90  C   UNL A   1      51.649  25.642  27.245  1.00  0.00     0.059 A 
ATOM     91  C   UNL A   1      51.334  26.287  24.923  1.00  0.00     0.059 A 
ATOM     92  F   UNL A   1      49.307  27.262  24.253  1.00  0.00    -0.206 F 
ATOM     93  C   UNL A   1      52.123  25.742  25.935  1.00  0.00     0.060 A 
BRANCH  93  94
ATOM     94  S   UNL A   1      53.769  25.101  25.561  1.00  0.00     0.124 S 
ATOM     95  O   UNL A   1      54.498  25.437  26.779  1.00  0.00    -0.237 OA
ATOM     96  O   UNL A   1      53.513  23.681  25.346  1.00  0.00    -0.237 OA
ATOM     97  O   UNL A   1      54.161  25.848  24.368  1.00  0.00    -0.744 OA
ENDBRANCH  93  94
ENDBRANCH  61  86
ENDBRANCH  35  36
ENDBRANCH  27  30
ENDBRANCH  25  26
ENDBRANCH   1  25
TORSDOF 15
ENDMDL
