MODEL 1
REMARK VINA RESULT:     -12.2      0.000      0.000
REMARK SMILES Cc1c(Cc2ccccc2)c(=O)oc2c(C)c(O[C@H](C)C(=O)NCCCCNC(=O)c3ccc(-c4c5nc(c(-c6c(F)cc(S(=O)(=O)[O-])cc6F)c6ccc([nH]6)c(-c6c(F)cc(S(=O)(=O)[O-])cc6F)c6nc(c(-c7c(F)cc(S(=O)(=O)[O-])cc7F)c7ccc4[nH]7)C=C6)C=C5)cc3)ccc12
REMARK SMILES IDX 25 1 24 2 23 3 21 4 22 5 19 7 20 8 18 9 17 10 1 11 2 12 3 13
REMARK SMILES IDX 99 14 11 15 14 16 98 17 12 18 13 19 15 20 97 21 16 22 4 23
REMARK SMILES IDX 5 24 6 25 10 26 7 27 9 28 8 29 26 30 27 31 28 32 29 33 30 35
REMARK SMILES IDX 31 36 32 37 96 38 33 39 95 40 34 41 35 42 36 43 89 44 37 45
REMARK SMILES IDX 94 46 88 47 90 48 38 49 93 50 87 51 86 52 39 54 73 55 52 56
REMARK SMILES IDX 72 57 53 58 56 59 71 60 91 61 54 62 55 63 70 65 92 66 57 67
REMARK SMILES IDX 40 68 41 69 50 70 42 71 43 72 49 73 51 74 44 75 45 76 46 77
REMARK SMILES IDX 47 78 48 79 74 80 75 81 84 82 76 83 77 84 83 85 85 86 78 87
REMARK SMILES IDX 79 88 80 89 81 90 82 91 58 92 59 93 68 94 60 95 61 96 67 97
REMARK SMILES IDX 69 98 62 99 63 100 64 101 65 102 66 103
REMARK H PARENT 23 6 28 34 90 53 56 64
REMARK Flexibility Score: inf
ROOT
ATOM      1  C   UNL A   1      35.091  22.000  26.752  1.00  0.00     0.023 C 
ENDROOT
BRANCH   1   2
ATOM      2  C   UNL A   1      33.679  21.666  27.231  1.00  0.00     0.116 C 
BRANCH   2   3
ATOM      3  N   UNL A   1      33.283  20.319  26.864  1.00  0.00    -0.353 N 
ATOM      4  C   UNL A   1      32.805  19.836  25.678  1.00  0.00     0.260 C 
ATOM      5  O   UNL A   1      32.521  18.636  25.623  1.00  0.00    -0.271 OA
ATOM      6  H   UNL A   1      33.372  19.650  27.580  1.00  0.00     0.163 HD
BRANCH   4   7
ATOM      7  C   UNL A   1      32.612  20.748  24.450  1.00  0.00     0.258 C 
ATOM      8  C   UNL A   1      32.472  19.905  23.190  1.00  0.00     0.064 C 
BRANCH   7   9
ATOM      9  O   UNL A   1      31.473  21.541  24.734  1.00  0.00    -0.480 OA
BRANCH   9  10
ATOM     10  C   UNL A   1      31.413  22.893  24.825  1.00  0.00     0.127 A 
ATOM     11  C   UNL A   1      32.184  27.738  23.086  1.00  0.00     0.046 C 
ATOM     12  C   UNL A   1      31.869  27.167  24.444  1.00  0.00    -0.029 A 
ATOM     13  C   UNL A   1      31.697  27.908  25.562  1.00  0.00     0.046 A 
ATOM     14  C   UNL A   1      31.749  25.703  24.537  1.00  0.00     0.021 A 
ATOM     15  C   UNL A   1      31.221  27.271  26.821  1.00  0.00     0.340 A 
ATOM     16  C   UNL A   1      31.106  25.136  25.635  1.00  0.00     0.145 A 
ATOM     17  C   UNL A   1      32.253  24.836  23.576  1.00  0.00     0.016 A 
ATOM     18  O   UNL A   1      31.155  27.883  27.881  1.00  0.00    -0.246 OA
ATOM     19  O   UNL A   1      30.746  25.972  26.718  1.00  0.00    -0.422 OA
ATOM     20  C   UNL A   1      30.842  23.747  25.773  1.00  0.00     0.035 A 
ATOM     21  C   UNL A   1      32.108  23.458  23.739  1.00  0.00     0.047 A 
ATOM     22  C   UNL A   1      30.007  23.342  26.952  1.00  0.00     0.052 C 
BRANCH  13  23
ATOM     23  C   UNL A   1      31.920  29.402  25.660  1.00  0.00     0.079 C 
BRANCH  23  24
ATOM     24  C   UNL A   1      33.131  29.761  26.499  1.00  0.00    -0.043 A 
ATOM     25  C   UNL A   1      34.275  28.951  26.483  1.00  0.00     0.004 A 
ATOM     26  C   UNL A   1      33.149  30.933  27.270  1.00  0.00     0.004 A 
ATOM     27  C   UNL A   1      35.409  29.310  27.216  1.00  0.00     0.000 A 
ATOM     28  C   UNL A   1      34.287  31.299  27.989  1.00  0.00     0.000 A 
ATOM     29  C   UNL A   1      35.417  30.487  27.963  1.00  0.00     0.000 A 
ENDBRANCH  23  24
ENDBRANCH  13  23
ENDBRANCH   9  10
ENDBRANCH   7   9
ENDBRANCH   4   7
ENDBRANCH   2   3
ENDBRANCH   1   2
BRANCH   1  30
ATOM     30  C   UNL A   1      35.238  23.374  26.097  1.00  0.00     0.023 C 
BRANCH  30  31
ATOM     31  C   UNL A   1      36.668  23.777  25.761  1.00  0.00     0.116 C 
BRANCH  31  32
ATOM     32  N   UNL A   1      37.621  22.702  25.988  1.00  0.00    -0.352 N 
ATOM     33  C   UNL A   1      38.909  22.801  26.457  1.00  0.00     0.251 C 
ATOM     34  H   UNL A   1      37.305  21.793  25.782  1.00  0.00     0.163 HD
ATOM     35  O   UNL A   1      39.643  21.822  26.486  1.00  0.00    -0.269 OA
BRANCH  33  36
ATOM     36  C   UNL A   1      39.396  24.121  26.899  1.00  0.00     0.039 A 
ATOM     37  C   UNL A   1      39.355  24.437  28.259  1.00  0.00     0.014 A 
ATOM     38  C   UNL A   1      39.945  25.010  25.970  1.00  0.00     0.014 A 
ATOM     39  C   UNL A   1      39.919  25.634  28.699  1.00  0.00     0.010 A 
ATOM     40  C   UNL A   1      40.547  26.182  26.417  1.00  0.00     0.010 A 
ATOM     41  C   UNL A   1      40.536  26.502  27.783  1.00  0.00    -0.014 A 
BRANCH  41  42
ATOM     42  C   UNL A   1      41.143  27.776  28.233  1.00  0.00     0.031 A 
ATOM     43  C   UNL A   1      42.631  27.954  28.141  1.00  0.00     0.074 A 
ATOM     44  C   UNL A   1      40.366  28.746  28.752  1.00  0.00     0.049 A 
ATOM     45  N   UNL A   1      43.366  28.963  28.528  1.00  0.00    -0.248 NA
ATOM     46  C   UNL A   1      43.396  26.842  27.551  1.00  0.00     0.031 C 
ATOM     47  C   UNL A   1      38.912  28.672  28.912  1.00  0.00     0.029 A 
ATOM     48  N   UNL A   1      40.693  29.981  29.249  1.00  0.00    -0.354 N 
ATOM     49  C   UNL A   1      44.676  28.612  28.225  1.00  0.00     0.074 A 
ATOM     50  C   UNL A   1      44.642  27.276  27.672  1.00  0.00     0.031 C 
ATOM     51  C   UNL A   1      38.471  29.821  29.453  1.00  0.00     0.029 A 
ATOM     52  C   UNL A   1      39.611  30.700  29.701  1.00  0.00     0.049 A 
ATOM     53  H   UNL A   1      41.615  30.323  29.279  1.00  0.00     0.167 HD
ATOM     54  C   UNL A   1      45.800  29.350  28.369  1.00  0.00     0.037 A 
ATOM     55  C   UNL A   1      39.550  31.928  30.253  1.00  0.00     0.037 A 
ATOM     56  C   UNL A   1      45.826  30.684  28.902  1.00  0.00     0.049 A 
ATOM     57  C   UNL A   1      40.822  32.715  30.431  1.00  0.00     0.074 A 
ATOM     58  C   UNL A   1      46.913  31.525  29.065  1.00  0.00     0.029 A 
ATOM     59  N   UNL A   1      44.711  31.376  29.353  1.00  0.00    -0.354 N 
ATOM     60  N   UNL A   1      42.049  32.380  30.110  1.00  0.00    -0.248 NA
ATOM     61  C   UNL A   1      40.701  34.045  31.043  1.00  0.00     0.031 C 
ATOM     62  C   UNL A   1      46.458  32.717  29.638  1.00  0.00     0.029 A 
ATOM     63  C   UNL A   1      45.085  32.629  29.802  1.00  0.00     0.049 A 
ATOM     64  H   UNL A   1      43.791  31.026  29.352  1.00  0.00     0.167 HD
ATOM     65  C   UNL A   1      42.842  33.466  30.459  1.00  0.00     0.074 A 
ATOM     66  C   UNL A   1      41.957  34.472  31.010  1.00  0.00     0.031 C 
ATOM     67  C   UNL A   1      44.184  33.619  30.335  1.00  0.00     0.037 A 
BRANCH  54  68
ATOM     68  C   UNL A   1      47.094  28.737  27.917  1.00  0.00     0.058 A 
ATOM     69  C   UNL A   1      47.513  28.833  26.581  1.00  0.00     0.135 A 
ATOM     70  C   UNL A   1      47.942  28.091  28.829  1.00  0.00     0.135 A 
ATOM     71  F   UNL A   1      46.727  29.421  25.666  1.00  0.00    -0.206 F 
ATOM     72  C   UNL A   1      48.725  28.297  26.161  1.00  0.00     0.059 A 
ATOM     73  C   UNL A   1      49.169  27.567  28.435  1.00  0.00     0.059 A 
ATOM     74  F   UNL A   1      47.582  27.967  30.116  1.00  0.00    -0.206 F 
ATOM     75  C   UNL A   1      49.548  27.669  27.096  1.00  0.00     0.060 A 
BRANCH  75  76
ATOM     76  S   UNL A   1      51.130  27.003  26.539  1.00  0.00     0.124 S 
ATOM     77  O   UNL A   1      51.702  26.521  27.794  1.00  0.00    -0.237 OA
ATOM     78  O   UNL A   1      50.717  25.970  25.594  1.00  0.00    -0.237 OA
ATOM     79  O   UNL A   1      51.798  28.158  25.949  1.00  0.00    -0.744 OA
ENDBRANCH  75  76
ENDBRANCH  54  68
BRANCH  55  80
ATOM     80  C   UNL A   1      38.242  32.505  30.654  1.00  0.00     0.058 A 
ATOM     81  C   UNL A   1      37.446  33.190  29.724  1.00  0.00     0.135 A 
ATOM     82  C   UNL A   1      37.764  32.392  31.968  1.00  0.00     0.135 A 
ATOM     83  F   UNL A   1      37.865  33.329  28.457  1.00  0.00    -0.206 F 
ATOM     84  C   UNL A   1      36.230  33.760  30.085  1.00  0.00     0.059 A 
ATOM     85  C   UNL A   1      36.543  32.937  32.350  1.00  0.00     0.059 A 
ATOM     86  F   UNL A   1      38.484  31.735  32.891  1.00  0.00    -0.206 F 
ATOM     87  C   UNL A   1      35.787  33.630  31.403  1.00  0.00     0.060 A 
BRANCH  87  88
ATOM     88  S   UNL A   1      34.192  34.346  31.854  1.00  0.00     0.124 S 
ATOM     89  O   UNL A   1      33.658  33.330  32.753  1.00  0.00    -0.237 OA
ATOM     90  O   UNL A   1      34.586  35.606  32.478  1.00  0.00    -0.237 OA
ATOM     91  O   UNL A   1      33.509  34.478  30.571  1.00  0.00    -0.744 OA
ENDBRANCH  87  88
ENDBRANCH  55  80
BRANCH  67  92
ATOM     92  C   UNL A   1      44.777  34.924  30.779  1.00  0.00     0.058 A 
ATOM     93  C   UNL A   1      44.883  36.013  29.903  1.00  0.00     0.135 A 
ATOM     94  C   UNL A   1      45.167  35.110  32.115  1.00  0.00     0.135 A 
ATOM     95  F   UNL A   1      44.528  35.882  28.614  1.00  0.00    -0.206 F 
ATOM     96  C   UNL A   1      45.364  37.245  30.333  1.00  0.00     0.059 A 
ATOM     97  C   UNL A   1      45.632  36.339  32.572  1.00  0.00     0.059 A 
ATOM     98  F   UNL A   1      45.076  34.099  32.993  1.00  0.00    -0.206 F 
ATOM     99  C   UNL A   1      45.731  37.399  31.672  1.00  0.00     0.060 A 
BRANCH  99 100
ATOM    100  S   UNL A   1      46.299  39.018  32.232  1.00  0.00     0.124 S 
ATOM    101  O   UNL A   1      47.320  38.651  33.207  1.00  0.00    -0.237 OA
ATOM    102  O   UNL A   1      46.791  39.621  30.997  1.00  0.00    -0.237 OA
ATOM    103  O   UNL A   1      45.093  39.630  32.783  1.00  0.00    -0.744 OA
ENDBRANCH  99 100
ENDBRANCH  67  92
ENDBRANCH  41  42
ENDBRANCH  33  36
ENDBRANCH  31  32
ENDBRANCH  30  31
ENDBRANCH   1  30
TORSDOF 18
ENDMDL
MODEL 2
REMARK VINA RESULT:     -12.2      4.689      5.973
REMARK SMILES Cc1c(Cc2ccccc2)c(=O)oc2c(C)c(O[C@H](C)C(=O)NCCCCNC(=O)c3ccc(-c4c5nc(c(-c6c(F)cc(S(=O)(=O)[O-])cc6F)c6ccc([nH]6)c(-c6c(F)cc(S(=O)(=O)[O-])cc6F)c6nc(c(-c7c(F)cc(S(=O)(=O)[O-])cc7F)c7ccc4[nH]7)C=C6)C=C5)cc3)ccc12
REMARK SMILES IDX 25 1 24 2 23 3 21 4 22 5 19 7 20 8 18 9 17 10 1 11 2 12 3 13
REMARK SMILES IDX 99 14 11 15 14 16 98 17 12 18 13 19 15 20 97 21 16 22 4 23
REMARK SMILES IDX 5 24 6 25 10 26 7 27 9 28 8 29 26 30 27 31 28 32 29 33 30 35
REMARK SMILES IDX 31 36 32 37 96 38 33 39 95 40 34 41 35 42 36 43 89 44 37 45
REMARK SMILES IDX 94 46 88 47 90 48 38 49 93 50 87 51 86 52 39 54 73 55 52 56
REMARK SMILES IDX 72 57 53 58 56 59 71 60 91 61 54 62 55 63 70 65 92 66 57 67
REMARK SMILES IDX 40 68 41 69 50 70 42 71 43 72 49 73 51 74 44 75 45 76 46 77
REMARK SMILES IDX 47 78 48 79 74 80 75 81 84 82 76 83 77 84 83 85 85 86 78 87
REMARK SMILES IDX 79 88 80 89 81 90 82 91 58 92 59 93 68 94 60 95 61 96 67 97
REMARK SMILES IDX 69 98 62 99 63 100 64 101 65 102 66 103
REMARK H PARENT 23 6 28 34 90 53 56 64
REMARK Flexibility Score: inf
ROOT
ATOM      1  C   UNL A   1      37.997  23.668  26.368  1.00  0.00     0.023 C 
ENDROOT
BRANCH   1   2
ATOM      2  C   UNL A   1      36.892  22.926  25.619  1.00  0.00     0.116 C 
BRANCH   2   3
ATOM      3  N   UNL A   1      35.900  22.369  26.521  1.00  0.00    -0.353 N 
ATOM      4  C   UNL A   1      34.837  21.550  26.261  1.00  0.00     0.260 C 
ATOM      5  O   UNL A   1      34.122  21.223  27.212  1.00  0.00    -0.271 OA
ATOM      6  H   UNL A   1      36.010  22.620  27.466  1.00  0.00     0.163 HD
BRANCH   4   7
ATOM      7  C   UNL A   1      34.525  21.056  24.835  1.00  0.00     0.258 C 
ATOM      8  C   UNL A   1      34.505  19.534  24.801  1.00  0.00     0.064 C 
BRANCH   7   9
ATOM      9  O   UNL A   1      33.287  21.649  24.483  1.00  0.00    -0.480 OA
BRANCH   9  10
ATOM     10  C   UNL A   1      32.931  22.950  24.618  1.00  0.00     0.127 A 
ATOM     11  C   UNL A   1      32.995  27.982  23.284  1.00  0.00     0.046 C 
ATOM     12  C   UNL A   1      32.551  27.249  24.523  1.00  0.00    -0.029 A 
ATOM     13  C   UNL A   1      32.017  27.844  25.612  1.00  0.00     0.046 A 
ATOM     14  C   UNL A   1      32.722  25.787  24.526  1.00  0.00     0.021 A 
ATOM     15  C   UNL A   1      31.453  27.023  26.719  1.00  0.00     0.340 A 
ATOM     16  C   UNL A   1      32.014  25.015  25.443  1.00  0.00     0.145 A 
ATOM     17  C   UNL A   1      33.571  25.118  23.653  1.00  0.00     0.016 A 
ATOM     18  O   UNL A   1      31.058  27.520  27.769  1.00  0.00    -0.246 OA
ATOM     19  O   UNL A   1      31.287  25.671  26.465  1.00  0.00    -0.422 OA
ATOM     20  C   UNL A   1      32.024  23.594  25.465  1.00  0.00     0.035 A 
ATOM     21  C   UNL A   1      33.688  23.730  23.722  1.00  0.00     0.047 A 
ATOM     22  C   UNL A   1      31.081  22.936  26.429  1.00  0.00     0.052 C 
BRANCH  13  23
ATOM     23  C   UNL A   1      31.901  29.340  25.818  1.00  0.00     0.079 C 
BRANCH  23  24
ATOM     24  C   UNL A   1      33.085  29.924  26.564  1.00  0.00    -0.043 A 
ATOM     25  C   UNL A   1      32.999  31.188  27.163  1.00  0.00     0.004 A 
ATOM     26  C   UNL A   1      34.274  29.192  26.709  1.00  0.00     0.004 A 
ATOM     27  C   UNL A   1      34.073  31.703  27.892  1.00  0.00     0.000 A 
ATOM     28  C   UNL A   1      35.341  29.701  27.451  1.00  0.00     0.000 A 
ATOM     29  C   UNL A   1      35.241  30.956  28.042  1.00  0.00     0.000 A 
ENDBRANCH  23  24
ENDBRANCH  13  23
ENDBRANCH   9  10
ENDBRANCH   7   9
ENDBRANCH   4   7
ENDBRANCH   2   3
ENDBRANCH   1   2
BRANCH   1  30
ATOM     30  C   UNL A   1      39.227  22.823  26.699  1.00  0.00     0.023 C 
BRANCH  30  31
ATOM     31  C   UNL A   1      40.433  23.608  27.198  1.00  0.00     0.116 C 
BRANCH  31  32
ATOM     32  N   UNL A   1      41.198  24.206  26.115  1.00  0.00    -0.352 N 
ATOM     33  C   UNL A   1      41.567  25.522  25.967  1.00  0.00     0.251 C 
ATOM     34  H   UNL A   1      41.488  23.594  25.400  1.00  0.00     0.163 HD
ATOM     35  O   UNL A   1      42.109  25.910  24.941  1.00  0.00    -0.269 OA
BRANCH  33  36
ATOM     36  C   UNL A   1      41.267  26.462  27.063  1.00  0.00     0.039 A 
ATOM     37  C   UNL A   1      40.291  26.118  28.001  1.00  0.00     0.014 A 
ATOM     38  C   UNL A   1      41.998  27.647  27.188  1.00  0.00     0.014 A 
ATOM     39  C   UNL A   1      40.082  26.945  29.104  1.00  0.00     0.010 A 
ATOM     40  C   UNL A   1      41.820  28.447  28.313  1.00  0.00     0.010 A 
ATOM     41  C   UNL A   1      40.860  28.102  29.276  1.00  0.00    -0.014 A 
BRANCH  41  42
ATOM     42  C   UNL A   1      40.655  28.989  30.443  1.00  0.00     0.031 A 
ATOM     43  C   UNL A   1      41.515  28.813  31.662  1.00  0.00     0.074 A 
ATOM     44  C   UNL A   1      39.680  29.919  30.420  1.00  0.00     0.049 A 
ATOM     45  N   UNL A   1      41.465  29.444  32.805  1.00  0.00    -0.248 NA
ATOM     46  C   UNL A   1      42.560  27.777  31.589  1.00  0.00     0.031 C 
ATOM     47  C   UNL A   1      38.769  30.162  29.300  1.00  0.00     0.029 A 
ATOM     48  N   UNL A   1      39.290  30.827  31.370  1.00  0.00    -0.354 N 
ATOM     49  C   UNL A   1      42.471  28.888  33.585  1.00  0.00     0.074 A 
ATOM     50  C   UNL A   1      43.081  27.832  32.807  1.00  0.00     0.031 C 
ATOM     51  C   UNL A   1      37.936  31.167  29.623  1.00  0.00     0.029 A 
ATOM     52  C   UNL A   1      38.237  31.620  30.978  1.00  0.00     0.049 A 
ATOM     53  H   UNL A   1      39.722  30.904  32.251  1.00  0.00     0.167 HD
ATOM     54  C   UNL A   1      42.869  29.246  34.828  1.00  0.00     0.037 A 
ATOM     55  C   UNL A   1      37.592  32.600  31.640  1.00  0.00     0.037 A 
ATOM     56  C   UNL A   1      42.271  30.308  35.589  1.00  0.00     0.049 A 
ATOM     57  C   UNL A   1      38.034  32.957  33.034  1.00  0.00     0.074 A 
ATOM     58  C   UNL A   1      42.619  30.765  36.849  1.00  0.00     0.029 A 
ATOM     59  N   UNL A   1      41.206  31.086  35.160  1.00  0.00    -0.354 N 
ATOM     60  N   UNL A   1      39.008  32.441  33.746  1.00  0.00    -0.248 NA
ATOM     61  C   UNL A   1      37.292  34.028  33.714  1.00  0.00     0.031 C 
ATOM     62  C   UNL A   1      41.747  31.803  37.191  1.00  0.00     0.029 A 
ATOM     63  C   UNL A   1      40.877  32.013  36.133  1.00  0.00     0.049 A 
ATOM     64  H   UNL A   1      40.752  30.992  34.292  1.00  0.00     0.167 HD
ATOM     65  C   UNL A   1      39.011  33.141  34.947  1.00  0.00     0.074 A 
ATOM     66  C   UNL A   1      37.947  34.120  34.864  1.00  0.00     0.031 C 
ATOM     67  C   UNL A   1      39.821  32.987  36.023  1.00  0.00     0.037 A 
BRANCH  54  68
ATOM     68  C   UNL A   1      44.022  28.498  35.429  1.00  0.00     0.058 A 
ATOM     69  C   UNL A   1      45.343  28.935  35.247  1.00  0.00     0.135 A 
ATOM     70  C   UNL A   1      43.807  27.366  36.230  1.00  0.00     0.135 A 
ATOM     71  F   UNL A   1      45.603  29.999  34.472  1.00  0.00    -0.206 F 
ATOM     72  C   UNL A   1      46.414  28.267  35.828  1.00  0.00     0.059 A 
ATOM     73  C   UNL A   1      44.862  26.695  36.839  1.00  0.00     0.059 A 
ATOM     74  F   UNL A   1      42.562  26.905  36.429  1.00  0.00    -0.206 F 
ATOM     75  C   UNL A   1      46.164  27.150  36.626  1.00  0.00     0.060 A 
BRANCH  75  76
ATOM     76  S   UNL A   1      47.565  26.310  37.394  1.00  0.00     0.124 S 
ATOM     77  O   UNL A   1      47.262  24.912  37.103  1.00  0.00    -0.237 OA
ATOM     78  O   UNL A   1      48.701  26.875  36.672  1.00  0.00    -0.237 OA
ATOM     79  O   UNL A   1      47.465  26.694  38.798  1.00  0.00    -0.744 OA
ENDBRANCH  75  76
ENDBRANCH  54  68
BRANCH  55  80
ATOM     80  C   UNL A   1      36.477  33.335  30.989  1.00  0.00     0.058 A 
ATOM     81  C   UNL A   1      36.722  34.207  29.919  1.00  0.00     0.135 A 
ATOM     82  C   UNL A   1      35.151  33.188  31.424  1.00  0.00     0.135 A 
ATOM     83  F   UNL A   1      37.975  34.385  29.473  1.00  0.00    -0.206 F 
ATOM     84  C   UNL A   1      35.696  34.924  29.313  1.00  0.00     0.059 A 
ATOM     85  C   UNL A   1      34.105  33.879  30.823  1.00  0.00     0.059 A 
ATOM     86  F   UNL A   1      34.864  32.354  32.437  1.00  0.00    -0.206 F 
ATOM     87  C   UNL A   1      34.388  34.755  29.774  1.00  0.00     0.060 A 
BRANCH  87  88
ATOM     88  S   UNL A   1      33.058  35.665  28.960  1.00  0.00     0.124 S 
ATOM     89  O   UNL A   1      33.801  36.705  28.258  1.00  0.00    -0.237 OA
ATOM     90  O   UNL A   1      32.451  34.637  28.119  1.00  0.00    -0.237 OA
ATOM     91  O   UNL A   1      32.233  36.119  30.074  1.00  0.00    -0.744 OA
ENDBRANCH  87  88
ENDBRANCH  55  80
BRANCH  67  92
ATOM     92  C   UNL A   1      39.610  33.909  37.188  1.00  0.00     0.058 A 
ATOM     93  C   UNL A   1      38.855  33.516  38.302  1.00  0.00     0.135 A 
ATOM     94  C   UNL A   1      40.236  35.165  37.224  1.00  0.00     0.135 A 
ATOM     95  F   UNL A   1      38.232  32.327  38.311  1.00  0.00    -0.206 F 
ATOM     96  C   UNL A   1      38.720  34.341  39.414  1.00  0.00     0.059 A 
ATOM     97  C   UNL A   1      40.132  35.998  38.333  1.00  0.00     0.059 A 
ATOM     98  F   UNL A   1      40.976  35.581  36.184  1.00  0.00    -0.206 F 
ATOM     99  C   UNL A   1      39.368  35.578  39.421  1.00  0.00     0.060 A 
BRANCH  99 100
ATOM    100  S   UNL A   1      39.233  36.616  40.892  1.00  0.00     0.124 S 
ATOM    101  O   UNL A   1      38.594  37.811  40.352  1.00  0.00    -0.237 OA
ATOM    102  O   UNL A   1      38.405  35.800  41.776  1.00  0.00    -0.237 OA
ATOM    103  O   UNL A   1      40.619  36.782  41.320  1.00  0.00    -0.744 OA
ENDBRANCH  99 100
ENDBRANCH  67  92
ENDBRANCH  41  42
ENDBRANCH  33  36
ENDBRANCH  31  32
ENDBRANCH  30  31
ENDBRANCH   1  30
TORSDOF 18
ENDMDL
MODEL 3
REMARK VINA RESULT:     -11.8      2.103      2.721
REMARK SMILES Cc1c(Cc2ccccc2)c(=O)oc2c(C)c(O[C@H](C)C(=O)NCCCCNC(=O)c3ccc(-c4c5nc(c(-c6c(F)cc(S(=O)(=O)[O-])cc6F)c6ccc([nH]6)c(-c6c(F)cc(S(=O)(=O)[O-])cc6F)c6nc(c(-c7c(F)cc(S(=O)(=O)[O-])cc7F)c7ccc4[nH]7)C=C6)C=C5)cc3)ccc12
REMARK SMILES IDX 25 1 24 2 23 3 21 4 22 5 19 7 20 8 18 9 17 10 1 11 2 12 3 13
REMARK SMILES IDX 99 14 11 15 14 16 98 17 12 18 13 19 15 20 97 21 16 22 4 23
REMARK SMILES IDX 5 24 6 25 10 26 7 27 9 28 8 29 26 30 27 31 28 32 29 33 30 35
REMARK SMILES IDX 31 36 32 37 96 38 33 39 95 40 34 41 35 42 36 43 89 44 37 45
REMARK SMILES IDX 94 46 88 47 90 48 38 49 93 50 87 51 86 52 39 54 73 55 52 56
REMARK SMILES IDX 72 57 53 58 56 59 71 60 91 61 54 62 55 63 70 65 92 66 57 67
REMARK SMILES IDX 40 68 41 69 50 70 42 71 43 72 49 73 51 74 44 75 45 76 46 77
REMARK SMILES IDX 47 78 48 79 74 80 75 81 84 82 76 83 77 84 83 85 85 86 78 87
REMARK SMILES IDX 79 88 80 89 81 90 82 91 58 92 59 93 68 94 60 95 61 96 67 97
REMARK SMILES IDX 69 98 62 99 63 100 64 101 65 102 66 103
REMARK H PARENT 23 6 28 34 90 53 56 64
REMARK Flexibility Score: inf
ROOT
ATOM      1  C   UNL A   1      34.807  22.443  26.524  1.00  0.00     0.023 C 
ENDROOT
BRANCH   1   2
ATOM      2  C   UNL A   1      34.943  21.263  25.563  1.00  0.00     0.116 C 
BRANCH   2   3
ATOM      3  N   UNL A   1      34.053  20.171  25.910  1.00  0.00    -0.353 N 
ATOM      4  C   UNL A   1      33.053  19.586  25.183  1.00  0.00     0.260 C 
ATOM      5  O   UNL A   1      32.420  18.670  25.716  1.00  0.00    -0.271 OA
ATOM      6  H   UNL A   1      34.189  19.793  26.809  1.00  0.00     0.163 HD
BRANCH   4   7
ATOM      7  C   UNL A   1      32.713  20.051  23.754  1.00  0.00     0.258 C 
ATOM      8  C   UNL A   1      32.317  18.858  22.896  1.00  0.00     0.064 C 
BRANCH   7   9
ATOM      9  O   UNL A   1      31.685  21.016  23.897  1.00  0.00    -0.480 OA
BRANCH   9  10
ATOM     10  C   UNL A   1      31.829  22.347  24.112  1.00  0.00     0.127 A 
ATOM     11  C   UNL A   1      31.143  26.755  26.793  1.00  0.00     0.046 C 
ATOM     12  C   UNL A   1      31.572  26.465  25.379  1.00  0.00    -0.029 A 
ATOM     13  C   UNL A   1      31.907  27.410  24.473  1.00  0.00     0.046 A 
ATOM     14  C   UNL A   1      31.621  25.049  24.978  1.00  0.00     0.021 A 
ATOM     15  C   UNL A   1      32.482  27.021  23.156  1.00  0.00     0.340 A 
ATOM     16  C   UNL A   1      32.348  24.681  23.848  1.00  0.00     0.145 A 
ATOM     17  C   UNL A   1      30.967  24.039  25.672  1.00  0.00     0.016 A 
ATOM     18  O   UNL A   1      32.698  27.839  22.267  1.00  0.00    -0.246 OA
ATOM     19  O   UNL A   1      32.870  25.698  23.015  1.00  0.00    -0.422 OA
ATOM     20  C   UNL A   1      32.547  23.337  23.433  1.00  0.00     0.035 A 
ATOM     21  C   UNL A   1      31.052  22.721  25.225  1.00  0.00     0.047 A 
ATOM     22  C   UNL A   1      33.483  23.128  22.279  1.00  0.00     0.052 C 
BRANCH  13  23
ATOM     23  C   UNL A   1      31.780  28.904  24.686  1.00  0.00     0.079 C 
BRANCH  23  24
ATOM     24  C   UNL A   1      32.767  29.438  25.705  1.00  0.00    -0.043 A 
ATOM     25  C   UNL A   1      32.440  30.541  26.506  1.00  0.00     0.004 A 
ATOM     26  C   UNL A   1      34.008  28.811  25.900  1.00  0.00     0.004 A 
ATOM     27  C   UNL A   1      33.330  31.000  27.479  1.00  0.00     0.000 A 
ATOM     28  C   UNL A   1      34.889  29.261  26.884  1.00  0.00     0.000 A 
ATOM     29  C   UNL A   1      34.551  30.356  27.673  1.00  0.00     0.000 A 
ENDBRANCH  23  24
ENDBRANCH  13  23
ENDBRANCH   9  10
ENDBRANCH   7   9
ENDBRANCH   4   7
ENDBRANCH   2   3
ENDBRANCH   1   2
BRANCH   1  30
ATOM     30  C   UNL A   1      35.060  23.814  25.897  1.00  0.00     0.023 C 
BRANCH  30  31
ATOM     31  C   UNL A   1      36.517  24.256  25.880  1.00  0.00     0.116 C 
BRANCH  31  32
ATOM     32  N   UNL A   1      37.440  23.137  25.772  1.00  0.00    -0.352 N 
ATOM     33  C   UNL A   1      38.753  23.084  26.175  1.00  0.00     0.251 C 
ATOM     34  H   UNL A   1      37.081  22.318  25.360  1.00  0.00     0.163 HD
ATOM     35  O   UNL A   1      39.451  22.113  25.912  1.00  0.00    -0.269 OA
BRANCH  33  36
ATOM     36  C   UNL A   1      39.310  24.236  26.908  1.00  0.00     0.039 A 
ATOM     37  C   UNL A   1      40.079  25.172  26.212  1.00  0.00     0.014 A 
ATOM     38  C   UNL A   1      39.014  24.413  28.262  1.00  0.00     0.014 A 
ATOM     39  C   UNL A   1      40.511  26.324  26.869  1.00  0.00     0.010 A 
ATOM     40  C   UNL A   1      39.408  25.584  28.903  1.00  0.00     0.010 A 
ATOM     41  C   UNL A   1      40.160  26.545  28.211  1.00  0.00    -0.014 A 
BRANCH  41  42
ATOM     42  C   UNL A   1      40.607  27.764  28.923  1.00  0.00     0.031 A 
ATOM     43  C   UNL A   1      42.000  27.821  29.481  1.00  0.00     0.074 A 
ATOM     44  C   UNL A   1      39.756  28.793  29.097  1.00  0.00     0.049 A 
ATOM     45  N   UNL A   1      42.570  28.765  30.181  1.00  0.00    -0.248 NA
ATOM     46  C   UNL A   1      42.861  26.651  29.232  1.00  0.00     0.031 C 
ATOM     47  C   UNL A   1      38.372  28.838  28.619  1.00  0.00     0.029 A 
ATOM     48  N   UNL A   1      39.928  29.997  29.730  1.00  0.00    -0.354 N 
ATOM     49  C   UNL A   1      43.855  28.309  30.451  1.00  0.00     0.074 A 
ATOM     50  C   UNL A   1      43.964  26.982  29.889  1.00  0.00     0.031 C 
ATOM     51  C   UNL A   1      37.827  30.018  28.962  1.00  0.00     0.029 A 
ATOM     52  C   UNL A   1      38.812  30.801  29.704  1.00  0.00     0.049 A 
ATOM     53  H   UNL A   1      40.771  30.262  30.163  1.00  0.00     0.167 HD
ATOM     54  C   UNL A   1      44.860  28.953  31.088  1.00  0.00     0.037 A 
ATOM     55  C   UNL A   1      38.611  32.028  30.221  1.00  0.00     0.037 A 
ATOM     56  C   UNL A   1      44.752  30.279  31.630  1.00  0.00     0.049 A 
ATOM     57  C   UNL A   1      39.738  32.708  30.953  1.00  0.00     0.074 A 
ATOM     58  C   UNL A   1      45.723  31.029  32.271  1.00  0.00     0.029 A 
ATOM     59  N   UNL A   1      43.605  31.059  31.587  1.00  0.00    -0.354 N 
ATOM     60  N   UNL A   1      40.956  32.275  31.174  1.00  0.00    -0.248 NA
ATOM     61  C   UNL A   1      39.464  34.043  31.504  1.00  0.00     0.031 C 
ATOM     62  C   UNL A   1      45.155  32.253  32.639  1.00  0.00     0.029 A 
ATOM     63  C   UNL A   1      43.841  32.277  32.199  1.00  0.00     0.049 A 
ATOM     64  H   UNL A   1      42.751  30.786  31.181  1.00  0.00     0.167 HD
ATOM     65  C   UNL A   1      41.601  33.293  31.867  1.00  0.00     0.074 A 
ATOM     66  C   UNL A   1      40.641  34.366  32.024  1.00  0.00     0.031 C 
ATOM     67  C   UNL A   1      42.873  33.336  32.332  1.00  0.00     0.037 A 
BRANCH  54  68
ATOM     68  C   UNL A   1      46.174  28.238  31.208  1.00  0.00     0.058 A 
ATOM     69  C   UNL A   1      47.168  28.379  30.228  1.00  0.00     0.135 A 
ATOM     70  C   UNL A   1      46.462  27.444  32.329  1.00  0.00     0.135 A 
ATOM     71  F   UNL A   1      46.934  29.110  29.127  1.00  0.00    -0.206 F 
ATOM     72  C   UNL A   1      48.400  27.747  30.348  1.00  0.00     0.059 A 
ATOM     73  C   UNL A   1      47.696  26.820  32.480  1.00  0.00     0.059 A 
ATOM     74  F   UNL A   1      45.541  27.272  33.290  1.00  0.00    -0.206 F 
ATOM     75  C   UNL A   1      48.657  26.972  31.480  1.00  0.00     0.060 A 
BRANCH  75  76
ATOM     76  S   UNL A   1      50.271  26.180  31.632  1.00  0.00     0.124 S 
ATOM     77  O   UNL A   1      50.991  27.144  32.461  1.00  0.00    -0.237 OA
ATOM     78  O   UNL A   1      49.937  24.915  32.278  1.00  0.00    -0.237 OA
ATOM     79  O   UNL A   1      50.731  26.074  30.252  1.00  0.00    -0.744 OA
ENDBRANCH  75  76
ENDBRANCH  54  68
BRANCH  55  80
ATOM     80  C   UNL A   1      37.303  32.709  30.048  1.00  0.00     0.058 A 
ATOM     81  C   UNL A   1      37.101  33.616  28.997  1.00  0.00     0.135 A 
ATOM     82  C   UNL A   1      36.234  32.476  30.925  1.00  0.00     0.135 A 
ATOM     83  F   UNL A   1      38.098  33.876  28.136  1.00  0.00    -0.206 F 
ATOM     84  C   UNL A   1      35.893  34.284  28.832  1.00  0.00     0.059 A 
ATOM     85  C   UNL A   1      35.009  33.117  30.770  1.00  0.00     0.059 A 
ATOM     86  F   UNL A   1      36.373  31.607  31.939  1.00  0.00    -0.206 F 
ATOM     87  C   UNL A   1      34.851  34.029  29.726  1.00  0.00     0.060 A 
BRANCH  87  88
ATOM     88  S   UNL A   1      33.275  34.876  29.484  1.00  0.00     0.124 S 
ATOM     89  O   UNL A   1      32.757  34.927  30.846  1.00  0.00    -0.237 OA
ATOM     90  O   UNL A   1      33.697  36.152  28.913  1.00  0.00    -0.237 OA
ATOM     91  O   UNL A   1      32.559  33.995  28.567  1.00  0.00    -0.744 OA
ENDBRANCH  87  88
ENDBRANCH  55  80
BRANCH  67  92
ATOM     92  C   UNL A   1      43.313  34.587  33.034  1.00  0.00     0.058 A 
ATOM     93  C   UNL A   1      43.696  35.730  32.317  1.00  0.00     0.135 A 
ATOM     94  C   UNL A   1      43.272  34.669  34.435  1.00  0.00     0.135 A 
ATOM     95  F   UNL A   1      43.756  35.699  30.976  1.00  0.00    -0.206 F 
ATOM     96  C   UNL A   1      44.032  36.914  32.966  1.00  0.00     0.059 A 
ATOM     97  C   UNL A   1      43.586  35.848  35.104  1.00  0.00     0.059 A 
ATOM     98  F   UNL A   1      42.905  33.604  35.164  1.00  0.00    -0.206 F 
ATOM     99  C   UNL A   1      43.968  36.963  34.360  1.00  0.00     0.060 A 
BRANCH  99 100
ATOM    100  S   UNL A   1      44.351  38.521  35.188  1.00  0.00     0.124 S 
ATOM    101  O   UNL A   1      45.809  38.538  35.125  1.00  0.00    -0.237 OA
ATOM    102  O   UNL A   1      43.670  39.499  34.344  1.00  0.00    -0.237 OA
ATOM    103  O   UNL A   1      43.781  38.348  36.521  1.00  0.00    -0.744 OA
ENDBRANCH  99 100
ENDBRANCH  67  92
ENDBRANCH  41  42
ENDBRANCH  33  36
ENDBRANCH  31  32
ENDBRANCH  30  31
ENDBRANCH   1  30
TORSDOF 18
ENDMDL
