MODEL 1
REMARK VINA RESULT:      -9.8      0.000      0.000
REMARK SMILES COc1ccc([C@H]2CC(c3ccc(S(C)(=O)=O)cc3)=NN2c2ccc(C(=O)NCCCCNC(=O)c3ccc(-c4c5nc(c(-c6c(F)cc(S(=O)(=O)[O-])cc6F)c6ccc([nH]6)c(-c6c(F)cc(S(=O)(=O)[O-])cc6F)c6nc(c(-c7c(F)cc(S(=O)(=O)[O-])cc7F)c7ccc4[nH]7)C=C6)C=C5)cc3)cc2)cc1
REMARK SMILES IDX 30 1 29 2 28 3 26 4 27 5 25 7 22 8 23 9 103 10 24 11 102 12
REMARK SMILES IDX 21 13 7 14 8 15 9 16 20 17 6 18 3 19 4 20 105 21 5 22 104 23
REMARK SMILES IDX 2 24 1 25 10 26 11 27 19 28 12 29 18 30 13 31 14 32 15 33
REMARK SMILES IDX 16 34 17 35 31 36 32 37 33 38 34 39 35 41 36 42 37 43 101 44
REMARK SMILES IDX 38 45 100 46 39 47 40 48 41 49 94 50 42 51 99 52 93 53 95 54
REMARK SMILES IDX 43 55 98 56 92 57 91 58 44 60 78 61 57 62 77 63 58 64 61 65
REMARK SMILES IDX 76 66 96 67 59 68 60 69 75 71 97 72 62 73 45 74 46 75 55 76
REMARK SMILES IDX 47 77 48 78 54 79 56 80 49 81 50 82 51 83 52 84 53 85 79 86
REMARK SMILES IDX 80 87 89 88 81 89 82 90 88 91 90 92 83 93 84 94 85 95 86 96
REMARK SMILES IDX 87 97 63 98 64 99 73 100 65 101 66 102 72 103 74 104 67 105
REMARK SMILES IDX 68 106 69 107 70 108 71 109
REMARK H PARENT 28 6 33 40 95 59 61 70
REMARK Flexibility Score: inf
ROOT
ATOM      1  C   UNL A   1      42.215  20.026  26.603  1.00  0.00     0.023 C 
ENDROOT
BRANCH   1   2
ATOM      2  C   UNL A   1      43.484  20.480  25.877  1.00  0.00     0.116 C 
BRANCH   2   3
ATOM      3  N   UNL A   1      43.272  21.771  25.253  1.00  0.00    -0.352 N 
ATOM      4  C   UNL A   1      43.346  23.054  25.728  1.00  0.00     0.251 C 
ATOM      5  O   UNL A   1      43.103  23.964  24.933  1.00  0.00    -0.269 OA
ATOM      6  H   UNL A   1      43.027  21.714  24.301  1.00  0.00     0.163 HD
BRANCH   4   7
ATOM      7  C   UNL A   1      43.750  23.404  27.121  1.00  0.00     0.039 A 
ATOM      8  C   UNL A   1      44.311  24.125  29.814  1.00  0.00     0.060 A 
ATOM      9  C   UNL A   1      43.003  23.861  29.395  1.00  0.00     0.029 A 
ATOM     10  C   UNL A   1      45.337  23.964  28.878  1.00  0.00     0.029 A 
ATOM     11  C   UNL A   1      42.722  23.527  28.065  1.00  0.00     0.016 A 
ATOM     12  C   UNL A   1      45.065  23.572  27.559  1.00  0.00     0.016 A 
BRANCH   8  13
ATOM     13  N   UNL A   1      44.556  24.462  31.139  1.00  0.00    -0.257 N 
ATOM     14  C   UNL A   1      45.316  25.640  31.565  1.00  0.00     0.144 C 
ATOM     15  C   UNL A   1      45.822  25.245  32.957  1.00  0.00     0.091 C 
ATOM     16  C   UNL A   1      45.232  23.873  33.069  1.00  0.00     0.071 C 
ATOM     17  N   UNL A   1      44.538  23.455  32.061  1.00  0.00    -0.176 NA
BRANCH  14  18
ATOM     18  C   UNL A   1      44.450  26.890  31.629  1.00  0.00    -0.023 A 
ATOM     19  C   UNL A   1      42.867  29.194  31.980  1.00  0.00     0.118 A 
ATOM     20  C   UNL A   1      44.258  29.292  31.964  1.00  0.00     0.047 A 
ATOM     21  C   UNL A   1      42.260  27.960  31.754  1.00  0.00     0.047 A 
ATOM     22  C   UNL A   1      45.045  28.149  31.801  1.00  0.00     0.010 A 
ATOM     23  C   UNL A   1      43.047  26.818  31.576  1.00  0.00     0.010 A 
BRANCH  19  24
ATOM     24  O   UNL A   1      42.181  30.362  32.175  1.00  0.00    -0.497 OA
ATOM     25  C   UNL A   1      41.765  30.567  33.523  1.00  0.00     0.278 C 
ENDBRANCH  19  24
ENDBRANCH  14  18
BRANCH  16  26
ATOM     26  C   UNL A   1      45.489  23.057  34.253  1.00  0.00    -0.002 A 
ATOM     27  C   UNL A   1      44.910  21.788  34.341  1.00  0.00     0.011 A 
ATOM     28  C   UNL A   1      46.311  23.556  35.264  1.00  0.00     0.011 A 
ATOM     29  C   UNL A   1      45.172  20.995  35.456  1.00  0.00     0.021 A 
ATOM     30  C   UNL A   1      46.560  22.769  36.389  1.00  0.00     0.021 A 
ATOM     31  C   UNL A   1      45.987  21.494  36.479  1.00  0.00     0.067 A 
BRANCH  31  32
ATOM     32  S   UNL A   1      46.322  20.473  37.896  1.00  0.00     0.175 S 
ATOM     33  C   UNL A   1      48.074  20.206  37.832  1.00  0.00     0.163 C 
ATOM     34  O   UNL A   1      46.020  21.271  39.067  1.00  0.00    -0.224 OA
ATOM     35  O   UNL A   1      45.675  19.193  37.679  1.00  0.00    -0.224 OA
ENDBRANCH  31  32
ENDBRANCH  16  26
ENDBRANCH   8  13
ENDBRANCH   4   7
ENDBRANCH   2   3
ENDBRANCH   1   2
BRANCH   1  36
ATOM     36  C   UNL A   1      40.924  20.626  26.032  1.00  0.00     0.023 C 
BRANCH  36  37
ATOM     37  C   UNL A   1      40.190  21.581  26.970  1.00  0.00     0.116 C 
BRANCH  37  38
ATOM     38  N   UNL A   1      38.892  21.995  26.460  1.00  0.00    -0.352 N 
ATOM     39  C   UNL A   1      38.334  23.250  26.462  1.00  0.00     0.251 C 
ATOM     40  H   UNL A   1      38.342  21.282  26.063  1.00  0.00     0.163 HD
ATOM     41  O   UNL A   1      37.173  23.407  26.094  1.00  0.00    -0.269 OA
BRANCH  39  42
ATOM     42  C   UNL A   1      39.128  24.397  26.947  1.00  0.00     0.039 A 
ATOM     43  C   UNL A   1      39.909  25.109  26.032  1.00  0.00     0.014 A 
ATOM     44  C   UNL A   1      39.077  24.787  28.287  1.00  0.00     0.014 A 
ATOM     45  C   UNL A   1      40.591  26.251  26.452  1.00  0.00     0.010 A 
ATOM     46  C   UNL A   1      39.703  25.964  28.688  1.00  0.00     0.010 A 
ATOM     47  C   UNL A   1      40.464  26.708  27.775  1.00  0.00    -0.014 A 
BRANCH  47  48
ATOM     48  C   UNL A   1      41.118  27.965  28.215  1.00  0.00     0.031 A 
ATOM     49  C   UNL A   1      42.610  28.124  28.103  1.00  0.00     0.074 A 
ATOM     50  C   UNL A   1      40.372  28.943  28.768  1.00  0.00     0.049 A 
ATOM     51  N   UNL A   1      43.363  29.127  28.471  1.00  0.00    -0.248 NA
ATOM     52  C   UNL A   1      43.354  26.994  27.522  1.00  0.00     0.031 C 
ATOM     53  C   UNL A   1      38.924  28.885  28.977  1.00  0.00     0.029 A 
ATOM     54  N   UNL A   1      40.729  30.172  29.259  1.00  0.00    -0.354 N 
ATOM     55  C   UNL A   1      44.668  28.750  28.176  1.00  0.00     0.074 A 
ATOM     56  C   UNL A   1      44.608  27.402  27.653  1.00  0.00     0.031 C 
ATOM     57  C   UNL A   1      38.512  30.040  29.524  1.00  0.00     0.029 A 
ATOM     58  C   UNL A   1      39.667  30.905  29.737  1.00  0.00     0.049 A 
ATOM     59  H   UNL A   1      41.657  30.500  29.269  1.00  0.00     0.167 HD
ATOM     60  C   UNL A   1      45.809  29.470  28.302  1.00  0.00     0.037 A 
ATOM     61  C   UNL A   1      39.631  32.135  30.285  1.00  0.00     0.037 A 
ATOM     62  C   UNL A   1      45.859  30.816  28.809  1.00  0.00     0.049 A 
ATOM     63  C   UNL A   1      40.912  32.913  30.422  1.00  0.00     0.074 A 
ATOM     64  C   UNL A   1      46.956  31.650  28.934  1.00  0.00     0.029 A 
ATOM     65  N   UNL A   1      44.763  31.528  29.275  1.00  0.00    -0.354 N 
ATOM     66  N   UNL A   1      42.130  32.563  30.083  1.00  0.00    -0.248 NA
ATOM     67  C   UNL A   1      40.811  34.255  31.011  1.00  0.00     0.031 C 
ATOM     68  C   UNL A   1      46.531  32.852  29.512  1.00  0.00     0.029 A 
ATOM     69  C   UNL A   1      45.160  32.784  29.705  1.00  0.00     0.049 A 
ATOM     70  H   UNL A   1      43.838  31.190  29.297  1.00  0.00     0.167 HD
ATOM     71  C   UNL A   1      42.937  33.651  30.392  1.00  0.00     0.074 A 
ATOM     72  C   UNL A   1      42.067  34.675  30.933  1.00  0.00     0.031 C 
ATOM     73  C   UNL A   1      44.279  33.792  30.242  1.00  0.00     0.037 A 
BRANCH  60  74
ATOM     74  C   UNL A   1      47.092  28.810  27.878  1.00  0.00     0.058 A 
ATOM     75  C   UNL A   1      47.923  28.157  28.805  1.00  0.00     0.135 A 
ATOM     76  C   UNL A   1      47.495  28.817  26.534  1.00  0.00     0.135 A 
ATOM     77  F   UNL A   1      47.596  28.134  30.107  1.00  0.00    -0.206 F 
ATOM     78  C   UNL A   1      49.125  27.571  28.421  1.00  0.00     0.059 A 
ATOM     79  C   UNL A   1      48.679  28.211  26.122  1.00  0.00     0.059 A 
ATOM     80  F   UNL A   1      46.739  29.424  25.605  1.00  0.00    -0.206 F 
ATOM     81  C   UNL A   1      49.496  27.608  27.076  1.00  0.00     0.060 A 
BRANCH  81  82
ATOM     82  S   UNL A   1      51.065  26.855  26.595  1.00  0.00     0.124 S 
ATOM     83  O   UNL A   1      50.813  25.448  26.890  1.00  0.00    -0.237 OA
ATOM     84  O   UNL A   1      51.157  27.198  25.179  1.00  0.00    -0.237 OA
ATOM     85  O   UNL A   1      52.038  27.513  27.461  1.00  0.00    -0.744 OA
ENDBRANCH  81  82
ENDBRANCH  60  74
BRANCH  61  86
ATOM     86  C   UNL A   1      38.333  32.723  30.708  1.00  0.00     0.058 A 
ATOM     87  C   UNL A   1      37.508  33.381  29.785  1.00  0.00     0.135 A 
ATOM     88  C   UNL A   1      37.884  32.628  32.034  1.00  0.00     0.135 A 
ATOM     89  F   UNL A   1      37.897  33.502  28.506  1.00  0.00    -0.206 F 
ATOM     90  C   UNL A   1      36.292  33.940  30.161  1.00  0.00     0.059 A 
ATOM     91  C   UNL A   1      36.659  33.158  32.431  1.00  0.00     0.059 A 
ATOM     92  F   UNL A   1      38.628  31.993  32.953  1.00  0.00    -0.206 F 
ATOM     93  C   UNL A   1      35.874  33.821  31.488  1.00  0.00     0.060 A 
BRANCH  93  94
ATOM     94  S   UNL A   1      34.271  34.507  31.955  1.00  0.00     0.124 S 
ATOM     95  O   UNL A   1      33.610  34.621  30.660  1.00  0.00    -0.237 OA
ATOM     96  O   UNL A   1      33.747  33.481  32.851  1.00  0.00    -0.237 OA
ATOM     97  O   UNL A   1      34.622  35.770  32.598  1.00  0.00    -0.744 OA
ENDBRANCH  93  94
ENDBRANCH  61  86
BRANCH  73  98
ATOM     98  C   UNL A   1      44.880  35.111  30.642  1.00  0.00     0.058 A 
ATOM     99  C   UNL A   1      44.967  36.185  29.744  1.00  0.00     0.135 A 
ATOM    100  C   UNL A   1      45.343  35.312  31.953  1.00  0.00     0.135 A 
ATOM    101  F   UNL A   1      44.543  36.043  28.478  1.00  0.00    -0.206 F 
ATOM    102  C   UNL A   1      45.523  37.403  30.120  1.00  0.00     0.059 A 
ATOM    103  C   UNL A   1      45.878  36.530  32.359  1.00  0.00     0.059 A 
ATOM    104  F   UNL A   1      45.273  34.321  32.855  1.00  0.00    -0.206 F 
ATOM    105  C   UNL A   1      45.978  37.566  31.430  1.00  0.00     0.060 A 
BRANCH 105 106
ATOM    106  S   UNL A   1      46.681  39.156  31.913  1.00  0.00     0.124 S 
ATOM    107  O   UNL A   1      47.802  38.740  32.750  1.00  0.00    -0.237 OA
ATOM    108  O   UNL A   1      47.036  39.746  30.626  1.00  0.00    -0.237 OA
ATOM    109  O   UNL A   1      45.583  39.814  32.615  1.00  0.00    -0.744 OA
ENDBRANCH 105 106
ENDBRANCH  73  98
ENDBRANCH  47  48
ENDBRANCH  39  42
ENDBRANCH  37  38
ENDBRANCH  36  37
ENDBRANCH   1  36
TORSDOF 19
ENDMDL
MODEL 2
REMARK VINA RESULT:      -9.7      0.578      7.757
REMARK SMILES COc1ccc([C@H]2CC(c3ccc(S(C)(=O)=O)cc3)=NN2c2ccc(C(=O)NCCCCNC(=O)c3ccc(-c4c5nc(c(-c6c(F)cc(S(=O)(=O)[O-])cc6F)c6ccc([nH]6)c(-c6c(F)cc(S(=O)(=O)[O-])cc6F)c6nc(c(-c7c(F)cc(S(=O)(=O)[O-])cc7F)c7ccc4[nH]7)C=C6)C=C5)cc3)cc2)cc1
REMARK SMILES IDX 30 1 29 2 28 3 26 4 27 5 25 7 22 8 23 9 103 10 24 11 102 12
REMARK SMILES IDX 21 13 7 14 8 15 9 16 20 17 6 18 3 19 4 20 105 21 5 22 104 23
REMARK SMILES IDX 2 24 1 25 10 26 11 27 19 28 12 29 18 30 13 31 14 32 15 33
REMARK SMILES IDX 16 34 17 35 31 36 32 37 33 38 34 39 35 41 36 42 37 43 101 44
REMARK SMILES IDX 38 45 100 46 39 47 40 48 41 49 94 50 42 51 99 52 93 53 95 54
REMARK SMILES IDX 43 55 98 56 92 57 91 58 44 60 78 61 57 62 77 63 58 64 61 65
REMARK SMILES IDX 76 66 96 67 59 68 60 69 75 71 97 72 62 73 45 74 46 75 55 76
REMARK SMILES IDX 47 77 48 78 54 79 56 80 49 81 50 82 51 83 52 84 53 85 79 86
REMARK SMILES IDX 80 87 89 88 81 89 82 90 88 91 90 92 83 93 84 94 85 95 86 96
REMARK SMILES IDX 87 97 63 98 64 99 73 100 65 101 66 102 72 103 74 104 67 105
REMARK SMILES IDX 68 106 69 107 70 108 71 109
REMARK H PARENT 28 6 33 40 95 59 61 70
REMARK Flexibility Score: inf
ROOT
ATOM      1  C   UNL A   1      41.785  19.905  26.374  1.00  0.00     0.023 C 
ENDROOT
BRANCH   1   2
ATOM      2  C   UNL A   1      43.147  20.459  25.948  1.00  0.00     0.116 C 
BRANCH   2   3
ATOM      3  N   UNL A   1      42.990  21.762  25.332  1.00  0.00    -0.352 N 
ATOM      4  C   UNL A   1      43.150  23.037  25.806  1.00  0.00     0.251 C 
ATOM      5  O   UNL A   1      42.935  23.962  25.020  1.00  0.00    -0.269 OA
ATOM      6  H   UNL A   1      42.713  21.721  24.388  1.00  0.00     0.163 HD
BRANCH   4   7
ATOM      7  C   UNL A   1      43.616  23.360  27.186  1.00  0.00     0.039 A 
ATOM      8  C   UNL A   1      44.295  24.030  29.865  1.00  0.00     0.060 A 
ATOM      9  C   UNL A   1      42.970  23.776  29.499  1.00  0.00     0.029 A 
ATOM     10  C   UNL A   1      45.279  23.885  28.883  1.00  0.00     0.029 A 
ATOM     11  C   UNL A   1      42.630  23.468  28.177  1.00  0.00     0.016 A 
ATOM     12  C   UNL A   1      44.949  23.517  27.569  1.00  0.00     0.016 A 
BRANCH   8  13
ATOM     13  N   UNL A   1      44.599  24.341  31.185  1.00  0.00    -0.257 N 
ATOM     14  C   UNL A   1      45.455  25.457  31.594  1.00  0.00     0.144 C 
ATOM     15  C   UNL A   1      45.967  25.019  32.971  1.00  0.00     0.091 C 
ATOM     16  C   UNL A   1      45.279  23.694  33.094  1.00  0.00     0.071 C 
ATOM     17  N   UNL A   1      44.530  23.334  32.104  1.00  0.00    -0.176 NA
BRANCH  14  18
ATOM     18  C   UNL A   1      44.686  26.768  31.684  1.00  0.00    -0.023 A 
ATOM     19  C   UNL A   1      43.284  29.178  32.083  1.00  0.00     0.118 A 
ATOM     20  C   UNL A   1      44.677  29.172  32.058  1.00  0.00     0.047 A 
ATOM     21  C   UNL A   1      42.584  27.998  31.842  1.00  0.00     0.047 A 
ATOM     22  C   UNL A   1      45.376  27.976  31.871  1.00  0.00     0.010 A 
ATOM     23  C   UNL A   1      43.282  26.803  31.641  1.00  0.00     0.010 A 
BRANCH  19  24
ATOM     24  O   UNL A   1      42.688  30.391  32.301  1.00  0.00    -0.497 OA
ATOM     25  C   UNL A   1      41.663  30.359  33.291  1.00  0.00     0.278 C 
ENDBRANCH  19  24
ENDBRANCH  14  18
BRANCH  16  26
ATOM     26  C   UNL A   1      45.505  22.856  34.268  1.00  0.00    -0.002 A 
ATOM     27  C   UNL A   1      46.212  21.659  34.121  1.00  0.00     0.011 A 
ATOM     28  C   UNL A   1      45.022  23.269  35.510  1.00  0.00     0.011 A 
ATOM     29  C   UNL A   1      46.453  20.867  35.242  1.00  0.00     0.021 A 
ATOM     30  C   UNL A   1      45.247  22.468  36.630  1.00  0.00     0.021 A 
ATOM     31  C   UNL A   1      45.960  21.271  36.488  1.00  0.00     0.067 A 
BRANCH  31  32
ATOM     32  S   UNL A   1      46.277  20.258  37.915  1.00  0.00     0.175 S 
ATOM     33  C   UNL A   1      48.003  19.868  37.793  1.00  0.00     0.163 C 
ATOM     34  O   UNL A   1      46.076  21.098  39.078  1.00  0.00    -0.224 OA
ATOM     35  O   UNL A   1      45.536  19.022  37.751  1.00  0.00    -0.224 OA
ENDBRANCH  31  32
ENDBRANCH  16  26
ENDBRANCH   8  13
ENDBRANCH   4   7
ENDBRANCH   2   3
ENDBRANCH   1   2
BRANCH   1  36
ATOM     36  C   UNL A   1      40.592  20.698  25.825  1.00  0.00     0.023 C 
BRANCH  36  37
ATOM     37  C   UNL A   1      39.906  21.610  26.839  1.00  0.00     0.116 C 
BRANCH  37  38
ATOM     38  N   UNL A   1      38.626  22.121  26.372  1.00  0.00    -0.352 N 
ATOM     39  C   UNL A   1      38.145  23.405  26.433  1.00  0.00     0.251 C 
ATOM     40  H   UNL A   1      38.027  21.458  25.958  1.00  0.00     0.163 HD
ATOM     41  O   UNL A   1      36.990  23.645  26.095  1.00  0.00    -0.269 OA
BRANCH  39  42
ATOM     42  C   UNL A   1      39.015  24.483  26.945  1.00  0.00     0.039 A 
ATOM     43  C   UNL A   1      39.820  25.183  26.043  1.00  0.00     0.014 A 
ATOM     44  C   UNL A   1      39.013  24.822  28.301  1.00  0.00     0.014 A 
ATOM     45  C   UNL A   1      40.577  26.266  26.493  1.00  0.00     0.010 A 
ATOM     46  C   UNL A   1      39.715  25.943  28.733  1.00  0.00     0.010 A 
ATOM     47  C   UNL A   1      40.503  26.676  27.834  1.00  0.00    -0.014 A 
BRANCH  47  48
ATOM     48  C   UNL A   1      41.239  27.874  28.309  1.00  0.00     0.031 A 
ATOM     49  C   UNL A   1      40.494  29.027  28.924  1.00  0.00     0.074 A 
ATOM     50  C   UNL A   1      42.574  27.945  28.136  1.00  0.00     0.049 A 
ATOM     51  N   UNL A   1      40.955  30.171  29.358  1.00  0.00    -0.248 NA
ATOM     52  C   UNL A   1      39.034  28.885  29.041  1.00  0.00     0.031 C 
ATOM     53  C   UNL A   1      43.401  26.912  27.508  1.00  0.00     0.029 A 
ATOM     54  N   UNL A   1      43.470  28.929  28.469  1.00  0.00    -0.354 N 
ATOM     55  C   UNL A   1      39.847  30.887  29.793  1.00  0.00     0.074 A 
ATOM     56  C   UNL A   1      38.684  30.072  29.515  1.00  0.00     0.031 C 
ATOM     57  C   UNL A   1      44.685  27.303  27.529  1.00  0.00     0.029 A 
ATOM     58  C   UNL A   1      44.770  28.626  28.139  1.00  0.00     0.049 A 
ATOM     59  H   UNL A   1      43.207  29.772  28.903  1.00  0.00     0.167 HD
ATOM     60  C   UNL A   1      39.802  32.100  30.395  1.00  0.00     0.037 A 
ATOM     61  C   UNL A   1      45.902  29.336  28.309  1.00  0.00     0.037 A 
ATOM     62  C   UNL A   1      40.965  32.899  30.683  1.00  0.00     0.049 A 
ATOM     63  C   UNL A   1      45.828  30.684  28.973  1.00  0.00     0.074 A 
ATOM     64  C   UNL A   1      41.033  34.120  31.331  1.00  0.00     0.029 A 
ATOM     65  N   UNL A   1      42.266  32.556  30.342  1.00  0.00    -0.354 N 
ATOM     66  N   UNL A   1      44.776  31.321  29.432  1.00  0.00    -0.248 NA
ATOM     67  C   UNL A   1      47.094  31.407  29.148  1.00  0.00     0.031 C 
ATOM     68  C   UNL A   1      42.370  34.534  31.346  1.00  0.00     0.029 A 
ATOM     69  C   UNL A   1      43.141  33.549  30.749  1.00  0.00     0.049 A 
ATOM     70  H   UNL A   1      42.527  31.727  29.878  1.00  0.00     0.167 HD
ATOM     71  C   UNL A   1      45.257  32.507  29.973  1.00  0.00     0.074 A 
ATOM     72  C   UNL A   1      46.695  32.492  29.797  1.00  0.00     0.031 C 
ATOM     73  C   UNL A   1      44.571  33.518  30.565  1.00  0.00     0.037 A 
BRANCH  60  74
ATOM     74  C   UNL A   1      38.449  32.629  30.784  1.00  0.00     0.058 A 
ATOM     75  C   UNL A   1      37.619  33.278  29.854  1.00  0.00     0.135 A 
ATOM     76  C   UNL A   1      37.968  32.479  32.094  1.00  0.00     0.135 A 
ATOM     77  F   UNL A   1      38.035  33.464  28.591  1.00  0.00    -0.206 F 
ATOM     78  C   UNL A   1      36.380  33.793  30.218  1.00  0.00     0.059 A 
ATOM     79  C   UNL A   1      36.718  32.961  32.473  1.00  0.00     0.059 A 
ATOM     80  F   UNL A   1      38.718  31.866  33.024  1.00  0.00    -0.206 F 
ATOM     81  C   UNL A   1      35.940  33.634  31.533  1.00  0.00     0.060 A 
BRANCH  81  82
ATOM     82  S   UNL A   1      34.334  34.320  31.993  1.00  0.00     0.124 S 
ATOM     83  O   UNL A   1      34.731  35.461  32.812  1.00  0.00    -0.237 OA
ATOM     84  O   UNL A   1      33.749  34.644  30.697  1.00  0.00    -0.237 OA
ATOM     85  O   UNL A   1      33.691  33.225  32.713  1.00  0.00    -0.744 OA
ENDBRANCH  81  82
ENDBRANCH  60  74
BRANCH  61  86
ATOM     86  C   UNL A   1      47.208  28.769  27.879  1.00  0.00     0.058 A 
ATOM     87  C   UNL A   1      48.066  28.162  28.807  1.00  0.00     0.135 A 
ATOM     88  C   UNL A   1      47.617  28.809  26.539  1.00  0.00     0.135 A 
ATOM     89  F   UNL A   1      47.720  28.104  30.103  1.00  0.00    -0.206 F 
ATOM     90  C   UNL A   1      49.293  27.628  28.426  1.00  0.00     0.059 A 
ATOM     91  C   UNL A   1      48.828  28.259  26.128  1.00  0.00     0.059 A 
ATOM     92  F   UNL A   1      46.824  29.362  25.608  1.00  0.00    -0.206 F 
ATOM     93  C   UNL A   1      49.665  27.679  27.082  1.00  0.00     0.060 A 
BRANCH  93  94
ATOM     94  S   UNL A   1      51.236  26.939  26.590  1.00  0.00     0.124 S 
ATOM     95  O   UNL A   1      50.804  25.961  25.598  1.00  0.00    -0.237 OA
ATOM     96  O   UNL A   1      51.969  28.091  26.073  1.00  0.00    -0.237 OA
ATOM     97  O   UNL A   1      51.751  26.388  27.839  1.00  0.00    -0.744 OA
ENDBRANCH  93  94
ENDBRANCH  61  86
BRANCH  73  98
ATOM     98  C   UNL A   1      45.374  34.677  31.088  1.00  0.00     0.058 A 
ATOM     99  C   UNL A   1      45.641  35.805  30.299  1.00  0.00     0.135 A 
ATOM    100  C   UNL A   1      45.852  34.672  32.409  1.00  0.00     0.135 A 
ATOM    101  F   UNL A   1      45.212  35.859  29.028  1.00  0.00    -0.206 F 
ATOM    102  C   UNL A   1      46.384  36.875  30.788  1.00  0.00     0.059 A 
ATOM    103  C   UNL A   1      46.573  35.742  32.928  1.00  0.00     0.059 A 
ATOM    104  F   UNL A   1      45.614  33.621  33.210  1.00  0.00    -0.206 F 
ATOM    105  C   UNL A   1      46.847  36.833  32.105  1.00  0.00     0.060 A 
BRANCH 105 106
ATOM    106  S   UNL A   1      47.794  38.234  32.736  1.00  0.00     0.124 S 
ATOM    107  O   UNL A   1      47.412  38.236  34.145  1.00  0.00    -0.237 OA
ATOM    108  O   UNL A   1      49.170  37.836  32.453  1.00  0.00    -0.237 OA
ATOM    109  O   UNL A   1      47.300  39.360  31.950  1.00  0.00    -0.744 OA
ENDBRANCH 105 106
ENDBRANCH  73  98
ENDBRANCH  47  48
ENDBRANCH  39  42
ENDBRANCH  37  38
ENDBRANCH  36  37
ENDBRANCH   1  36
TORSDOF 19
ENDMDL
MODEL 3
REMARK VINA RESULT:      -9.4      3.764     12.282
REMARK SMILES COc1ccc([C@H]2CC(c3ccc(S(C)(=O)=O)cc3)=NN2c2ccc(C(=O)NCCCCNC(=O)c3ccc(-c4c5nc(c(-c6c(F)cc(S(=O)(=O)[O-])cc6F)c6ccc([nH]6)c(-c6c(F)cc(S(=O)(=O)[O-])cc6F)c6nc(c(-c7c(F)cc(S(=O)(=O)[O-])cc7F)c7ccc4[nH]7)C=C6)C=C5)cc3)cc2)cc1
REMARK SMILES IDX 30 1 29 2 28 3 26 4 27 5 25 7 22 8 23 9 103 10 24 11 102 12
REMARK SMILES IDX 21 13 7 14 8 15 9 16 20 17 6 18 3 19 4 20 105 21 5 22 104 23
REMARK SMILES IDX 2 24 1 25 10 26 11 27 19 28 12 29 18 30 13 31 14 32 15 33
REMARK SMILES IDX 16 34 17 35 31 36 32 37 33 38 34 39 35 41 36 42 37 43 101 44
REMARK SMILES IDX 38 45 100 46 39 47 40 48 41 49 94 50 42 51 99 52 93 53 95 54
REMARK SMILES IDX 43 55 98 56 92 57 91 58 44 60 78 61 57 62 77 63 58 64 61 65
REMARK SMILES IDX 76 66 96 67 59 68 60 69 75 71 97 72 62 73 45 74 46 75 55 76
REMARK SMILES IDX 47 77 48 78 54 79 56 80 49 81 50 82 51 83 52 84 53 85 79 86
REMARK SMILES IDX 80 87 89 88 81 89 82 90 88 91 90 92 83 93 84 94 85 95 86 96
REMARK SMILES IDX 87 97 63 98 64 99 73 100 65 101 66 102 72 103 74 104 67 105
REMARK SMILES IDX 68 106 69 107 70 108 71 109
REMARK H PARENT 28 6 33 40 95 59 61 70
REMARK Flexibility Score: inf
ROOT
ATOM      1  C   UNL A   1      33.489  34.672  29.277  1.00  0.00     0.023 C 
ENDROOT
BRANCH   1   2
ATOM      2  C   UNL A   1      34.230  34.949  30.588  1.00  0.00     0.116 C 
BRANCH   2   3
ATOM      3  N   UNL A   1      34.471  33.710  31.301  1.00  0.00    -0.352 N 
ATOM      4  C   UNL A   1      35.615  33.013  31.589  1.00  0.00     0.251 C 
ATOM      5  O   UNL A   1      35.491  31.966  32.227  1.00  0.00    -0.269 OA
ATOM      6  H   UNL A   1      33.651  33.287  31.645  1.00  0.00     0.163 HD
BRANCH   4   7
ATOM      7  C   UNL A   1      36.985  33.475  31.223  1.00  0.00     0.039 A 
ATOM      8  C   UNL A   1      39.594  34.211  30.361  1.00  0.00     0.060 A 
ATOM      9  C   UNL A   1      38.722  33.520  29.514  1.00  0.00     0.029 A 
ATOM     10  C   UNL A   1      39.117  34.578  31.623  1.00  0.00     0.029 A 
ATOM     11  C   UNL A   1      37.446  33.138  29.943  1.00  0.00     0.016 A 
ATOM     12  C   UNL A   1      37.817  34.248  32.035  1.00  0.00     0.016 A 
BRANCH   8  13
ATOM     13  N   UNL A   1      40.857  34.569  29.908  1.00  0.00    -0.257 N 
ATOM     14  C   UNL A   1      42.099  34.324  30.644  1.00  0.00     0.144 C 
ATOM     15  C   UNL A   1      43.051  35.390  30.089  1.00  0.00     0.091 C 
ATOM     16  C   UNL A   1      42.144  36.060  29.104  1.00  0.00     0.071 C 
ATOM     17  N   UNL A   1      40.940  35.598  29.015  1.00  0.00    -0.176 NA
BRANCH  14  18
ATOM     18  C   UNL A   1      42.643  32.923  30.404  1.00  0.00    -0.023 A 
ATOM     19  C   UNL A   1      43.812  30.426  29.825  1.00  0.00     0.118 A 
ATOM     20  C   UNL A   1      44.327  31.223  30.845  1.00  0.00     0.047 A 
ATOM     21  C   UNL A   1      42.673  30.837  29.136  1.00  0.00     0.047 A 
ATOM     22  C   UNL A   1      43.756  32.466  31.128  1.00  0.00     0.010 A 
ATOM     23  C   UNL A   1      42.092  32.076  29.427  1.00  0.00     0.010 A 
BRANCH  19  24
ATOM     24  O   UNL A   1      44.455  29.238  29.602  1.00  0.00    -0.497 OA
ATOM     25  C   UNL A   1      45.871  29.315  29.747  1.00  0.00     0.278 C 
ENDBRANCH  19  24
ENDBRANCH  14  18
BRANCH  16  26
ATOM     26  C   UNL A   1      42.617  37.208  28.335  1.00  0.00    -0.002 A 
ATOM     27  C   UNL A   1      41.844  37.674  27.267  1.00  0.00     0.011 A 
ATOM     28  C   UNL A   1      43.821  37.820  28.684  1.00  0.00     0.011 A 
ATOM     29  C   UNL A   1      42.277  38.784  26.545  1.00  0.00     0.021 A 
ATOM     30  C   UNL A   1      44.264  38.921  27.951  1.00  0.00     0.021 A 
ATOM     31  C   UNL A   1      43.490  39.395  26.884  1.00  0.00     0.067 A 
BRANCH  31  32
ATOM     32  S   UNL A   1      44.033  40.815  25.962  1.00  0.00     0.175 S 
ATOM     33  C   UNL A   1      44.391  42.027  27.206  1.00  0.00     0.163 C 
ATOM     34  O   UNL A   1      45.273  40.442  25.311  1.00  0.00    -0.224 OA
ATOM     35  O   UNL A   1      42.903  41.298  25.191  1.00  0.00    -0.224 OA
ENDBRANCH  31  32
ENDBRANCH  16  26
ENDBRANCH   8  13
ENDBRANCH   4   7
ENDBRANCH   2   3
ENDBRANCH   1   2
BRANCH   1  36
ATOM     36  C   UNL A   1      34.414  34.450  28.075  1.00  0.00     0.023 C 
BRANCH  36  37
ATOM     37  C   UNL A   1      35.100  33.087  28.035  1.00  0.00     0.116 C 
BRANCH  37  38
ATOM     38  N   UNL A   1      34.261  32.043  27.467  1.00  0.00    -0.352 N 
ATOM     39  C   UNL A   1      34.508  30.694  27.393  1.00  0.00     0.251 C 
ATOM     40  H   UNL A   1      33.404  32.343  27.086  1.00  0.00     0.163 HD
ATOM     41  O   UNL A   1      33.741  29.962  26.774  1.00  0.00    -0.269 OA
BRANCH  39  42
ATOM     42  C   UNL A   1      35.722  30.142  28.028  1.00  0.00     0.039 A 
ATOM     43  C   UNL A   1      36.907  30.101  27.290  1.00  0.00     0.014 A 
ATOM     44  C   UNL A   1      35.697  29.696  29.352  1.00  0.00     0.014 A 
ATOM     45  C   UNL A   1      38.085  29.672  27.903  1.00  0.00     0.010 A 
ATOM     46  C   UNL A   1      36.885  29.333  29.980  1.00  0.00     0.010 A 
ATOM     47  C   UNL A   1      38.090  29.318  29.263  1.00  0.00    -0.014 A 
BRANCH  47  48
ATOM     48  C   UNL A   1      39.349  28.937  29.949  1.00  0.00     0.031 A 
ATOM     49  C   UNL A   1      39.784  29.662  31.193  1.00  0.00     0.074 A 
ATOM     50  C   UNL A   1      40.128  27.973  29.419  1.00  0.00     0.049 A 
ATOM     51  N   UNL A   1      40.868  29.500  31.907  1.00  0.00    -0.248 NA
ATOM     52  C   UNL A   1      38.894  30.726  31.684  1.00  0.00     0.031 C 
ATOM     53  C   UNL A   1      39.838  27.232  28.189  1.00  0.00     0.029 A 
ATOM     54  N   UNL A   1      41.324  27.453  29.844  1.00  0.00    -0.354 N 
ATOM     55  C   UNL A   1      40.796  30.444  32.925  1.00  0.00     0.074 A 
ATOM     56  C   UNL A   1      39.591  31.213  32.701  1.00  0.00     0.031 C 
ATOM     57  C   UNL A   1      40.812  26.333  27.977  1.00  0.00     0.029 A 
ATOM     58  C   UNL A   1      41.812  26.456  29.032  1.00  0.00     0.049 A 
ATOM     59  H   UNL A   1      41.790  27.764  30.654  1.00  0.00     0.167 HD
ATOM     60  C   UNL A   1      41.641  30.634  33.967  1.00  0.00     0.037 A 
ATOM     61  C   UNL A   1      42.939  25.724  29.129  1.00  0.00     0.037 A 
ATOM     62  C   UNL A   1      42.830  29.854  34.192  1.00  0.00     0.049 A 
ATOM     63  C   UNL A   1      43.867  25.958  30.291  1.00  0.00     0.074 A 
ATOM     64  C   UNL A   1      43.728  29.935  35.241  1.00  0.00     0.029 A 
ATOM     65  N   UNL A   1      43.287  28.847  33.353  1.00  0.00    -0.354 N 
ATOM     66  N   UNL A   1      43.753  26.815  31.277  1.00  0.00    -0.248 NA
ATOM     67  C   UNL A   1      45.072  25.121  30.355  1.00  0.00     0.031 C 
ATOM     68  C   UNL A   1      44.750  29.004  35.017  1.00  0.00     0.029 A 
ATOM     69  C   UNL A   1      44.464  28.312  33.851  1.00  0.00     0.049 A 
ATOM     70  H   UNL A   1      42.841  28.557  32.525  1.00  0.00     0.167 HD
ATOM     71  C   UNL A   1      44.857  26.603  32.094  1.00  0.00     0.074 A 
ATOM     72  C   UNL A   1      45.619  25.527  31.492  1.00  0.00     0.031 C 
ATOM     73  C   UNL A   1      45.209  27.240  33.239  1.00  0.00     0.037 A 
BRANCH  60  74
ATOM     74  C   UNL A   1      41.300  31.728  34.941  1.00  0.00     0.058 A 
ATOM     75  C   UNL A   1      40.373  31.525  35.978  1.00  0.00     0.135 A 
ATOM     76  C   UNL A   1      41.910  32.988  34.850  1.00  0.00     0.135 A 
ATOM     77  F   UNL A   1      39.747  30.344  36.104  1.00  0.00    -0.206 F 
ATOM     78  C   UNL A   1      40.035  32.543  36.863  1.00  0.00     0.059 A 
ATOM     79  C   UNL A   1      41.609  34.013  35.743  1.00  0.00     0.059 A 
ATOM     80  F   UNL A   1      42.804  33.238  33.880  1.00  0.00    -0.206 F 
ATOM     81  C   UNL A   1      40.655  33.787  36.734  1.00  0.00     0.060 A 
BRANCH  81  82
ATOM     82  S   UNL A   1      40.196  35.102  37.882  1.00  0.00     0.124 S 
ATOM     83  O   UNL A   1      40.014  36.229  36.973  1.00  0.00    -0.237 OA
ATOM     84  O   UNL A   1      38.978  34.576  38.490  1.00  0.00    -0.237 OA
ATOM     85  O   UNL A   1      41.348  35.194  38.773  1.00  0.00    -0.744 OA
ENDBRANCH  81  82
ENDBRANCH  60  74
BRANCH  61  86
ATOM     86  C   UNL A   1      43.233  24.674  28.118  1.00  0.00     0.058 A 
ATOM     87  C   UNL A   1      43.881  24.997  26.917  1.00  0.00     0.135 A 
ATOM     88  C   UNL A   1      42.888  23.332  28.335  1.00  0.00     0.135 A 
ATOM     89  F   UNL A   1      44.225  26.268  26.662  1.00  0.00    -0.206 F 
ATOM     90  C   UNL A   1      44.163  24.030  25.957  1.00  0.00     0.059 A 
ATOM     91  C   UNL A   1      43.182  22.342  27.401  1.00  0.00     0.059 A 
ATOM     92  F   UNL A   1      42.283  22.967  29.476  1.00  0.00    -0.206 F 
ATOM     93  C   UNL A   1      43.811  22.703  26.210  1.00  0.00     0.060 A 
BRANCH  93  94
ATOM     94  S   UNL A   1      44.226  21.449  24.979  1.00  0.00     0.124 S 
ATOM     95  O   UNL A   1      44.155  22.216  23.741  1.00  0.00    -0.237 OA
ATOM     96  O   UNL A   1      45.561  21.037  25.399  1.00  0.00    -0.237 OA
ATOM     97  O   UNL A   1      43.182  20.444  25.162  1.00  0.00    -0.744 OA
ENDBRANCH  93  94
ENDBRANCH  61  86
BRANCH  73  98
ATOM     98  C   UNL A   1      46.459  26.768  33.930  1.00  0.00     0.058 A 
ATOM     99  C   UNL A   1      46.433  25.733  34.877  1.00  0.00     0.135 A 
ATOM    100  C   UNL A   1      47.704  27.337  33.614  1.00  0.00     0.135 A 
ATOM    101  F   UNL A   1      45.269  25.159  35.218  1.00  0.00    -0.206 F 
ATOM    102  C   UNL A   1      47.592  25.301  35.512  1.00  0.00     0.059 A 
ATOM    103  C   UNL A   1      48.879  26.902  34.216  1.00  0.00     0.059 A 
ATOM    104  F   UNL A   1      47.786  28.323  32.706  1.00  0.00    -0.206 F 
ATOM    105  C   UNL A   1      48.812  25.892  35.176  1.00  0.00     0.060 A 
BRANCH 105 106
ATOM    106  S   UNL A   1      50.313  25.311  35.992  1.00  0.00     0.124 S 
ATOM    107  O   UNL A   1      49.806  24.187  36.773  1.00  0.00    -0.237 OA
ATOM    108  O   UNL A   1      51.169  24.962  34.862  1.00  0.00    -0.237 OA
ATOM    109  O   UNL A   1      50.749  26.468  36.766  1.00  0.00    -0.744 OA
ENDBRANCH 105 106
ENDBRANCH  73  98
ENDBRANCH  47  48
ENDBRANCH  39  42
ENDBRANCH  37  38
ENDBRANCH  36  37
ENDBRANCH   1  36
TORSDOF 19
ENDMDL
