MODEL 1
REMARK VINA RESULT:     -13.7      0.000      0.000
REMARK SMILES C[C@H]1CCc2sc3ncn4nc(/C=C\C(=O)NCCCCNC(=O)c5ccc(-c6c7nc(c(-c8c(F)cc(S(=O)(=O)[O-])cc8F)c8ccc([nH]8)c(-c8c(F)cc(S(=O)(=O)[O-])cc8F)c8nc(c(-c9c(F)cc(S(=O)(=O)[O-])cc9F)c9ccc6[nH]9)C=C8)C=C7)cc5)nc4c3c2C1
REMARK SMILES IDX 20 1 19 2 18 3 17 4 15 5 16 6 14 8 13 9 12 10 1 11 2 12 3 13
REMARK SMILES IDX 95 14 4 15 94 16 5 17 93 18 6 19 7 20 92 21 8 22 10 23 91 24
REMARK SMILES IDX 9 25 11 26 21 27 22 28 23 29 24 31 25 32 26 33 90 34 27 35
REMARK SMILES IDX 89 36 28 37 29 38 30 39 83 40 31 41 88 42 82 43 84 44 32 45
REMARK SMILES IDX 87 46 81 47 80 48 33 50 67 51 46 52 66 53 47 54 50 55 65 56
REMARK SMILES IDX 85 57 48 58 49 59 64 61 86 62 51 63 34 64 35 65 44 66 36 67
REMARK SMILES IDX 37 68 43 69 45 70 38 71 39 72 40 73 41 74 42 75 68 76 69 77
REMARK SMILES IDX 78 78 70 79 71 80 77 81 79 82 72 83 73 84 74 85 75 86 76 87
REMARK SMILES IDX 52 88 53 89 62 90 54 91 55 92 61 93 63 94 56 95 57 96 58 97
REMARK SMILES IDX 59 98 60 99
REMARK H PARENT 17 7 22 30 84 49 50 60
REMARK Flexibility Score: inf
ROOT
ATOM      1  C   UNL A   1      36.781  22.261  26.174  1.00  0.00     0.023 C 
ENDROOT
BRANCH   1   2
ATOM      2  C   UNL A   1      35.302  21.931  25.767  1.00  0.00     0.023 C 
BRANCH   2   3
ATOM      3  C   UNL A   1      34.332  21.496  26.879  1.00  0.00     0.116 C 
BRANCH   3   4
ATOM      4  N   UNL A   1      33.365  22.522  27.284  1.00  0.00    -0.353 N 
ATOM      5  C   UNL A   1      32.069  22.774  26.934  1.00  0.00     0.244 C 
ATOM      6  O   UNL A   1      31.437  23.618  27.572  1.00  0.00    -0.270 OA
ATOM      7  H   UNL A   1      33.723  23.158  27.943  1.00  0.00     0.163 HD
BRANCH   5   8
ATOM      8  C   UNL A   1      31.434  22.220  25.711  1.00  0.00     0.075 C 
ATOM      9  C   UNL A   1      31.737  22.464  24.426  1.00  0.00     0.057 C 
BRANCH   9  10
ATOM     10  C   UNL A   1      32.687  23.404  23.960  1.00  0.00     0.175 A 
ATOM     11  C   UNL A   1      34.812  29.263  26.971  1.00  0.00     0.008 C 
ATOM     12  C   UNL A   1      33.432  28.697  27.360  1.00  0.00    -0.009 C 
ATOM     13  C   UNL A   1      32.299  29.716  27.079  1.00  0.00     0.009 C 
ATOM     14  C   UNL A   1      33.139  27.361  26.626  1.00  0.00     0.041 C 
ATOM     15  C   UNL A   1      32.057  30.000  25.596  1.00  0.00     0.047 C 
ATOM     16  C   UNL A   1      32.994  27.639  25.172  1.00  0.00    -0.020 A 
ATOM     17  C   UNL A   1      32.518  28.863  24.748  1.00  0.00     0.011 A 
ATOM     18  C   UNL A   1      33.282  26.811  24.059  1.00  0.00     0.060 A 
ATOM     19  S   UNL A   1      32.595  29.021  23.088  1.00  0.00    -0.120 S 
ATOM     20  C   UNL A   1      33.182  27.446  22.839  1.00  0.00     0.129 A 
ATOM     21  C   UNL A   1      33.414  25.349  23.928  1.00  0.00     0.168 A 
ATOM     22  N   UNL A   1      33.301  26.897  21.585  1.00  0.00    -0.225 NA
ATOM     23  N   UNL A   1      33.430  24.820  22.664  1.00  0.00    -0.201 N 
ATOM     24  N   UNL A   1      33.045  24.436  24.786  1.00  0.00    -0.207 NA
ATOM     25  C   UNL A   1      33.394  25.599  21.514  1.00  0.00     0.227 A 
ATOM     26  N   UNL A   1      33.036  23.534  22.670  1.00  0.00    -0.145 NA
ENDBRANCH   9  10
ENDBRANCH   5   8
ENDBRANCH   3   4
ENDBRANCH   2   3
ENDBRANCH   1   2
BRANCH   1  27
ATOM     27  C   UNL A   1      37.933  22.063  25.149  1.00  0.00     0.116 C 
BRANCH  27  28
ATOM     28  N   UNL A   1      39.240  21.686  25.766  1.00  0.00    -0.352 N 
ATOM     29  C   UNL A   1      39.916  22.063  26.934  1.00  0.00     0.251 C 
ATOM     30  H   UNL A   1      39.738  21.024  25.234  1.00  0.00     0.163 HD
ATOM     31  O   UNL A   1      40.378  21.152  27.628  1.00  0.00    -0.269 OA
BRANCH  29  32
ATOM     32  C   UNL A   1      40.375  23.453  27.261  1.00  0.00     0.039 A 
ATOM     33  C   UNL A   1      39.729  24.543  26.666  1.00  0.00     0.014 A 
ATOM     34  C   UNL A   1      41.499  23.753  28.028  1.00  0.00     0.014 A 
ATOM     35  C   UNL A   1      40.005  25.874  27.081  1.00  0.00     0.010 A 
ATOM     36  C   UNL A   1      41.751  25.093  28.465  1.00  0.00     0.010 A 
ATOM     37  C   UNL A   1      40.913  26.168  28.121  1.00  0.00    -0.014 A 
BRANCH  37  38
ATOM     38  C   UNL A   1      40.881  27.531  28.807  1.00  0.00     0.031 A 
ATOM     39  C   UNL A   1      41.987  28.525  28.469  1.00  0.00     0.074 A 
ATOM     40  C   UNL A   1      39.878  28.184  29.468  1.00  0.00     0.049 A 
ATOM     41  N   UNL A   1      42.960  28.967  29.204  1.00  0.00    -0.248 NA
ATOM     42  C   UNL A   1      41.977  29.118  27.124  1.00  0.00     0.031 C 
ATOM     43  C   UNL A   1      38.468  27.827  29.658  1.00  0.00     0.029 A 
ATOM     44  N   UNL A   1      39.937  29.428  30.083  1.00  0.00    -0.354 N 
ATOM     45  C   UNL A   1      43.616  29.974  28.473  1.00  0.00     0.074 A 
ATOM     46  C   UNL A   1      43.020  29.951  27.161  1.00  0.00     0.031 C 
ATOM     47  C   UNL A   1      37.794  28.859  30.218  1.00  0.00     0.029 A 
ATOM     48  C   UNL A   1      38.720  29.928  30.542  1.00  0.00     0.049 A 
ATOM     49  H   UNL A   1      40.781  29.923  30.189  1.00  0.00     0.167 HD
ATOM     50  C   UNL A   1      44.528  30.836  29.021  1.00  0.00     0.037 A 
ATOM     51  C   UNL A   1      38.464  31.109  31.166  1.00  0.00     0.037 A 
ATOM     52  C   UNL A   1      44.885  30.446  30.358  1.00  0.00     0.049 A 
ATOM     53  C   UNL A   1      39.733  31.604  31.750  1.00  0.00     0.074 A 
ATOM     54  C   UNL A   1      45.432  29.323  30.947  1.00  0.00     0.029 A 
ATOM     55  N   UNL A   1      44.417  31.206  31.402  1.00  0.00    -0.354 N 
ATOM     56  N   UNL A   1      40.344  31.052  32.759  1.00  0.00    -0.248 NA
ATOM     57  C   UNL A   1      40.500  32.612  31.035  1.00  0.00     0.031 C 
ATOM     58  C   UNL A   1      44.794  29.230  32.220  1.00  0.00     0.029 A 
ATOM     59  C   UNL A   1      43.922  30.316  32.318  1.00  0.00     0.049 A 
ATOM     60  H   UNL A   1      44.434  32.188  31.476  1.00  0.00     0.167 HD
ATOM     61  C   UNL A   1      41.683  31.332  32.561  1.00  0.00     0.074 A 
ATOM     62  C   UNL A   1      41.700  32.413  31.583  1.00  0.00     0.031 C 
ATOM     63  C   UNL A   1      42.655  30.476  32.995  1.00  0.00     0.037 A 
BRANCH  50  64
ATOM     64  C   UNL A   1      44.964  32.197  28.494  1.00  0.00     0.058 A 
ATOM     65  C   UNL A   1      46.340  32.437  28.251  1.00  0.00     0.135 A 
ATOM     66  C   UNL A   1      44.147  33.345  28.484  1.00  0.00     0.135 A 
ATOM     67  F   UNL A   1      47.218  31.422  28.215  1.00  0.00    -0.206 F 
ATOM     68  C   UNL A   1      46.876  33.720  28.116  1.00  0.00     0.059 A 
ATOM     69  C   UNL A   1      44.654  34.635  28.298  1.00  0.00     0.059 A 
ATOM     70  F   UNL A   1      42.835  33.276  28.745  1.00  0.00    -0.206 F 
ATOM     71  C   UNL A   1      46.026  34.817  28.170  1.00  0.00     0.060 A 
BRANCH  71  72
ATOM     72  S   UNL A   1      46.736  36.477  28.154  1.00  0.00     0.124 S 
ATOM     73  O   UNL A   1      48.132  36.191  27.844  1.00  0.00    -0.237 OA
ATOM     74  O   UNL A   1      45.970  37.133  27.098  1.00  0.00    -0.237 OA
ATOM     75  O   UNL A   1      46.475  36.965  29.504  1.00  0.00    -0.744 OA
ENDBRANCH  71  72
ENDBRANCH  50  64
BRANCH  51  76
ATOM     76  C   UNL A   1      37.209  31.912  31.265  1.00  0.00     0.058 A 
ATOM     77  C   UNL A   1      36.447  31.968  32.451  1.00  0.00     0.135 A 
ATOM     78  C   UNL A   1      36.866  32.849  30.273  1.00  0.00     0.135 A 
ATOM     79  F   UNL A   1      36.712  31.135  33.469  1.00  0.00    -0.206 F 
ATOM     80  C   UNL A   1      35.436  32.916  32.654  1.00  0.00     0.059 A 
ATOM     81  C   UNL A   1      35.854  33.798  30.448  1.00  0.00     0.059 A 
ATOM     82  F   UNL A   1      37.565  32.925  29.131  1.00  0.00    -0.206 F 
ATOM     83  C   UNL A   1      35.158  33.843  31.651  1.00  0.00     0.060 A 
BRANCH  83  84
ATOM     84  S   UNL A   1      33.972  35.171  31.972  1.00  0.00     0.124 S 
ATOM     85  O   UNL A   1      33.641  35.619  30.624  1.00  0.00    -0.237 OA
ATOM     86  O   UNL A   1      32.911  34.471  32.690  1.00  0.00    -0.237 OA
ATOM     87  O   UNL A   1      34.737  36.123  32.774  1.00  0.00    -0.744 OA
ENDBRANCH  83  84
ENDBRANCH  51  76
BRANCH  63  88
ATOM     88  C   UNL A   1      42.288  29.409  33.992  1.00  0.00     0.058 A 
ATOM     89  C   UNL A   1      41.775  28.150  33.636  1.00  0.00     0.135 A 
ATOM     90  C   UNL A   1      42.644  29.598  35.337  1.00  0.00     0.135 A 
ATOM     91  F   UNL A   1      41.511  27.845  32.359  1.00  0.00    -0.206 F 
ATOM     92  C   UNL A   1      41.593  27.137  34.576  1.00  0.00     0.059 A 
ATOM     93  C   UNL A   1      42.507  28.587  36.285  1.00  0.00     0.059 A 
ATOM     94  F   UNL A   1      43.198  30.756  35.730  1.00  0.00    -0.206 F 
ATOM     95  C   UNL A   1      41.971  27.360  35.898  1.00  0.00     0.060 A 
BRANCH  95  96
ATOM     96  S   UNL A   1      41.857  25.998  37.077  1.00  0.00     0.124 S 
ATOM     97  O   UNL A   1      40.479  26.109  37.541  1.00  0.00    -0.237 OA
ATOM     98  O   UNL A   1      42.158  24.832  36.252  1.00  0.00    -0.237 OA
ATOM     99  O   UNL A   1      42.879  26.323  38.072  1.00  0.00    -0.744 OA
ENDBRANCH  95  96
ENDBRANCH  63  88
ENDBRANCH  37  38
ENDBRANCH  29  32
ENDBRANCH  27  28
ENDBRANCH   1  27
TORSDOF 15
ENDMDL
MODEL 2
REMARK VINA RESULT:     -13.3      1.359      2.376
REMARK SMILES C[C@H]1CCc2sc3ncn4nc(/C=C\C(=O)NCCCCNC(=O)c5ccc(-c6c7nc(c(-c8c(F)cc(S(=O)(=O)[O-])cc8F)c8ccc([nH]8)c(-c8c(F)cc(S(=O)(=O)[O-])cc8F)c8nc(c(-c9c(F)cc(S(=O)(=O)[O-])cc9F)c9ccc6[nH]9)C=C8)C=C7)cc5)nc4c3c2C1
REMARK SMILES IDX 20 1 19 2 18 3 17 4 15 5 16 6 14 8 13 9 12 10 1 11 2 12 3 13
REMARK SMILES IDX 95 14 4 15 94 16 5 17 93 18 6 19 7 20 92 21 8 22 10 23 91 24
REMARK SMILES IDX 9 25 11 26 21 27 22 28 23 29 24 31 25 32 26 33 90 34 27 35
REMARK SMILES IDX 89 36 28 37 29 38 30 39 83 40 31 41 88 42 82 43 84 44 32 45
REMARK SMILES IDX 87 46 81 47 80 48 33 50 67 51 46 52 66 53 47 54 50 55 65 56
REMARK SMILES IDX 85 57 48 58 49 59 64 61 86 62 51 63 34 64 35 65 44 66 36 67
REMARK SMILES IDX 37 68 43 69 45 70 38 71 39 72 40 73 41 74 42 75 68 76 69 77
REMARK SMILES IDX 78 78 70 79 71 80 77 81 79 82 72 83 73 84 74 85 75 86 76 87
REMARK SMILES IDX 52 88 53 89 62 90 54 91 55 92 61 93 63 94 56 95 57 96 58 97
REMARK SMILES IDX 59 98 60 99
REMARK H PARENT 17 7 22 30 84 49 50 60
REMARK Flexibility Score: inf
ROOT
ATOM      1  C   UNL A   1      39.990  20.570  26.234  1.00  0.00     0.023 C 
ENDROOT
BRANCH   1   2
ATOM      2  C   UNL A   1      39.145  21.891  26.207  1.00  0.00     0.023 C 
BRANCH   2   3
ATOM      3  C   UNL A   1      37.895  21.926  25.311  1.00  0.00     0.116 C 
BRANCH   3   4
ATOM      4  N   UNL A   1      36.636  22.165  26.025  1.00  0.00    -0.353 N 
ATOM      5  C   UNL A   1      35.447  21.497  26.071  1.00  0.00     0.244 C 
ATOM      6  O   UNL A   1      34.606  21.841  26.905  1.00  0.00    -0.270 OA
ATOM      7  H   UNL A   1      36.653  22.974  26.585  1.00  0.00     0.163 HD
BRANCH   5   8
ATOM      8  C   UNL A   1      35.036  20.494  25.055  1.00  0.00     0.075 C 
ATOM      9  C   UNL A   1      33.891  20.431  24.357  1.00  0.00     0.057 C 
BRANCH   9  10
ATOM     10  C   UNL A   1      32.768  21.275  24.524  1.00  0.00     0.175 A 
ATOM     11  C   UNL A   1      31.877  27.777  22.322  1.00  0.00     0.008 C 
ATOM     12  C   UNL A   1      33.316  27.258  22.511  1.00  0.00    -0.009 C 
ATOM     13  C   UNL A   1      34.107  28.125  23.522  1.00  0.00     0.009 C 
ATOM     14  C   UNL A   1      33.328  25.772  22.964  1.00  0.00     0.041 C 
ATOM     15  C   UNL A   1      33.603  28.035  24.963  1.00  0.00     0.047 C 
ATOM     16  C   UNL A   1      32.754  25.686  24.333  1.00  0.00    -0.020 A 
ATOM     17  C   UNL A   1      32.884  26.750  25.202  1.00  0.00     0.011 A 
ATOM     18  C   UNL A   1      32.039  24.631  24.951  1.00  0.00     0.060 A 
ATOM     19  S   UNL A   1      32.027  26.509  26.614  1.00  0.00    -0.120 S 
ATOM     20  C   UNL A   1      31.509  24.950  26.183  1.00  0.00     0.129 A 
ATOM     21  C   UNL A   1      31.969  23.187  24.660  1.00  0.00     0.168 A 
ATOM     22  N   UNL A   1      30.857  24.123  27.065  1.00  0.00    -0.225 NA
ATOM     23  N   UNL A   1      31.402  22.373  25.604  1.00  0.00    -0.201 N 
ATOM     24  N   UNL A   1      32.764  22.491  23.892  1.00  0.00    -0.207 NA
ATOM     25  C   UNL A   1      30.838  22.851  26.780  1.00  0.00     0.227 A 
ATOM     26  N   UNL A   1      31.846  21.108  25.486  1.00  0.00    -0.145 NA
ENDBRANCH   9  10
ENDBRANCH   5   8
ENDBRANCH   3   4
ENDBRANCH   2   3
ENDBRANCH   1   2
BRANCH   1  27
ATOM     27  C   UNL A   1      41.543  20.638  26.187  1.00  0.00     0.116 C 
BRANCH  27  28
ATOM     28  N   UNL A   1      42.079  21.782  25.389  1.00  0.00    -0.352 N 
ATOM     29  C   UNL A   1      42.668  23.012  25.714  1.00  0.00     0.251 C 
ATOM     30  H   UNL A   1      42.001  21.642  24.418  1.00  0.00     0.163 HD
ATOM     31  O   UNL A   1      43.703  23.309  25.112  1.00  0.00    -0.269 OA
BRANCH  29  32
ATOM     32  C   UNL A   1      42.010  24.109  26.498  1.00  0.00     0.039 A 
ATOM     33  C   UNL A   1      42.321  24.260  27.855  1.00  0.00     0.014 A 
ATOM     34  C   UNL A   1      40.998  24.931  26.008  1.00  0.00     0.014 A 
ATOM     35  C   UNL A   1      41.867  25.388  28.590  1.00  0.00     0.010 A 
ATOM     36  C   UNL A   1      40.569  26.082  26.743  1.00  0.00     0.010 A 
ATOM     37  C   UNL A   1      41.111  26.421  27.995  1.00  0.00    -0.014 A 
BRANCH  37  38
ATOM     38  C   UNL A   1      40.994  27.781  28.681  1.00  0.00     0.031 A 
ATOM     39  C   UNL A   1      42.064  28.824  28.381  1.00  0.00     0.074 A 
ATOM     40  C   UNL A   1      39.941  28.386  29.309  1.00  0.00     0.049 A 
ATOM     41  N   UNL A   1      42.992  29.308  29.149  1.00  0.00    -0.248 NA
ATOM     42  C   UNL A   1      42.073  29.419  27.037  1.00  0.00     0.031 C 
ATOM     43  C   UNL A   1      38.544  27.965  29.451  1.00  0.00     0.029 A 
ATOM     44  N   UNL A   1      39.923  29.630  29.927  1.00  0.00    -0.354 N 
ATOM     45  C   UNL A   1      43.625  30.345  28.440  1.00  0.00     0.074 A 
ATOM     46  C   UNL A   1      43.075  30.298  27.109  1.00  0.00     0.031 C 
ATOM     47  C   UNL A   1      37.805  28.965  29.990  1.00  0.00     0.029 A 
ATOM     48  C   UNL A   1      38.671  30.073  30.345  1.00  0.00     0.049 A 
ATOM     49  H   UNL A   1      40.740  30.162  30.062  1.00  0.00     0.167 HD
ATOM     50  C   UNL A   1      44.479  31.246  29.019  1.00  0.00     0.037 A 
ATOM     51  C   UNL A   1      38.340  31.240  30.961  1.00  0.00     0.037 A 
ATOM     52  C   UNL A   1      44.809  30.869  30.367  1.00  0.00     0.049 A 
ATOM     53  C   UNL A   1      39.566  31.790  31.587  1.00  0.00     0.074 A 
ATOM     54  C   UNL A   1      45.386  29.771  30.973  1.00  0.00     0.029 A 
ATOM     55  N   UNL A   1      44.272  31.604  31.396  1.00  0.00    -0.354 N 
ATOM     56  N   UNL A   1      40.167  31.263  32.617  1.00  0.00    -0.248 NA
ATOM     57  C   UNL A   1      40.310  32.834  30.900  1.00  0.00     0.031 C 
ATOM     58  C   UNL A   1      44.711  29.646  32.224  1.00  0.00     0.029 A 
ATOM     59  C   UNL A   1      43.788  30.691  32.294  1.00  0.00     0.049 A 
ATOM     60  H   UNL A   1      44.242  32.586  31.472  1.00  0.00     0.167 HD
ATOM     61  C   UNL A   1      41.498  31.605  32.463  1.00  0.00     0.074 A 
ATOM     62  C   UNL A   1      41.499  32.687  31.487  1.00  0.00     0.031 C 
ATOM     63  C   UNL A   1      42.493  30.793  32.928  1.00  0.00     0.037 A 
BRANCH  50  64
ATOM     64  C   UNL A   1      44.870  32.626  28.508  1.00  0.00     0.058 A 
ATOM     65  C   UNL A   1      46.241  32.927  28.306  1.00  0.00     0.135 A 
ATOM     66  C   UNL A   1      44.004  33.738  28.477  1.00  0.00     0.135 A 
ATOM     67  F   UNL A   1      47.163  31.952  28.295  1.00  0.00    -0.206 F 
ATOM     68  C   UNL A   1      46.724  34.233  28.190  1.00  0.00     0.059 A 
ATOM     69  C   UNL A   1      44.460  35.050  28.308  1.00  0.00     0.059 A 
ATOM     70  F   UNL A   1      42.690  33.610  28.699  1.00  0.00    -0.206 F 
ATOM     71  C   UNL A   1      45.825  35.291  28.221  1.00  0.00     0.060 A 
BRANCH  71  72
ATOM     72  S   UNL A   1      46.463  36.981  28.230  1.00  0.00     0.124 S 
ATOM     73  O   UNL A   1      47.842  36.771  27.807  1.00  0.00    -0.237 OA
ATOM     74  O   UNL A   1      45.594  37.646  27.264  1.00  0.00    -0.237 OA
ATOM     75  O   UNL A   1      46.282  37.399  29.616  1.00  0.00    -0.744 OA
ENDBRANCH  71  72
ENDBRANCH  50  64
BRANCH  51  76
ATOM     76  C   UNL A   1      37.048  31.985  31.019  1.00  0.00     0.058 A 
ATOM     77  C   UNL A   1      36.169  31.876  32.117  1.00  0.00     0.135 A 
ATOM     78  C   UNL A   1      36.766  33.022  30.111  1.00  0.00     0.135 A 
ATOM     79  F   UNL A   1      36.367  30.937  33.055  1.00  0.00    -0.206 F 
ATOM     80  C   UNL A   1      35.102  32.761  32.320  1.00  0.00     0.059 A 
ATOM     81  C   UNL A   1      35.701  33.911  30.286  1.00  0.00     0.059 A 
ATOM     82  F   UNL A   1      37.572  33.255  29.065  1.00  0.00    -0.206 F 
ATOM     83  C   UNL A   1      34.886  33.790  31.406  1.00  0.00     0.060 A 
BRANCH  83  84
ATOM     84  S   UNL A   1      33.616  35.033  31.751  1.00  0.00     0.124 S 
ATOM     85  O   UNL A   1      32.855  34.403  32.824  1.00  0.00    -0.237 OA
ATOM     86  O   UNL A   1      34.416  36.193  32.134  1.00  0.00    -0.237 OA
ATOM     87  O   UNL A   1      32.912  35.160  30.478  1.00  0.00    -0.744 OA
ENDBRANCH  83  84
ENDBRANCH  51  76
BRANCH  63  88
ATOM     88  C   UNL A   1      42.142  29.707  33.911  1.00  0.00     0.058 A 
ATOM     89  C   UNL A   1      41.776  28.402  33.539  1.00  0.00     0.135 A 
ATOM     90  C   UNL A   1      42.365  29.943  35.277  1.00  0.00     0.135 A 
ATOM     91  F   UNL A   1      41.649  28.061  32.250  1.00  0.00    -0.206 F 
ATOM     92  C   UNL A   1      41.608  27.388  34.479  1.00  0.00     0.059 A 
ATOM     93  C   UNL A   1      42.241  28.934  36.230  1.00  0.00     0.059 A 
ATOM     94  F   UNL A   1      42.778  31.152  35.694  1.00  0.00    -0.206 F 
ATOM     95  C   UNL A   1      41.853  27.659  35.823  1.00  0.00     0.060 A 
BRANCH  95  96
ATOM     96  S   UNL A   1      41.764  26.306  37.015  1.00  0.00     0.124 S 
ATOM     97  O   UNL A   1      42.965  26.522  37.814  1.00  0.00    -0.237 OA
ATOM     98  O   UNL A   1      40.497  26.557  37.693  1.00  0.00    -0.237 OA
ATOM     99  O   UNL A   1      41.781  25.110  36.172  1.00  0.00    -0.744 OA
ENDBRANCH  95  96
ENDBRANCH  63  88
ENDBRANCH  37  38
ENDBRANCH  29  32
ENDBRANCH  27  28
ENDBRANCH   1  27
TORSDOF 15
ENDMDL
MODEL 3
REMARK VINA RESULT:     -13.3      1.034      1.824
REMARK SMILES C[C@H]1CCc2sc3ncn4nc(/C=C\C(=O)NCCCCNC(=O)c5ccc(-c6c7nc(c(-c8c(F)cc(S(=O)(=O)[O-])cc8F)c8ccc([nH]8)c(-c8c(F)cc(S(=O)(=O)[O-])cc8F)c8nc(c(-c9c(F)cc(S(=O)(=O)[O-])cc9F)c9ccc6[nH]9)C=C8)C=C7)cc5)nc4c3c2C1
REMARK SMILES IDX 20 1 19 2 18 3 17 4 15 5 16 6 14 8 13 9 12 10 1 11 2 12 3 13
REMARK SMILES IDX 95 14 4 15 94 16 5 17 93 18 6 19 7 20 92 21 8 22 10 23 91 24
REMARK SMILES IDX 9 25 11 26 21 27 22 28 23 29 24 31 25 32 26 33 90 34 27 35
REMARK SMILES IDX 89 36 28 37 29 38 30 39 83 40 31 41 88 42 82 43 84 44 32 45
REMARK SMILES IDX 87 46 81 47 80 48 33 50 67 51 46 52 66 53 47 54 50 55 65 56
REMARK SMILES IDX 85 57 48 58 49 59 64 61 86 62 51 63 34 64 35 65 44 66 36 67
REMARK SMILES IDX 37 68 43 69 45 70 38 71 39 72 40 73 41 74 42 75 68 76 69 77
REMARK SMILES IDX 78 78 70 79 71 80 77 81 79 82 72 83 73 84 74 85 75 86 76 87
REMARK SMILES IDX 52 88 53 89 62 90 54 91 55 92 61 93 63 94 56 95 57 96 58 97
REMARK SMILES IDX 59 98 60 99
REMARK H PARENT 17 7 22 30 84 49 50 60
REMARK Flexibility Score: inf
ROOT
ATOM      1  C   UNL A   1      36.917  21.321  24.937  1.00  0.00     0.023 C 
ENDROOT
BRANCH   1   2
ATOM      2  C   UNL A   1      35.902  22.201  25.747  1.00  0.00     0.023 C 
BRANCH   2   3
ATOM      3  C   UNL A   1      34.788  21.479  26.525  1.00  0.00     0.116 C 
BRANCH   3   4
ATOM      4  N   UNL A   1      33.774  22.364  27.105  1.00  0.00    -0.353 N 
ATOM      5  C   UNL A   1      32.430  22.501  26.906  1.00  0.00     0.244 C 
ATOM      6  O   UNL A   1      31.789  23.225  27.671  1.00  0.00    -0.270 OA
ATOM      7  H   UNL A   1      34.136  22.986  27.776  1.00  0.00     0.163 HD
BRANCH   5   8
ATOM      8  C   UNL A   1      31.725  21.971  25.711  1.00  0.00     0.075 C 
ATOM      9  C   UNL A   1      31.927  22.272  24.419  1.00  0.00     0.057 C 
BRANCH   9  10
ATOM     10  C   UNL A   1      32.812  23.260  23.923  1.00  0.00     0.175 A 
ATOM     11  C   UNL A   1      34.685  29.247  26.848  1.00  0.00     0.008 C 
ATOM     12  C   UNL A   1      33.349  28.610  27.275  1.00  0.00    -0.009 C 
ATOM     13  C   UNL A   1      32.155  29.562  27.017  1.00  0.00     0.009 C 
ATOM     14  C   UNL A   1      33.112  27.254  26.555  1.00  0.00     0.041 C 
ATOM     15  C   UNL A   1      31.860  29.823  25.539  1.00  0.00     0.047 C 
ATOM     16  C   UNL A   1      32.915  27.513  25.104  1.00  0.00    -0.020 A 
ATOM     17  C   UNL A   1      32.362  28.707  24.686  1.00  0.00     0.011 A 
ATOM     18  C   UNL A   1      33.221  26.695  23.989  1.00  0.00     0.060 A 
ATOM     19  S   UNL A   1      32.388  28.857  23.024  1.00  0.00    -0.120 S 
ATOM     20  C   UNL A   1      33.055  27.315  22.769  1.00  0.00     0.129 A 
ATOM     21  C   UNL A   1      33.430  25.242  23.862  1.00  0.00     0.168 A 
ATOM     22  N   UNL A   1      33.173  26.765  21.515  1.00  0.00    -0.225 NA
ATOM     23  N   UNL A   1      33.443  24.706  22.601  1.00  0.00    -0.201 N 
ATOM     24  N   UNL A   1      33.133  24.316  24.735  1.00  0.00    -0.207 NA
ATOM     25  C   UNL A   1      33.335  25.474  21.449  1.00  0.00     0.227 A 
ATOM     26  N   UNL A   1      33.121  23.400  22.624  1.00  0.00    -0.145 NA
ENDBRANCH   9  10
ENDBRANCH   5   8
ENDBRANCH   3   4
ENDBRANCH   2   3
ENDBRANCH   1   2
BRANCH   1  27
ATOM     27  C   UNL A   1      38.183  20.751  25.638  1.00  0.00     0.116 C 
BRANCH  27  28
ATOM     28  N   UNL A   1      39.452  21.445  25.263  1.00  0.00    -0.352 N 
ATOM     29  C   UNL A   1      40.495  22.038  25.988  1.00  0.00     0.251 C 
ATOM     30  H   UNL A   1      39.586  21.498  24.289  1.00  0.00     0.163 HD
ATOM     31  O   UNL A   1      41.644  21.738  25.655  1.00  0.00    -0.269 OA
BRANCH  29  32
ATOM     32  C   UNL A   1      40.350  23.204  26.920  1.00  0.00     0.039 A 
ATOM     33  C   UNL A   1      41.298  23.392  27.933  1.00  0.00     0.014 A 
ATOM     34  C   UNL A   1      39.255  24.067  26.940  1.00  0.00     0.014 A 
ATOM     35  C   UNL A   1      41.305  24.575  28.719  1.00  0.00     0.010 A 
ATOM     36  C   UNL A   1      39.286  25.271  27.713  1.00  0.00     0.010 A 
ATOM     37  C   UNL A   1      40.388  25.628  28.508  1.00  0.00    -0.014 A 
BRANCH  37  38
ATOM     38  C   UNL A   1      40.672  27.019  29.071  1.00  0.00     0.031 A 
ATOM     39  C   UNL A   1      41.776  27.840  28.415  1.00  0.00     0.074 A 
ATOM     40  C   UNL A   1      39.931  27.831  29.883  1.00  0.00     0.049 A 
ATOM     41  N   UNL A   1      42.938  28.191  28.876  1.00  0.00    -0.248 NA
ATOM     42  C   UNL A   1      41.524  28.357  27.062  1.00  0.00     0.031 C 
ATOM     43  C   UNL A   1      38.572  27.671  30.411  1.00  0.00     0.029 A 
ATOM     44  N   UNL A   1      40.273  29.088  30.366  1.00  0.00    -0.354 N 
ATOM     45  C   UNL A   1      43.518  29.063  27.937  1.00  0.00     0.074 A 
ATOM     46  C   UNL A   1      42.636  29.048  26.797  1.00  0.00     0.031 C 
ATOM     47  C   UNL A   1      38.168  28.812  31.021  1.00  0.00     0.029 A 
ATOM     48  C   UNL A   1      39.261  29.766  31.041  1.00  0.00     0.049 A 
ATOM     49  H   UNL A   1      41.170  29.473  30.240  1.00  0.00     0.167 HD
ATOM     50  C   UNL A   1      44.624  29.827  28.195  1.00  0.00     0.037 A 
ATOM     51  C   UNL A   1      39.293  31.002  31.608  1.00  0.00     0.037 A 
ATOM     52  C   UNL A   1      45.234  29.465  29.447  1.00  0.00     0.049 A 
ATOM     53  C   UNL A   1      40.711  31.357  31.852  1.00  0.00     0.074 A 
ATOM     54  C   UNL A   1      45.769  28.313  29.989  1.00  0.00     0.029 A 
ATOM     55  N   UNL A   1      45.110  30.334  30.504  1.00  0.00    -0.354 N 
ATOM     56  N   UNL A   1      41.471  30.785  32.742  1.00  0.00    -0.248 NA
ATOM     57  C   UNL A   1      41.402  32.218  30.904  1.00  0.00     0.031 C 
ATOM     58  C   UNL A   1      45.437  28.372  31.375  1.00  0.00     0.029 A 
ATOM     59  C   UNL A   1      44.741  29.567  31.576  1.00  0.00     0.049 A 
ATOM     60  H   UNL A   1      45.257  31.308  30.492  1.00  0.00     0.167 HD
ATOM     61  C   UNL A   1      42.752  30.878  32.228  1.00  0.00     0.074 A 
ATOM     62  C   UNL A   1      42.666  31.893  31.185  1.00  0.00     0.031 C 
ATOM     63  C   UNL A   1      43.693  29.927  32.503  1.00  0.00     0.037 A 
BRANCH  50  64
ATOM     64  C   UNL A   1      45.080  31.089  27.475  1.00  0.00     0.058 A 
ATOM     65  C   UNL A   1      46.380  31.134  26.913  1.00  0.00     0.135 A 
ATOM     66  C   UNL A   1      44.420  32.331  27.554  1.00  0.00     0.135 A 
ATOM     67  F   UNL A   1      47.104  30.013  26.766  1.00  0.00    -0.206 F 
ATOM     68  C   UNL A   1      47.014  32.327  26.558  1.00  0.00     0.059 A 
ATOM     69  C   UNL A   1      45.015  33.532  27.154  1.00  0.00     0.059 A 
ATOM     70  F   UNL A   1      43.205  32.448  28.106  1.00  0.00    -0.206 F 
ATOM     71  C   UNL A   1      46.331  33.527  26.710  1.00  0.00     0.060 A 
BRANCH  71  72
ATOM     72  S   UNL A   1      47.205  35.077  26.400  1.00  0.00     0.124 S 
ATOM     73  O   UNL A   1      47.781  34.826  25.085  1.00  0.00    -0.237 OA
ATOM     74  O   UNL A   1      46.124  36.057  26.446  1.00  0.00    -0.237 OA
ATOM     75  O   UNL A   1      48.156  35.150  27.505  1.00  0.00    -0.744 OA
ENDBRANCH  71  72
ENDBRANCH  50  64
BRANCH  51  76
ATOM     76  C   UNL A   1      38.196  31.966  31.918  1.00  0.00     0.058 A 
ATOM     77  C   UNL A   1      37.624  32.794  30.930  1.00  0.00     0.135 A 
ATOM     78  C   UNL A   1      37.508  31.913  33.145  1.00  0.00     0.135 A 
ATOM     79  F   UNL A   1      38.188  32.893  29.716  1.00  0.00    -0.206 F 
ATOM     80  C   UNL A   1      36.428  33.494  31.132  1.00  0.00     0.059 A 
ATOM     81  C   UNL A   1      36.318  32.611  33.375  1.00  0.00     0.059 A 
ATOM     82  F   UNL A   1      37.930  31.110  34.133  1.00  0.00    -0.206 F 
ATOM     83  C   UNL A   1      35.770  33.381  32.356  1.00  0.00     0.060 A 
BRANCH  83  84
ATOM     84  S   UNL A   1      34.143  34.147  32.564  1.00  0.00     0.124 S 
ATOM     85  O   UNL A   1      34.445  35.276  33.437  1.00  0.00    -0.237 OA
ATOM     86  O   UNL A   1      33.782  34.483  31.190  1.00  0.00    -0.237 OA
ATOM     87  O   UNL A   1      33.344  33.086  33.171  1.00  0.00    -0.744 OA
ENDBRANCH  83  84
ENDBRANCH  51  76
BRANCH  63  88
ATOM     88  C   UNL A   1      43.446  28.971  33.640  1.00  0.00     0.058 A 
ATOM     89  C   UNL A   1      43.789  29.241  34.976  1.00  0.00     0.135 A 
ATOM     90  C   UNL A   1      42.667  27.829  33.398  1.00  0.00     0.135 A 
ATOM     91  F   UNL A   1      44.436  30.364  35.312  1.00  0.00    -0.206 F 
ATOM     92  C   UNL A   1      43.407  28.399  36.019  1.00  0.00     0.059 A 
ATOM     93  C   UNL A   1      42.240  26.994  34.429  1.00  0.00     0.059 A 
ATOM     94  F   UNL A   1      42.252  27.548  32.152  1.00  0.00    -0.206 F 
ATOM     95  C   UNL A   1      42.622  27.282  35.738  1.00  0.00     0.060 A 
BRANCH  95  96
ATOM     96  S   UNL A   1      42.019  26.275  37.110  1.00  0.00     0.124 S 
ATOM     97  O   UNL A   1      43.034  26.509  38.131  1.00  0.00    -0.237 OA
ATOM     98  O   UNL A   1      40.705  26.850  37.378  1.00  0.00    -0.237 OA
ATOM     99  O   UNL A   1      41.994  24.923  36.553  1.00  0.00    -0.744 OA
ENDBRANCH  95  96
ENDBRANCH  63  88
ENDBRANCH  37  38
ENDBRANCH  29  32
ENDBRANCH  27  28
ENDBRANCH   1  27
TORSDOF 15
ENDMDL
