MODEL 1
REMARK VINA RESULT:     -11.9      0.000      0.000
REMARK SMILES CC1(C)[C@@]2(CC[C@@H]2C(=O)NCc2ccco2)[C@]1(C)C(=O)NCCCCNC(=O)c1ccc(-c2c3nc(c(-c4c(F)cc(S(=O)(=O)[O-])cc4F)c4ccc([nH]4)c(-c4c(F)cc(S(=O)(=O)[O-])cc4F)c4nc(c(-c5c(F)cc(S(=O)(=O)[O-])cc5F)c5ccc2[nH]5)C=C4)C=C3)cc1
REMARK SMILES IDX 23 1 22 2 21 3 19 4 20 5 17 7 1 8 2 9 3 10 4 11 18 12 5 13
REMARK SMILES IDX 7 14 6 15 8 16 9 17 10 18 11 20 12 21 13 22 16 23 14 24
REMARK SMILES IDX 15 25 24 26 25 27 26 28 27 29 28 31 29 32 30 33 94 34 31 35
REMARK SMILES IDX 93 36 32 37 33 38 34 39 87 40 35 41 92 42 86 43 88 44 36 45
REMARK SMILES IDX 91 46 85 47 84 48 37 50 71 51 50 52 70 53 51 54 54 55 69 56
REMARK SMILES IDX 89 57 52 58 53 59 68 61 90 62 55 63 38 64 39 65 48 66 40 67
REMARK SMILES IDX 41 68 47 69 49 70 42 71 43 72 44 73 45 74 46 75 72 76 73 77
REMARK SMILES IDX 82 78 74 79 75 80 81 81 83 82 76 83 77 84 78 85 79 86 80 87
REMARK SMILES IDX 56 88 57 89 66 90 58 91 59 92 65 93 67 94 60 95 61 96 62 97
REMARK SMILES IDX 63 98 64 99
REMARK H PARENT 21 6 10 19 26 30 88 49 54 60
REMARK Flexibility Score: inf
ROOT
ATOM      1  C   UNL A   1      31.743  27.844  26.620  1.00  0.00     0.023 C 
ENDROOT
BRANCH   1   2
ATOM      2  C   UNL A   1      31.079  26.786  25.732  1.00  0.00     0.116 C 
BRANCH   2   3
ATOM      3  N   UNL A   1      30.864  25.592  26.503  1.00  0.00    -0.356 N 
ATOM      4  C   UNL A   1      30.723  24.297  26.111  1.00  0.00     0.227 C 
ATOM      5  O   UNL A   1      30.211  23.514  26.912  1.00  0.00    -0.274 OA
ATOM      6  H   UNL A   1      30.809  25.735  27.476  1.00  0.00     0.163 HD
BRANCH   4   7
ATOM      7  C   UNL A   1      31.339  23.723  24.856  1.00  0.00     0.059 C 
ATOM      8  C   UNL A   1      31.875  21.154  25.377  1.00  0.00     0.013 C 
ATOM      9  C   UNL A   1      32.051  22.386  24.528  1.00  0.00    -0.013 C 
ATOM     10  C   UNL A   1      32.238  21.984  23.071  1.00  0.00     0.013 C 
ATOM     11  C   UNL A   1      32.885  23.520  25.037  1.00  0.00     0.003 C 
ATOM     12  C   UNL A   1      30.794  24.465  23.631  1.00  0.00     0.023 C 
ATOM     13  C   UNL A   1      33.830  24.463  24.378  1.00  0.00     0.010 C 
ATOM     14  C   UNL A   1      33.642  23.547  26.347  1.00  0.00     0.086 C 
ATOM     15  C   UNL A   1      34.465  24.688  25.752  1.00  0.00     0.015 C 
BRANCH  14  16
ATOM     16  C   UNL A   1      34.321  22.284  26.915  1.00  0.00     0.224 C 
ATOM     17  O   UNL A   1      33.863  21.698  27.911  1.00  0.00    -0.275 OA
ATOM     18  N   UNL A   1      35.453  21.706  26.404  1.00  0.00    -0.349 N 
ATOM     19  H   UNL A   1      35.753  20.908  26.897  1.00  0.00     0.163 HD
BRANCH  18  20
ATOM     20  C   UNL A   1      36.289  22.046  25.280  1.00  0.00     0.191 C 
BRANCH  20  21
ATOM     21  C   UNL A   1      37.625  22.479  25.756  1.00  0.00     0.122 A 
ATOM     22  C   UNL A   1      38.158  23.682  26.179  1.00  0.00     0.047 A 
ATOM     23  O   UNL A   1      38.585  21.509  25.808  1.00  0.00    -0.467 OA
ATOM     24  C   UNL A   1      39.513  23.432  26.503  1.00  0.00     0.042 A 
ATOM     25  C   UNL A   1      39.721  22.094  26.265  1.00  0.00     0.195 A 
ENDBRANCH  20  21
ENDBRANCH  18  20
ENDBRANCH  14  16
ENDBRANCH   4   7
ENDBRANCH   2   3
ENDBRANCH   1   2
BRANCH   1  26
ATOM     26  C   UNL A   1      33.270  27.731  26.699  1.00  0.00     0.023 C 
BRANCH  26  27
ATOM     27  C   UNL A   1      34.026  28.775  25.888  1.00  0.00     0.116 C 
BRANCH  27  28
ATOM     28  N   UNL A   1      33.749  30.134  26.327  1.00  0.00    -0.352 N 
ATOM     29  C   UNL A   1      34.398  30.870  27.288  1.00  0.00     0.251 C 
ATOM     30  H   UNL A   1      32.999  30.585  25.877  1.00  0.00     0.163 HD
ATOM     31  O   UNL A   1      33.960  31.961  27.632  1.00  0.00    -0.269 OA
BRANCH  29  32
ATOM     32  C   UNL A   1      35.608  30.311  27.926  1.00  0.00     0.039 A 
ATOM     33  C   UNL A   1      36.834  30.436  27.268  1.00  0.00     0.014 A 
ATOM     34  C   UNL A   1      35.536  29.701  29.181  1.00  0.00     0.014 A 
ATOM     35  C   UNL A   1      38.001  30.004  27.901  1.00  0.00     0.010 A 
ATOM     36  C   UNL A   1      36.705  29.329  29.834  1.00  0.00     0.010 A 
ATOM     37  C   UNL A   1      37.949  29.479  29.202  1.00  0.00    -0.014 A 
BRANCH  37  38
ATOM     38  C   UNL A   1      39.185  29.089  29.927  1.00  0.00     0.031 A 
ATOM     39  C   UNL A   1      39.602  29.843  31.158  1.00  0.00     0.074 A 
ATOM     40  C   UNL A   1      39.969  28.115  29.427  1.00  0.00     0.049 A 
ATOM     41  N   UNL A   1      40.690  29.719  31.872  1.00  0.00    -0.248 NA
ATOM     42  C   UNL A   1      38.688  30.894  31.634  1.00  0.00     0.031 C 
ATOM     43  C   UNL A   1      39.696  27.348  28.210  1.00  0.00     0.029 A 
ATOM     44  N   UNL A   1      41.167  27.614  29.872  1.00  0.00    -0.354 N 
ATOM     45  C   UNL A   1      40.604  30.687  32.865  1.00  0.00     0.074 A 
ATOM     46  C   UNL A   1      39.377  31.419  32.637  1.00  0.00     0.031 C 
ATOM     47  C   UNL A   1      40.691  26.467  28.012  1.00  0.00     0.029 A 
ATOM     48  C   UNL A   1      41.688  26.630  29.065  1.00  0.00     0.049 A 
ATOM     49  H   UNL A   1      41.612  27.929  30.692  1.00  0.00     0.167 HD
ATOM     50  C   UNL A   1      41.460  30.930  33.886  1.00  0.00     0.037 A 
ATOM     51  C   UNL A   1      42.843  25.943  29.158  1.00  0.00     0.037 A 
ATOM     52  C   UNL A   1      42.662  30.176  34.126  1.00  0.00     0.049 A 
ATOM     53  C   UNL A   1      43.770  26.218  30.310  1.00  0.00     0.074 A 
ATOM     54  C   UNL A   1      43.560  30.298  35.172  1.00  0.00     0.029 A 
ATOM     55  N   UNL A   1      43.137  29.161  33.309  1.00  0.00    -0.354 N 
ATOM     56  N   UNL A   1      43.639  27.092  31.280  1.00  0.00    -0.248 NA
ATOM     57  C   UNL A   1      44.996  25.413  30.386  1.00  0.00     0.031 C 
ATOM     58  C   UNL A   1      44.596  29.380  34.969  1.00  0.00     0.029 A 
ATOM     59  C   UNL A   1      44.323  28.659  33.817  1.00  0.00     0.049 A 
ATOM     60  H   UNL A   1      42.695  28.843  32.488  1.00  0.00     0.167 HD
ATOM     61  C   UNL A   1      44.754  26.925  32.094  1.00  0.00     0.074 A 
ATOM     62  C   UNL A   1      45.544  25.861  31.508  1.00  0.00     0.031 C 
ATOM     63  C   UNL A   1      45.092  27.592  33.225  1.00  0.00     0.037 A 
BRANCH  50  64
ATOM     64  C   UNL A   1      41.123  32.056  34.823  1.00  0.00     0.058 A 
ATOM     65  C   UNL A   1      41.582  33.365  34.595  1.00  0.00     0.135 A 
ATOM     66  C   UNL A   1      40.311  31.833  35.946  1.00  0.00     0.135 A 
ATOM     67  F   UNL A   1      42.373  33.630  33.544  1.00  0.00    -0.206 F 
ATOM     68  C   UNL A   1      41.275  34.404  35.466  1.00  0.00     0.059 A 
ATOM     69  C   UNL A   1      39.969  32.865  36.817  1.00  0.00     0.059 A 
ATOM     70  F   UNL A   1      39.846  30.603  36.210  1.00  0.00    -0.206 F 
ATOM     71  C   UNL A   1      40.471  34.143  36.577  1.00  0.00     0.060 A 
BRANCH  71  72
ATOM     72  S   UNL A   1      40.085  35.502  37.701  1.00  0.00     0.124 S 
ATOM     73  O   UNL A   1      39.845  36.595  36.764  1.00  0.00    -0.237 OA
ATOM     74  O   UNL A   1      38.908  35.003  38.406  1.00  0.00    -0.237 OA
ATOM     75  O   UNL A   1      41.291  35.624  38.513  1.00  0.00    -0.744 OA
ENDBRANCH  71  72
ENDBRANCH  50  64
BRANCH  51  76
ATOM     76  C   UNL A   1      43.176  24.914  28.138  1.00  0.00     0.058 A 
ATOM     77  C   UNL A   1      43.821  25.266  26.943  1.00  0.00     0.135 A 
ATOM     78  C   UNL A   1      42.877  23.559  28.347  1.00  0.00     0.135 A 
ATOM     79  F   UNL A   1      44.122  26.550  26.698  1.00  0.00    -0.206 F 
ATOM     80  C   UNL A   1      44.148  24.314  25.984  1.00  0.00     0.059 A 
ATOM     81  C   UNL A   1      43.213  22.585  27.411  1.00  0.00     0.059 A 
ATOM     82  F   UNL A   1      42.276  23.169  29.482  1.00  0.00    -0.206 F 
ATOM     83  C   UNL A   1      43.840  22.974  26.228  1.00  0.00     0.060 A 
BRANCH  83  84
ATOM     84  S   UNL A   1      44.316  21.738  24.999  1.00  0.00     0.124 S 
ATOM     85  O   UNL A   1      44.105  22.468  23.754  1.00  0.00    -0.237 OA
ATOM     86  O   UNL A   1      45.706  21.470  25.354  1.00  0.00    -0.237 OA
ATOM     87  O   UNL A   1      43.389  20.640  25.254  1.00  0.00    -0.744 OA
ENDBRANCH  83  84
ENDBRANCH  51  76
BRANCH  63  88
ATOM     88  C   UNL A   1      46.355  27.175  33.925  1.00  0.00     0.058 A 
ATOM     89  C   UNL A   1      46.343  26.230  34.962  1.00  0.00     0.135 A 
ATOM     90  C   UNL A   1      47.597  27.679  33.508  1.00  0.00     0.135 A 
ATOM     91  F   UNL A   1      45.181  25.724  35.402  1.00  0.00    -0.206 F 
ATOM     92  C   UNL A   1      47.520  25.808  35.572  1.00  0.00     0.059 A 
ATOM     93  C   UNL A   1      48.787  27.253  34.087  1.00  0.00     0.059 A 
ATOM     94  F   UNL A   1      47.662  28.579  32.514  1.00  0.00    -0.206 F 
ATOM     95  C   UNL A   1      48.739  26.323  35.124  1.00  0.00     0.060 A 
BRANCH  95  96
ATOM     96  S   UNL A   1      50.263  25.732  35.889  1.00  0.00     0.124 S 
ATOM     97  O   UNL A   1      50.122  24.286  35.746  1.00  0.00    -0.237 OA
ATOM     98  O   UNL A   1      51.292  26.353  35.061  1.00  0.00    -0.237 OA
ATOM     99  O   UNL A   1      50.178  26.240  37.255  1.00  0.00    -0.744 OA
ENDBRANCH  95  96
ENDBRANCH  63  88
ENDBRANCH  37  38
ENDBRANCH  29  32
ENDBRANCH  27  28
ENDBRANCH  26  27
ENDBRANCH   1  26
TORSDOF 17
ENDMDL
MODEL 2
REMARK VINA RESULT:     -11.5      3.054      4.503
REMARK SMILES CC1(C)[C@@]2(CC[C@@H]2C(=O)NCc2ccco2)[C@]1(C)C(=O)NCCCCNC(=O)c1ccc(-c2c3nc(c(-c4c(F)cc(S(=O)(=O)[O-])cc4F)c4ccc([nH]4)c(-c4c(F)cc(S(=O)(=O)[O-])cc4F)c4nc(c(-c5c(F)cc(S(=O)(=O)[O-])cc5F)c5ccc2[nH]5)C=C4)C=C3)cc1
REMARK SMILES IDX 23 1 22 2 21 3 19 4 20 5 17 7 1 8 2 9 3 10 4 11 18 12 5 13
REMARK SMILES IDX 7 14 6 15 8 16 9 17 10 18 11 20 12 21 13 22 16 23 14 24
REMARK SMILES IDX 15 25 24 26 25 27 26 28 27 29 28 31 29 32 30 33 94 34 31 35
REMARK SMILES IDX 93 36 32 37 33 38 34 39 87 40 35 41 92 42 86 43 88 44 36 45
REMARK SMILES IDX 91 46 85 47 84 48 37 50 71 51 50 52 70 53 51 54 54 55 69 56
REMARK SMILES IDX 89 57 52 58 53 59 68 61 90 62 55 63 38 64 39 65 48 66 40 67
REMARK SMILES IDX 41 68 47 69 49 70 42 71 43 72 44 73 45 74 46 75 72 76 73 77
REMARK SMILES IDX 82 78 74 79 75 80 81 81 83 82 76 83 77 84 78 85 79 86 80 87
REMARK SMILES IDX 56 88 57 89 66 90 58 91 59 92 65 93 67 94 60 95 61 96 62 97
REMARK SMILES IDX 63 98 64 99
REMARK H PARENT 21 6 10 19 26 30 88 49 54 60
REMARK Flexibility Score: inf
ROOT
ATOM      1  C   UNL A   1      31.810  27.086  26.921  1.00  0.00     0.023 C 
ENDROOT
BRANCH   1   2
ATOM      2  C   UNL A   1      31.830  25.857  26.006  1.00  0.00     0.116 C 
BRANCH   2   3
ATOM      3  N   UNL A   1      31.395  24.708  26.752  1.00  0.00    -0.356 N 
ATOM      4  C   UNL A   1      31.913  23.452  26.826  1.00  0.00     0.227 C 
ATOM      5  O   UNL A   1      31.178  22.559  27.253  1.00  0.00    -0.274 OA
ATOM      6  H   UNL A   1      30.589  24.853  27.299  1.00  0.00     0.163 HD
BRANCH   4   7
ATOM      7  C   UNL A   1      33.374  23.127  26.623  1.00  0.00     0.059 C 
ATOM      8  C   UNL A   1      34.369  25.047  25.049  1.00  0.00     0.013 C 
ATOM      9  C   UNL A   1      34.475  23.686  25.687  1.00  0.00    -0.013 C 
ATOM     10  C   UNL A   1      35.935  23.372  25.988  1.00  0.00     0.013 C 
ATOM     11  C   UNL A   1      33.624  22.564  25.178  1.00  0.00     0.003 C 
ATOM     12  C   UNL A   1      33.909  22.376  27.848  1.00  0.00     0.023 C 
ATOM     13  C   UNL A   1      33.868  21.108  24.991  1.00  0.00     0.010 C 
ATOM     14  C   UNL A   1      32.662  22.638  24.014  1.00  0.00     0.086 C 
ATOM     15  C   UNL A   1      32.726  21.113  23.972  1.00  0.00     0.015 C 
BRANCH  14  16
ATOM     16  C   UNL A   1      32.971  23.485  22.762  1.00  0.00     0.224 C 
ATOM     17  O   UNL A   1      33.967  23.252  22.054  1.00  0.00    -0.275 OA
ATOM     18  N   UNL A   1      32.213  24.538  22.321  1.00  0.00    -0.349 N 
ATOM     19  H   UNL A   1      32.561  24.971  21.508  1.00  0.00     0.163 HD
BRANCH  18  20
ATOM     20  C   UNL A   1      31.000  25.134  22.825  1.00  0.00     0.191 C 
BRANCH  20  21
ATOM     21  C   UNL A   1      31.102  26.612  22.769  1.00  0.00     0.122 A 
ATOM     22  C   UNL A   1      32.152  27.508  22.689  1.00  0.00     0.047 A 
ATOM     23  O   UNL A   1      29.919  27.294  22.799  1.00  0.00    -0.467 OA
ATOM     24  C   UNL A   1      31.580  28.801  22.674  1.00  0.00     0.042 A 
ATOM     25  C   UNL A   1      30.219  28.617  22.737  1.00  0.00     0.195 A 
ENDBRANCH  20  21
ENDBRANCH  18  20
ENDBRANCH  14  16
ENDBRANCH   4   7
ENDBRANCH   2   3
ENDBRANCH   1   2
BRANCH   1  26
ATOM     26  C   UNL A   1      32.594  28.287  26.380  1.00  0.00     0.023 C 
BRANCH  26  27
ATOM     27  C   UNL A   1      33.783  28.706  27.234  1.00  0.00     0.116 C 
BRANCH  27  28
ATOM     28  N   UNL A   1      33.650  30.057  27.755  1.00  0.00    -0.352 N 
ATOM     29  C   UNL A   1      34.578  30.805  28.439  1.00  0.00     0.251 C 
ATOM     30  H   UNL A   1      32.783  30.494  27.596  1.00  0.00     0.163 HD
ATOM     31  O   UNL A   1      34.266  31.885  28.924  1.00  0.00    -0.269 OA
BRANCH  29  32
ATOM     32  C   UNL A   1      35.944  30.268  28.615  1.00  0.00     0.039 A 
ATOM     33  C   UNL A   1      36.838  30.342  27.544  1.00  0.00     0.014 A 
ATOM     34  C   UNL A   1      36.348  29.730  29.840  1.00  0.00     0.014 A 
ATOM     35  C   UNL A   1      38.160  29.933  27.723  1.00  0.00     0.010 A 
ATOM     36  C   UNL A   1      37.680  29.382  30.033  1.00  0.00     0.010 A 
ATOM     37  C   UNL A   1      38.599  29.482  28.978  1.00  0.00    -0.014 A 
BRANCH  37  38
ATOM     38  C   UNL A   1      40.020  29.120  29.214  1.00  0.00     0.031 A 
ATOM     39  C   UNL A   1      40.979  30.151  29.740  1.00  0.00     0.074 A 
ATOM     40  C   UNL A   1      40.458  27.892  28.877  1.00  0.00     0.049 A 
ATOM     41  N   UNL A   1      42.271  30.058  29.921  1.00  0.00    -0.248 NA
ATOM     42  C   UNL A   1      40.418  31.467  30.080  1.00  0.00     0.031 C 
ATOM     43  C   UNL A   1      39.631  26.824  28.310  1.00  0.00     0.029 A 
ATOM     44  N   UNL A   1      41.711  27.338  28.947  1.00  0.00    -0.354 N 
ATOM     45  C   UNL A   1      42.680  31.307  30.374  1.00  0.00     0.074 A 
ATOM     46  C   UNL A   1      41.507  32.152  30.399  1.00  0.00     0.031 C 
ATOM     47  C   UNL A   1      40.398  25.743  28.093  1.00  0.00     0.029 A 
ATOM     48  C   UNL A   1      41.773  26.049  28.472  1.00  0.00     0.049 A 
ATOM     49  H   UNL A   1      42.494  27.819  29.303  1.00  0.00     0.167 HD
ATOM     50  C   UNL A   1      43.918  31.705  30.753  1.00  0.00     0.037 A 
ATOM     51  C   UNL A   1      42.822  25.213  28.347  1.00  0.00     0.037 A 
ATOM     52  C   UNL A   1      45.074  30.848  30.755  1.00  0.00     0.049 A 
ATOM     53  C   UNL A   1      44.184  25.671  28.791  1.00  0.00     0.074 A 
ATOM     54  C   UNL A   1      46.357  31.135  31.187  1.00  0.00     0.029 A 
ATOM     55  N   UNL A   1      45.090  29.536  30.304  1.00  0.00    -0.354 N 
ATOM     56  N   UNL A   1      44.540  26.835  29.282  1.00  0.00    -0.248 NA
ATOM     57  C   UNL A   1      45.284  24.705  28.671  1.00  0.00     0.031 C 
ATOM     58  C   UNL A   1      47.157  30.010  30.963  1.00  0.00     0.029 A 
ATOM     59  C   UNL A   1      46.363  29.006  30.431  1.00  0.00     0.049 A 
ATOM     60  H   UNL A   1      44.309  29.053  29.947  1.00  0.00     0.167 HD
ATOM     61  C   UNL A   1      45.901  26.732  29.550  1.00  0.00     0.074 A 
ATOM     62  C   UNL A   1      46.300  25.391  29.177  1.00  0.00     0.031 C 
ATOM     63  C   UNL A   1      46.741  27.665  30.062  1.00  0.00     0.037 A 
BRANCH  50  64
ATOM     64  C   UNL A   1      44.083  33.131  31.199  1.00  0.00     0.058 A 
ATOM     65  C   UNL A   1      43.889  33.510  32.537  1.00  0.00     0.135 A 
ATOM     66  C   UNL A   1      44.463  34.126  30.285  1.00  0.00     0.135 A 
ATOM     67  F   UNL A   1      43.512  32.601  33.450  1.00  0.00    -0.206 F 
ATOM     68  C   UNL A   1      44.035  34.831  32.947  1.00  0.00     0.059 A 
ATOM     69  C   UNL A   1      44.640  35.450  30.678  1.00  0.00     0.059 A 
ATOM     70  F   UNL A   1      44.660  33.818  28.993  1.00  0.00    -0.206 F 
ATOM     71  C   UNL A   1      44.407  35.795  32.008  1.00  0.00     0.060 A 
BRANCH  71  72
ATOM     72  S   UNL A   1      44.586  37.507  32.553  1.00  0.00     0.124 S 
ATOM     73  O   UNL A   1      44.055  38.234  31.406  1.00  0.00    -0.237 OA
ATOM     74  O   UNL A   1      43.765  37.540  33.760  1.00  0.00    -0.237 OA
ATOM     75  O   UNL A   1      46.022  37.644  32.774  1.00  0.00    -0.744 OA
ENDBRANCH  71  72
ENDBRANCH  50  64
BRANCH  51  76
ATOM     76  C   UNL A   1      42.617  23.847  27.795  1.00  0.00     0.058 A 
ATOM     77  C   UNL A   1      42.602  23.625  26.410  1.00  0.00     0.135 A 
ATOM     78  C   UNL A   1      42.455  22.737  28.639  1.00  0.00     0.135 A 
ATOM     79  F   UNL A   1      42.748  24.657  25.565  1.00  0.00    -0.206 F 
ATOM     80  C   UNL A   1      42.421  22.353  25.879  1.00  0.00     0.059 A 
ATOM     81  C   UNL A   1      42.294  21.452  28.131  1.00  0.00     0.059 A 
ATOM     82  F   UNL A   1      42.479  22.896  29.971  1.00  0.00    -0.206 F 
ATOM     83  C   UNL A   1      42.269  21.271  26.748  1.00  0.00     0.060 A 
BRANCH  83  84
ATOM     84  S   UNL A   1      42.088  19.616  26.049  1.00  0.00     0.124 S 
ATOM     85  O   UNL A   1      42.986  19.683  24.902  1.00  0.00    -0.237 OA
ATOM     86  O   UNL A   1      42.522  18.766  27.152  1.00  0.00    -0.237 OA
ATOM     87  O   UNL A   1      40.664  19.541  25.733  1.00  0.00    -0.744 OA
ENDBRANCH  83  84
ENDBRANCH  51  76
BRANCH  63  88
ATOM     88  C   UNL A   1      48.174  27.263  30.278  1.00  0.00     0.058 A 
ATOM     89  C   UNL A   1      49.167  27.542  29.327  1.00  0.00     0.135 A 
ATOM     90  C   UNL A   1      48.564  26.650  31.479  1.00  0.00     0.135 A 
ATOM     91  F   UNL A   1      48.842  28.120  28.161  1.00  0.00    -0.206 F 
ATOM     92  C   UNL A   1      50.500  27.214  29.555  1.00  0.00     0.059 A 
ATOM     93  C   UNL A   1      49.894  26.336  31.737  1.00  0.00     0.059 A 
ATOM     94  F   UNL A   1      47.653  26.370  32.423  1.00  0.00    -0.206 F 
ATOM     95  C   UNL A   1      50.854  26.614  30.765  1.00  0.00     0.060 A 
BRANCH  95  96
ATOM     96  S   UNL A   1      52.594  26.239  31.069  1.00  0.00     0.124 S 
ATOM     97  O   UNL A   1      52.497  25.010  31.850  1.00  0.00    -0.237 OA
ATOM     98  O   UNL A   1      53.124  26.090  29.718  1.00  0.00    -0.237 OA
ATOM     99  O   UNL A   1      53.072  27.411  31.797  1.00  0.00    -0.744 OA
ENDBRANCH  95  96
ENDBRANCH  63  88
ENDBRANCH  37  38
ENDBRANCH  29  32
ENDBRANCH  27  28
ENDBRANCH  26  27
ENDBRANCH   1  26
TORSDOF 17
ENDMDL
MODEL 3
REMARK VINA RESULT:     -11.4      3.236      9.660
REMARK SMILES CC1(C)[C@@]2(CC[C@@H]2C(=O)NCc2ccco2)[C@]1(C)C(=O)NCCCCNC(=O)c1ccc(-c2c3nc(c(-c4c(F)cc(S(=O)(=O)[O-])cc4F)c4ccc([nH]4)c(-c4c(F)cc(S(=O)(=O)[O-])cc4F)c4nc(c(-c5c(F)cc(S(=O)(=O)[O-])cc5F)c5ccc2[nH]5)C=C4)C=C3)cc1
REMARK SMILES IDX 23 1 22 2 21 3 19 4 20 5 17 7 1 8 2 9 3 10 4 11 18 12 5 13
REMARK SMILES IDX 7 14 6 15 8 16 9 17 10 18 11 20 12 21 13 22 16 23 14 24
REMARK SMILES IDX 15 25 24 26 25 27 26 28 27 29 28 31 29 32 30 33 94 34 31 35
REMARK SMILES IDX 93 36 32 37 33 38 34 39 87 40 35 41 92 42 86 43 88 44 36 45
REMARK SMILES IDX 91 46 85 47 84 48 37 50 71 51 50 52 70 53 51 54 54 55 69 56
REMARK SMILES IDX 89 57 52 58 53 59 68 61 90 62 55 63 38 64 39 65 48 66 40 67
REMARK SMILES IDX 41 68 47 69 49 70 42 71 43 72 44 73 45 74 46 75 72 76 73 77
REMARK SMILES IDX 82 78 74 79 75 80 81 81 83 82 76 83 77 84 78 85 79 86 80 87
REMARK SMILES IDX 56 88 57 89 66 90 58 91 59 92 65 93 67 94 60 95 61 96 62 97
REMARK SMILES IDX 63 98 64 99
REMARK H PARENT 21 6 10 19 26 30 88 49 54 60
REMARK Flexibility Score: inf
ROOT
ATOM      1  C   UNL A   1      36.147  22.801  25.798  1.00  0.00     0.023 C 
ENDROOT
BRANCH   1   2
ATOM      2  C   UNL A   1      34.736  23.265  25.420  1.00  0.00     0.116 C 
BRANCH   2   3
ATOM      3  N   UNL A   1      34.719  23.630  24.029  1.00  0.00    -0.356 N 
ATOM      4  C   UNL A   1      33.676  23.885  23.193  1.00  0.00     0.227 C 
ATOM      5  O   UNL A   1      33.896  23.839  21.982  1.00  0.00    -0.274 OA
ATOM      6  H   UNL A   1      35.608  23.709  23.613  1.00  0.00     0.163 HD
BRANCH   4   7
ATOM      7  C   UNL A   1      32.339  24.422  23.649  1.00  0.00     0.059 C 
ATOM      8  C   UNL A   1      31.480  26.065  21.721  1.00  0.00     0.013 C 
ATOM      9  C   UNL A   1      31.403  25.543  23.133  1.00  0.00    -0.013 C 
ATOM     10  C   UNL A   1      29.960  25.587  23.619  1.00  0.00     0.013 C 
ATOM     11  C   UNL A   1      32.468  25.915  24.116  1.00  0.00     0.003 C 
ATOM     12  C   UNL A   1      31.650  23.387  24.547  1.00  0.00     0.023 C 
ATOM     13  C   UNL A   1      32.443  26.233  25.570  1.00  0.00     0.010 C 
ATOM     14  C   UNL A   1      33.639  26.835  23.850  1.00  0.00     0.086 C 
ATOM     15  C   UNL A   1      33.765  26.976  25.366  1.00  0.00     0.015 C 
BRANCH  14  16
ATOM     16  C   UNL A   1      33.504  28.075  22.942  1.00  0.00     0.224 C 
ATOM     17  O   UNL A   1      34.251  28.239  21.961  1.00  0.00    -0.275 OA
ATOM     18  N   UNL A   1      32.589  29.079  23.117  1.00  0.00    -0.349 N 
ATOM     19  H   UNL A   1      32.649  29.798  22.446  1.00  0.00     0.163 HD
BRANCH  18  20
ATOM     20  C   UNL A   1      31.554  29.283  24.099  1.00  0.00     0.191 C 
BRANCH  20  21
ATOM     21  C   UNL A   1      30.264  29.564  23.424  1.00  0.00     0.122 A 
ATOM     22  C   UNL A   1      29.594  29.010  22.349  1.00  0.00     0.047 A 
ATOM     23  O   UNL A   1      29.529  30.592  23.942  1.00  0.00    -0.467 OA
ATOM     24  C   UNL A   1      28.392  29.741  22.202  1.00  0.00     0.042 A 
ATOM     25  C   UNL A   1      28.397  30.688  23.199  1.00  0.00     0.195 A 
ENDBRANCH  20  21
ENDBRANCH  18  20
ENDBRANCH  14  16
ENDBRANCH   4   7
ENDBRANCH   2   3
ENDBRANCH   1   2
BRANCH   1  26
ATOM     26  C   UNL A   1      37.258  23.784  25.410  1.00  0.00     0.023 C 
BRANCH  26  27
ATOM     27  C   UNL A   1      38.211  24.144  26.541  1.00  0.00     0.116 C 
BRANCH  27  28
ATOM     28  N   UNL A   1      39.604  23.901  26.199  1.00  0.00    -0.352 N 
ATOM     29  C   UNL A   1      40.714  24.617  26.576  1.00  0.00     0.251 C 
ATOM     30  H   UNL A   1      39.773  23.122  25.621  1.00  0.00     0.163 HD
ATOM     31  O   UNL A   1      41.810  24.356  26.096  1.00  0.00    -0.269 OA
BRANCH  29  32
ATOM     32  C   UNL A   1      40.560  25.728  27.537  1.00  0.00     0.039 A 
ATOM     33  C   UNL A   1      39.659  25.582  28.595  1.00  0.00     0.014 A 
ATOM     34  C   UNL A   1      41.326  26.890  27.415  1.00  0.00     0.014 A 
ATOM     35  C   UNL A   1      39.573  26.578  29.569  1.00  0.00     0.010 A 
ATOM     36  C   UNL A   1      41.284  27.851  28.419  1.00  0.00     0.010 A 
ATOM     37  C   UNL A   1      40.410  27.704  29.506  1.00  0.00    -0.014 A 
BRANCH  37  38
ATOM     38  C   UNL A   1      40.395  28.737  30.572  1.00  0.00     0.031 A 
ATOM     39  C   UNL A   1      41.319  28.610  31.752  1.00  0.00     0.074 A 
ATOM     40  C   UNL A   1      39.495  29.738  30.517  1.00  0.00     0.049 A 
ATOM     41  N   UNL A   1      41.389  29.351  32.827  1.00  0.00    -0.248 NA
ATOM     42  C   UNL A   1      42.268  27.486  31.733  1.00  0.00     0.031 C 
ATOM     43  C   UNL A   1      38.512  29.935  29.450  1.00  0.00     0.029 A 
ATOM     44  N   UNL A   1      39.248  30.768  31.389  1.00  0.00    -0.354 N 
ATOM     45  C   UNL A   1      42.372  28.773  33.621  1.00  0.00     0.074 A 
ATOM     46  C   UNL A   1      42.840  27.595  32.924  1.00  0.00     0.031 C 
ATOM     47  C   UNL A   1      37.777  31.025  29.724  1.00  0.00     0.029 A 
ATOM     48  C   UNL A   1      38.211  31.583  31.001  1.00  0.00     0.049 A 
ATOM     49  H   UNL A   1      39.765  30.911  32.215  1.00  0.00     0.167 HD
ATOM     50  C   UNL A   1      42.854  29.198  34.814  1.00  0.00     0.037 A 
ATOM     51  C   UNL A   1      37.664  32.653  31.610  1.00  0.00     0.037 A 
ATOM     52  C   UNL A   1      42.406  30.388  35.485  1.00  0.00     0.049 A 
ATOM     53  C   UNL A   1      38.228  33.116  32.926  1.00  0.00     0.074 A 
ATOM     54  C   UNL A   1      42.880  30.942  36.662  1.00  0.00     0.029 A 
ATOM     55  N   UNL A   1      41.380  31.210  35.042  1.00  0.00    -0.354 N 
ATOM     56  N   UNL A   1      39.205  32.596  33.631  1.00  0.00    -0.248 NA
ATOM     57  C   UNL A   1      37.621  34.312  33.526  1.00  0.00     0.031 C 
ATOM     58  C   UNL A   1      42.116  32.079  36.949  1.00  0.00     0.029 A 
ATOM     59  C   UNL A   1      41.194  32.257  35.930  1.00  0.00     0.049 A 
ATOM     60  H   UNL A   1      40.861  31.070  34.217  1.00  0.00     0.167 HD
ATOM     61  C   UNL A   1      39.346  33.415  34.746  1.00  0.00     0.074 A 
ATOM     62  C   UNL A   1      38.360  34.469  34.617  1.00  0.00     0.031 C 
ATOM     63  C   UNL A   1      40.214  33.303  35.781  1.00  0.00     0.037 A 
BRANCH  50  64
ATOM     64  C   UNL A   1      43.925  28.367  35.465  1.00  0.00     0.058 A 
ATOM     65  C   UNL A   1      43.613  27.365  36.398  1.00  0.00     0.135 A 
ATOM     66  C   UNL A   1      45.275  28.557  35.135  1.00  0.00     0.135 A 
ATOM     67  F   UNL A   1      42.338  27.152  36.760  1.00  0.00    -0.206 F 
ATOM     68  C   UNL A   1      44.604  26.603  37.006  1.00  0.00     0.059 A 
ATOM     69  C   UNL A   1      46.284  27.787  35.711  1.00  0.00     0.059 A 
ATOM     70  F   UNL A   1      45.630  29.501  34.249  1.00  0.00    -0.206 F 
ATOM     71  C   UNL A   1      45.938  26.824  36.658  1.00  0.00     0.060 A 
BRANCH  71  72
ATOM     72  S   UNL A   1      47.215  25.830  37.459  1.00  0.00     0.124 S 
ATOM     73  O   UNL A   1      48.114  25.559  36.341  1.00  0.00    -0.237 OA
ATOM     74  O   UNL A   1      47.729  26.740  38.477  1.00  0.00    -0.237 OA
ATOM     75  O   UNL A   1      46.479  24.677  37.968  1.00  0.00    -0.744 OA
ENDBRANCH  71  72
ENDBRANCH  50  64
BRANCH  51  76
ATOM     76  C   UNL A   1      36.531  33.371  30.969  1.00  0.00     0.058 A 
ATOM     77  C   UNL A   1      36.734  34.165  29.831  1.00  0.00     0.135 A 
ATOM     78  C   UNL A   1      35.223  33.260  31.467  1.00  0.00     0.135 A 
ATOM     79  F   UNL A   1      37.968  34.304  29.323  1.00  0.00    -0.206 F 
ATOM     80  C   UNL A   1      35.683  34.835  29.214  1.00  0.00     0.059 A 
ATOM     81  C   UNL A   1      34.152  33.904  30.854  1.00  0.00     0.059 A 
ATOM     82  F   UNL A   1      34.976  32.498  32.544  1.00  0.00    -0.206 F 
ATOM     83  C   UNL A   1      34.394  34.697  29.733  1.00  0.00     0.060 A 
BRANCH  83  84
ATOM     84  S   UNL A   1      33.028  35.529  28.893  1.00  0.00     0.124 S 
ATOM     85  O   UNL A   1      32.444  34.434  28.128  1.00  0.00    -0.237 OA
ATOM     86  O   UNL A   1      32.233  36.021  30.013  1.00  0.00    -0.237 OA
ATOM     87  O   UNL A   1      33.698  36.562  28.109  1.00  0.00    -0.744 OA
ENDBRANCH  83  84
ENDBRANCH  51  76
BRANCH  63  88
ATOM     88  C   UNL A   1      40.162  34.363  36.846  1.00  0.00     0.058 A 
ATOM     89  C   UNL A   1      40.952  35.520  36.770  1.00  0.00     0.135 A 
ATOM     90  C   UNL A   1      39.265  34.247  37.919  1.00  0.00     0.135 A 
ATOM     91  F   UNL A   1      41.831  35.674  35.768  1.00  0.00    -0.206 F 
ATOM     92  C   UNL A   1      40.863  36.522  37.731  1.00  0.00     0.059 A 
ATOM     93  C   UNL A   1      39.142  35.247  38.877  1.00  0.00     0.059 A 
ATOM     94  F   UNL A   1      38.482  33.163  38.031  1.00  0.00    -0.206 F 
ATOM     95  C   UNL A   1      39.951  36.378  38.780  1.00  0.00     0.060 A 
BRANCH  95  96
ATOM     96  S   UNL A   1      39.809  37.707  39.993  1.00  0.00     0.124 S 
ATOM     97  O   UNL A   1      38.576  38.362  39.569  1.00  0.00    -0.237 OA
ATOM     98  O   UNL A   1      39.737  36.976  41.254  1.00  0.00    -0.237 OA
ATOM     99  O   UNL A   1      41.032  38.481  39.795  1.00  0.00    -0.744 OA
ENDBRANCH  95  96
ENDBRANCH  63  88
ENDBRANCH  37  38
ENDBRANCH  29  32
ENDBRANCH  27  28
ENDBRANCH  26  27
ENDBRANCH   1  26
TORSDOF 17
ENDMDL
