MODEL 1
REMARK VINA RESULT:     -12.4      0.000      0.000
REMARK SMILES CCc1ccc(C[NH+]2CCC(Oc3ccccc3OC)(C(=O)NCCCCNC(=O)c3ccc(-c4c5nc(c(-c6c(F)cc(S(=O)(=O)[O-])cc6F)c6ccc([nH]6)c(-c6c(F)cc(S(=O)(=O)[O-])cc6F)c6nc(c(-c7c(F)cc(S(=O)(=O)[O-])cc7F)c7ccc4[nH]7)C=C6)C=C5)cc3)CC2)nc1
REMARK SMILES IDX 25 1 24 2 23 3 21 4 22 5 11 7 8 8 9 9 98 10 10 12 97 13 7 14
REMARK SMILES IDX 6 15 3 16 4 17 100 18 5 19 99 20 2 21 1 22 12 23 13 24 14 25
REMARK SMILES IDX 18 26 15 27 17 28 16 29 19 30 20 31 26 32 27 33 28 34 29 35
REMARK SMILES IDX 30 37 31 38 32 39 96 40 33 41 95 42 34 43 35 44 36 45 89 46
REMARK SMILES IDX 37 47 94 48 88 49 90 50 38 51 93 52 87 53 86 54 39 56 73 57
REMARK SMILES IDX 52 58 72 59 53 60 56 61 71 62 91 63 54 64 55 65 70 67 92 68
REMARK SMILES IDX 57 69 40 70 41 71 50 72 42 73 43 74 49 75 51 76 44 77 45 78
REMARK SMILES IDX 46 79 47 80 48 81 74 82 75 83 84 84 76 85 77 86 83 87 85 88
REMARK SMILES IDX 78 89 79 90 80 91 81 92 82 93 58 94 59 95 68 96 60 97 61 98
REMARK SMILES IDX 67 99 69 100 62 101 63 102 64 103 65 104 66 105
REMARK H PARENT 23 6 8 11 28 36 90 55 56 66
REMARK Flexibility Score: inf
ROOT
ATOM      1  C   UNL A   1      38.120  23.992  26.025  1.00  0.00     0.023 C 
ENDROOT
BRANCH   1   2
ATOM      2  C   UNL A   1      36.746  23.580  25.506  1.00  0.00     0.116 C 
BRANCH   2   3
ATOM      3  N   UNL A   1      36.013  22.763  26.448  1.00  0.00    -0.353 N 
ATOM      4  C   UNL A   1      34.676  22.492  26.540  1.00  0.00     0.264 C 
ATOM      5  O   UNL A   1      34.389  21.550  27.288  1.00  0.00    -0.270 OA
ATOM      6  H   UNL A   1      36.569  22.330  27.135  1.00  0.00     0.163 HD
BRANCH   4   7
ATOM      7  C   UNL A   1      33.578  23.315  25.771  1.00  0.00     0.197 C 
ATOM      8  N   UNL A   1      32.354  21.456  23.850  1.00  0.00    -0.330 N 
ATOM      9  C   UNL A   1      32.104  21.313  25.288  1.00  0.00     0.267 C 
ATOM     10  C   UNL A   1      33.717  21.952  23.601  1.00  0.00     0.267 C 
ATOM     11  H   UNL A   1      31.707  22.160  23.492  1.00  0.00     0.348 HD
ATOM     12  C   UNL A   1      32.197  22.680  25.935  1.00  0.00     0.120 C 
ATOM     13  C   UNL A   1      33.941  23.324  24.265  1.00  0.00     0.120 C 
BRANCH   8  14
ATOM     14  C   UNL A   1      32.057  20.211  23.107  1.00  0.00     0.319 C 
BRANCH  14  15
ATOM     15  C   UNL A   1      32.597  18.926  23.711  1.00  0.00     0.095 A 
ATOM     16  C   UNL A   1      33.209  16.447  24.746  1.00  0.00    -0.030 A 
ATOM     17  C   UNL A   1      33.548  16.739  23.426  1.00  0.00     0.007 A 
ATOM     18  C   UNL A   1      32.604  17.454  25.490  1.00  0.00     0.115 A 
ATOM     19  C   UNL A   1      33.242  17.990  22.900  1.00  0.00     0.030 A 
ATOM     20  N   UNL A   1      32.310  18.682  25.012  1.00  0.00    -0.255 NA
BRANCH  16  21
ATOM     21  C   UNL A   1      33.429  15.082  25.333  1.00  0.00     0.034 C 
ATOM     22  C   UNL A   1      32.146  14.505  25.916  1.00  0.00     0.009 C 
ENDBRANCH  16  21
ENDBRANCH  14  15
ENDBRANCH   8  14
BRANCH   7  23
ATOM     23  O   UNL A   1      33.640  24.617  26.403  1.00  0.00    -0.473 OA
BRANCH  23  24
ATOM     24  C   UNL A   1      33.150  25.720  25.768  1.00  0.00     0.162 A 
ATOM     25  C   UNL A   1      34.070  26.419  24.980  1.00  0.00     0.050 A 
ATOM     26  C   UNL A   1      31.880  26.269  25.985  1.00  0.00     0.160 A 
ATOM     27  C   UNL A   1      33.709  27.615  24.357  1.00  0.00     0.004 A 
ATOM     28  C   UNL A   1      31.511  27.450  25.333  1.00  0.00     0.050 A 
ATOM     29  C   UNL A   1      32.424  28.127  24.527  1.00  0.00     0.004 A 
BRANCH  26  30
ATOM     30  O   UNL A   1      30.897  25.692  26.742  1.00  0.00    -0.493 OA
ATOM     31  C   UNL A   1      29.711  25.426  26.003  1.00  0.00     0.278 C 
ENDBRANCH  26  30
ENDBRANCH  23  24
ENDBRANCH   7  23
ENDBRANCH   4   7
ENDBRANCH   2   3
ENDBRANCH   1   2
BRANCH   1  32
ATOM     32  C   UNL A   1      38.950  22.852  26.610  1.00  0.00     0.023 C 
BRANCH  32  33
ATOM     33  C   UNL A   1      40.267  23.273  27.247  1.00  0.00     0.116 C 
BRANCH  33  34
ATOM     34  N   UNL A   1      41.242  23.768  26.287  1.00  0.00    -0.352 N 
ATOM     35  C   UNL A   1      41.814  25.016  26.215  1.00  0.00     0.251 C 
ATOM     36  H   UNL A   1      41.529  23.125  25.599  1.00  0.00     0.163 HD
ATOM     37  O   UNL A   1      42.532  25.305  25.263  1.00  0.00    -0.269 OA
BRANCH  35  38
ATOM     38  C   UNL A   1      41.526  26.013  27.269  1.00  0.00     0.039 A 
ATOM     39  C   UNL A   1      40.364  25.870  28.031  1.00  0.00     0.014 A 
ATOM     40  C   UNL A   1      42.409  27.066  27.525  1.00  0.00     0.014 A 
ATOM     41  C   UNL A   1      40.121  26.751  29.085  1.00  0.00     0.010 A 
ATOM     42  C   UNL A   1      42.210  27.885  28.631  1.00  0.00     0.010 A 
ATOM     43  C   UNL A   1      41.059  27.745  29.417  1.00  0.00    -0.014 A 
BRANCH  43  44
ATOM     44  C   UNL A   1      40.834  28.643  30.579  1.00  0.00     0.031 A 
ATOM     45  C   UNL A   1      41.670  28.504  31.822  1.00  0.00     0.074 A 
ATOM     46  C   UNL A   1      39.851  29.564  30.523  1.00  0.00     0.049 A 
ATOM     47  N   UNL A   1      41.631  29.209  32.924  1.00  0.00    -0.248 NA
ATOM     48  C   UNL A   1      42.659  27.414  31.845  1.00  0.00     0.031 C 
ATOM     49  C   UNL A   1      38.926  29.745  29.402  1.00  0.00     0.029 A 
ATOM     50  N   UNL A   1      39.467  30.522  31.426  1.00  0.00    -0.354 N 
ATOM     51  C   UNL A   1      42.587  28.651  33.766  1.00  0.00     0.074 A 
ATOM     52  C   UNL A   1      43.136  27.503  33.078  1.00  0.00     0.031 C 
ATOM     53  C   UNL A   1      38.107  30.775  29.668  1.00  0.00     0.029 A 
ATOM     54  C   UNL A   1      38.425  31.307  30.990  1.00  0.00     0.049 A 
ATOM     55  H   UNL A   1      39.896  30.638  32.304  1.00  0.00     0.167 HD
ATOM     56  C   UNL A   1      42.996  29.076  34.985  1.00  0.00     0.037 A 
ATOM     57  C   UNL A   1      37.798  32.342  31.584  1.00  0.00     0.037 A 
ATOM     58  C   UNL A   1      42.451  30.227  35.657  1.00  0.00     0.049 A 
ATOM     59  C   UNL A   1      38.276  32.806  32.934  1.00  0.00     0.074 A 
ATOM     60  C   UNL A   1      42.826  30.770  36.873  1.00  0.00     0.029 A 
ATOM     61  N   UNL A   1      41.414  31.011  35.171  1.00  0.00    -0.354 N 
ATOM     62  N   UNL A   1      39.235  32.314  33.681  1.00  0.00    -0.248 NA
ATOM     63  C   UNL A   1      37.600  33.974  33.513  1.00  0.00     0.031 C 
ATOM     64  C   UNL A   1      41.984  31.853  37.145  1.00  0.00     0.029 A 
ATOM     65  C   UNL A   1      41.124  32.023  36.072  1.00  0.00     0.049 A 
ATOM     66  H   UNL A   1      40.953  30.869  34.314  1.00  0.00     0.167 HD
ATOM     67  C   UNL A   1      39.296  33.128  34.806  1.00  0.00     0.074 A 
ATOM     68  C   UNL A   1      38.285  34.151  34.634  1.00  0.00     0.031 C 
ATOM     69  C   UNL A   1      40.116  33.038  35.883  1.00  0.00     0.037 A 
BRANCH  56  70
ATOM     70  C   UNL A   1      44.090  28.296  35.663  1.00  0.00     0.058 A 
ATOM     71  C   UNL A   1      43.804  27.264  36.573  1.00  0.00     0.135 A 
ATOM     72  C   UNL A   1      45.441  28.562  35.385  1.00  0.00     0.135 A 
ATOM     73  F   UNL A   1      42.531  26.974  36.889  1.00  0.00    -0.206 F 
ATOM     74  C   UNL A   1      44.814  26.549  37.209  1.00  0.00     0.059 A 
ATOM     75  C   UNL A   1      46.468  27.839  35.985  1.00  0.00     0.059 A 
ATOM     76  F   UNL A   1      45.775  29.536  34.524  1.00  0.00    -0.206 F 
ATOM     77  C   UNL A   1      46.144  26.846  36.909  1.00  0.00     0.060 A 
BRANCH  77  78
ATOM     78  S   UNL A   1      47.442  25.910  37.745  1.00  0.00     0.124 S 
ATOM     79  O   UNL A   1      48.368  26.973  38.122  1.00  0.00    -0.237 OA
ATOM     80  O   UNL A   1      46.715  25.282  38.844  1.00  0.00    -0.237 OA
ATOM     81  O   UNL A   1      47.922  24.997  36.712  1.00  0.00    -0.744 OA
ENDBRANCH  77  78
ENDBRANCH  56  70
BRANCH  57  82
ATOM     82  C   UNL A   1      36.676  33.024  30.886  1.00  0.00     0.058 A 
ATOM     83  C   UNL A   1      35.342  32.804  31.262  1.00  0.00     0.135 A 
ATOM     84  C   UNL A   1      36.917  33.937  29.847  1.00  0.00     0.135 A 
ATOM     85  F   UNL A   1      35.058  31.938  32.247  1.00  0.00    -0.206 F 
ATOM     86  C   UNL A   1      34.289  33.454  30.629  1.00  0.00     0.059 A 
ATOM     87  C   UNL A   1      35.882  34.619  29.216  1.00  0.00     0.059 A 
ATOM     88  F   UNL A   1      38.176  34.199  29.461  1.00  0.00    -0.206 F 
ATOM     89  C   UNL A   1      34.569  34.365  29.608  1.00  0.00     0.060 A 
BRANCH  89  90
ATOM     90  S   UNL A   1      33.199  35.250  28.834  1.00  0.00     0.124 S 
ATOM     91  O   UNL A   1      32.394  35.618  29.993  1.00  0.00    -0.237 OA
ATOM     92  O   UNL A   1      33.885  36.346  28.157  1.00  0.00    -0.237 OA
ATOM     93  O   UNL A   1      32.611  34.248  27.949  1.00  0.00    -0.744 OA
ENDBRANCH  89  90
ENDBRANCH  57  82
BRANCH  69  94
ATOM     94  C   UNL A   1      39.987  34.096  36.945  1.00  0.00     0.058 A 
ATOM     95  C   UNL A   1      40.731  35.286  36.901  1.00  0.00     0.135 A 
ATOM     96  C   UNL A   1      39.063  33.939  37.991  1.00  0.00     0.135 A 
ATOM     97  F   UNL A   1      41.631  35.485  35.927  1.00  0.00    -0.206 F 
ATOM     98  C   UNL A   1      40.582  36.271  37.873  1.00  0.00     0.059 A 
ATOM     99  C   UNL A   1      38.876  34.924  38.956  1.00  0.00     0.059 A 
ATOM    100  F   UNL A   1      38.318  32.826  38.075  1.00  0.00    -0.206 F 
ATOM    101  C   UNL A   1      39.650  36.081  38.896  1.00  0.00     0.060 A 
BRANCH 101 102
ATOM    102  S   UNL A   1      39.445  37.381  40.131  1.00  0.00     0.124 S 
ATOM    103  O   UNL A   1      38.498  38.270  39.466  1.00  0.00    -0.237 OA
ATOM    104  O   UNL A   1      38.925  36.644  41.278  1.00  0.00    -0.237 OA
ATOM    105  O   UNL A   1      40.795  37.912  40.294  1.00  0.00    -0.744 OA
ENDBRANCH 101 102
ENDBRANCH  69  94
ENDBRANCH  43  44
ENDBRANCH  35  38
ENDBRANCH  33  34
ENDBRANCH  32  33
ENDBRANCH   1  32
TORSDOF 20
ENDMDL
MODEL 2
REMARK VINA RESULT:     -12.4      5.837      7.943
REMARK SMILES CCc1ccc(C[NH+]2CCC(Oc3ccccc3OC)(C(=O)NCCCCNC(=O)c3ccc(-c4c5nc(c(-c6c(F)cc(S(=O)(=O)[O-])cc6F)c6ccc([nH]6)c(-c6c(F)cc(S(=O)(=O)[O-])cc6F)c6nc(c(-c7c(F)cc(S(=O)(=O)[O-])cc7F)c7ccc4[nH]7)C=C6)C=C5)cc3)CC2)nc1
REMARK SMILES IDX 25 1 24 2 23 3 21 4 22 5 11 7 8 8 9 9 98 10 10 12 97 13 7 14
REMARK SMILES IDX 6 15 3 16 4 17 100 18 5 19 99 20 2 21 1 22 12 23 13 24 14 25
REMARK SMILES IDX 18 26 15 27 17 28 16 29 19 30 20 31 26 32 27 33 28 34 29 35
REMARK SMILES IDX 30 37 31 38 32 39 96 40 33 41 95 42 34 43 35 44 36 45 89 46
REMARK SMILES IDX 37 47 94 48 88 49 90 50 38 51 93 52 87 53 86 54 39 56 73 57
REMARK SMILES IDX 52 58 72 59 53 60 56 61 71 62 91 63 54 64 55 65 70 67 92 68
REMARK SMILES IDX 57 69 40 70 41 71 50 72 42 73 43 74 49 75 51 76 44 77 45 78
REMARK SMILES IDX 46 79 47 80 48 81 74 82 75 83 84 84 76 85 77 86 83 87 85 88
REMARK SMILES IDX 78 89 79 90 80 91 81 92 82 93 58 94 59 95 68 96 60 97 61 98
REMARK SMILES IDX 67 99 69 100 62 101 63 102 64 103 65 104 66 105
REMARK H PARENT 23 6 8 11 28 36 90 55 56 66
REMARK Flexibility Score: inf
ROOT
ATOM      1  C   UNL A   1      37.149  21.597  25.674  1.00  0.00     0.023 C 
ENDROOT
BRANCH   1   2
ATOM      2  C   UNL A   1      36.950  23.097  25.477  1.00  0.00     0.116 C 
BRANCH   2   3
ATOM      3  N   UNL A   1      36.400  23.424  24.180  1.00  0.00    -0.353 N 
ATOM      4  C   UNL A   1      35.135  23.797  23.818  1.00  0.00     0.264 C 
ATOM      5  O   UNL A   1      35.041  24.265  22.677  1.00  0.00    -0.270 OA
ATOM      6  H   UNL A   1      37.042  23.370  23.436  1.00  0.00     0.163 HD
BRANCH   4   7
ATOM      7  C   UNL A   1      33.889  23.634  24.763  1.00  0.00     0.197 C 
ATOM      8  N   UNL A   1      32.501  21.198  23.877  1.00  0.00    -0.330 N 
ATOM      9  C   UNL A   1      33.794  21.111  24.563  1.00  0.00     0.267 C 
ATOM     10  C   UNL A   1      32.430  22.408  23.043  1.00  0.00     0.267 C 
ATOM     11  H   UNL A   1      31.777  21.280  24.591  1.00  0.00     0.348 HD
ATOM     12  C   UNL A   1      33.927  22.295  25.500  1.00  0.00     0.120 C 
ATOM     13  C   UNL A   1      32.608  23.682  23.893  1.00  0.00     0.120 C 
BRANCH   8  14
ATOM     14  C   UNL A   1      32.190  19.966  23.119  1.00  0.00     0.319 C 
BRANCH  14  15
ATOM     15  C   UNL A   1      32.618  18.657  23.763  1.00  0.00     0.095 A 
ATOM     16  C   UNL A   1      33.034  16.148  24.821  1.00  0.00    -0.030 A 
ATOM     17  C   UNL A   1      33.546  16.452  23.560  1.00  0.00     0.007 A 
ATOM     18  C   UNL A   1      32.362  17.157  25.500  1.00  0.00     0.115 A 
ATOM     19  C   UNL A   1      33.339  17.718  23.023  1.00  0.00     0.030 A 
ATOM     20  N   UNL A   1      32.161  18.400  25.011  1.00  0.00    -0.255 NA
BRANCH  16  21
ATOM     21  C   UNL A   1      33.145  14.768  25.404  1.00  0.00     0.034 C 
ATOM     22  C   UNL A   1      32.126  14.541  26.512  1.00  0.00     0.009 C 
ENDBRANCH  16  21
ENDBRANCH  14  15
ENDBRANCH   8  14
BRANCH   7  23
ATOM     23  O   UNL A   1      34.023  24.747  25.680  1.00  0.00    -0.473 OA
BRANCH  23  24
ATOM     24  C   UNL A   1      33.093  25.744  25.701  1.00  0.00     0.162 A 
ATOM     25  C   UNL A   1      33.458  26.922  25.042  1.00  0.00     0.050 A 
ATOM     26  C   UNL A   1      31.915  25.722  26.459  1.00  0.00     0.160 A 
ATOM     27  C   UNL A   1      32.627  28.043  25.076  1.00  0.00     0.004 A 
ATOM     28  C   UNL A   1      31.069  26.836  26.464  1.00  0.00     0.050 A 
ATOM     29  C   UNL A   1      31.427  27.997  25.781  1.00  0.00     0.004 A 
BRANCH  26  30
ATOM     30  O   UNL A   1      31.454  24.641  27.158  1.00  0.00    -0.493 OA
ATOM     31  C   UNL A   1      30.333  24.017  26.542  1.00  0.00     0.278 C 
ENDBRANCH  26  30
ENDBRANCH  23  24
ENDBRANCH   7  23
ENDBRANCH   4   7
ENDBRANCH   2   3
ENDBRANCH   1   2
BRANCH   1  32
ATOM     32  C   UNL A   1      38.532  21.080  25.286  1.00  0.00     0.023 C 
BRANCH  32  33
ATOM     33  C   UNL A   1      39.435  20.714  26.455  1.00  0.00     0.116 C 
BRANCH  33  34
ATOM     34  N   UNL A   1      40.406  19.680  26.135  1.00  0.00    -0.352 N 
ATOM     35  C   UNL A   1      41.771  19.795  26.013  1.00  0.00     0.251 C 
ATOM     36  H   UNL A   1      40.038  18.779  25.985  1.00  0.00     0.163 HD
ATOM     37  O   UNL A   1      42.432  18.841  25.616  1.00  0.00    -0.269 OA
BRANCH  35  38
ATOM     38  C   UNL A   1      42.425  21.084  26.327  1.00  0.00     0.039 A 
ATOM     39  C   UNL A   1      42.682  21.979  25.286  1.00  0.00     0.014 A 
ATOM     40  C   UNL A   1      42.757  21.422  27.642  1.00  0.00     0.014 A 
ATOM     41  C   UNL A   1      43.220  23.233  25.575  1.00  0.00     0.010 A 
ATOM     42  C   UNL A   1      43.207  22.705  27.937  1.00  0.00     0.010 A 
ATOM     43  C   UNL A   1      43.454  23.622  26.906  1.00  0.00    -0.014 A 
BRANCH  43  44
ATOM     44  C   UNL A   1      43.965  24.980  27.222  1.00  0.00     0.031 A 
ATOM     45  C   UNL A   1      45.418  25.314  27.021  1.00  0.00     0.074 A 
ATOM     46  C   UNL A   1      43.120  25.905  27.720  1.00  0.00     0.049 A 
ATOM     47  N   UNL A   1      46.038  26.448  27.222  1.00  0.00    -0.248 NA
ATOM     48  C   UNL A   1      46.297  24.225  26.564  1.00  0.00     0.031 C 
ATOM     49  C   UNL A   1      41.706  25.680  28.028  1.00  0.00     0.029 A 
ATOM     50  N   UNL A   1      43.324  27.220  28.054  1.00  0.00    -0.354 N 
ATOM     51  C   UNL A   1      47.373  26.211  26.915  1.00  0.00     0.074 A 
ATOM     52  C   UNL A   1      47.487  24.807  26.588  1.00  0.00     0.031 C 
ATOM     53  C   UNL A   1      41.162  26.824  28.470  1.00  0.00     0.029 A 
ATOM     54  C   UNL A   1      42.193  27.857  28.508  1.00  0.00     0.049 A 
ATOM     55  H   UNL A   1      44.198  27.666  27.975  1.00  0.00     0.167 HD
ATOM     56  C   UNL A   1      48.404  27.088  26.874  1.00  0.00     0.037 A 
ATOM     57  C   UNL A   1      42.005  29.131  28.906  1.00  0.00     0.037 A 
ATOM     58  C   UNL A   1      48.278  28.488  27.190  1.00  0.00     0.049 A 
ATOM     59  C   UNL A   1      43.160  30.094  28.842  1.00  0.00     0.074 A 
ATOM     60  C   UNL A   1      49.249  29.472  27.136  1.00  0.00     0.029 A 
ATOM     61  N   UNL A   1      47.111  29.101  27.622  1.00  0.00    -0.354 N 
ATOM     62  N   UNL A   1      44.399  29.869  28.473  1.00  0.00    -0.248 NA
ATOM     63  C   UNL A   1      42.890  31.484  29.230  1.00  0.00     0.031 C 
ATOM     64  C   UNL A   1      48.680  30.670  27.582  1.00  0.00     0.029 A 
ATOM     65  C   UNL A   1      47.341  30.447  27.855  1.00  0.00     0.049 A 
ATOM     66  H   UNL A   1      46.246  28.646  27.745  1.00  0.00     0.167 HD
ATOM     67  C   UNL A   1      45.050  31.095  28.559  1.00  0.00     0.074 A 
ATOM     68  C   UNL A   1      44.063  32.059  29.003  1.00  0.00     0.031 C 
ATOM     69  C   UNL A   1      46.346  31.395  28.292  1.00  0.00     0.037 A 
BRANCH  56  70
ATOM     70  C   UNL A   1      49.753  26.560  26.464  1.00  0.00     0.058 A 
ATOM     71  C   UNL A   1      50.237  26.715  25.154  1.00  0.00     0.135 A 
ATOM     72  C   UNL A   1      50.585  25.915  27.394  1.00  0.00     0.135 A 
ATOM     73  F   UNL A   1      49.480  27.311  24.218  1.00  0.00    -0.206 F 
ATOM     74  C   UNL A   1      51.479  26.218  24.771  1.00  0.00     0.059 A 
ATOM     75  C   UNL A   1      51.844  25.438  27.042  1.00  0.00     0.059 A 
ATOM     76  F   UNL A   1      50.176  25.738  28.660  1.00  0.00    -0.206 F 
ATOM     77  C   UNL A   1      52.275  25.579  25.722  1.00  0.00     0.060 A 
BRANCH  77  78
ATOM     78  S   UNL A   1      53.882  24.939  25.207  1.00  0.00     0.124 S 
ATOM     79  O   UNL A   1      54.058  25.600  23.918  1.00  0.00    -0.237 OA
ATOM     80  O   UNL A   1      54.759  25.398  26.280  1.00  0.00    -0.237 OA
ATOM     81  O   UNL A   1      53.670  23.496  25.148  1.00  0.00    -0.744 OA
ENDBRANCH  77  78
ENDBRANCH  56  70
BRANCH  57  82
ATOM     82  C   UNL A   1      40.660  29.569  29.367  1.00  0.00     0.058 A 
ATOM     83  C   UNL A   1      39.615  29.789  28.457  1.00  0.00     0.135 A 
ATOM     84  C   UNL A   1      40.383  29.745  30.732  1.00  0.00     0.135 A 
ATOM     85  F   UNL A   1      39.829  29.639  27.141  1.00  0.00    -0.206 F 
ATOM     86  C   UNL A   1      38.349  30.179  28.881  1.00  0.00     0.059 A 
ATOM     87  C   UNL A   1      39.119  30.107  31.182  1.00  0.00     0.059 A 
ATOM     88  F   UNL A   1      41.343  29.527  31.646  1.00  0.00    -0.206 F 
ATOM     89  C   UNL A   1      38.109  30.331  30.248  1.00  0.00     0.060 A 
BRANCH  89  90
ATOM     90  S   UNL A   1      36.446  30.776  30.792  1.00  0.00     0.124 S 
ATOM     91  O   UNL A   1      35.677  30.596  29.566  1.00  0.00    -0.237 OA
ATOM     92  O   UNL A   1      36.199  29.802  31.851  1.00  0.00    -0.237 OA
ATOM     93  O   UNL A   1      36.599  32.155  31.245  1.00  0.00    -0.744 OA
ENDBRANCH  89  90
ENDBRANCH  57  82
BRANCH  69  94
ATOM     94  C   UNL A   1      46.768  32.833  28.432  1.00  0.00     0.058 A 
ATOM     95  C   UNL A   1      46.615  33.756  27.386  1.00  0.00     0.135 A 
ATOM     96  C   UNL A   1      47.283  33.303  29.651  1.00  0.00     0.135 A 
ATOM     97  F   UNL A   1      46.133  33.358  26.199  1.00  0.00    -0.206 F 
ATOM     98  C   UNL A   1      46.982  35.090  27.536  1.00  0.00     0.059 A 
ATOM     99  C   UNL A   1      47.628  34.639  29.833  1.00  0.00     0.059 A 
ATOM    100  F   UNL A   1      47.439  32.465  30.689  1.00  0.00    -0.206 F 
ATOM    101  C   UNL A   1      47.485  35.522  28.765  1.00  0.00     0.060 A 
BRANCH 101 102
ATOM    102  S   UNL A   1      47.927  37.262  28.954  1.00  0.00     0.124 S 
ATOM    103  O   UNL A   1      47.308  37.852  27.772  1.00  0.00    -0.237 OA
ATOM    104  O   UNL A   1      47.309  37.604  30.231  1.00  0.00    -0.237 OA
ATOM    105  O   UNL A   1      49.387  37.244  28.956  1.00  0.00    -0.744 OA
ENDBRANCH 101 102
ENDBRANCH  69  94
ENDBRANCH  43  44
ENDBRANCH  35  38
ENDBRANCH  33  34
ENDBRANCH  32  33
ENDBRANCH   1  32
TORSDOF 20
ENDMDL
MODEL 3
REMARK VINA RESULT:     -12.3      1.184      4.574
REMARK SMILES CCc1ccc(C[NH+]2CCC(Oc3ccccc3OC)(C(=O)NCCCCNC(=O)c3ccc(-c4c5nc(c(-c6c(F)cc(S(=O)(=O)[O-])cc6F)c6ccc([nH]6)c(-c6c(F)cc(S(=O)(=O)[O-])cc6F)c6nc(c(-c7c(F)cc(S(=O)(=O)[O-])cc7F)c7ccc4[nH]7)C=C6)C=C5)cc3)CC2)nc1
REMARK SMILES IDX 25 1 24 2 23 3 21 4 22 5 11 7 8 8 9 9 98 10 10 12 97 13 7 14
REMARK SMILES IDX 6 15 3 16 4 17 100 18 5 19 99 20 2 21 1 22 12 23 13 24 14 25
REMARK SMILES IDX 18 26 15 27 17 28 16 29 19 30 20 31 26 32 27 33 28 34 29 35
REMARK SMILES IDX 30 37 31 38 32 39 96 40 33 41 95 42 34 43 35 44 36 45 89 46
REMARK SMILES IDX 37 47 94 48 88 49 90 50 38 51 93 52 87 53 86 54 39 56 73 57
REMARK SMILES IDX 52 58 72 59 53 60 56 61 71 62 91 63 54 64 55 65 70 67 92 68
REMARK SMILES IDX 57 69 40 70 41 71 50 72 42 73 43 74 49 75 51 76 44 77 45 78
REMARK SMILES IDX 46 79 47 80 48 81 74 82 75 83 84 84 76 85 77 86 83 87 85 88
REMARK SMILES IDX 78 89 79 90 80 91 81 92 82 93 58 94 59 95 68 96 60 97 61 98
REMARK SMILES IDX 67 99 69 100 62 101 63 102 64 103 65 104 66 105
REMARK H PARENT 23 6 8 11 28 36 90 55 56 66
REMARK Flexibility Score: inf
ROOT
ATOM      1  C   UNL A   1      37.983  22.927  25.881  1.00  0.00     0.023 C 
ENDROOT
BRANCH   1   2
ATOM      2  C   UNL A   1      36.800  21.965  25.819  1.00  0.00     0.116 C 
BRANCH   2   3
ATOM      3  N   UNL A   1      35.744  22.316  26.743  1.00  0.00    -0.353 N 
ATOM      4  C   UNL A   1      34.417  21.985  26.745  1.00  0.00     0.264 C 
ATOM      5  O   UNL A   1      33.828  22.217  27.807  1.00  0.00    -0.270 OA
ATOM      6  H   UNL A   1      36.027  22.885  27.494  1.00  0.00     0.163 HD
BRANCH   4   7
ATOM      7  C   UNL A   1      33.682  21.373  25.496  1.00  0.00     0.197 C 
ATOM      8  N   UNL A   1      32.547  23.646  24.017  1.00  0.00    -0.330 N 
ATOM      9  C   UNL A   1      33.996  23.420  24.037  1.00  0.00     0.267 C 
ATOM     10  C   UNL A   1      31.935  23.242  25.292  1.00  0.00     0.267 C 
ATOM     11  H   UNL A   1      32.150  23.051  23.289  1.00  0.00     0.348 HD
ATOM     12  C   UNL A   1      34.252  21.934  24.192  1.00  0.00     0.120 C 
ATOM     13  C   UNL A   1      32.182  21.748  25.580  1.00  0.00     0.120 C 
BRANCH   8  14
ATOM     14  C   UNL A   1      32.207  25.037  23.638  1.00  0.00     0.319 C 
BRANCH  14  15
ATOM     15  C   UNL A   1      32.891  26.134  24.436  1.00  0.00     0.095 A 
ATOM     16  C   UNL A   1      33.784  28.322  25.852  1.00  0.00    -0.030 A 
ATOM     17  C   UNL A   1      33.339  27.195  26.543  1.00  0.00     0.007 A 
ATOM     18  C   UNL A   1      33.787  28.263  24.464  1.00  0.00     0.115 A 
ATOM     19  C   UNL A   1      32.889  26.088  25.831  1.00  0.00     0.030 A 
ATOM     20  N   UNL A   1      33.371  27.196  23.746  1.00  0.00    -0.255 NA
BRANCH  16  21
ATOM     21  C   UNL A   1      34.189  29.577  26.571  1.00  0.00     0.034 C 
ATOM     22  C   UNL A   1      35.168  29.289  27.700  1.00  0.00     0.009 C 
ENDBRANCH  16  21
ENDBRANCH  14  15
ENDBRANCH   8  14
BRANCH   7  23
ATOM     23  O   UNL A   1      33.947  19.955  25.621  1.00  0.00    -0.473 OA
BRANCH  23  24
ATOM     24  C   UNL A   1      33.725  19.114  24.569  1.00  0.00     0.162 A 
ATOM     25  C   UNL A   1      32.600  19.406  23.792  1.00  0.00     0.050 A 
ATOM     26  C   UNL A   1      34.427  17.925  24.336  1.00  0.00     0.160 A 
ATOM     27  C   UNL A   1      32.219  18.562  22.747  1.00  0.00     0.004 A 
ATOM     28  C   UNL A   1      34.063  17.098  23.268  1.00  0.00     0.050 A 
ATOM     29  C   UNL A   1      32.957  17.411  22.479  1.00  0.00     0.004 A 
BRANCH  26  30
ATOM     30  O   UNL A   1      35.533  17.519  25.032  1.00  0.00    -0.493 OA
ATOM     31  C   UNL A   1      35.493  16.142  25.387  1.00  0.00     0.278 C 
ENDBRANCH  26  30
ENDBRANCH  23  24
ENDBRANCH   7  23
ENDBRANCH   4   7
ENDBRANCH   2   3
ENDBRANCH   1   2
BRANCH   1  32
ATOM     32  C   UNL A   1      39.247  22.344  26.508  1.00  0.00     0.023 C 
BRANCH  32  33
ATOM     33  C   UNL A   1      40.240  23.371  27.032  1.00  0.00     0.116 C 
BRANCH  33  34
ATOM     34  N   UNL A   1      40.861  24.164  25.982  1.00  0.00    -0.352 N 
ATOM     35  C   UNL A   1      41.228  25.489  26.015  1.00  0.00     0.251 C 
ATOM     36  H   UNL A   1      41.040  23.692  25.138  1.00  0.00     0.163 HD
ATOM     37  O   UNL A   1      41.631  26.037  24.993  1.00  0.00    -0.269 OA
BRANCH  35  38
ATOM     38  C   UNL A   1      41.098  26.252  27.275  1.00  0.00     0.039 A 
ATOM     39  C   UNL A   1      42.156  27.068  27.680  1.00  0.00     0.014 A 
ATOM     40  C   UNL A   1      39.928  26.188  28.037  1.00  0.00     0.014 A 
ATOM     41  C   UNL A   1      42.016  27.860  28.819  1.00  0.00     0.010 A 
ATOM     42  C   UNL A   1      39.756  27.046  29.119  1.00  0.00     0.010 A 
ATOM     43  C   UNL A   1      40.802  27.884  29.529  1.00  0.00    -0.014 A 
BRANCH  43  44
ATOM     44  C   UNL A   1      40.627  28.776  30.704  1.00  0.00     0.031 A 
ATOM     45  C   UNL A   1      41.479  28.596  31.931  1.00  0.00     0.074 A 
ATOM     46  C   UNL A   1      39.675  29.730  30.675  1.00  0.00     0.049 A 
ATOM     47  N   UNL A   1      41.482  29.289  33.041  1.00  0.00    -0.248 NA
ATOM     48  C   UNL A   1      42.431  27.473  31.926  1.00  0.00     0.031 C 
ATOM     49  C   UNL A   1      38.738  29.955  29.572  1.00  0.00     0.029 A 
ATOM     50  N   UNL A   1      39.338  30.691  31.594  1.00  0.00    -0.354 N 
ATOM     51  C   UNL A   1      42.433  28.690  33.860  1.00  0.00     0.074 A 
ATOM     52  C   UNL A   1      42.931  27.533  33.151  1.00  0.00     0.031 C 
ATOM     53  C   UNL A   1      37.958  31.008  29.863  1.00  0.00     0.029 A 
ATOM     54  C   UNL A   1      38.316  31.514  31.184  1.00  0.00     0.049 A 
ATOM     55  H   UNL A   1      39.787  30.782  32.466  1.00  0.00     0.167 HD
ATOM     56  C   UNL A   1      42.877  29.088  35.076  1.00  0.00     0.037 A 
ATOM     57  C   UNL A   1      37.735  32.563  31.800  1.00  0.00     0.037 A 
ATOM     58  C   UNL A   1      42.383  30.250  35.770  1.00  0.00     0.049 A 
ATOM     59  C   UNL A   1      38.250  32.996  33.146  1.00  0.00     0.074 A 
ATOM     60  C   UNL A   1      42.796  30.766  36.984  1.00  0.00     0.029 A 
ATOM     61  N   UNL A   1      41.364  31.073  35.310  1.00  0.00    -0.354 N 
ATOM     62  N   UNL A   1      39.205  32.464  33.872  1.00  0.00    -0.248 NA
ATOM     63  C   UNL A   1      37.624  34.179  33.749  1.00  0.00     0.031 C 
ATOM     64  C   UNL A   1      41.995  31.874  37.283  1.00  0.00     0.029 A 
ATOM     65  C   UNL A   1      41.123  32.084  36.226  1.00  0.00     0.049 A 
ATOM     66  H   UNL A   1      40.884  30.956  34.459  1.00  0.00     0.167 HD
ATOM     67  C   UNL A   1      39.313  33.264  35.004  1.00  0.00     0.074 A 
ATOM     68  C   UNL A   1      38.334  34.322  34.860  1.00  0.00     0.031 C 
ATOM     69  C   UNL A   1      40.148  33.134  36.066  1.00  0.00     0.037 A 
BRANCH  56  70
ATOM     70  C   UNL A   1      43.955  28.264  35.727  1.00  0.00     0.058 A 
ATOM     71  C   UNL A   1      45.318  28.507  35.480  1.00  0.00     0.135 A 
ATOM     72  C   UNL A   1      43.630  27.237  36.629  1.00  0.00     0.135 A 
ATOM     73  F   UNL A   1      45.688  29.466  34.616  1.00  0.00    -0.206 F 
ATOM     74  C   UNL A   1      46.315  27.740  36.073  1.00  0.00     0.059 A 
ATOM     75  C   UNL A   1      44.613  26.478  37.259  1.00  0.00     0.059 A 
ATOM     76  F   UNL A   1      42.347  26.960  36.904  1.00  0.00    -0.206 F 
ATOM     77  C   UNL A   1      45.952  26.726  36.960  1.00  0.00     0.060 A 
BRANCH  77  78
ATOM     78  S   UNL A   1      47.260  25.739  37.718  1.00  0.00     0.124 S 
ATOM     79  O   UNL A   1      47.956  26.744  38.516  1.00  0.00    -0.237 OA
ATOM     80  O   UNL A   1      46.504  24.745  38.472  1.00  0.00    -0.237 OA
ATOM     81  O   UNL A   1      48.004  25.223  36.573  1.00  0.00    -0.744 OA
ENDBRANCH  77  78
ENDBRANCH  56  70
BRANCH  57  82
ATOM     82  C   UNL A   1      36.624  33.290  31.128  1.00  0.00     0.058 A 
ATOM     83  C   UNL A   1      36.865  34.138  30.037  1.00  0.00     0.135 A 
ATOM     84  C   UNL A   1      35.294  33.125  31.545  1.00  0.00     0.135 A 
ATOM     85  F   UNL A   1      38.119  34.333  29.602  1.00  0.00    -0.206 F 
ATOM     86  C   UNL A   1      35.830  34.806  29.390  1.00  0.00     0.059 A 
ATOM     87  C   UNL A   1      34.240  33.760  30.898  1.00  0.00     0.059 A 
ATOM     88  F   UNL A   1      35.008  32.309  32.572  1.00  0.00    -0.206 F 
ATOM     89  C   UNL A   1      34.518  34.606  29.826  1.00  0.00     0.060 A 
BRANCH  89  90
ATOM     90  S   UNL A   1      33.176  35.428  28.940  1.00  0.00     0.124 S 
ATOM     91  O   UNL A   1      32.577  34.314  28.214  1.00  0.00    -0.237 OA
ATOM     92  O   UNL A   1      32.381  35.980  30.033  1.00  0.00    -0.237 OA
ATOM     93  O   UNL A   1      33.871  36.416  28.120  1.00  0.00    -0.744 OA
ENDBRANCH  89  90
ENDBRANCH  57  82
BRANCH  69  94
ATOM     94  C   UNL A   1      40.072  34.184  37.141  1.00  0.00     0.058 A 
ATOM     95  C   UNL A   1      39.242  34.036  38.264  1.00  0.00     0.135 A 
ATOM     96  C   UNL A   1      40.883  35.328  37.071  1.00  0.00     0.135 A 
ATOM     97  F   UNL A   1      38.443  32.965  38.378  1.00  0.00    -0.206 F 
ATOM     98  C   UNL A   1      39.202  34.999  39.267  1.00  0.00     0.059 A 
ATOM     99  C   UNL A   1      40.881  36.288  38.078  1.00  0.00     0.059 A 
ATOM    100  F   UNL A   1      41.704  35.513  36.025  1.00  0.00    -0.206 F 
ATOM    101  C   UNL A   1      40.027  36.122  39.166  1.00  0.00     0.060 A 
BRANCH 101 102
ATOM    102  S   UNL A   1      39.987  37.347  40.491  1.00  0.00     0.124 S 
ATOM    103  O   UNL A   1      40.203  38.586  39.751  1.00  0.00    -0.237 OA
ATOM    104  O   UNL A   1      38.650  37.164  41.045  1.00  0.00    -0.237 OA
ATOM    105  O   UNL A   1      41.083  36.939  41.365  1.00  0.00    -0.744 OA
ENDBRANCH 101 102
ENDBRANCH  69  94
ENDBRANCH  43  44
ENDBRANCH  35  38
ENDBRANCH  33  34
ENDBRANCH  32  33
ENDBRANCH   1  32
TORSDOF 20
ENDMDL
