MODEL 1
REMARK VINA RESULT:     -10.7      0.000      0.000
REMARK SMILES CC(C)[C@@H](NC(=O)N[C@H]1CCS(=O)(=O)C1)C(=O)NCCCCNC(=O)c1ccc(-c2c3nc(c(-c4c(F)cc(S(=O)(=O)[O-])cc4F)c4ccc([nH]4)c(-c4c(F)cc(S(=O)(=O)[O-])cc4F)c4nc(c(-c5c(F)cc(S(=O)(=O)[O-])cc5F)c5ccc2[nH]5)C=C4)C=C3)cc1
REMARK SMILES IDX 21 1 20 2 19 3 18 4 16 5 17 6 4 8 2 9 1 10 3 11 5 12 6 13
REMARK SMILES IDX 7 15 8 16 9 18 10 19 15 20 11 21 12 22 13 23 14 24 22 25
REMARK SMILES IDX 23 26 24 27 25 29 26 30 27 31 91 32 28 33 90 34 29 35 30 36
REMARK SMILES IDX 31 37 84 38 32 39 89 40 83 41 85 42 33 43 88 44 82 45 81 46
REMARK SMILES IDX 34 48 68 49 47 50 67 51 48 52 51 53 66 54 86 55 49 56 50 57
REMARK SMILES IDX 65 59 87 60 52 61 35 62 36 63 45 64 37 65 38 66 44 67 46 68
REMARK SMILES IDX 39 69 40 70 41 71 42 72 43 73 69 74 70 75 79 76 71 77 72 78
REMARK SMILES IDX 78 79 80 80 73 81 74 82 75 83 76 84 77 85 53 86 54 87 63 88
REMARK SMILES IDX 55 89 56 90 62 91 64 92 57 93 58 94 59 95 60 96 61 97
REMARK H PARENT 18 7 5 14 8 17 23 28 85 47 51 58
REMARK Flexibility Score: inf
ROOT
ATOM      1  C   UNL A   1      33.738  27.358  26.218  1.00  0.00     0.023 C 
ENDROOT
BRANCH   1   2
ATOM      2  C   UNL A   1      34.018  26.043  25.493  1.00  0.00     0.023 C 
BRANCH   2   3
ATOM      3  C   UNL A   1      33.796  26.135  23.995  1.00  0.00     0.116 C 
BRANCH   3   4
ATOM      4  N   UNL A   1      33.083  24.969  23.507  1.00  0.00    -0.354 N 
ATOM      5  C   UNL A   1      31.847  24.522  23.856  1.00  0.00     0.242 C 
ATOM      6  O   UNL A   1      31.432  23.469  23.365  1.00  0.00    -0.273 OA
ATOM      7  H   UNL A   1      33.557  24.431  22.833  1.00  0.00     0.163 HD
BRANCH   5   8
ATOM      8  C   UNL A   1      31.023  25.249  24.924  1.00  0.00     0.175 C 
BRANCH   8   9
ATOM      9  C   UNL A   1      30.185  26.326  24.141  1.00  0.00     0.015 C 
ATOM     10  C   UNL A   1      28.675  26.190  24.323  1.00  0.00     0.010 C 
ATOM     11  C   UNL A   1      30.592  27.769  24.501  1.00  0.00     0.010 C 
ENDBRANCH   8   9
BRANCH   8  12
ATOM     12  N   UNL A   1      30.183  24.338  25.743  1.00  0.00    -0.326 N 
ATOM     13  C   UNL A   1      30.374  23.466  26.745  1.00  0.00     0.315 C 
ATOM     14  H   UNL A   1      29.236  24.387  25.481  1.00  0.00     0.166 HD
ATOM     15  O   UNL A   1      29.379  23.168  27.414  1.00  0.00    -0.249 OA
ATOM     16  N   UNL A   1      31.524  22.850  27.065  1.00  0.00    -0.334 N 
ATOM     17  H   UNL A   1      31.478  22.359  27.917  1.00  0.00     0.165 HD
BRANCH  16  18
ATOM     18  C   UNL A   1      32.816  22.756  26.422  1.00  0.00     0.099 C 
ATOM     19  C   UNL A   1      34.040  22.700  27.337  1.00  0.00     0.042 C 
ATOM     20  C   UNL A   1      32.985  21.539  25.513  1.00  0.00     0.161 C 
ATOM     21  C   UNL A   1      35.216  22.714  26.346  1.00  0.00     0.139 C 
ATOM     22  S   UNL A   1      34.684  21.662  24.988  1.00  0.00     0.152 S 
ATOM     23  O   UNL A   1      34.710  22.395  23.744  1.00  0.00    -0.229 OA
ATOM     24  O   UNL A   1      35.305  20.359  25.128  1.00  0.00    -0.229 OA
ENDBRANCH  16  18
ENDBRANCH   8  12
ENDBRANCH   5   8
ENDBRANCH   3   4
ENDBRANCH   2   3
ENDBRANCH   1   2
BRANCH   1  25
ATOM     25  C   UNL A   1      34.455  28.561  25.619  1.00  0.00     0.116 C 
BRANCH  25  26
ATOM     26  N   UNL A   1      33.908  29.815  26.105  1.00  0.00    -0.352 N 
ATOM     27  C   UNL A   1      34.257  30.532  27.219  1.00  0.00     0.251 C 
ATOM     28  H   UNL A   1      33.186  30.204  25.558  1.00  0.00     0.163 HD
ATOM     29  O   UNL A   1      33.523  31.429  27.623  1.00  0.00    -0.269 OA
BRANCH  27  30
ATOM     30  C   UNL A   1      35.513  30.215  27.930  1.00  0.00     0.039 A 
ATOM     31  C   UNL A   1      36.710  30.746  27.451  1.00  0.00     0.014 A 
ATOM     32  C   UNL A   1      35.512  29.371  29.047  1.00  0.00     0.014 A 
ATOM     33  C   UNL A   1      37.906  30.448  28.106  1.00  0.00     0.010 A 
ATOM     34  C   UNL A   1      36.692  29.144  29.748  1.00  0.00     0.010 A 
ATOM     35  C   UNL A   1      37.906  29.655  29.267  1.00  0.00    -0.014 A 
BRANCH  35  36
ATOM     36  C   UNL A   1      39.180  29.320  29.952  1.00  0.00     0.031 A 
ATOM     37  C   UNL A   1      39.586  30.062  31.198  1.00  0.00     0.074 A 
ATOM     38  C   UNL A   1      39.977  28.358  29.444  1.00  0.00     0.049 A 
ATOM     39  N   UNL A   1      40.650  29.904  31.943  1.00  0.00    -0.248 NA
ATOM     40  C   UNL A   1      38.693  31.140  31.656  1.00  0.00     0.031 C 
ATOM     41  C   UNL A   1      39.720  27.608  28.213  1.00  0.00     0.029 A 
ATOM     42  N   UNL A   1      41.164  27.844  29.902  1.00  0.00    -0.354 N 
ATOM     43  C   UNL A   1      40.560  30.864  32.945  1.00  0.00     0.074 A 
ATOM     44  C   UNL A   1      39.367  31.638  32.682  1.00  0.00     0.031 C 
ATOM     45  C   UNL A   1      40.703  26.713  28.028  1.00  0.00     0.029 A 
ATOM     46  C   UNL A   1      41.676  26.844  29.110  1.00  0.00     0.049 A 
ATOM     47  H   UNL A   1      41.608  28.162  30.721  1.00  0.00     0.167 HD
ATOM     48  C   UNL A   1      41.381  31.066  34.003  1.00  0.00     0.037 A 
ATOM     49  C   UNL A   1      42.800  26.115  29.241  1.00  0.00     0.037 A 
ATOM     50  C   UNL A   1      42.551  30.272  34.275  1.00  0.00     0.049 A 
ATOM     51  C   UNL A   1      43.681  26.341  30.440  1.00  0.00     0.074 A 
ATOM     52  C   UNL A   1      43.418  30.357  35.351  1.00  0.00     0.029 A 
ATOM     53  N   UNL A   1      43.020  29.246  33.466  1.00  0.00    -0.354 N 
ATOM     54  N   UNL A   1      43.542  27.206  31.417  1.00  0.00    -0.248 NA
ATOM     55  C   UNL A   1      44.862  25.476  30.568  1.00  0.00     0.031 C 
ATOM     56  C   UNL A   1      44.435  29.416  35.169  1.00  0.00     0.029 A 
ATOM     57  C   UNL A   1      44.171  28.702  34.012  1.00  0.00     0.049 A 
ATOM     58  H   UNL A   1      42.597  28.950  32.628  1.00  0.00     0.167 HD
ATOM     59  C   UNL A   1      44.597  26.967  32.291  1.00  0.00     0.074 A 
ATOM     60  C   UNL A   1      45.355  25.865  31.735  1.00  0.00     0.031 C 
ATOM     61  C   UNL A   1      44.909  27.598  33.451  1.00  0.00     0.037 A 
BRANCH  48  62
ATOM     62  C   UNL A   1      41.043  32.183  34.953  1.00  0.00     0.058 A 
ATOM     63  C   UNL A   1      40.170  31.996  36.036  1.00  0.00     0.135 A 
ATOM     64  C   UNL A   1      41.640  33.445  34.808  1.00  0.00     0.135 A 
ATOM     65  F   UNL A   1      39.555  30.815  36.214  1.00  0.00    -0.206 F 
ATOM     66  C   UNL A   1      39.885  33.023  36.930  1.00  0.00     0.059 A 
ATOM     67  C   UNL A   1      41.393  34.480  35.707  1.00  0.00     0.059 A 
ATOM     68  F   UNL A   1      42.481  33.684  33.788  1.00  0.00    -0.206 F 
ATOM     69  C   UNL A   1      40.505  34.261  36.759  1.00  0.00     0.060 A 
BRANCH  69  70
ATOM     70  S   UNL A   1      40.146  35.577  37.943  1.00  0.00     0.124 S 
ATOM     71  O   UNL A   1      39.910  36.711  37.055  1.00  0.00    -0.237 OA
ATOM     72  O   UNL A   1      38.970  35.059  38.635  1.00  0.00    -0.237 OA
ATOM     73  O   UNL A   1      41.361  35.653  38.748  1.00  0.00    -0.744 OA
ENDBRANCH  69  70
ENDBRANCH  48  62
BRANCH  49  74
ATOM     74  C   UNL A   1      43.144  25.083  28.225  1.00  0.00     0.058 A 
ATOM     75  C   UNL A   1      43.776  25.430  27.021  1.00  0.00     0.135 A 
ATOM     76  C   UNL A   1      42.842  23.729  28.436  1.00  0.00     0.135 A 
ATOM     77  F   UNL A   1      44.084  26.712  26.771  1.00  0.00    -0.206 F 
ATOM     78  C   UNL A   1      44.067  24.478  26.049  1.00  0.00     0.059 A 
ATOM     79  C   UNL A   1      43.151  22.755  27.493  1.00  0.00     0.059 A 
ATOM     80  F   UNL A   1      42.256  23.341  29.580  1.00  0.00    -0.206 F 
ATOM     81  C   UNL A   1      43.749  23.141  26.295  1.00  0.00     0.060 A 
BRANCH  81  82
ATOM     82  S   UNL A   1      44.155  21.910  25.038  1.00  0.00     0.124 S 
ATOM     83  O   UNL A   1      45.537  21.590  25.377  1.00  0.00    -0.237 OA
ATOM     84  O   UNL A   1      43.172  20.864  25.304  1.00  0.00    -0.237 OA
ATOM     85  O   UNL A   1      43.964  22.636  23.785  1.00  0.00    -0.744 OA
ENDBRANCH  81  82
ENDBRANCH  49  74
BRANCH  61  86
ATOM     86  C   UNL A   1      46.090  27.073  34.225  1.00  0.00     0.058 A 
ATOM     87  C   UNL A   1      47.389  27.567  34.028  1.00  0.00     0.135 A 
ATOM     88  C   UNL A   1      45.911  26.068  35.189  1.00  0.00     0.135 A 
ATOM     89  F   UNL A   1      47.617  28.528  33.119  1.00  0.00    -0.206 F 
ATOM     90  C   UNL A   1      48.476  27.046  34.723  1.00  0.00     0.059 A 
ATOM     91  C   UNL A   1      46.978  25.558  35.920  1.00  0.00     0.059 A 
ATOM     92  F   UNL A   1      44.687  25.571  35.431  1.00  0.00    -0.206 F 
ATOM     93  C   UNL A   1      48.261  26.037  35.663  1.00  0.00     0.060 A 
BRANCH  93  94
ATOM     94  S   UNL A   1      49.680  25.361  36.551  1.00  0.00     0.124 S 
ATOM     95  O   UNL A   1      50.792  25.995  35.851  1.00  0.00    -0.237 OA
ATOM     96  O   UNL A   1      49.445  25.821  37.916  1.00  0.00    -0.237 OA
ATOM     97  O   UNL A   1      49.551  23.921  36.350  1.00  0.00    -0.744 OA
ENDBRANCH  93  94
ENDBRANCH  61  86
ENDBRANCH  35  36
ENDBRANCH  27  30
ENDBRANCH  25  26
ENDBRANCH   1  25
TORSDOF 17
ENDMDL
MODEL 2
REMARK VINA RESULT:     -10.6      1.252      2.937
REMARK SMILES CC(C)[C@@H](NC(=O)N[C@H]1CCS(=O)(=O)C1)C(=O)NCCCCNC(=O)c1ccc(-c2c3nc(c(-c4c(F)cc(S(=O)(=O)[O-])cc4F)c4ccc([nH]4)c(-c4c(F)cc(S(=O)(=O)[O-])cc4F)c4nc(c(-c5c(F)cc(S(=O)(=O)[O-])cc5F)c5ccc2[nH]5)C=C4)C=C3)cc1
REMARK SMILES IDX 21 1 20 2 19 3 18 4 16 5 17 6 4 8 2 9 1 10 3 11 5 12 6 13
REMARK SMILES IDX 7 15 8 16 9 18 10 19 15 20 11 21 12 22 13 23 14 24 22 25
REMARK SMILES IDX 23 26 24 27 25 29 26 30 27 31 91 32 28 33 90 34 29 35 30 36
REMARK SMILES IDX 31 37 84 38 32 39 89 40 83 41 85 42 33 43 88 44 82 45 81 46
REMARK SMILES IDX 34 48 68 49 47 50 67 51 48 52 51 53 66 54 86 55 49 56 50 57
REMARK SMILES IDX 65 59 87 60 52 61 35 62 36 63 45 64 37 65 38 66 44 67 46 68
REMARK SMILES IDX 39 69 40 70 41 71 42 72 43 73 69 74 70 75 79 76 71 77 72 78
REMARK SMILES IDX 78 79 80 80 73 81 74 82 75 83 76 84 77 85 53 86 54 87 63 88
REMARK SMILES IDX 55 89 56 90 62 91 64 92 57 93 58 94 59 95 60 96 61 97
REMARK H PARENT 18 7 5 14 8 17 23 28 85 47 51 58
REMARK Flexibility Score: inf
ROOT
ATOM      1  C   UNL A   1      34.063  28.071  24.626  1.00  0.00     0.023 C 
ENDROOT
BRANCH   1   2
ATOM      2  C   UNL A   1      33.354  26.762  24.286  1.00  0.00     0.023 C 
BRANCH   2   3
ATOM      3  C   UNL A   1      34.299  25.575  24.229  1.00  0.00     0.116 C 
BRANCH   3   4
ATOM      4  N   UNL A   1      34.351  24.897  25.511  1.00  0.00    -0.354 N 
ATOM      5  C   UNL A   1      34.585  23.582  25.766  1.00  0.00     0.242 C 
ATOM      6  O   UNL A   1      34.533  23.181  26.932  1.00  0.00    -0.273 OA
ATOM      7  H   UNL A   1      34.198  25.464  26.300  1.00  0.00     0.163 HD
BRANCH   5   8
ATOM      8  C   UNL A   1      34.798  22.587  24.621  1.00  0.00     0.175 C 
BRANCH   8   9
ATOM      9  C   UNL A   1      36.358  22.435  24.488  1.00  0.00     0.015 C 
ATOM     10  C   UNL A   1      36.879  21.043  24.837  1.00  0.00     0.010 C 
ATOM     11  C   UNL A   1      36.871  22.809  23.082  1.00  0.00     0.010 C 
ENDBRANCH   8   9
BRANCH   8  12
ATOM     12  N   UNL A   1      34.101  21.291  24.827  1.00  0.00    -0.326 N 
ATOM     13  C   UNL A   1      32.855  20.815  24.680  1.00  0.00     0.315 C 
ATOM     14  H   UNL A   1      34.716  20.599  25.159  1.00  0.00     0.166 HD
ATOM     15  O   UNL A   1      32.739  19.588  24.602  1.00  0.00    -0.249 OA
ATOM     16  N   UNL A   1      31.719  21.532  24.655  1.00  0.00    -0.334 N 
ATOM     17  H   UNL A   1      30.930  21.002  24.399  1.00  0.00     0.165 HD
BRANCH  16  18
ATOM     18  C   UNL A   1      31.411  22.919  24.925  1.00  0.00     0.099 C 
ATOM     19  C   UNL A   1      30.517  23.637  23.913  1.00  0.00     0.042 C 
ATOM     20  C   UNL A   1      30.717  23.165  26.264  1.00  0.00     0.161 C 
ATOM     21  C   UNL A   1      30.486  25.082  24.439  1.00  0.00     0.139 C 
ATOM     22  S   UNL A   1      30.383  24.916  26.228  1.00  0.00     0.152 S 
ATOM     23  O   UNL A   1      31.491  25.590  26.861  1.00  0.00    -0.229 OA
ATOM     24  O   UNL A   1      29.009  25.132  26.643  1.00  0.00    -0.229 OA
ENDBRANCH  16  18
ENDBRANCH   8  12
ENDBRANCH   5   8
ENDBRANCH   3   4
ENDBRANCH   2   3
ENDBRANCH   1   2
BRANCH   1  25
ATOM     25  C   UNL A   1      34.134  28.368  26.118  1.00  0.00     0.116 C 
BRANCH  25  26
ATOM     26  N   UNL A   1      33.812  29.754  26.411  1.00  0.00    -0.352 N 
ATOM     27  C   UNL A   1      34.379  30.592  27.335  1.00  0.00     0.251 C 
ATOM     28  H   UNL A   1      33.085  30.144  25.872  1.00  0.00     0.163 HD
ATOM     29  O   UNL A   1      33.819  31.643  27.631  1.00  0.00    -0.269 OA
BRANCH  27  30
ATOM     30  C   UNL A   1      35.660  30.221  27.971  1.00  0.00     0.039 A 
ATOM     31  C   UNL A   1      35.638  29.653  29.245  1.00  0.00     0.014 A 
ATOM     32  C   UNL A   1      36.878  30.460  27.327  1.00  0.00     0.014 A 
ATOM     33  C   UNL A   1      36.840  29.305  29.864  1.00  0.00     0.010 A 
ATOM     34  C   UNL A   1      38.069  30.035  27.909  1.00  0.00     0.010 A 
ATOM     35  C   UNL A   1      38.064  29.481  29.197  1.00  0.00    -0.014 A 
BRANCH  35  36
ATOM     36  C   UNL A   1      39.344  29.132  29.863  1.00  0.00     0.031 A 
ATOM     37  C   UNL A   1      39.778  29.872  31.101  1.00  0.00     0.074 A 
ATOM     38  C   UNL A   1      40.121  28.159  29.345  1.00  0.00     0.049 A 
ATOM     39  N   UNL A   1      40.852  29.702  31.829  1.00  0.00    -0.248 NA
ATOM     40  C   UNL A   1      38.907  30.962  31.570  1.00  0.00     0.031 C 
ATOM     41  C   UNL A   1      39.835  27.410  28.120  1.00  0.00     0.029 A 
ATOM     42  N   UNL A   1      41.309  27.632  29.786  1.00  0.00    -0.354 N 
ATOM     43  C   UNL A   1      40.789  30.666  32.830  1.00  0.00     0.074 A 
ATOM     44  C   UNL A   1      39.602  31.454  32.584  1.00  0.00     0.031 C 
ATOM     45  C   UNL A   1      40.805  26.501  27.923  1.00  0.00     0.029 A 
ATOM     46  C   UNL A   1      41.795  26.623  28.989  1.00  0.00     0.049 A 
ATOM     47  H   UNL A   1      41.769  27.946  30.598  1.00  0.00     0.167 HD
ATOM     48  C   UNL A   1      41.629  30.860  33.875  1.00  0.00     0.037 A 
ATOM     49  C   UNL A   1      42.912  25.881  29.104  1.00  0.00     0.037 A 
ATOM     50  C   UNL A   1      42.793  30.052  34.131  1.00  0.00     0.049 A 
ATOM     51  C   UNL A   1      43.815  26.099  30.289  1.00  0.00     0.074 A 
ATOM     52  C   UNL A   1      43.678  30.129  35.193  1.00  0.00     0.029 A 
ATOM     53  N   UNL A   1      43.237  29.019  33.317  1.00  0.00    -0.354 N 
ATOM     54  N   UNL A   1      43.702  26.968  31.265  1.00  0.00    -0.248 NA
ATOM     55  C   UNL A   1      44.986  25.219  30.400  1.00  0.00     0.031 C 
ATOM     56  C   UNL A   1      44.681  29.175  34.997  1.00  0.00     0.029 A 
ATOM     57  C   UNL A   1      44.389  28.462  33.846  1.00  0.00     0.049 A 
ATOM     58  H   UNL A   1      42.797  28.726  32.487  1.00  0.00     0.167 HD
ATOM     59  C   UNL A   1      44.767  26.717  32.124  1.00  0.00     0.074 A 
ATOM     60  C   UNL A   1      45.503  25.605  31.559  1.00  0.00     0.031 C 
ATOM     61  C   UNL A   1      45.105  27.347  33.277  1.00  0.00     0.037 A 
BRANCH  48  62
ATOM     62  C   UNL A   1      41.320  31.984  34.827  1.00  0.00     0.058 A 
ATOM     63  C   UNL A   1      41.908  33.252  34.692  1.00  0.00     0.135 A 
ATOM     64  C   UNL A   1      40.383  31.806  35.857  1.00  0.00     0.135 A 
ATOM     65  F   UNL A   1      42.824  33.476  33.736  1.00  0.00    -0.206 F 
ATOM     66  C   UNL A   1      41.593  34.297  35.556  1.00  0.00     0.059 A 
ATOM     67  C   UNL A   1      40.032  32.845  36.715  1.00  0.00     0.059 A 
ATOM     68  F   UNL A   1      39.792  30.613  36.036  1.00  0.00    -0.206 F 
ATOM     69  C   UNL A   1      40.651  34.084  36.562  1.00  0.00     0.060 A 
BRANCH  69  70
ATOM     70  S   UNL A   1      40.236  35.458  37.658  1.00  0.00     0.124 S 
ATOM     71  O   UNL A   1      39.174  34.872  38.470  1.00  0.00    -0.237 OA
ATOM     72  O   UNL A   1      41.499  35.698  38.348  1.00  0.00    -0.237 OA
ATOM     73  O   UNL A   1      39.815  36.512  36.740  1.00  0.00    -0.744 OA
ENDBRANCH  69  70
ENDBRANCH  48  62
BRANCH  49  74
ATOM     74  C   UNL A   1      43.228  24.842  28.086  1.00  0.00     0.058 A 
ATOM     75  C   UNL A   1      42.794  23.517  28.239  1.00  0.00     0.135 A 
ATOM     76  C   UNL A   1      43.978  25.154  26.940  1.00  0.00     0.135 A 
ATOM     77  F   UNL A   1      42.076  23.167  29.316  1.00  0.00    -0.206 F 
ATOM     78  C   UNL A   1      43.117  22.531  27.311  1.00  0.00     0.059 A 
ATOM     79  C   UNL A   1      44.288  24.193  25.984  1.00  0.00     0.059 A 
ATOM     80  F   UNL A   1      44.400  26.412  26.736  1.00  0.00    -0.206 F 
ATOM     81  C   UNL A   1      43.867  22.881  26.186  1.00  0.00     0.060 A 
BRANCH  81  82
ATOM     82  S   UNL A   1      44.259  21.599  24.976  1.00  0.00     0.124 S 
ATOM     83  O   UNL A   1      43.244  20.595  25.274  1.00  0.00    -0.237 OA
ATOM     84  O   UNL A   1      44.102  22.312  23.712  1.00  0.00    -0.237 OA
ATOM     85  O   UNL A   1      45.631  21.230  25.313  1.00  0.00    -0.744 OA
ENDBRANCH  81  82
ENDBRANCH  49  74
BRANCH  61  86
ATOM     86  C   UNL A   1      46.291  26.810  34.034  1.00  0.00     0.058 A 
ATOM     87  C   UNL A   1      47.594  27.287  33.816  1.00  0.00     0.135 A 
ATOM     88  C   UNL A   1      46.115  25.809  35.003  1.00  0.00     0.135 A 
ATOM     89  F   UNL A   1      47.819  28.243  32.900  1.00  0.00    -0.206 F 
ATOM     90  C   UNL A   1      48.685  26.754  34.495  1.00  0.00     0.059 A 
ATOM     91  C   UNL A   1      47.187  25.288  35.719  1.00  0.00     0.059 A 
ATOM     92  F   UNL A   1      44.889  25.328  35.266  1.00  0.00    -0.206 F 
ATOM     93  C   UNL A   1      48.471  25.750  35.441  1.00  0.00     0.060 A 
BRANCH  93  94
ATOM     94  S   UNL A   1      49.895  25.059  36.308  1.00  0.00     0.124 S 
ATOM     95  O   UNL A   1      49.492  25.209  37.702  1.00  0.00    -0.237 OA
ATOM     96  O   UNL A   1      49.936  23.690  35.803  1.00  0.00    -0.237 OA
ATOM     97  O   UNL A   1      51.001  25.911  35.879  1.00  0.00    -0.744 OA
ENDBRANCH  93  94
ENDBRANCH  61  86
ENDBRANCH  35  36
ENDBRANCH  27  30
ENDBRANCH  25  26
ENDBRANCH   1  25
TORSDOF 17
ENDMDL
MODEL 3
REMARK VINA RESULT:     -10.6      4.564      9.797
REMARK SMILES CC(C)[C@@H](NC(=O)N[C@H]1CCS(=O)(=O)C1)C(=O)NCCCCNC(=O)c1ccc(-c2c3nc(c(-c4c(F)cc(S(=O)(=O)[O-])cc4F)c4ccc([nH]4)c(-c4c(F)cc(S(=O)(=O)[O-])cc4F)c4nc(c(-c5c(F)cc(S(=O)(=O)[O-])cc5F)c5ccc2[nH]5)C=C4)C=C3)cc1
REMARK SMILES IDX 21 1 20 2 19 3 18 4 16 5 17 6 4 8 2 9 1 10 3 11 5 12 6 13
REMARK SMILES IDX 7 15 8 16 9 18 10 19 15 20 11 21 12 22 13 23 14 24 22 25
REMARK SMILES IDX 23 26 24 27 25 29 26 30 27 31 91 32 28 33 90 34 29 35 30 36
REMARK SMILES IDX 31 37 84 38 32 39 89 40 83 41 85 42 33 43 88 44 82 45 81 46
REMARK SMILES IDX 34 48 68 49 47 50 67 51 48 52 51 53 66 54 86 55 49 56 50 57
REMARK SMILES IDX 65 59 87 60 52 61 35 62 36 63 45 64 37 65 38 66 44 67 46 68
REMARK SMILES IDX 39 69 40 70 41 71 42 72 43 73 69 74 70 75 79 76 71 77 72 78
REMARK SMILES IDX 78 79 80 80 73 81 74 82 75 83 76 84 77 85 53 86 54 87 63 88
REMARK SMILES IDX 55 89 56 90 62 91 64 92 57 93 58 94 59 95 60 96 61 97
REMARK H PARENT 18 7 5 14 8 17 23 28 85 47 51 58
REMARK Flexibility Score: inf
ROOT
ATOM      1  C   UNL A   1      34.872  23.264  26.841  1.00  0.00     0.023 C 
ENDROOT
BRANCH   1   2
ATOM      2  C   UNL A   1      33.632  24.070  26.457  1.00  0.00     0.023 C 
BRANCH   2   3
ATOM      3  C   UNL A   1      32.336  23.348  26.777  1.00  0.00     0.116 C 
BRANCH   3   4
ATOM      4  N   UNL A   1      31.264  23.806  25.912  1.00  0.00    -0.354 N 
ATOM      5  C   UNL A   1      31.217  23.821  24.554  1.00  0.00     0.242 C 
ATOM      6  O   UNL A   1      30.229  24.306  23.995  1.00  0.00    -0.273 OA
ATOM      7  H   UNL A   1      30.465  24.152  26.371  1.00  0.00     0.163 HD
BRANCH   5   8
ATOM      8  C   UNL A   1      32.412  23.346  23.722  1.00  0.00     0.175 C 
BRANCH   8   9
ATOM      9  C   UNL A   1      32.239  21.788  23.595  1.00  0.00     0.015 C 
ATOM     10  C   UNL A   1      32.047  21.300  22.161  1.00  0.00     0.010 C 
ATOM     11  C   UNL A   1      33.413  21.009  24.222  1.00  0.00     0.010 C 
ENDBRANCH   8   9
BRANCH   8  12
ATOM     12  N   UNL A   1      32.527  24.031  22.408  1.00  0.00    -0.326 N 
ATOM     13  C   UNL A   1      33.068  25.165  21.938  1.00  0.00     0.315 C 
ATOM     14  H   UNL A   1      32.089  23.515  21.693  1.00  0.00     0.166 HD
ATOM     15  O   UNL A   1      33.278  25.213  20.722  1.00  0.00    -0.249 OA
ATOM     16  N   UNL A   1      33.362  26.268  22.646  1.00  0.00    -0.334 N 
ATOM     17  H   UNL A   1      33.879  26.932  22.136  1.00  0.00     0.165 HD
BRANCH  16  18
ATOM     18  C   UNL A   1      33.078  26.686  24.001  1.00  0.00     0.099 C 
ATOM     19  C   UNL A   1      34.107  27.597  24.673  1.00  0.00     0.042 C 
ATOM     20  C   UNL A   1      31.759  27.441  24.169  1.00  0.00     0.161 C 
ATOM     21  C   UNL A   1      33.556  27.751  26.100  1.00  0.00     0.139 C 
ATOM     22  S   UNL A   1      31.776  27.901  25.891  1.00  0.00     0.152 S 
ATOM     23  O   UNL A   1      31.093  26.867  26.632  1.00  0.00    -0.229 OA
ATOM     24  O   UNL A   1      31.404  29.300  25.998  1.00  0.00    -0.229 OA
ENDBRANCH  16  18
ENDBRANCH   8  12
ENDBRANCH   5   8
ENDBRANCH   3   4
ENDBRANCH   2   3
ENDBRANCH   1   2
BRANCH   1  25
ATOM     25  C   UNL A   1      36.142  23.700  26.121  1.00  0.00     0.116 C 
BRANCH  25  26
ATOM     26  N   UNL A   1      37.122  22.631  26.056  1.00  0.00    -0.352 N 
ATOM     27  C   UNL A   1      38.487  22.707  26.153  1.00  0.00     0.251 C 
ATOM     28  H   UNL A   1      36.755  21.726  25.923  1.00  0.00     0.163 HD
ATOM     29  O   UNL A   1      39.177  21.749  25.819  1.00  0.00    -0.269 OA
BRANCH  27  30
ATOM     30  C   UNL A   1      39.117  23.946  26.655  1.00  0.00     0.039 A 
ATOM     31  C   UNL A   1      39.776  24.779  25.751  1.00  0.00     0.014 A 
ATOM     32  C   UNL A   1      39.083  24.269  28.016  1.00  0.00     0.014 A 
ATOM     33  C   UNL A   1      40.384  25.948  26.210  1.00  0.00     0.010 A 
ATOM     34  C   UNL A   1      39.615  25.476  28.458  1.00  0.00     0.010 A 
ATOM     35  C   UNL A   1      40.298  26.314  27.565  1.00  0.00    -0.014 A 
BRANCH  35  36
ATOM     36  C   UNL A   1      40.963  27.546  28.058  1.00  0.00     0.031 A 
ATOM     37  C   UNL A   1      42.460  27.685  27.967  1.00  0.00     0.074 A 
ATOM     38  C   UNL A   1      40.220  28.532  28.600  1.00  0.00     0.049 A 
ATOM     39  N   UNL A   1      43.219  28.687  28.330  1.00  0.00    -0.248 NA
ATOM     40  C   UNL A   1      43.206  26.541  27.419  1.00  0.00     0.031 C 
ATOM     41  C   UNL A   1      38.770  28.490  28.795  1.00  0.00     0.029 A 
ATOM     42  N   UNL A   1      40.584  29.763  29.085  1.00  0.00    -0.354 N 
ATOM     43  C   UNL A   1      44.525  28.291  28.065  1.00  0.00     0.074 A 
ATOM     44  C   UNL A   1      44.462  26.936  27.564  1.00  0.00     0.031 C 
ATOM     45  C   UNL A   1      38.363  29.653  29.332  1.00  0.00     0.029 A 
ATOM     46  C   UNL A   1      39.526  30.510  29.547  1.00  0.00     0.049 A 
ATOM     47  H   UNL A   1      41.515  30.082  29.101  1.00  0.00     0.167 HD
ATOM     48  C   UNL A   1      45.671  29.000  28.202  1.00  0.00     0.037 A 
ATOM     49  C   UNL A   1      39.496  31.745  30.082  1.00  0.00     0.037 A 
ATOM     50  C   UNL A   1      45.723  30.359  28.674  1.00  0.00     0.049 A 
ATOM     51  C   UNL A   1      40.781  32.522  30.198  1.00  0.00     0.074 A 
ATOM     52  C   UNL A   1      46.827  31.187  28.795  1.00  0.00     0.029 A 
ATOM     53  N   UNL A   1      44.626  31.093  29.103  1.00  0.00    -0.354 N 
ATOM     54  N   UNL A   1      41.999  32.157  29.876  1.00  0.00    -0.248 NA
ATOM     55  C   UNL A   1      40.683  33.887  30.730  1.00  0.00     0.031 C 
ATOM     56  C   UNL A   1      46.405  32.403  29.340  1.00  0.00     0.029 A 
ATOM     57  C   UNL A   1      45.030  32.357  29.502  1.00  0.00     0.049 A 
ATOM     58  H   UNL A   1      43.699  30.764  29.121  1.00  0.00     0.167 HD
ATOM     59  C   UNL A   1      42.807  33.259  30.134  1.00  0.00     0.074 A 
ATOM     60  C   UNL A   1      41.935  34.308  30.623  1.00  0.00     0.031 C 
ATOM     61  C   UNL A   1      44.148  33.395  29.978  1.00  0.00     0.037 A 
BRANCH  48  62
ATOM     62  C   UNL A   1      46.964  28.326  27.831  1.00  0.00     0.058 A 
ATOM     63  C   UNL A   1      47.702  27.575  28.761  1.00  0.00     0.135 A 
ATOM     64  C   UNL A   1      47.447  28.387  26.514  1.00  0.00     0.135 A 
ATOM     65  F   UNL A   1      47.299  27.496  30.039  1.00  0.00    -0.206 F 
ATOM     66  C   UNL A   1      48.880  26.927  28.404  1.00  0.00     0.059 A 
ATOM     67  C   UNL A   1      48.607  27.723  26.127  1.00  0.00     0.059 A 
ATOM     68  F   UNL A   1      46.785  29.094  25.583  1.00  0.00    -0.206 F 
ATOM     69  C   UNL A   1      49.323  27.003  27.083  1.00  0.00     0.060 A 
BRANCH  69  70
ATOM     70  S   UNL A   1      50.840  26.135  26.630  1.00  0.00     0.124 S 
ATOM     71  O   UNL A   1      51.856  26.984  27.246  1.00  0.00    -0.237 OA
ATOM     72  O   UNL A   1      50.647  24.828  27.250  1.00  0.00    -0.237 OA
ATOM     73  O   UNL A   1      50.816  26.145  25.171  1.00  0.00    -0.744 OA
ENDBRANCH  69  70
ENDBRANCH  48  62
BRANCH  49  74
ATOM     74  C   UNL A   1      38.204  32.337  30.524  1.00  0.00     0.058 A 
ATOM     75  C   UNL A   1      37.410  33.090  29.646  1.00  0.00     0.135 A 
ATOM     76  C   UNL A   1      37.740  32.167  31.838  1.00  0.00     0.135 A 
ATOM     77  F   UNL A   1      37.810  33.284  28.380  1.00  0.00    -0.206 F 
ATOM     78  C   UNL A   1      36.220  33.680  30.060  1.00  0.00     0.059 A 
ATOM     79  C   UNL A   1      36.539  32.720  32.268  1.00  0.00     0.059 A 
ATOM     80  F   UNL A   1      38.452  31.438  32.713  1.00  0.00    -0.206 F 
ATOM     81  C   UNL A   1      35.794  33.489  31.376  1.00  0.00     0.060 A 
BRANCH  81  82
ATOM     82  S   UNL A   1      34.235  34.237  31.897  1.00  0.00     0.124 S 
ATOM     83  O   UNL A   1      33.653  33.171  32.703  1.00  0.00    -0.237 OA
ATOM     84  O   UNL A   1      34.689  35.416  32.627  1.00  0.00    -0.237 OA
ATOM     85  O   UNL A   1      33.558  34.514  30.632  1.00  0.00    -0.744 OA
ENDBRANCH  81  82
ENDBRANCH  49  74
BRANCH  61  86
ATOM     86  C   UNL A   1      44.746  34.742  30.286  1.00  0.00     0.058 A 
ATOM     87  C   UNL A   1      45.181  35.088  31.574  1.00  0.00     0.135 A 
ATOM     88  C   UNL A   1      44.896  35.696  29.266  1.00  0.00     0.135 A 
ATOM     89  F   UNL A   1      45.061  34.214  32.586  1.00  0.00    -0.206 F 
ATOM     90  C   UNL A   1      45.696  36.350  31.852  1.00  0.00     0.059 A 
ATOM     91  C   UNL A   1      45.440  36.951  29.514  1.00  0.00     0.059 A 
ATOM     92  F   UNL A   1      44.512  35.412  28.011  1.00  0.00    -0.206 F 
ATOM     93  C   UNL A   1      45.816  37.277  30.815  1.00  0.00     0.060 A 
BRANCH  93  94
ATOM     94  S   UNL A   1      46.475  38.916  31.189  1.00  0.00     0.124 S 
ATOM     95  O   UNL A   1      46.514  39.526  29.864  1.00  0.00    -0.237 OA
ATOM     96  O   UNL A   1      45.476  39.455  32.106  1.00  0.00    -0.237 OA
ATOM     97  O   UNL A   1      47.776  38.630  31.787  1.00  0.00    -0.744 OA
ENDBRANCH  93  94
ENDBRANCH  61  86
ENDBRANCH  35  36
ENDBRANCH  27  30
ENDBRANCH  25  26
ENDBRANCH   1  25
TORSDOF 17
ENDMDL
