MODEL 1
REMARK VINA RESULT:     -11.6      0.000      0.000
REMARK SMILES CNC(=O)[C@H](C)S(=O)(=O)c1cc(C(=O)NCCCCNC(=O)c2ccc(-c3c4nc(c(-c5c(F)cc(S(=O)(=O)[O-])cc5F)c5ccc([nH]5)c(-c5c(F)cc(S(=O)(=O)[O-])cc5F)c5nc(c(-c6c(F)cc(S(=O)(=O)[O-])cc6F)c6ccc3[nH]6)C=C5)C=C4)cc2)c(C)cc1C
REMARK SMILES IDX 17 1 16 2 15 3 13 4 14 5 12 7 10 8 11 9 92 10 91 11 93 12
REMARK SMILES IDX 89 13 90 14 7 15 8 16 9 17 5 18 6 19 3 20 1 21 2 22 4 24
REMARK SMILES IDX 18 25 19 26 20 27 21 28 22 30 23 31 24 32 88 33 25 34 87 35
REMARK SMILES IDX 26 36 27 37 28 38 81 39 29 40 86 41 80 42 82 43 30 44 85 45
REMARK SMILES IDX 79 46 78 47 31 49 65 50 44 51 64 52 45 53 48 54 63 55 83 56
REMARK SMILES IDX 46 57 47 58 62 60 84 61 49 62 32 63 33 64 42 65 34 66 35 67
REMARK SMILES IDX 41 68 43 69 36 70 37 71 38 72 39 73 40 74 66 75 67 76 76 77
REMARK SMILES IDX 68 78 69 79 75 80 77 81 70 82 71 83 72 84 73 85 74 86 50 87
REMARK SMILES IDX 51 88 60 89 52 90 53 91 59 92 61 93 54 94 55 95 56 96 57 97
REMARK SMILES IDX 58 98
REMARK H PARENT 15 6 2 23 20 29 82 48 48 59
REMARK Flexibility Score: inf
ROOT
ATOM      1  C   UNL A   1      33.736  28.218  24.379  1.00  0.00     0.023 C 
ENDROOT
BRANCH   1   2
ATOM      2  C   UNL A   1      33.423  28.779  22.990  1.00  0.00     0.116 C 
BRANCH   2   3
ATOM      3  N   UNL A   1      33.425  27.720  22.011  1.00  0.00    -0.352 N 
ATOM      4  C   UNL A   1      32.891  26.471  21.900  1.00  0.00     0.251 C 
ATOM      5  O   UNL A   1      33.185  25.905  20.837  1.00  0.00    -0.269 OA
ATOM      6  H   UNL A   1      33.951  27.963  21.214  1.00  0.00     0.163 HD
BRANCH   4   7
ATOM      7  C   UNL A   1      32.007  25.707  22.857  1.00  0.00     0.044 A 
ATOM      8  C   UNL A   1      32.133  23.678  24.318  1.00  0.00     0.071 A 
ATOM      9  C   UNL A   1      32.578  24.454  23.226  1.00  0.00     0.034 A 
ATOM     10  C   UNL A   1      31.086  24.164  25.101  1.00  0.00    -0.032 A 
ATOM     11  C   UNL A   1      30.420  25.314  24.650  1.00  0.00     0.009 A 
ATOM     12  C   UNL A   1      30.592  23.607  26.403  1.00  0.00     0.046 C 
ATOM     13  C   UNL A   1      30.856  26.102  23.559  1.00  0.00    -0.038 A 
ATOM     14  C   UNL A   1      30.059  27.352  23.377  1.00  0.00     0.045 C 
BRANCH   8  15
ATOM     15  S   UNL A   1      33.120  22.245  24.752  1.00  0.00     0.190 S 
ATOM     16  O   UNL A   1      33.985  22.006  23.608  1.00  0.00    -0.223 OA
ATOM     17  O   UNL A   1      32.189  21.200  25.140  1.00  0.00    -0.223 OA
BRANCH  15  18
ATOM     18  C   UNL A   1      34.152  22.541  26.144  1.00  0.00     0.199 C 
ATOM     19  C   UNL A   1      33.970  21.680  27.375  1.00  0.00     0.036 C 
BRANCH  18  20
ATOM     20  C   UNL A   1      35.585  22.853  25.810  1.00  0.00     0.238 C 
ATOM     21  C   UNL A   1      36.436  20.527  25.136  1.00  0.00     0.142 C 
ATOM     22  N   UNL A   1      36.509  21.934  25.436  1.00  0.00    -0.358 N 
ATOM     23  H   UNL A   1      37.418  22.305  25.352  1.00  0.00     0.163 HD
ATOM     24  O   UNL A   1      36.017  24.001  25.981  1.00  0.00    -0.274 OA
ENDBRANCH  18  20
ENDBRANCH  15  18
ENDBRANCH   8  15
ENDBRANCH   4   7
ENDBRANCH   2   3
ENDBRANCH   1   2
BRANCH   1  25
ATOM     25  C   UNL A   1      32.974  28.844  25.540  1.00  0.00     0.023 C 
BRANCH  25  26
ATOM     26  C   UNL A   1      33.728  28.870  26.860  1.00  0.00     0.116 C 
BRANCH  26  27
ATOM     27  N   UNL A   1      33.631  30.134  27.579  1.00  0.00    -0.352 N 
ATOM     28  C   UNL A   1      34.596  30.750  28.341  1.00  0.00     0.251 C 
ATOM     29  H   UNL A   1      32.768  30.605  27.510  1.00  0.00     0.163 HD
ATOM     30  O   UNL A   1      34.352  31.793  28.937  1.00  0.00    -0.269 OA
BRANCH  28  31
ATOM     31  C   UNL A   1      35.912  30.093  28.469  1.00  0.00     0.039 A 
ATOM     32  C   UNL A   1      36.795  30.134  27.389  1.00  0.00     0.014 A 
ATOM     33  C   UNL A   1      36.307  29.548  29.693  1.00  0.00     0.014 A 
ATOM     34  C   UNL A   1      38.113  29.713  27.568  1.00  0.00     0.010 A 
ATOM     35  C   UNL A   1      37.638  29.211  29.893  1.00  0.00     0.010 A 
ATOM     36  C   UNL A   1      38.555  29.297  28.833  1.00  0.00    -0.014 A 
BRANCH  36  37
ATOM     37  C   UNL A   1      39.975  28.947  29.082  1.00  0.00     0.031 A 
ATOM     38  C   UNL A   1      40.906  29.980  29.650  1.00  0.00     0.074 A 
ATOM     39  C   UNL A   1      40.441  27.737  28.711  1.00  0.00     0.049 A 
ATOM     40  N   UNL A   1      42.197  29.911  29.842  1.00  0.00    -0.248 NA
ATOM     41  C   UNL A   1      40.313  31.278  30.014  1.00  0.00     0.031 C 
ATOM     42  C   UNL A   1      39.646  26.676  28.084  1.00  0.00     0.029 A 
ATOM     43  N   UNL A   1      41.699  27.200  28.798  1.00  0.00    -0.354 N 
ATOM     44  C   UNL A   1      42.574  31.159  30.322  1.00  0.00     0.074 A 
ATOM     45  C   UNL A   1      41.384  31.983  30.343  1.00  0.00     0.031 C 
ATOM     46  C   UNL A   1      40.432  25.608  27.868  1.00  0.00     0.029 A 
ATOM     47  C   UNL A   1      41.788  25.917  28.311  1.00  0.00     0.049 A 
ATOM     48  H   UNL A   1      42.467  27.687  29.174  1.00  0.00     0.167 HD
ATOM     49  C   UNL A   1      43.795  31.574  30.733  1.00  0.00     0.037 A 
ATOM     50  C   UNL A   1      42.845  25.086  28.231  1.00  0.00     0.037 A 
ATOM     51  C   UNL A   1      44.961  30.734  30.759  1.00  0.00     0.049 A 
ATOM     52  C   UNL A   1      44.180  25.552  28.742  1.00  0.00     0.074 A 
ATOM     53  C   UNL A   1      46.228  31.034  31.225  1.00  0.00     0.029 A 
ATOM     54  N   UNL A   1      44.998  29.424  30.307  1.00  0.00    -0.354 N 
ATOM     55  N   UNL A   1      44.505  26.717  29.250  1.00  0.00    -0.248 NA
ATOM     56  C   UNL A   1      45.290  24.591  28.675  1.00  0.00     0.031 C 
ATOM     57  C   UNL A   1      47.039  29.909  31.038  1.00  0.00     0.029 A 
ATOM     58  C   UNL A   1      46.268  28.901  30.479  1.00  0.00     0.049 A 
ATOM     59  H   UNL A   1      44.235  28.937  29.921  1.00  0.00     0.167 HD
ATOM     60  C   UNL A   1      45.852  26.623  29.582  1.00  0.00     0.074 A 
ATOM     61  C   UNL A   1      46.277  25.284  29.228  1.00  0.00     0.031 C 
ATOM     62  C   UNL A   1      46.664  27.561  30.128  1.00  0.00     0.037 A 
BRANCH  49  63
ATOM     63  C   UNL A   1      43.915  32.994  31.207  1.00  0.00     0.058 A 
ATOM     64  C   UNL A   1      43.696  33.339  32.549  1.00  0.00     0.135 A 
ATOM     65  C   UNL A   1      44.256  34.021  30.312  1.00  0.00     0.135 A 
ATOM     66  F   UNL A   1      43.348  32.398  33.440  1.00  0.00    -0.206 F 
ATOM     67  C   UNL A   1      43.776  34.657  32.983  1.00  0.00     0.059 A 
ATOM     68  C   UNL A   1      44.366  35.343  30.729  1.00  0.00     0.059 A 
ATOM     69  F   UNL A   1      44.472  33.745  29.016  1.00  0.00    -0.206 F 
ATOM     70  C   UNL A   1      44.106  35.654  32.064  1.00  0.00     0.060 A 
BRANCH  70  71
ATOM     71  S   UNL A   1      44.195  37.363  32.637  1.00  0.00     0.124 S 
ATOM     72  O   UNL A   1      43.159  37.378  33.665  1.00  0.00    -0.237 OA
ATOM     73  O   UNL A   1      45.568  37.463  33.121  1.00  0.00    -0.237 OA
ATOM     74  O   UNL A   1      43.900  38.138  31.436  1.00  0.00    -0.744 OA
ENDBRANCH  70  71
ENDBRANCH  49  63
BRANCH  50  75
ATOM     75  C   UNL A   1      42.674  23.716  27.682  1.00  0.00     0.058 A 
ATOM     76  C   UNL A   1      42.505  22.618  28.538  1.00  0.00     0.135 A 
ATOM     77  C   UNL A   1      42.665  23.477  26.300  1.00  0.00     0.135 A 
ATOM     78  F   UNL A   1      42.511  22.798  29.867  1.00  0.00    -0.206 F 
ATOM     79  C   UNL A   1      42.347  21.328  28.045  1.00  0.00     0.059 A 
ATOM     80  C   UNL A   1      42.489  22.197  25.781  1.00  0.00     0.059 A 
ATOM     81  F   UNL A   1      42.806  24.499  25.440  1.00  0.00    -0.206 F 
ATOM     82  C   UNL A   1      42.341  21.127  26.663  1.00  0.00     0.060 A 
BRANCH  82  83
ATOM     83  S   UNL A   1      42.085  19.455  26.029  1.00  0.00     0.124 S 
ATOM     84  O   UNL A   1      40.649  19.455  25.776  1.00  0.00    -0.237 OA
ATOM     85  O   UNL A   1      42.943  19.437  24.847  1.00  0.00    -0.237 OA
ATOM     86  O   UNL A   1      42.535  18.610  27.131  1.00  0.00    -0.744 OA
ENDBRANCH  82  83
ENDBRANCH  50  75
BRANCH  62  87
ATOM     87  C   UNL A   1      48.085  27.165  30.398  1.00  0.00     0.058 A 
ATOM     88  C   UNL A   1      49.098  27.386  29.453  1.00  0.00     0.135 A 
ATOM     89  C   UNL A   1      48.446  26.612  31.637  1.00  0.00     0.135 A 
ATOM     90  F   UNL A   1      48.799  27.906  28.252  1.00  0.00    -0.206 F 
ATOM     91  C   UNL A   1      50.422  27.059  29.722  1.00  0.00     0.059 A 
ATOM     92  C   UNL A   1      49.767  26.296  31.934  1.00  0.00     0.059 A 
ATOM     93  F   UNL A   1      47.513  26.390  32.576  1.00  0.00    -0.206 F 
ATOM     94  C   UNL A   1      50.748  26.515  30.967  1.00  0.00     0.060 A 
BRANCH  94  95
ATOM     95  S   UNL A   1      52.476  26.134  31.324  1.00  0.00     0.124 S 
ATOM     96  O   UNL A   1      53.076  26.224  29.998  1.00  0.00    -0.237 OA
ATOM     97  O   UNL A   1      52.845  27.191  32.260  1.00  0.00    -0.237 OA
ATOM     98  O   UNL A   1      52.413  24.792  31.897  1.00  0.00    -0.744 OA
ENDBRANCH  94  95
ENDBRANCH  62  87
ENDBRANCH  36  37
ENDBRANCH  28  31
ENDBRANCH  26  27
ENDBRANCH  25  26
ENDBRANCH   1  25
TORSDOF 17
ENDMDL
MODEL 2
REMARK VINA RESULT:     -11.2      2.742      4.017
REMARK SMILES CNC(=O)[C@H](C)S(=O)(=O)c1cc(C(=O)NCCCCNC(=O)c2ccc(-c3c4nc(c(-c5c(F)cc(S(=O)(=O)[O-])cc5F)c5ccc([nH]5)c(-c5c(F)cc(S(=O)(=O)[O-])cc5F)c5nc(c(-c6c(F)cc(S(=O)(=O)[O-])cc6F)c6ccc3[nH]6)C=C5)C=C4)cc2)c(C)cc1C
REMARK SMILES IDX 17 1 16 2 15 3 13 4 14 5 12 7 10 8 11 9 92 10 91 11 93 12
REMARK SMILES IDX 89 13 90 14 7 15 8 16 9 17 5 18 6 19 3 20 1 21 2 22 4 24
REMARK SMILES IDX 18 25 19 26 20 27 21 28 22 30 23 31 24 32 88 33 25 34 87 35
REMARK SMILES IDX 26 36 27 37 28 38 81 39 29 40 86 41 80 42 82 43 30 44 85 45
REMARK SMILES IDX 79 46 78 47 31 49 65 50 44 51 64 52 45 53 48 54 63 55 83 56
REMARK SMILES IDX 46 57 47 58 62 60 84 61 49 62 32 63 33 64 42 65 34 66 35 67
REMARK SMILES IDX 41 68 43 69 36 70 37 71 38 72 39 73 40 74 66 75 67 76 76 77
REMARK SMILES IDX 68 78 69 79 75 80 77 81 70 82 71 83 72 84 73 85 74 86 50 87
REMARK SMILES IDX 51 88 60 89 52 90 53 91 59 92 61 93 54 94 55 95 56 96 57 97
REMARK SMILES IDX 58 98
REMARK H PARENT 15 6 2 23 20 29 82 48 48 59
REMARK Flexibility Score: inf
ROOT
ATOM      1  C   UNL A   1      34.680  30.803  27.822  1.00  0.00     0.023 C 
ENDROOT
BRANCH   1   2
ATOM      2  C   UNL A   1      33.283  30.826  27.198  1.00  0.00     0.116 C 
BRANCH   2   3
ATOM      3  N   UNL A   1      32.523  29.678  27.630  1.00  0.00    -0.352 N 
ATOM      4  C   UNL A   1      32.042  28.537  27.061  1.00  0.00     0.251 C 
ATOM      5  O   UNL A   1      31.411  27.823  27.854  1.00  0.00    -0.269 OA
ATOM      6  H   UNL A   1      32.292  29.735  28.585  1.00  0.00     0.163 HD
BRANCH   4   7
ATOM      7  C   UNL A   1      32.175  28.029  25.645  1.00  0.00     0.044 A 
ATOM      8  C   UNL A   1      32.979  25.980  24.452  1.00  0.00     0.071 A 
ATOM      9  C   UNL A   1      32.943  26.830  25.579  1.00  0.00     0.034 A 
ATOM     10  C   UNL A   1      32.205  26.311  23.340  1.00  0.00    -0.032 A 
ATOM     11  C   UNL A   1      31.576  27.565  23.340  1.00  0.00     0.009 A 
ATOM     12  C   UNL A   1      31.945  25.464  22.131  1.00  0.00     0.046 C 
ATOM     13  C   UNL A   1      31.530  28.426  24.462  1.00  0.00    -0.038 A 
ATOM     14  C   UNL A   1      30.673  29.631  24.249  1.00  0.00     0.045 C 
BRANCH   8  15
ATOM     15  S   UNL A   1      33.827  24.412  24.645  1.00  0.00     0.190 S 
ATOM     16  O   UNL A   1      34.694  24.575  25.801  1.00  0.00    -0.223 OA
ATOM     17  O   UNL A   1      34.440  24.110  23.363  1.00  0.00    -0.223 OA
BRANCH  15  18
ATOM     18  C   UNL A   1      32.720  23.092  24.996  1.00  0.00     0.199 C 
ATOM     19  C   UNL A   1      31.256  23.412  25.207  1.00  0.00     0.036 C 
BRANCH  18  20
ATOM     20  C   UNL A   1      32.975  21.833  24.212  1.00  0.00     0.238 C 
ATOM     21  C   UNL A   1      35.089  20.962  25.378  1.00  0.00     0.142 C 
ATOM     22  N   UNL A   1      34.031  21.005  24.401  1.00  0.00    -0.358 N 
ATOM     23  H   UNL A   1      34.087  20.283  23.733  1.00  0.00     0.163 HD
ATOM     24  O   UNL A   1      32.250  21.557  23.247  1.00  0.00    -0.274 OA
ENDBRANCH  18  20
ENDBRANCH  15  18
ENDBRANCH   8  15
ENDBRANCH   4   7
ENDBRANCH   2   3
ENDBRANCH   1   2
BRANCH   1  25
ATOM     25  C   UNL A   1      35.361  32.156  27.986  1.00  0.00     0.023 C 
BRANCH  25  26
ATOM     26  C   UNL A   1      36.074  32.356  29.314  1.00  0.00     0.116 C 
BRANCH  26  27
ATOM     27  N   UNL A   1      35.745  31.358  30.325  1.00  0.00    -0.352 N 
ATOM     28  C   UNL A   1      36.556  30.371  30.834  1.00  0.00     0.251 C 
ATOM     29  H   UNL A   1      34.830  31.397  30.688  1.00  0.00     0.163 HD
ATOM     30  O   UNL A   1      36.123  29.563  31.647  1.00  0.00    -0.269 OA
BRANCH  28  31
ATOM     31  C   UNL A   1      37.941  30.274  30.332  1.00  0.00     0.039 A 
ATOM     32  C   UNL A   1      38.996  30.354  31.243  1.00  0.00     0.014 A 
ATOM     33  C   UNL A   1      38.180  29.984  28.987  1.00  0.00     0.014 A 
ATOM     34  C   UNL A   1      40.289  30.049  30.818  1.00  0.00     0.010 A 
ATOM     35  C   UNL A   1      39.451  29.597  28.587  1.00  0.00     0.010 A 
ATOM     36  C   UNL A   1      40.517  29.619  29.501  1.00  0.00    -0.014 A 
BRANCH  36  37
ATOM     37  C   UNL A   1      41.860  29.183  29.050  1.00  0.00     0.031 A 
ATOM     38  C   UNL A   1      42.980  30.182  28.976  1.00  0.00     0.074 A 
ATOM     39  C   UNL A   1      42.044  27.917  28.623  1.00  0.00     0.049 A 
ATOM     40  N   UNL A   1      44.192  30.029  28.511  1.00  0.00    -0.248 NA
ATOM     41  C   UNL A   1      42.685  31.544  29.451  1.00  0.00     0.031 C 
ATOM     42  C   UNL A   1      41.013  26.876  28.581  1.00  0.00     0.029 A 
ATOM     43  N   UNL A   1      43.162  27.294  28.130  1.00  0.00    -0.354 N 
ATOM     44  C   UNL A   1      44.794  31.277  28.613  1.00  0.00     0.074 A 
ATOM     45  C   UNL A   1      43.798  32.188  29.135  1.00  0.00     0.031 C 
ATOM     46  C   UNL A   1      41.554  25.739  28.114  1.00  0.00     0.029 A 
ATOM     47  C   UNL A   1      42.959  25.977  27.796  1.00  0.00     0.049 A 
ATOM     48  H   UNL A   1      44.029  27.748  28.026  1.00  0.00     0.167 HD
ATOM     49  C   UNL A   1      46.069  31.628  28.323  1.00  0.00     0.037 A 
ATOM     50  C   UNL A   1      43.811  25.064  27.289  1.00  0.00     0.037 A 
ATOM     51  C   UNL A   1      47.068  30.707  27.854  1.00  0.00     0.049 A 
ATOM     52  C   UNL A   1      45.236  25.464  27.024  1.00  0.00     0.074 A 
ATOM     53  C   UNL A   1      48.407  30.944  27.601  1.00  0.00     0.029 A 
ATOM     54  N   UNL A   1      46.837  29.368  27.578  1.00  0.00    -0.354 N 
ATOM     55  N   UNL A   1      45.804  26.636  27.184  1.00  0.00    -0.248 NA
ATOM     56  C   UNL A   1      46.136  24.420  26.515  1.00  0.00     0.031 C 
ATOM     57  C   UNL A   1      48.983  29.750  27.153  1.00  0.00     0.029 A 
ATOM     58  C   UNL A   1      48.007  28.765  27.153  1.00  0.00     0.049 A 
ATOM     59  H   UNL A   1      45.968  28.913  27.671  1.00  0.00     0.167 HD
ATOM     60  C   UNL A   1      47.134  26.465  26.815  1.00  0.00     0.074 A 
ATOM     61  C   UNL A   1      47.287  25.076  26.434  1.00  0.00     0.031 C 
ATOM     62  C   UNL A   1      48.137  27.376  26.789  1.00  0.00     0.037 A 
BRANCH  49  63
ATOM     63  C   UNL A   1      46.450  33.066  28.528  1.00  0.00     0.058 A 
ATOM     64  C   UNL A   1      46.328  34.010  27.497  1.00  0.00     0.135 A 
ATOM     65  C   UNL A   1      46.938  33.508  29.768  1.00  0.00     0.135 A 
ATOM     66  F   UNL A   1      45.885  33.635  26.287  1.00  0.00    -0.206 F 
ATOM     67  C   UNL A   1      46.709  35.335  27.675  1.00  0.00     0.059 A 
ATOM     68  C   UNL A   1      47.303  34.834  29.976  1.00  0.00     0.059 A 
ATOM     69  F   UNL A   1      47.078  32.645  30.787  1.00  0.00    -0.206 F 
ATOM     70  C   UNL A   1      47.202  35.737  28.918  1.00  0.00     0.060 A 
BRANCH  70  71
ATOM     71  S   UNL A   1      47.705  37.457  29.133  1.00  0.00     0.124 S 
ATOM     72  O   UNL A   1      46.443  38.156  28.914  1.00  0.00    -0.237 OA
ATOM     73  O   UNL A   1      48.205  37.470  30.504  1.00  0.00    -0.237 OA
ATOM     74  O   UNL A   1      48.717  37.644  28.099  1.00  0.00    -0.744 OA
ENDBRANCH  70  71
ENDBRANCH  49  63
BRANCH  50  75
ATOM     75  C   UNL A   1      43.350  23.674  27.038  1.00  0.00     0.058 A 
ATOM     76  C   UNL A   1      42.986  23.264  25.747  1.00  0.00     0.135 A 
ATOM     77  C   UNL A   1      43.275  22.729  28.071  1.00  0.00     0.135 A 
ATOM     78  F   UNL A   1      43.037  24.135  24.728  1.00  0.00    -0.206 F 
ATOM     79  C   UNL A   1      42.548  21.970  25.490  1.00  0.00     0.059 A 
ATOM     80  C   UNL A   1      42.858  21.422  27.837  1.00  0.00     0.059 A 
ATOM     81  F   UNL A   1      43.630  23.069  29.321  1.00  0.00    -0.206 F 
ATOM     82  C   UNL A   1      42.487  21.054  26.543  1.00  0.00     0.060 A 
BRANCH  82  83
ATOM     83  S   UNL A   1      41.967  19.360  26.192  1.00  0.00     0.124 S 
ATOM     84  O   UNL A   1      42.251  18.699  27.460  1.00  0.00    -0.237 OA
ATOM     85  O   UNL A   1      40.554  19.533  25.864  1.00  0.00    -0.237 OA
ATOM     86  O   UNL A   1      42.818  18.977  25.071  1.00  0.00    -0.744 OA
ENDBRANCH  82  83
ENDBRANCH  50  75
BRANCH  62  87
ATOM     87  C   UNL A   1      49.491  26.895  26.361  1.00  0.00     0.058 A 
ATOM     88  C   UNL A   1      50.389  26.329  27.277  1.00  0.00     0.135 A 
ATOM     89  C   UNL A   1      49.870  26.948  25.010  1.00  0.00     0.135 A 
ATOM     90  F   UNL A   1      50.072  26.262  28.580  1.00  0.00    -0.206 F 
ATOM     91  C   UNL A   1      51.626  25.842  26.871  1.00  0.00     0.059 A 
ATOM     92  C   UNL A   1      51.094  26.449  24.579  1.00  0.00     0.059 A 
ATOM     93  F   UNL A   1      49.040  27.474  24.095  1.00  0.00    -0.206 F 
ATOM     94  C   UNL A   1      51.970  25.906  25.519  1.00  0.00     0.060 A 
BRANCH  94  95
ATOM     95  S   UNL A   1      53.560  25.232  24.993  1.00  0.00     0.124 S 
ATOM     96  O   UNL A   1      53.407  23.822  25.331  1.00  0.00    -0.237 OA
ATOM     97  O   UNL A   1      53.580  25.545  23.568  1.00  0.00    -0.237 OA
ATOM     98  O   UNL A   1      54.523  25.974  25.803  1.00  0.00    -0.744 OA
ENDBRANCH  94  95
ENDBRANCH  62  87
ENDBRANCH  36  37
ENDBRANCH  28  31
ENDBRANCH  26  27
ENDBRANCH  25  26
ENDBRANCH   1  25
TORSDOF 17
ENDMDL
MODEL 3
REMARK VINA RESULT:     -11.0      2.585      3.318
REMARK SMILES CNC(=O)[C@H](C)S(=O)(=O)c1cc(C(=O)NCCCCNC(=O)c2ccc(-c3c4nc(c(-c5c(F)cc(S(=O)(=O)[O-])cc5F)c5ccc([nH]5)c(-c5c(F)cc(S(=O)(=O)[O-])cc5F)c5nc(c(-c6c(F)cc(S(=O)(=O)[O-])cc6F)c6ccc3[nH]6)C=C5)C=C4)cc2)c(C)cc1C
REMARK SMILES IDX 17 1 16 2 15 3 13 4 14 5 12 7 10 8 11 9 92 10 91 11 93 12
REMARK SMILES IDX 89 13 90 14 7 15 8 16 9 17 5 18 6 19 3 20 1 21 2 22 4 24
REMARK SMILES IDX 18 25 19 26 20 27 21 28 22 30 23 31 24 32 88 33 25 34 87 35
REMARK SMILES IDX 26 36 27 37 28 38 81 39 29 40 86 41 80 42 82 43 30 44 85 45
REMARK SMILES IDX 79 46 78 47 31 49 65 50 44 51 64 52 45 53 48 54 63 55 83 56
REMARK SMILES IDX 46 57 47 58 62 60 84 61 49 62 32 63 33 64 42 65 34 66 35 67
REMARK SMILES IDX 41 68 43 69 36 70 37 71 38 72 39 73 40 74 66 75 67 76 76 77
REMARK SMILES IDX 68 78 69 79 75 80 77 81 70 82 71 83 72 84 73 85 74 86 50 87
REMARK SMILES IDX 51 88 60 89 52 90 53 91 59 92 61 93 54 94 55 95 56 96 57 97
REMARK SMILES IDX 58 98
REMARK H PARENT 15 6 2 23 20 29 82 48 48 59
REMARK Flexibility Score: inf
ROOT
ATOM      1  C   UNL A   1      33.138  30.369  26.692  1.00  0.00     0.023 C 
ENDROOT
BRANCH   1   2
ATOM      2  C   UNL A   1      32.420  29.739  25.494  1.00  0.00     0.116 C 
BRANCH   2   3
ATOM      3  N   UNL A   1      33.349  29.525  24.412  1.00  0.00    -0.352 N 
ATOM      4  C   UNL A   1      33.529  28.599  23.428  1.00  0.00     0.251 C 
ATOM      5  O   UNL A   1      34.510  28.833  22.708  1.00  0.00    -0.269 OA
ATOM      6  H   UNL A   1      34.032  30.233  24.374  1.00  0.00     0.163 HD
BRANCH   4   7
ATOM      7  C   UNL A   1      32.717  27.369  23.095  1.00  0.00     0.044 A 
ATOM      8  C   UNL A   1      32.920  24.880  23.265  1.00  0.00     0.071 A 
ATOM      9  C   UNL A   1      33.484  26.175  23.219  1.00  0.00     0.034 A 
ATOM     10  C   UNL A   1      31.533  24.752  23.207  1.00  0.00    -0.032 A 
ATOM     11  C   UNL A   1      30.788  25.907  22.926  1.00  0.00     0.009 A 
ATOM     12  C   UNL A   1      30.726  23.508  23.433  1.00  0.00     0.046 C 
ATOM     13  C   UNL A   1      31.338  27.210  22.879  1.00  0.00    -0.038 A 
ATOM     14  C   UNL A   1      30.310  28.280  22.711  1.00  0.00     0.045 C 
BRANCH   8  15
ATOM     15  S   UNL A   1      34.032  23.525  23.646  1.00  0.00     0.190 S 
ATOM     16  O   UNL A   1      35.344  23.956  23.192  1.00  0.00    -0.223 OA
ATOM     17  O   UNL A   1      33.456  22.334  23.047  1.00  0.00    -0.223 OA
BRANCH  15  18
ATOM     18  C   UNL A   1      34.143  23.216  25.372  1.00  0.00     0.199 C 
ATOM     19  C   UNL A   1      33.463  24.177  26.324  1.00  0.00     0.036 C 
BRANCH  18  20
ATOM     20  C   UNL A   1      34.024  21.768  25.761  1.00  0.00     0.238 C 
ATOM     21  C   UNL A   1      36.335  20.894  25.064  1.00  0.00     0.142 C 
ATOM     22  N   UNL A   1      34.981  20.831  25.552  1.00  0.00    -0.358 N 
ATOM     23  H   UNL A   1      34.691  19.918  25.783  1.00  0.00     0.163 HD
ATOM     24  O   UNL A   1      32.950  21.340  26.206  1.00  0.00    -0.274 OA
ENDBRANCH  18  20
ENDBRANCH  15  18
ENDBRANCH   8  15
ENDBRANCH   4   7
ENDBRANCH   2   3
ENDBRANCH   1   2
BRANCH   1  25
ATOM     25  C   UNL A   1      34.257  29.542  27.310  1.00  0.00     0.023 C 
BRANCH  25  26
ATOM     26  C   UNL A   1      35.486  30.336  27.721  1.00  0.00     0.116 C 
BRANCH  26  27
ATOM     27  N   UNL A   1      35.493  30.745  29.121  1.00  0.00    -0.352 N 
ATOM     28  C   UNL A   1      36.485  30.548  30.054  1.00  0.00     0.251 C 
ATOM     29  H   UNL A   1      34.690  31.220  29.436  1.00  0.00     0.163 HD
ATOM     30  O   UNL A   1      36.328  30.902  31.217  1.00  0.00    -0.269 OA
BRANCH  28  31
ATOM     31  C   UNL A   1      37.716  29.851  29.632  1.00  0.00     0.039 A 
ATOM     32  C   UNL A   1      38.099  29.909  28.291  1.00  0.00     0.014 A 
ATOM     33  C   UNL A   1      38.542  29.250  30.585  1.00  0.00     0.014 A 
ATOM     34  C   UNL A   1      39.361  29.445  27.921  1.00  0.00     0.010 A 
ATOM     35  C   UNL A   1      39.828  28.869  30.230  1.00  0.00     0.010 A 
ATOM     36  C   UNL A   1      40.252  28.969  28.896  1.00  0.00    -0.014 A 
BRANCH  36  37
ATOM     37  C   UNL A   1      41.638  28.571  28.550  1.00  0.00     0.031 A 
ATOM     38  C   UNL A   1      42.722  29.611  28.512  1.00  0.00     0.074 A 
ATOM     39  C   UNL A   1      41.898  27.300  28.184  1.00  0.00     0.049 A 
ATOM     40  N   UNL A   1      43.967  29.491  28.134  1.00  0.00    -0.248 NA
ATOM     41  C   UNL A   1      42.345  30.976  28.916  1.00  0.00     0.031 C 
ATOM     42  C   UNL A   1      40.912  26.217  28.114  1.00  0.00     0.029 A 
ATOM     43  N   UNL A   1      43.069  26.705  27.789  1.00  0.00    -0.354 N 
ATOM     44  C   UNL A   1      44.513  30.765  28.228  1.00  0.00     0.074 A 
ATOM     45  C   UNL A   1      43.451  31.653  28.649  1.00  0.00     0.031 C 
ATOM     46  C   UNL A   1      41.526  25.087  27.727  1.00  0.00     0.029 A 
ATOM     47  C   UNL A   1      42.939  25.370  27.492  1.00  0.00     0.049 A 
ATOM     48  H   UNL A   1      43.923  27.190  27.725  1.00  0.00     0.167 HD
ATOM     49  C   UNL A   1      45.791  31.157  28.009  1.00  0.00     0.037 A 
ATOM     50  C   UNL A   1      43.856  24.475  27.078  1.00  0.00     0.037 A 
ATOM     51  C   UNL A   1      46.853  30.261  27.642  1.00  0.00     0.049 A 
ATOM     52  C   UNL A   1      45.280  24.922  26.891  1.00  0.00     0.074 A 
ATOM     53  C   UNL A   1      48.196  30.542  27.468  1.00  0.00     0.029 A 
ATOM     54  N   UNL A   1      46.691  28.904  27.402  1.00  0.00    -0.354 N 
ATOM     55  N   UNL A   1      45.792  26.121  27.044  1.00  0.00    -0.248 NA
ATOM     56  C   UNL A   1      46.251  23.898  26.483  1.00  0.00     0.031 C 
ATOM     57  C   UNL A   1      48.845  29.357  27.105  1.00  0.00     0.029 A 
ATOM     58  C   UNL A   1      47.910  28.334  27.077  1.00  0.00     0.049 A 
ATOM     59  H   UNL A   1      45.837  28.419  27.455  1.00  0.00     0.167 HD
ATOM     60  C   UNL A   1      47.148  25.991  26.769  1.00  0.00     0.074 A 
ATOM     61  C   UNL A   1      47.379  24.596  26.452  1.00  0.00     0.031 C 
ATOM     62  C   UNL A   1      48.116  26.940  26.776  1.00  0.00     0.037 A 
BRANCH  49  63
ATOM     63  C   UNL A   1      46.103  32.616  28.185  1.00  0.00     0.058 A 
ATOM     64  C   UNL A   1      46.497  33.135  29.428  1.00  0.00     0.135 A 
ATOM     65  C   UNL A   1      46.011  33.503  27.101  1.00  0.00     0.135 A 
ATOM     66  F   UNL A   1      46.581  32.332  30.500  1.00  0.00    -0.206 F 
ATOM     67  C   UNL A   1      46.756  34.490  29.600  1.00  0.00     0.059 A 
ATOM     68  C   UNL A   1      46.289  34.858  27.245  1.00  0.00     0.059 A 
ATOM     69  F   UNL A   1      45.634  33.058  25.892  1.00  0.00    -0.206 F 
ATOM     70  C   UNL A   1      46.643  35.346  28.503  1.00  0.00     0.060 A 
BRANCH  70  71
ATOM     71  S   UNL A   1      46.970  37.104  28.742  1.00  0.00     0.124 S 
ATOM     72  O   UNL A   1      46.373  37.334  30.054  1.00  0.00    -0.237 OA
ATOM     73  O   UNL A   1      48.428  37.164  28.692  1.00  0.00    -0.237 OA
ATOM     74  O   UNL A   1      46.282  37.731  27.618  1.00  0.00    -0.744 OA
ENDBRANCH  70  71
ENDBRANCH  49  63
BRANCH  50  75
ATOM     75  C   UNL A   1      43.466  23.060  26.849  1.00  0.00     0.058 A 
ATOM     76  C   UNL A   1      43.395  22.539  25.549  1.00  0.00     0.135 A 
ATOM     77  C   UNL A   1      43.170  22.200  27.917  1.00  0.00     0.135 A 
ATOM     78  F   UNL A   1      43.666  23.325  24.496  1.00  0.00    -0.206 F 
ATOM     79  C   UNL A   1      43.029  21.219  25.312  1.00  0.00     0.059 A 
ATOM     80  C   UNL A   1      42.819  20.869  27.707  1.00  0.00     0.059 A 
ATOM     81  F   UNL A   1      43.241  22.648  29.180  1.00  0.00    -0.206 F 
ATOM     82  C   UNL A   1      42.741  20.391  26.399  1.00  0.00     0.060 A 
BRANCH  82  83
ATOM     83  S   UNL A   1      42.315  18.663  26.086  1.00  0.00     0.124 S 
ATOM     84  O   UNL A   1      40.919  18.774  25.684  1.00  0.00    -0.237 OA
ATOM     85  O   UNL A   1      43.258  18.298  25.031  1.00  0.00    -0.237 OA
ATOM     86  O   UNL A   1      42.555  18.023  27.376  1.00  0.00    -0.744 OA
ENDBRANCH  82  83
ENDBRANCH  50  75
BRANCH  62  87
ATOM     87  C   UNL A   1      49.513  26.499  26.455  1.00  0.00     0.058 A 
ATOM     88  C   UNL A   1      50.029  26.594  25.155  1.00  0.00     0.135 A 
ATOM     89  C   UNL A   1      50.361  26.032  27.471  1.00  0.00     0.135 A 
ATOM     90  F   UNL A   1      49.253  27.029  24.150  1.00  0.00    -0.206 F 
ATOM     91  C   UNL A   1      51.339  26.226  24.868  1.00  0.00     0.059 A 
ATOM     92  C   UNL A   1      51.680  25.678  27.211  1.00  0.00     0.059 A 
ATOM     93  F   UNL A   1      49.914  25.932  28.733  1.00  0.00    -0.206 F 
ATOM     94  C   UNL A   1      52.158  25.770  25.903  1.00  0.00     0.060 A 
BRANCH  94  95
ATOM     95  S   UNL A   1      53.870  25.335  25.530  1.00  0.00     0.124 S 
ATOM     96  O   UNL A   1      53.846  23.886  25.690  1.00  0.00    -0.237 OA
ATOM     97  O   UNL A   1      54.027  25.820  24.162  1.00  0.00    -0.237 OA
ATOM     98  O   UNL A   1      54.630  26.069  26.538  1.00  0.00    -0.744 OA
ENDBRANCH  94  95
ENDBRANCH  62  87
ENDBRANCH  36  37
ENDBRANCH  28  31
ENDBRANCH  26  27
ENDBRANCH  25  26
ENDBRANCH   1  25
TORSDOF 17
ENDMDL
