MODEL 1
REMARK VINA RESULT:     -13.1      0.000      0.000
REMARK SMILES Cc1oc2ccc(NS(=O)(=O)c3ccc(C(C)C)cc3)cc2c1C(=O)NCCCCNC(=O)c1ccc(-c2c3nc(c(-c4c(F)cc(S(=O)(=O)[O-])cc4F)c4ccc([nH]4)c(-c4c(F)cc(S(=O)(=O)[O-])cc4F)c4nc(c(-c5c(F)cc(S(=O)(=O)[O-])cc5F)c5ccc2[nH]5)C=C4)C=C3)cc1
REMARK SMILES IDX 28 1 27 2 26 3 24 4 25 5 23 7 1 8 2 9 3 10 4 11 22 12 5 13
REMARK SMILES IDX 21 14 6 15 7 16 8 17 9 19 10 20 11 21 12 22 13 23 20 24
REMARK SMILES IDX 14 25 19 26 15 27 16 28 17 29 18 30 29 31 30 32 31 33 32 34
REMARK SMILES IDX 33 36 34 37 35 38 99 39 36 40 98 41 37 42 38 43 39 44 92 45
REMARK SMILES IDX 40 46 97 47 91 48 93 49 41 50 96 51 90 52 89 53 42 55 76 56
REMARK SMILES IDX 55 57 75 58 56 59 59 60 74 61 94 62 57 63 58 64 73 66 95 67
REMARK SMILES IDX 60 68 43 69 44 70 53 71 45 72 46 73 52 74 54 75 47 76 48 77
REMARK SMILES IDX 49 78 50 79 51 80 77 81 78 82 87 83 79 84 80 85 86 86 88 87
REMARK SMILES IDX 81 88 82 89 83 90 84 91 85 92 61 93 62 94 71 95 63 96 64 97
REMARK SMILES IDX 70 98 72 99 65 100 66 101 67 102 68 103 69 104
REMARK H PARENT 26 6 8 18 31 35 93 54 59 65
REMARK Flexibility Score: inf
ROOT
ATOM      1  C   UNL A   1      32.886  29.599  27.190  1.00  0.00     0.023 C 
ENDROOT
BRANCH   1   2
ATOM      2  C   UNL A   1      32.283  30.189  25.919  1.00  0.00     0.116 C 
BRANCH   2   3
ATOM      3  N   UNL A   1      32.901  29.793  24.672  1.00  0.00    -0.352 N 
ATOM      4  C   UNL A   1      32.569  28.790  23.787  1.00  0.00     0.255 C 
ATOM      5  O   UNL A   1      33.213  28.727  22.740  1.00  0.00    -0.269 OA
ATOM      6  H   UNL A   1      33.686  30.327  24.414  1.00  0.00     0.163 HD
BRANCH   4   7
ATOM      7  C   UNL A   1      31.570  27.782  24.117  1.00  0.00     0.088 A 
ATOM      8  C   UNL A   1      29.289  28.535  22.985  1.00  0.00     0.088 C 
ATOM      9  C   UNL A   1      30.213  27.732  23.816  1.00  0.00     0.114 A 
ATOM     10  O   UNL A   1      29.625  26.667  24.435  1.00  0.00    -0.461 OA
ATOM     11  C   UNL A   1      30.607  25.956  25.042  1.00  0.00     0.135 A 
ATOM     12  C   UNL A   1      31.839  26.539  24.793  1.00  0.00     0.035 A 
ATOM     13  C   UNL A   1      30.425  24.793  25.784  1.00  0.00     0.050 A 
ATOM     14  C   UNL A   1      32.991  25.853  25.237  1.00  0.00     0.039 A 
ATOM     15  C   UNL A   1      31.583  24.183  26.294  1.00  0.00     0.030 A 
ATOM     16  C   UNL A   1      32.858  24.702  26.029  1.00  0.00     0.050 A 
BRANCH  16  17
ATOM     17  N   UNL A   1      34.019  23.956  26.437  1.00  0.00    -0.280 N 
ATOM     18  H   UNL A   1      34.180  23.813  27.397  1.00  0.00     0.180 HD
BRANCH  17  19
ATOM     19  S   UNL A   1      35.126  23.312  25.308  1.00  0.00     0.261 S 
ATOM     20  O   UNL A   1      35.078  24.165  24.145  1.00  0.00    -0.201 OA
ATOM     21  O   UNL A   1      36.371  23.166  26.045  1.00  0.00    -0.201 OA
BRANCH  19  22
ATOM     22  C   UNL A   1      34.579  21.699  24.828  1.00  0.00     0.087 A 
ATOM     23  C   UNL A   1      35.415  20.594  24.988  1.00  0.00     0.022 A 
ATOM     24  C   UNL A   1      33.304  21.543  24.279  1.00  0.00     0.022 A 
ATOM     25  C   UNL A   1      34.920  19.314  24.730  1.00  0.00     0.005 A 
ATOM     26  C   UNL A   1      32.798  20.259  24.077  1.00  0.00     0.005 A 
ATOM     27  C   UNL A   1      33.582  19.126  24.348  1.00  0.00    -0.045 A 
BRANCH  27  28
ATOM     28  C   UNL A   1      32.943  17.748  24.265  1.00  0.00     0.013 C 
ATOM     29  C   UNL A   1      33.789  16.789  23.432  1.00  0.00     0.012 C 
ATOM     30  C   UNL A   1      32.616  17.133  25.631  1.00  0.00     0.012 C 
ENDBRANCH  27  28
ENDBRANCH  19  22
ENDBRANCH  17  19
ENDBRANCH  16  17
ENDBRANCH   4   7
ENDBRANCH   2   3
ENDBRANCH   1   2
BRANCH   1  31
ATOM     31  C   UNL A   1      34.264  28.951  27.097  1.00  0.00     0.023 C 
BRANCH  31  32
ATOM     32  C   UNL A   1      35.438  29.703  27.712  1.00  0.00     0.116 C 
BRANCH  32  33
ATOM     33  N   UNL A   1      35.323  29.934  29.143  1.00  0.00    -0.352 N 
ATOM     34  C   UNL A   1      36.296  30.026  30.115  1.00  0.00     0.251 C 
ATOM     35  H   UNL A   1      34.401  30.040  29.471  1.00  0.00     0.163 HD
ATOM     36  O   UNL A   1      35.958  30.185  31.286  1.00  0.00    -0.269 OA
BRANCH  34  37
ATOM     37  C   UNL A   1      37.732  29.885  29.774  1.00  0.00     0.039 A 
ATOM     38  C   UNL A   1      38.635  29.575  30.795  1.00  0.00     0.014 A 
ATOM     39  C   UNL A   1      38.194  30.035  28.465  1.00  0.00     0.014 A 
ATOM     40  C   UNL A   1      39.974  29.313  30.488  1.00  0.00     0.010 A 
ATOM     41  C   UNL A   1      39.507  29.687  28.148  1.00  0.00     0.010 A 
ATOM     42  C   UNL A   1      40.410  29.310  29.153  1.00  0.00    -0.014 A 
BRANCH  42  43
ATOM     43  C   UNL A   1      41.793  28.897  28.786  1.00  0.00     0.031 A 
ATOM     44  C   UNL A   1      42.905  29.912  28.747  1.00  0.00     0.074 A 
ATOM     45  C   UNL A   1      42.033  27.625  28.406  1.00  0.00     0.049 A 
ATOM     46  N   UNL A   1      44.145  29.765  28.356  1.00  0.00    -0.248 NA
ATOM     47  C   UNL A   1      42.571  31.280  29.175  1.00  0.00     0.031 C 
ATOM     48  C   UNL A   1      41.034  26.554  28.347  1.00  0.00     0.029 A 
ATOM     49  N   UNL A   1      43.190  27.017  27.982  1.00  0.00    -0.354 N 
ATOM     50  C   UNL A   1      44.732  31.020  28.472  1.00  0.00     0.074 A 
ATOM     51  C   UNL A   1      43.698  31.928  28.919  1.00  0.00     0.031 C 
ATOM     52  C   UNL A   1      41.624  25.421  27.934  1.00  0.00     0.029 A 
ATOM     53  C   UNL A   1      43.032  25.689  27.657  1.00  0.00     0.049 A 
ATOM     54  H   UNL A   1      44.052  27.487  27.916  1.00  0.00     0.167 HD
ATOM     55  C   UNL A   1      46.019  31.380  28.250  1.00  0.00     0.037 A 
ATOM     56  C   UNL A   1      43.915  24.788  27.181  1.00  0.00     0.037 A 
ATOM     57  C   UNL A   1      47.053  30.467  27.835  1.00  0.00     0.049 A 
ATOM     58  C   UNL A   1      45.341  25.209  26.948  1.00  0.00     0.074 A 
ATOM     59  C   UNL A   1      48.399  30.723  27.644  1.00  0.00     0.029 A 
ATOM     60  N   UNL A   1      46.858  29.123  27.550  1.00  0.00    -0.354 N 
ATOM     61  N   UNL A   1      45.890  26.387  27.123  1.00  0.00    -0.248 NA
ATOM     62  C   UNL A   1      46.269  24.179  26.461  1.00  0.00     0.031 C 
ATOM     63  C   UNL A   1      49.011  29.545  27.202  1.00  0.00     0.029 A 
ATOM     64  C   UNL A   1      48.056  28.542  27.167  1.00  0.00     0.049 A 
ATOM     65  H   UNL A   1      45.995  28.653  27.611  1.00  0.00     0.167 HD
ATOM     66  C   UNL A   1      47.234  26.233  26.797  1.00  0.00     0.074 A 
ATOM     67  C   UNL A   1      47.415  24.846  26.423  1.00  0.00     0.031 C 
ATOM     68  C   UNL A   1      48.226  27.156  26.810  1.00  0.00     0.037 A 
BRANCH  55  69
ATOM     69  C   UNL A   1      46.387  32.824  28.459  1.00  0.00     0.058 A 
ATOM     70  C   UNL A   1      46.224  33.780  27.444  1.00  0.00     0.135 A 
ATOM     71  C   UNL A   1      46.871  33.266  29.701  1.00  0.00     0.135 A 
ATOM     72  F   UNL A   1      45.779  33.410  26.232  1.00  0.00    -0.206 F 
ATOM     73  C   UNL A   1      46.559  35.115  27.640  1.00  0.00     0.059 A 
ATOM     74  C   UNL A   1      47.183  34.603  29.930  1.00  0.00     0.059 A 
ATOM     75  F   UNL A   1      47.044  32.395  30.708  1.00  0.00    -0.206 F 
ATOM     76  C   UNL A   1      47.039  35.517  28.888  1.00  0.00     0.060 A 
BRANCH  76  77
ATOM     77  S   UNL A   1      47.464  37.255  29.128  1.00  0.00     0.124 S 
ATOM     78  O   UNL A   1      46.199  37.799  29.614  1.00  0.00    -0.237 OA
ATOM     79  O   UNL A   1      48.540  37.181  30.111  1.00  0.00    -0.237 OA
ATOM     80  O   UNL A   1      47.864  37.695  27.796  1.00  0.00    -0.744 OA
ENDBRANCH  76  77
ENDBRANCH  55  69
BRANCH  56  81
ATOM     81  C   UNL A   1      43.482  23.390  26.913  1.00  0.00     0.058 A 
ATOM     82  C   UNL A   1      43.255  22.944  25.602  1.00  0.00     0.135 A 
ATOM     83  C   UNL A   1      43.297  22.469  27.956  1.00  0.00     0.135 A 
ATOM     84  F   UNL A   1      43.410  23.789  24.571  1.00  0.00    -0.206 F 
ATOM     85  C   UNL A   1      42.842  21.643  25.335  1.00  0.00     0.059 A 
ATOM     86  C   UNL A   1      42.911  21.154  27.713  1.00  0.00     0.059 A 
ATOM     87  F   UNL A   1      43.519  22.840  29.227  1.00  0.00    -0.206 F 
ATOM     88  C   UNL A   1      42.675  20.754  26.398  1.00  0.00     0.060 A 
BRANCH  88  89
ATOM     89  S   UNL A   1      42.186  19.053  26.037  1.00  0.00     0.124 S 
ATOM     90  O   UNL A   1      42.991  18.761  24.856  1.00  0.00    -0.237 OA
ATOM     91  O   UNL A   1      42.571  18.358  27.261  1.00  0.00    -0.237 OA
ATOM     92  O   UNL A   1      40.748  19.159  25.811  1.00  0.00    -0.744 OA
ENDBRANCH  88  89
ENDBRANCH  56  81
BRANCH  68  93
ATOM     93  C   UNL A   1      49.612  26.694  26.452  1.00  0.00     0.058 A 
ATOM     94  C   UNL A   1      50.437  26.038  27.379  1.00  0.00     0.135 A 
ATOM     95  C   UNL A   1      50.098  26.860  25.144  1.00  0.00     0.135 A 
ATOM     96  F   UNL A   1      50.024  25.860  28.643  1.00  0.00    -0.206 F 
ATOM     97  C   UNL A   1      51.702  25.578  27.027  1.00  0.00     0.059 A 
ATOM     98  C   UNL A   1      51.348  26.384  24.763  1.00  0.00     0.059 A 
ATOM     99  F   UNL A   1      49.346  27.473  24.217  1.00  0.00    -0.206 F 
ATOM    100  C   UNL A   1      52.147  25.753  25.715  1.00  0.00     0.060 A 
BRANCH 100 101
ATOM    101  S   UNL A   1      53.773  25.114  25.259  1.00  0.00     0.124 S 
ATOM    102  O   UNL A   1      54.617  25.690  26.301  1.00  0.00    -0.237 OA
ATOM    103  O   UNL A   1      53.574  23.669  25.333  1.00  0.00    -0.237 OA
ATOM    104  O   UNL A   1      53.983  25.644  23.916  1.00  0.00    -0.744 OA
ENDBRANCH 100 101
ENDBRANCH  68  93
ENDBRANCH  42  43
ENDBRANCH  34  37
ENDBRANCH  32  33
ENDBRANCH  31  32
ENDBRANCH   1  31
TORSDOF 18
ENDMDL
MODEL 2
REMARK VINA RESULT:     -12.1      1.461      2.474
REMARK SMILES Cc1oc2ccc(NS(=O)(=O)c3ccc(C(C)C)cc3)cc2c1C(=O)NCCCCNC(=O)c1ccc(-c2c3nc(c(-c4c(F)cc(S(=O)(=O)[O-])cc4F)c4ccc([nH]4)c(-c4c(F)cc(S(=O)(=O)[O-])cc4F)c4nc(c(-c5c(F)cc(S(=O)(=O)[O-])cc5F)c5ccc2[nH]5)C=C4)C=C3)cc1
REMARK SMILES IDX 28 1 27 2 26 3 24 4 25 5 23 7 1 8 2 9 3 10 4 11 22 12 5 13
REMARK SMILES IDX 21 14 6 15 7 16 8 17 9 19 10 20 11 21 12 22 13 23 20 24
REMARK SMILES IDX 14 25 19 26 15 27 16 28 17 29 18 30 29 31 30 32 31 33 32 34
REMARK SMILES IDX 33 36 34 37 35 38 99 39 36 40 98 41 37 42 38 43 39 44 92 45
REMARK SMILES IDX 40 46 97 47 91 48 93 49 41 50 96 51 90 52 89 53 42 55 76 56
REMARK SMILES IDX 55 57 75 58 56 59 59 60 74 61 94 62 57 63 58 64 73 66 95 67
REMARK SMILES IDX 60 68 43 69 44 70 53 71 45 72 46 73 52 74 54 75 47 76 48 77
REMARK SMILES IDX 49 78 50 79 51 80 77 81 78 82 87 83 79 84 80 85 86 86 88 87
REMARK SMILES IDX 81 88 82 89 83 90 84 91 85 92 61 93 62 94 71 95 63 96 64 97
REMARK SMILES IDX 70 98 72 99 65 100 66 101 67 102 68 103 69 104
REMARK H PARENT 26 6 8 18 31 35 93 54 59 65
REMARK Flexibility Score: inf
ROOT
ATOM      1  C   UNL A   1      33.356  30.578  27.051  1.00  0.00     0.023 C 
ENDROOT
BRANCH   1   2
ATOM      2  C   UNL A   1      32.618  29.789  25.974  1.00  0.00     0.116 C 
BRANCH   2   3
ATOM      3  N   UNL A   1      33.347  29.547  24.746  1.00  0.00    -0.352 N 
ATOM      4  C   UNL A   1      32.948  28.942  23.574  1.00  0.00     0.255 C 
ATOM      5  O   UNL A   1      33.747  28.949  22.637  1.00  0.00    -0.269 OA
ATOM      6  H   UNL A   1      34.277  29.866  24.750  1.00  0.00     0.163 HD
BRANCH   4   7
ATOM      7  C   UNL A   1      31.680  28.232  23.474  1.00  0.00     0.088 A 
ATOM      8  C   UNL A   1      29.770  30.063  23.243  1.00  0.00     0.088 C 
ATOM      9  C   UNL A   1      30.382  28.724  23.392  1.00  0.00     0.114 A 
ATOM     10  O   UNL A   1      29.479  27.701  23.448  1.00  0.00    -0.461 OA
ATOM     11  C   UNL A   1      30.179  26.540  23.447  1.00  0.00     0.135 A 
ATOM     12  C   UNL A   1      31.536  26.803  23.361  1.00  0.00     0.035 A 
ATOM     13  C   UNL A   1      29.629  25.262  23.497  1.00  0.00     0.050 A 
ATOM     14  C   UNL A   1      32.410  25.704  23.213  1.00  0.00     0.039 A 
ATOM     15  C   UNL A   1      30.531  24.186  23.443  1.00  0.00     0.030 A 
ATOM     16  C   UNL A   1      31.909  24.396  23.303  1.00  0.00     0.050 A 
BRANCH  16  17
ATOM     17  N   UNL A   1      32.774  23.265  23.091  1.00  0.00    -0.280 N 
ATOM     18  H   UNL A   1      33.272  23.198  22.246  1.00  0.00     0.180 HD
BRANCH  17  19
ATOM     19  S   UNL A   1      32.963  22.037  24.262  1.00  0.00     0.261 S 
ATOM     20  O   UNL A   1      31.921  22.230  25.241  1.00  0.00    -0.201 OA
ATOM     21  O   UNL A   1      33.018  20.798  23.501  1.00  0.00    -0.201 OA
BRANCH  19  22
ATOM     22  C   UNL A   1      34.522  22.254  25.071  1.00  0.00     0.087 A 
ATOM     23  C   UNL A   1      35.511  21.276  24.970  1.00  0.00     0.022 A 
ATOM     24  C   UNL A   1      34.750  23.412  25.819  1.00  0.00     0.022 A 
ATOM     25  C   UNL A   1      36.779  21.522  25.502  1.00  0.00     0.005 A 
ATOM     26  C   UNL A   1      36.033  23.675  26.299  1.00  0.00     0.005 A 
ATOM     27  C   UNL A   1      37.077  22.756  26.101  1.00  0.00    -0.045 A 
BRANCH  27  28
ATOM     28  C   UNL A   1      38.492  23.150  26.498  1.00  0.00     0.013 C 
ATOM     29  C   UNL A   1      39.482  22.020  26.228  1.00  0.00     0.012 C 
ATOM     30  C   UNL A   1      38.975  24.457  25.858  1.00  0.00     0.012 C 
ENDBRANCH  27  28
ENDBRANCH  19  22
ENDBRANCH  17  19
ENDBRANCH  16  17
ENDBRANCH   4   7
ENDBRANCH   2   3
ENDBRANCH   1   2
BRANCH   1  31
ATOM     31  C   UNL A   1      34.637  29.985  27.626  1.00  0.00     0.023 C 
BRANCH  31  32
ATOM     32  C   UNL A   1      35.575  30.926  28.374  1.00  0.00     0.116 C 
BRANCH  32  33
ATOM     33  N   UNL A   1      35.535  30.790  29.821  1.00  0.00    -0.352 N 
ATOM     34  C   UNL A   1      36.451  30.241  30.693  1.00  0.00     0.251 C 
ATOM     35  H   UNL A   1      34.723  31.148  30.248  1.00  0.00     0.163 HD
ATOM     36  O   UNL A   1      36.183  30.197  31.892  1.00  0.00    -0.269 OA
BRANCH  34  37
ATOM     37  C   UNL A   1      37.723  29.661  30.200  1.00  0.00     0.039 A 
ATOM     38  C   UNL A   1      38.057  29.827  28.852  1.00  0.00     0.014 A 
ATOM     39  C   UNL A   1      38.595  28.974  31.047  1.00  0.00     0.014 A 
ATOM     40  C   UNL A   1      39.304  29.401  28.383  1.00  0.00     0.010 A 
ATOM     41  C   UNL A   1      39.871  28.632  30.601  1.00  0.00     0.010 A 
ATOM     42  C   UNL A   1      40.246  28.851  29.267  1.00  0.00    -0.014 A 
BRANCH  42  43
ATOM     43  C   UNL A   1      41.629  28.522  28.825  1.00  0.00     0.031 A 
ATOM     44  C   UNL A   1      42.676  29.601  28.733  1.00  0.00     0.074 A 
ATOM     45  C   UNL A   1      41.923  27.268  28.425  1.00  0.00     0.049 A 
ATOM     46  N   UNL A   1      43.900  29.528  28.277  1.00  0.00    -0.248 NA
ATOM     47  C   UNL A   1      42.285  30.946  29.186  1.00  0.00     0.031 C 
ATOM     48  C   UNL A   1      40.987  26.140  28.413  1.00  0.00     0.029 A 
ATOM     49  N   UNL A   1      43.090  26.730  27.937  1.00  0.00    -0.354 N 
ATOM     50  C   UNL A   1      44.418  30.815  28.369  1.00  0.00     0.074 A 
ATOM     51  C   UNL A   1      43.357  31.660  28.875  1.00  0.00     0.031 C 
ATOM     52  C   UNL A   1      41.619  25.045  27.963  1.00  0.00     0.029 A 
ATOM     53  C   UNL A   1      42.993  25.395  27.614  1.00  0.00     0.049 A 
ATOM     54  H   UNL A   1      43.918  27.251  27.828  1.00  0.00     0.167 HD
ATOM     55  C   UNL A   1      45.668  31.251  28.081  1.00  0.00     0.037 A 
ATOM     56  C   UNL A   1      43.900  24.549  27.086  1.00  0.00     0.037 A 
ATOM     57  C   UNL A   1      46.730  30.402  27.607  1.00  0.00     0.049 A 
ATOM     58  C   UNL A   1      45.285  25.055  26.780  1.00  0.00     0.074 A 
ATOM     59  C   UNL A   1      48.047  30.738  27.346  1.00  0.00     0.029 A 
ATOM     60  N   UNL A   1      46.600  29.050  27.325  1.00  0.00    -0.354 N 
ATOM     61  N   UNL A   1      45.773  26.263  26.934  1.00  0.00    -0.248 NA
ATOM     62  C   UNL A   1      46.245  24.083  26.239  1.00  0.00     0.031 C 
ATOM     63  C   UNL A   1      48.702  29.599  26.866  1.00  0.00     0.029 A 
ATOM     64  C   UNL A   1      47.807  28.542  26.876  1.00  0.00     0.049 A 
ATOM     65  H   UNL A   1      45.770  28.529  27.428  1.00  0.00     0.167 HD
ATOM     66  C   UNL A   1      47.104  26.189  26.536  1.00  0.00     0.074 A 
ATOM     67  C   UNL A   1      47.346  24.816  26.145  1.00  0.00     0.031 C 
ATOM     68  C   UNL A   1      48.040  27.168  26.502  1.00  0.00     0.037 A 
BRANCH  55  69
ATOM     69  C   UNL A   1      45.960  32.714  28.279  1.00  0.00     0.058 A 
ATOM     70  C   UNL A   1      46.446  33.209  29.500  1.00  0.00     0.135 A 
ATOM     71  C   UNL A   1      45.790  33.627  27.226  1.00  0.00     0.135 A 
ATOM     72  F   UNL A   1      46.614  32.383  30.546  1.00  0.00    -0.206 F 
ATOM     73  C   UNL A   1      46.722  34.560  29.681  1.00  0.00     0.059 A 
ATOM     74  C   UNL A   1      46.088  34.979  27.374  1.00  0.00     0.059 A 
ATOM     75  F   UNL A   1      45.330  33.209  26.036  1.00  0.00    -0.206 F 
ATOM     76  C   UNL A   1      46.539  35.438  28.611  1.00  0.00     0.060 A 
BRANCH  76  77
ATOM     77  S   UNL A   1      46.905  37.187  28.861  1.00  0.00     0.124 S 
ATOM     78  O   UNL A   1      46.351  37.776  27.645  1.00  0.00    -0.237 OA
ATOM     79  O   UNL A   1      46.183  37.485  30.094  1.00  0.00    -0.237 OA
ATOM     80  O   UNL A   1      48.360  37.219  28.966  1.00  0.00    -0.744 OA
ENDBRANCH  76  77
ENDBRANCH  55  69
BRANCH  56  81
ATOM     81  C   UNL A   1      43.537  23.129  26.834  1.00  0.00     0.058 A 
ATOM     82  C   UNL A   1      43.353  22.232  27.897  1.00  0.00     0.135 A 
ATOM     83  C   UNL A   1      43.358  22.641  25.530  1.00  0.00     0.135 A 
ATOM     84  F   UNL A   1      43.521  22.648  29.162  1.00  0.00    -0.206 F 
ATOM     85  C   UNL A   1      43.022  20.899  27.678  1.00  0.00     0.059 A 
ATOM     86  C   UNL A   1      43.000  21.318  25.286  1.00  0.00     0.059 A 
ATOM     87  F   UNL A   1      43.505  23.462  24.478  1.00  0.00    -0.206 F 
ATOM     88  C   UNL A   1      42.845  20.451  26.368  1.00  0.00     0.060 A 
BRANCH  88  89
ATOM     89  S   UNL A   1      42.366  18.732  26.097  1.00  0.00     0.124 S 
ATOM     90  O   UNL A   1      43.256  18.347  25.006  1.00  0.00    -0.237 OA
ATOM     91  O   UNL A   1      42.648  18.127  27.395  1.00  0.00    -0.237 OA
ATOM     92  O   UNL A   1      40.951  18.828  25.753  1.00  0.00    -0.744 OA
ENDBRANCH  88  89
ENDBRANCH  56  81
BRANCH  68  93
ATOM     93  C   UNL A   1      49.430  26.790  26.069  1.00  0.00     0.058 A 
ATOM     94  C   UNL A   1      50.329  26.153  26.938  1.00  0.00     0.135 A 
ATOM     95  C   UNL A   1      49.845  27.017  24.746  1.00  0.00     0.135 A 
ATOM     96  F   UNL A   1      49.984  25.919  28.214  1.00  0.00    -0.206 F 
ATOM     97  C   UNL A   1      51.598  25.770  26.516  1.00  0.00     0.059 A 
ATOM     98  C   UNL A   1      51.099  26.618  24.295  1.00  0.00     0.059 A 
ATOM     99  F   UNL A   1      49.020  27.615  23.872  1.00  0.00    -0.206 F 
ATOM    100  C   UNL A   1      51.973  26.004  25.191  1.00  0.00     0.060 A 
BRANCH 100 101
ATOM    101  S   UNL A   1      53.606  25.464  24.644  1.00  0.00     0.124 S 
ATOM    102  O   UNL A   1      53.631  24.083  25.115  1.00  0.00    -0.237 OA
ATOM    103  O   UNL A   1      53.527  25.639  23.197  1.00  0.00    -0.237 OA
ATOM    104  O   UNL A   1      54.514  26.379  25.331  1.00  0.00    -0.744 OA
ENDBRANCH 100 101
ENDBRANCH  68  93
ENDBRANCH  42  43
ENDBRANCH  34  37
ENDBRANCH  32  33
ENDBRANCH  31  32
ENDBRANCH   1  31
TORSDOF 18
ENDMDL
MODEL 3
REMARK VINA RESULT:     -11.5      7.409     15.893
REMARK SMILES Cc1oc2ccc(NS(=O)(=O)c3ccc(C(C)C)cc3)cc2c1C(=O)NCCCCNC(=O)c1ccc(-c2c3nc(c(-c4c(F)cc(S(=O)(=O)[O-])cc4F)c4ccc([nH]4)c(-c4c(F)cc(S(=O)(=O)[O-])cc4F)c4nc(c(-c5c(F)cc(S(=O)(=O)[O-])cc5F)c5ccc2[nH]5)C=C4)C=C3)cc1
REMARK SMILES IDX 28 1 27 2 26 3 24 4 25 5 23 7 1 8 2 9 3 10 4 11 22 12 5 13
REMARK SMILES IDX 21 14 6 15 7 16 8 17 9 19 10 20 11 21 12 22 13 23 20 24
REMARK SMILES IDX 14 25 19 26 15 27 16 28 17 29 18 30 29 31 30 32 31 33 32 34
REMARK SMILES IDX 33 36 34 37 35 38 99 39 36 40 98 41 37 42 38 43 39 44 92 45
REMARK SMILES IDX 40 46 97 47 91 48 93 49 41 50 96 51 90 52 89 53 42 55 76 56
REMARK SMILES IDX 55 57 75 58 56 59 59 60 74 61 94 62 57 63 58 64 73 66 95 67
REMARK SMILES IDX 60 68 43 69 44 70 53 71 45 72 46 73 52 74 54 75 47 76 48 77
REMARK SMILES IDX 49 78 50 79 51 80 77 81 78 82 87 83 79 84 80 85 86 86 88 87
REMARK SMILES IDX 81 88 82 89 83 90 84 91 85 92 61 93 62 94 71 95 63 96 64 97
REMARK SMILES IDX 70 98 72 99 65 100 66 101 67 102 68 103 69 104
REMARK H PARENT 26 6 8 18 31 35 93 54 59 65
REMARK Flexibility Score: inf
ROOT
ATOM      1  C   UNL A   1      51.310  25.974  35.552  1.00  0.00     0.023 C 
ENDROOT
BRANCH   1   2
ATOM      2  C   UNL A   1      52.156  25.004  34.733  1.00  0.00     0.116 C 
BRANCH   2   3
ATOM      3  N   UNL A   1      51.794  24.859  33.338  1.00  0.00    -0.352 N 
ATOM      4  C   UNL A   1      51.267  23.783  32.658  1.00  0.00     0.255 C 
ATOM      5  O   UNL A   1      50.960  23.959  31.479  1.00  0.00    -0.269 OA
ATOM      6  H   UNL A   1      51.949  25.660  32.788  1.00  0.00     0.163 HD
BRANCH   4   7
ATOM      7  C   UNL A   1      51.172  22.465  33.271  1.00  0.00     0.088 A 
ATOM      8  C   UNL A   1      53.234  21.039  32.394  1.00  0.00     0.088 C 
ATOM      9  C   UNL A   1      51.969  21.338  33.101  1.00  0.00     0.114 A 
ATOM     10  O   UNL A   1      51.441  20.273  33.774  1.00  0.00    -0.461 OA
ATOM     11  C   UNL A   1      50.372  20.725  34.475  1.00  0.00     0.135 A 
ATOM     12  C   UNL A   1      50.221  22.089  34.285  1.00  0.00     0.035 A 
ATOM     13  C   UNL A   1      49.555  19.951  35.294  1.00  0.00     0.050 A 
ATOM     14  C   UNL A   1      49.236  22.753  35.049  1.00  0.00     0.039 A 
ATOM     15  C   UNL A   1      48.522  20.624  35.969  1.00  0.00     0.030 A 
ATOM     16  C   UNL A   1      48.357  22.011  35.853  1.00  0.00     0.050 A 
BRANCH  16  17
ATOM     17  N   UNL A   1      47.390  22.675  36.685  1.00  0.00    -0.280 N 
ATOM     18  H   UNL A   1      47.706  23.277  37.396  1.00  0.00     0.180 HD
BRANCH  17  19
ATOM     19  S   UNL A   1      45.709  22.452  36.479  1.00  0.00     0.261 S 
ATOM     20  O   UNL A   1      45.490  21.030  36.366  1.00  0.00    -0.201 OA
ATOM     21  O   UNL A   1      45.096  23.192  37.571  1.00  0.00    -0.201 OA
BRANCH  19  22
ATOM     22  C   UNL A   1      45.215  23.207  34.957  1.00  0.00     0.087 A 
ATOM     23  C   UNL A   1      45.856  24.357  34.500  1.00  0.00     0.022 A 
ATOM     24  C   UNL A   1      44.169  22.643  34.221  1.00  0.00     0.022 A 
ATOM     25  C   UNL A   1      45.545  24.862  33.234  1.00  0.00     0.005 A 
ATOM     26  C   UNL A   1      43.902  23.118  32.937  1.00  0.00     0.005 A 
ATOM     27  C   UNL A   1      44.622  24.202  32.407  1.00  0.00    -0.045 A 
BRANCH  27  28
ATOM     28  C   UNL A   1      44.411  24.586  30.951  1.00  0.00     0.013 C 
ATOM     29  C   UNL A   1      45.651  25.259  30.366  1.00  0.00     0.012 C 
ATOM     30  C   UNL A   1      43.958  23.423  30.061  1.00  0.00     0.012 C 
ENDBRANCH  27  28
ENDBRANCH  19  22
ENDBRANCH  17  19
ENDBRANCH  16  17
ENDBRANCH   4   7
ENDBRANCH   2   3
ENDBRANCH   1   2
BRANCH   1  31
ATOM     31  C   UNL A   1      50.176  25.403  36.395  1.00  0.00     0.023 C 
BRANCH  31  32
ATOM     32  C   UNL A   1      48.888  26.213  36.484  1.00  0.00     0.116 C 
BRANCH  32  33
ATOM     33  N   UNL A   1      48.500  26.581  37.836  1.00  0.00    -0.352 N 
ATOM     34  C   UNL A   1      47.380  27.241  38.296  1.00  0.00     0.251 C 
ATOM     35  H   UNL A   1      49.139  26.318  38.536  1.00  0.00     0.163 HD
ATOM     36  O   UNL A   1      47.282  27.485  39.497  1.00  0.00    -0.269 OA
BRANCH  34  37
ATOM     37  C   UNL A   1      46.326  27.702  37.361  1.00  0.00     0.039 A 
ATOM     38  C   UNL A   1      45.075  27.079  37.402  1.00  0.00     0.014 A 
ATOM     39  C   UNL A   1      46.548  28.746  36.461  1.00  0.00     0.014 A 
ATOM     40  C   UNL A   1      44.023  27.571  36.623  1.00  0.00     0.010 A 
ATOM     41  C   UNL A   1      45.477  29.292  35.753  1.00  0.00     0.010 A 
ATOM     42  C   UNL A   1      44.200  28.719  35.833  1.00  0.00    -0.014 A 
BRANCH  42  43
ATOM     43  C   UNL A   1      43.063  29.347  35.105  1.00  0.00     0.031 A 
ATOM     44  C   UNL A   1      42.683  28.867  33.729  1.00  0.00     0.074 A 
ATOM     45  C   UNL A   1      42.424  30.404  35.645  1.00  0.00     0.049 A 
ATOM     46  N   UNL A   1      41.793  29.351  32.901  1.00  0.00    -0.248 NA
ATOM     47  C   UNL A   1      43.422  27.708  33.201  1.00  0.00     0.031 C 
ATOM     48  C   UNL A   1      42.726  31.003  36.948  1.00  0.00     0.029 A 
ATOM     49  N   UNL A   1      41.394  31.176  35.162  1.00  0.00    -0.354 N 
ATOM     50  C   UNL A   1      41.878  28.572  31.752  1.00  0.00     0.074 A 
ATOM     51  C   UNL A   1      42.943  27.617  31.969  1.00  0.00     0.031 C 
ATOM     52  C   UNL A   1      41.891  32.031  37.168  1.00  0.00     0.029 A 
ATOM     53  C   UNL A   1      41.019  32.195  36.008  1.00  0.00     0.049 A 
ATOM     54  H   UNL A   1      40.964  31.015  34.291  1.00  0.00     0.167 HD
ATOM     55  C   UNL A   1      41.124  28.630  30.628  1.00  0.00     0.037 A 
ATOM     56  C   UNL A   1      40.088  33.159  35.866  1.00  0.00     0.037 A 
ATOM     57  C   UNL A   1      40.044  29.560  30.427  1.00  0.00     0.049 A 
ATOM     58  C   UNL A   1      39.257  33.199  34.611  1.00  0.00     0.074 A 
ATOM     59  C   UNL A   1      39.181  29.657  29.349  1.00  0.00     0.029 A 
ATOM     60  N   UNL A   1      39.675  30.554  31.323  1.00  0.00    -0.354 N 
ATOM     61  N   UNL A   1      39.312  32.414  33.562  1.00  0.00    -0.248 NA
ATOM     62  C   UNL A   1      38.233  34.250  34.523  1.00  0.00     0.031 C 
ATOM     63  C   UNL A   1      38.319  30.735  29.573  1.00  0.00     0.029 A 
ATOM     64  C   UNL A   1      38.610  31.278  30.814  1.00  0.00     0.049 A 
ATOM     65  H   UNL A   1      40.107  30.719  32.192  1.00  0.00     0.167 HD
ATOM     66  C   UNL A   1      38.312  32.856  32.703  1.00  0.00     0.074 A 
ATOM     67  C   UNL A   1      37.662  33.972  33.359  1.00  0.00     0.031 C 
ATOM     68  C   UNL A   1      37.962  32.379  31.484  1.00  0.00     0.037 A 
BRANCH  55  69
ATOM     69  C   UNL A   1      41.434  27.651  29.528  1.00  0.00     0.058 A 
ATOM     70  C   UNL A   1      42.607  27.752  28.762  1.00  0.00     0.135 A 
ATOM     71  C   UNL A   1      40.570  26.578  29.260  1.00  0.00     0.135 A 
ATOM     72  F   UNL A   1      43.463  28.767  28.965  1.00  0.00    -0.206 F 
ATOM     73  C   UNL A   1      42.896  26.844  27.749  1.00  0.00     0.059 A 
ATOM     74  C   UNL A   1      40.853  25.639  28.271  1.00  0.00     0.059 A 
ATOM     75  F   UNL A   1      39.435  26.432  29.963  1.00  0.00    -0.206 F 
ATOM     76  C   UNL A   1      42.012  25.791  27.510  1.00  0.00     0.060 A 
BRANCH  76  77
ATOM     77  S   UNL A   1      42.403  24.619  26.195  1.00  0.00     0.124 S 
ATOM     78  O   UNL A   1      41.352  23.621  26.373  1.00  0.00    -0.237 OA
ATOM     79  O   UNL A   1      42.295  25.445  24.997  1.00  0.00    -0.237 OA
ATOM     80  O   UNL A   1      43.753  24.173  26.526  1.00  0.00    -0.744 OA
ENDBRANCH  76  77
ENDBRANCH  55  69
BRANCH  56  81
ATOM     81  C   UNL A   1      39.873  34.154  36.951  1.00  0.00     0.058 A 
ATOM     82  C   UNL A   1      40.487  35.415  36.905  1.00  0.00     0.135 A 
ATOM     83  C   UNL A   1      39.047  33.872  38.049  1.00  0.00     0.135 A 
ATOM     84  F   UNL A   1      41.294  35.730  35.879  1.00  0.00    -0.206 F 
ATOM     85  C   UNL A   1      40.305  36.354  37.915  1.00  0.00     0.059 A 
ATOM     86  C   UNL A   1      38.826  34.804  39.059  1.00  0.00     0.059 A 
ATOM     87  F   UNL A   1      38.421  32.687  38.133  1.00  0.00    -0.206 F 
ATOM     88  C   UNL A   1      39.469  36.039  38.988  1.00  0.00     0.060 A 
BRANCH  88  89
ATOM     89  S   UNL A   1      39.199  37.283  40.269  1.00  0.00     0.124 S 
ATOM     90  O   UNL A   1      38.491  36.510  41.284  1.00  0.00    -0.237 OA
ATOM     91  O   UNL A   1      40.563  37.680  40.603  1.00  0.00    -0.237 OA
ATOM     92  O   UNL A   1      38.408  38.301  39.585  1.00  0.00    -0.744 OA
ENDBRANCH  88  89
ENDBRANCH  56  81
BRANCH  68  93
ATOM     93  C   UNL A   1      36.795  33.027  30.790  1.00  0.00     0.058 A 
ATOM     94  C   UNL A   1      35.472  32.803  31.200  1.00  0.00     0.135 A 
ATOM     95  C   UNL A   1      37.012  33.931  29.736  1.00  0.00     0.135 A 
ATOM     96  F   UNL A   1      35.211  31.944  32.197  1.00  0.00    -0.206 F 
ATOM     97  C   UNL A   1      34.402  33.439  30.579  1.00  0.00     0.059 A 
ATOM     98  C   UNL A   1      35.959  34.598  29.118  1.00  0.00     0.059 A 
ATOM     99  F   UNL A   1      38.258  34.187  29.311  1.00  0.00    -0.206 F 
ATOM    100  C   UNL A   1      34.656  34.338  29.540  1.00  0.00     0.060 A 
BRANCH 100 101
ATOM    101  S   UNL A   1      33.263  35.189  28.770  1.00  0.00     0.124 S 
ATOM    102  O   UNL A   1      32.504  35.625  29.938  1.00  0.00    -0.237 OA
ATOM    103  O   UNL A   1      33.922  36.248  28.011  1.00  0.00    -0.237 OA
ATOM    104  O   UNL A   1      32.632  34.148  27.964  1.00  0.00    -0.744 OA
ENDBRANCH 100 101
ENDBRANCH  68  93
ENDBRANCH  42  43
ENDBRANCH  34  37
ENDBRANCH  32  33
ENDBRANCH  31  32
ENDBRANCH   1  31
TORSDOF 18
ENDMDL
