MODEL 1
REMARK VINA RESULT:     -10.7      0.000      0.000
REMARK SMILES CCC(CC)(CC)NC(=O)NC[C@@H]1CC[C@H](C(=O)NCCCCNC(=O)c2ccc(-c3c4nc(c(-c5c(F)cc(S(=O)(=O)[O-])cc5F)c5ccc([nH]5)c(-c5c(F)cc(S(=O)(=O)[O-])cc5F)c5nc(c(-c6c(F)cc(S(=O)(=O)[O-])cc6F)c6ccc3[nH]6)C=C5)C=C4)cc2)O1
REMARK SMILES IDX 21 1 20 2 19 3 17 4 18 5 16 7 13 8 14 9 93 10 15 11 12 12
REMARK SMILES IDX 11 13 8 14 9 15 10 17 3 19 2 20 1 21 4 22 5 23 6 24 7 25
REMARK SMILES IDX 22 26 23 27 24 28 25 29 26 31 27 32 28 33 92 34 29 35 91 36
REMARK SMILES IDX 30 37 31 38 32 39 85 40 33 41 90 42 84 43 86 44 34 45 89 46
REMARK SMILES IDX 83 47 82 48 35 50 69 51 48 52 68 53 49 54 52 55 67 56 87 57
REMARK SMILES IDX 50 58 51 59 66 61 88 62 53 63 36 64 37 65 46 66 38 67 39 68
REMARK SMILES IDX 45 69 47 70 40 71 41 72 42 73 43 74 44 75 70 76 71 77 80 78
REMARK SMILES IDX 72 79 73 80 79 81 81 82 74 83 75 84 76 85 77 86 78 87 54 88
REMARK SMILES IDX 55 89 64 90 56 91 57 92 63 93 65 94 58 95 59 96 60 97 61 98
REMARK SMILES IDX 62 99
REMARK H PARENT 19 6 8 16 11 18 24 30 86 49 52 60
REMARK Flexibility Score: inf
ROOT
ATOM      1  C   UNL A   1      32.311  29.223  26.432  1.00  0.00     0.023 C 
ENDROOT
BRANCH   1   2
ATOM      2  C   UNL A   1      32.453  29.273  24.912  1.00  0.00     0.116 C 
BRANCH   2   3
ATOM      3  N   UNL A   1      31.328  29.916  24.268  1.00  0.00    -0.354 N 
ATOM      4  C   UNL A   1      30.218  29.373  23.694  1.00  0.00     0.249 C 
ATOM      5  O   UNL A   1      29.345  30.143  23.284  1.00  0.00    -0.272 OA
ATOM      6  H   UNL A   1      31.372  30.899  24.241  1.00  0.00     0.163 HD
BRANCH   4   7
ATOM      7  C   UNL A   1      30.083  27.855  23.472  1.00  0.00     0.207 C 
ATOM      8  C   UNL A   1      30.982  25.876  24.315  1.00  0.00     0.138 C 
ATOM      9  C   UNL A   1      31.844  26.246  23.118  1.00  0.00     0.037 C 
ATOM     10  O   UNL A   1      30.231  27.051  24.636  1.00  0.00    -0.363 OA
ATOM     11  C   UNL A   1      31.054  27.332  22.422  1.00  0.00     0.045 C 
BRANCH   8  12
ATOM     12  C   UNL A   1      31.767  25.344  25.540  1.00  0.00     0.149 C 
BRANCH  12  13
ATOM     13  N   UNL A   1      31.022  24.472  26.444  1.00  0.00    -0.336 N 
ATOM     14  N   UNL A   1      31.480  22.128  26.315  1.00  0.00    -0.333 N 
ATOM     15  C   UNL A   1      30.849  23.201  26.767  1.00  0.00     0.315 C 
ATOM     16  H   UNL A   1      31.032  21.323  26.663  1.00  0.00     0.165 HD
ATOM     17  O   UNL A   1      29.977  22.985  27.619  1.00  0.00    -0.249 OA
ATOM     18  H   UNL A   1      30.445  25.026  27.018  1.00  0.00     0.165 HD
BRANCH  14  19
ATOM     19  C   UNL A   1      32.624  21.714  25.470  1.00  0.00     0.041 C 
BRANCH  19  20
ATOM     20  C   UNL A   1      33.917  22.494  25.776  1.00  0.00     0.025 C 
ATOM     21  C   UNL A   1      35.122  21.604  26.086  1.00  0.00     0.006 C 
ENDBRANCH  19  20
BRANCH  19  22
ATOM     22  C   UNL A   1      32.199  22.038  23.985  1.00  0.00     0.025 C 
ATOM     23  C   UNL A   1      33.235  22.773  23.137  1.00  0.00     0.006 C 
ENDBRANCH  19  22
BRANCH  19  24
ATOM     24  C   UNL A   1      32.837  20.167  25.548  1.00  0.00     0.025 C 
ATOM     25  C   UNL A   1      32.464  19.336  24.330  1.00  0.00     0.006 C 
ENDBRANCH  19  24
ENDBRANCH  14  19
ENDBRANCH  12  13
ENDBRANCH   8  12
ENDBRANCH   4   7
ENDBRANCH   2   3
ENDBRANCH   1   2
BRANCH   1  26
ATOM     26  C   UNL A   1      33.418  28.426  27.116  1.00  0.00     0.023 C 
BRANCH  26  27
ATOM     27  C   UNL A   1      34.717  29.199  27.309  1.00  0.00     0.116 C 
BRANCH  27  28
ATOM     28  N   UNL A   1      34.679  30.166  28.399  1.00  0.00    -0.352 N 
ATOM     29  C   UNL A   1      35.720  30.522  29.230  1.00  0.00     0.251 C 
ATOM     30  H   UNL A   1      33.816  30.614  28.558  1.00  0.00     0.163 HD
ATOM     31  O   UNL A   1      35.547  31.305  30.158  1.00  0.00    -0.269 OA
BRANCH  29  32
ATOM     32  C   UNL A   1      37.034  29.878  29.014  1.00  0.00     0.039 A 
ATOM     33  C   UNL A   1      37.679  30.059  27.790  1.00  0.00     0.014 A 
ATOM     34  C   UNL A   1      37.681  29.239  30.075  1.00  0.00     0.014 A 
ATOM     35  C   UNL A   1      39.018  29.682  27.661  1.00  0.00     0.010 A 
ATOM     36  C   UNL A   1      39.036  28.940  29.967  1.00  0.00     0.010 A 
ATOM     37  C   UNL A   1      39.722  29.170  28.764  1.00  0.00    -0.014 A 
BRANCH  37  38
ATOM     38  C   UNL A   1      41.180  28.892  28.687  1.00  0.00     0.031 A 
ATOM     39  C   UNL A   1      41.666  27.532  28.266  1.00  0.00     0.074 A 
ATOM     40  C   UNL A   1      42.065  29.834  29.080  1.00  0.00     0.049 A 
ATOM     41  N   UNL A   1      42.889  27.073  28.211  1.00  0.00    -0.248 NA
ATOM     42  C   UNL A   1      40.639  26.546  27.891  1.00  0.00     0.031 C 
ATOM     43  C   UNL A   1      41.720  31.167  29.583  1.00  0.00     0.029 A 
ATOM     44  N   UNL A   1      43.436  29.808  29.135  1.00  0.00    -0.354 N 
ATOM     45  C   UNL A   1      42.778  25.744  27.823  1.00  0.00     0.074 A 
ATOM     46  C   UNL A   1      41.366  25.456  27.699  1.00  0.00     0.031 C 
ATOM     47  C   UNL A   1      42.848  31.834  29.877  1.00  0.00     0.029 A 
ATOM     48  C   UNL A   1      43.995  30.971  29.615  1.00  0.00     0.049 A 
ATOM     49  H   UNL A   1      43.972  29.030  28.855  1.00  0.00     0.167 HD
ATOM     50  C   UNL A   1      43.763  24.851  27.570  1.00  0.00     0.037 A 
ATOM     51  C   UNL A   1      45.285  31.301  29.825  1.00  0.00     0.037 A 
ATOM     52  C   UNL A   1      45.167  25.156  27.642  1.00  0.00     0.049 A 
ATOM     53  C   UNL A   1      46.363  30.305  29.490  1.00  0.00     0.074 A 
ATOM     54  C   UNL A   1      46.240  24.349  27.308  1.00  0.00     0.029 A 
ATOM     55  N   UNL A   1      45.694  26.363  28.079  1.00  0.00    -0.354 N 
ATOM     56  N   UNL A   1      46.240  29.083  29.030  1.00  0.00    -0.248 NA
ATOM     57  C   UNL A   1      47.755  30.735  29.692  1.00  0.00     0.031 C 
ATOM     58  C   UNL A   1      47.417  25.054  27.576  1.00  0.00     0.029 A 
ATOM     59  C   UNL A   1      47.077  26.314  28.040  1.00  0.00     0.049 A 
ATOM     60  H   UNL A   1      45.163  27.137  28.373  1.00  0.00     0.167 HD
ATOM     61  C   UNL A   1      47.537  28.608  28.864  1.00  0.00     0.074 A 
ATOM     62  C   UNL A   1      48.428  29.677  29.261  1.00  0.00     0.031 C 
ATOM     63  C   UNL A   1      47.951  27.394  28.425  1.00  0.00     0.037 A 
BRANCH  50  64
ATOM     64  C   UNL A   1      43.359  23.459  27.173  1.00  0.00     0.058 A 
ATOM     65  C   UNL A   1      43.415  23.027  25.839  1.00  0.00     0.135 A 
ATOM     66  C   UNL A   1      42.956  22.531  28.147  1.00  0.00     0.135 A 
ATOM     67  F   UNL A   1      43.779  23.880  24.868  1.00  0.00    -0.206 F 
ATOM     68  C   UNL A   1      43.066  21.731  25.479  1.00  0.00     0.059 A 
ATOM     69  C   UNL A   1      42.626  21.220  27.813  1.00  0.00     0.059 A 
ATOM     70  F   UNL A   1      42.883  22.892  29.437  1.00  0.00    -0.206 F 
ATOM     71  C   UNL A   1      42.674  20.833  26.474  1.00  0.00     0.060 A 
BRANCH  71  72
ATOM     72  S   UNL A   1      42.245  19.147  25.994  1.00  0.00     0.124 S 
ATOM     73  O   UNL A   1      42.667  18.393  27.169  1.00  0.00    -0.237 OA
ATOM     74  O   UNL A   1      40.803  19.239  25.784  1.00  0.00    -0.237 OA
ATOM     75  O   UNL A   1      43.036  18.926  24.788  1.00  0.00    -0.744 OA
ENDBRANCH  71  72
ENDBRANCH  50  64
BRANCH  51  76
ATOM     76  C   UNL A   1      45.637  32.643  30.365  1.00  0.00     0.058 A 
ATOM     77  C   UNL A   1      45.849  33.734  29.507  1.00  0.00     0.135 A 
ATOM     78  C   UNL A   1      45.780  32.859  31.743  1.00  0.00     0.135 A 
ATOM     79  F   UNL A   1      45.729  33.575  28.181  1.00  0.00    -0.206 F 
ATOM     80  C   UNL A   1      46.215  34.984  29.995  1.00  0.00     0.059 A 
ATOM     81  C   UNL A   1      46.123  34.107  32.257  1.00  0.00     0.059 A 
ATOM     82  F   UNL A   1      45.572  31.853  32.608  1.00  0.00    -0.206 F 
ATOM     83  C   UNL A   1      46.352  35.160  31.372  1.00  0.00     0.060 A 
BRANCH  83  84
ATOM     84  S   UNL A   1      46.796  36.795  32.000  1.00  0.00     0.124 S 
ATOM     85  O   UNL A   1      48.251  36.711  32.031  1.00  0.00    -0.237 OA
ATOM     86  O   UNL A   1      46.229  37.679  30.987  1.00  0.00    -0.237 OA
ATOM     87  O   UNL A   1      46.137  36.843  33.301  1.00  0.00    -0.744 OA
ENDBRANCH  83  84
ENDBRANCH  51  76
BRANCH  63  88
ATOM     88  C   UNL A   1      49.431  27.166  28.312  1.00  0.00     0.058 A 
ATOM     89  C   UNL A   1      50.154  27.569  27.180  1.00  0.00     0.135 A 
ATOM     90  C   UNL A   1      50.144  26.590  29.376  1.00  0.00     0.135 A 
ATOM     91  F   UNL A   1      49.518  28.120  26.132  1.00  0.00    -0.206 F 
ATOM     92  C   UNL A   1      51.530  27.390  27.096  1.00  0.00     0.059 A 
ATOM     93  C   UNL A   1      51.523  26.423  29.324  1.00  0.00     0.059 A 
ATOM     94  F   UNL A   1      49.500  26.197  30.487  1.00  0.00    -0.206 F 
ATOM     95  C   UNL A   1      52.207  26.818  28.174  1.00  0.00     0.060 A 
BRANCH  95  96
ATOM     96  S   UNL A   1      53.999  26.624  28.072  1.00  0.00     0.124 S 
ATOM     97  O   UNL A   1      54.362  27.717  27.176  1.00  0.00    -0.237 OA
ATOM     98  O   UNL A   1      54.412  26.779  29.463  1.00  0.00    -0.237 OA
ATOM     99  O   UNL A   1      54.164  25.280  27.523  1.00  0.00    -0.744 OA
ENDBRANCH  95  96
ENDBRANCH  63  88
ENDBRANCH  37  38
ENDBRANCH  29  32
ENDBRANCH  27  28
ENDBRANCH  26  27
ENDBRANCH   1  26
TORSDOF 20
ENDMDL
MODEL 2
REMARK VINA RESULT:     -10.3      1.805      2.765
REMARK SMILES CCC(CC)(CC)NC(=O)NC[C@@H]1CC[C@H](C(=O)NCCCCNC(=O)c2ccc(-c3c4nc(c(-c5c(F)cc(S(=O)(=O)[O-])cc5F)c5ccc([nH]5)c(-c5c(F)cc(S(=O)(=O)[O-])cc5F)c5nc(c(-c6c(F)cc(S(=O)(=O)[O-])cc6F)c6ccc3[nH]6)C=C5)C=C4)cc2)O1
REMARK SMILES IDX 21 1 20 2 19 3 17 4 18 5 16 7 13 8 14 9 93 10 15 11 12 12
REMARK SMILES IDX 11 13 8 14 9 15 10 17 3 19 2 20 1 21 4 22 5 23 6 24 7 25
REMARK SMILES IDX 22 26 23 27 24 28 25 29 26 31 27 32 28 33 92 34 29 35 91 36
REMARK SMILES IDX 30 37 31 38 32 39 85 40 33 41 90 42 84 43 86 44 34 45 89 46
REMARK SMILES IDX 83 47 82 48 35 50 69 51 48 52 68 53 49 54 52 55 67 56 87 57
REMARK SMILES IDX 50 58 51 59 66 61 88 62 53 63 36 64 37 65 46 66 38 67 39 68
REMARK SMILES IDX 45 69 47 70 40 71 41 72 42 73 43 74 44 75 70 76 71 77 80 78
REMARK SMILES IDX 72 79 73 80 79 81 81 82 74 83 75 84 76 85 77 86 78 87 54 88
REMARK SMILES IDX 55 89 64 90 56 91 57 92 63 93 65 94 58 95 59 96 60 97 61 98
REMARK SMILES IDX 62 99
REMARK H PARENT 19 6 8 16 11 18 24 30 86 49 52 60
REMARK Flexibility Score: inf
ROOT
ATOM      1  C   UNL A   1      33.865  30.504  27.602  1.00  0.00     0.023 C 
ENDROOT
BRANCH   1   2
ATOM      2  C   UNL A   1      32.800  29.822  26.744  1.00  0.00     0.116 C 
BRANCH   2   3
ATOM      3  N   UNL A   1      33.220  29.645  25.371  1.00  0.00    -0.354 N 
ATOM      4  C   UNL A   1      32.508  29.244  24.281  1.00  0.00     0.249 C 
ATOM      5  O   UNL A   1      33.075  29.256  23.184  1.00  0.00    -0.272 OA
ATOM      6  H   UNL A   1      34.168  29.846  25.198  1.00  0.00     0.163 HD
BRANCH   4   7
ATOM      7  C   UNL A   1      31.071  28.702  24.408  1.00  0.00     0.207 C 
ATOM      8  C   UNL A   1      29.948  26.665  24.252  1.00  0.00     0.138 C 
ATOM      9  C   UNL A   1      29.879  27.283  22.865  1.00  0.00     0.037 C 
ATOM     10  O   UNL A   1      30.956  27.396  24.959  1.00  0.00    -0.363 OA
ATOM     11  C   UNL A   1      30.326  28.713  23.080  1.00  0.00     0.045 C 
BRANCH   8  12
ATOM     12  C   UNL A   1      30.225  25.141  24.271  1.00  0.00     0.149 C 
BRANCH  12  13
ATOM     13  N   UNL A   1      30.114  24.488  25.573  1.00  0.00    -0.336 N 
ATOM     14  N   UNL A   1      32.107  23.526  26.478  1.00  0.00    -0.333 N 
ATOM     15  C   UNL A   1      30.813  23.812  26.468  1.00  0.00     0.315 C 
ATOM     16  H   UNL A   1      32.291  22.905  27.220  1.00  0.00     0.165 HD
ATOM     17  O   UNL A   1      30.168  23.394  27.438  1.00  0.00    -0.249 OA
ATOM     18  H   UNL A   1      29.190  24.587  25.900  1.00  0.00     0.165 HD
BRANCH  14  19
ATOM     19  C   UNL A   1      33.373  23.813  25.767  1.00  0.00     0.041 C 
BRANCH  19  20
ATOM     20  C   UNL A   1      33.369  23.332  24.303  1.00  0.00     0.025 C 
ATOM     21  C   UNL A   1      34.581  22.479  23.925  1.00  0.00     0.006 C 
ENDBRANCH  19  20
BRANCH  19  22
ATOM     22  C   UNL A   1      34.490  23.010  26.541  1.00  0.00     0.025 C 
ATOM     23  C   UNL A   1      33.994  21.964  27.538  1.00  0.00     0.006 C 
ENDBRANCH  19  22
BRANCH  19  24
ATOM     24  C   UNL A   1      33.744  25.327  25.888  1.00  0.00     0.025 C 
ATOM     25  C   UNL A   1      34.010  26.099  24.604  1.00  0.00     0.006 C 
ENDBRANCH  19  24
ENDBRANCH  14  19
ENDBRANCH  12  13
ENDBRANCH   8  12
ENDBRANCH   4   7
ENDBRANCH   2   3
ENDBRANCH   1   2
BRANCH   1  26
ATOM     26  C   UNL A   1      35.175  29.725  27.669  1.00  0.00     0.023 C 
BRANCH  26  27
ATOM     27  C   UNL A   1      36.214  30.327  28.607  1.00  0.00     0.116 C 
BRANCH  27  28
ATOM     28  N   UNL A   1      35.911  30.154  30.023  1.00  0.00    -0.352 N 
ATOM     29  C   UNL A   1      36.815  29.979  31.049  1.00  0.00     0.251 C 
ATOM     30  H   UNL A   1      34.958  30.163  30.272  1.00  0.00     0.163 HD
ATOM     31  O   UNL A   1      36.433  29.779  32.198  1.00  0.00    -0.269 OA
BRANCH  29  32
ATOM     32  C   UNL A   1      38.255  29.972  30.715  1.00  0.00     0.039 A 
ATOM     33  C   UNL A   1      39.105  29.114  31.415  1.00  0.00     0.014 A 
ATOM     34  C   UNL A   1      38.719  30.693  29.611  1.00  0.00     0.014 A 
ATOM     35  C   UNL A   1      40.404  28.906  30.945  1.00  0.00     0.010 A 
ATOM     36  C   UNL A   1      39.984  30.420  29.101  1.00  0.00     0.010 A 
ATOM     37  C   UNL A   1      40.835  29.514  29.754  1.00  0.00    -0.014 A 
BRANCH  37  38
ATOM     38  C   UNL A   1      42.162  29.198  29.162  1.00  0.00     0.031 A 
ATOM     39  C   UNL A   1      42.433  27.823  28.615  1.00  0.00     0.074 A 
ATOM     40  C   UNL A   1      43.149  30.118  29.197  1.00  0.00     0.049 A 
ATOM     41  N   UNL A   1      43.544  27.332  28.131  1.00  0.00    -0.248 NA
ATOM     42  C   UNL A   1      41.317  26.862  28.648  1.00  0.00     0.031 C 
ATOM     43  C   UNL A   1      43.038  31.463  29.770  1.00  0.00     0.029 A 
ATOM     44  N   UNL A   1      44.448  30.057  28.756  1.00  0.00    -0.354 N 
ATOM     45  C   UNL A   1      43.271  26.003  27.829  1.00  0.00     0.074 A 
ATOM     46  C   UNL A   1      41.903  25.752  28.225  1.00  0.00     0.031 C 
ATOM     47  C   UNL A   1      44.211  32.101  29.630  1.00  0.00     0.029 A 
ATOM     48  C   UNL A   1      45.168  31.207  28.986  1.00  0.00     0.049 A 
ATOM     49  H   UNL A   1      44.830  29.263  28.314  1.00  0.00     0.167 HD
ATOM     50  C   UNL A   1      44.079  25.083  27.252  1.00  0.00     0.037 A 
ATOM     51  C   UNL A   1      46.455  31.504  28.715  1.00  0.00     0.037 A 
ATOM     52  C   UNL A   1      45.422  25.352  26.811  1.00  0.00     0.049 A 
ATOM     53  C   UNL A   1      47.318  30.478  28.029  1.00  0.00     0.074 A 
ATOM     54  C   UNL A   1      46.284  24.515  26.126  1.00  0.00     0.029 A 
ATOM     55  N   UNL A   1      46.097  26.547  27.011  1.00  0.00    -0.354 N 
ATOM     56  N   UNL A   1      47.010  29.257  27.662  1.00  0.00    -0.248 NA
ATOM     57  C   UNL A   1      48.698  30.872  27.712  1.00  0.00     0.031 C 
ATOM     58  C   UNL A   1      47.495  25.190  25.943  1.00  0.00     0.029 A 
ATOM     59  C   UNL A   1      47.373  26.462  26.479  1.00  0.00     0.049 A 
ATOM     60  H   UNL A   1      45.725  27.336  27.465  1.00  0.00     0.167 HD
ATOM     61  C   UNL A   1      48.150  28.747  27.049  1.00  0.00     0.074 A 
ATOM     62  C   UNL A   1      49.148  29.795  27.083  1.00  0.00     0.031 C 
ATOM     63  C   UNL A   1      48.350  27.520  26.508  1.00  0.00     0.037 A 
BRANCH  50  64
ATOM     64  C   UNL A   1      43.528  23.700  27.048  1.00  0.00     0.058 A 
ATOM     65  C   UNL A   1      43.355  22.810  28.120  1.00  0.00     0.135 A 
ATOM     66  C   UNL A   1      43.124  23.276  25.772  1.00  0.00     0.135 A 
ATOM     67  F   UNL A   1      43.740  23.161  29.358  1.00  0.00    -0.206 F 
ATOM     68  C   UNL A   1      42.821  21.541  27.932  1.00  0.00     0.059 A 
ATOM     69  C   UNL A   1      42.564  22.019  25.565  1.00  0.00     0.059 A 
ATOM     70  F   UNL A   1      43.270  24.086  24.712  1.00  0.00    -0.206 F 
ATOM     71  C   UNL A   1      42.427  21.154  26.650  1.00  0.00     0.060 A 
BRANCH  71  72
ATOM     72  S   UNL A   1      41.714  19.511  26.426  1.00  0.00     0.124 S 
ATOM     73  O   UNL A   1      42.264  18.796  27.573  1.00  0.00    -0.237 OA
ATOM     74  O   UNL A   1      40.280  19.783  26.477  1.00  0.00    -0.237 OA
ATOM     75  O   UNL A   1      42.223  19.095  25.123  1.00  0.00    -0.744 OA
ENDBRANCH  71  72
ENDBRANCH  50  64
BRANCH  51  76
ATOM     76  C   UNL A   1      47.007  32.839  29.072  1.00  0.00     0.058 A 
ATOM     77  C   UNL A   1      47.636  33.054  30.307  1.00  0.00     0.135 A 
ATOM     78  C   UNL A   1      46.904  33.928  28.194  1.00  0.00     0.135 A 
ATOM     79  F   UNL A   1      47.753  32.045  31.183  1.00  0.00    -0.206 F 
ATOM     80  C   UNL A   1      48.123  34.306  30.670  1.00  0.00     0.059 A 
ATOM     81  C   UNL A   1      47.405  35.185  28.524  1.00  0.00     0.059 A 
ATOM     82  F   UNL A   1      46.326  33.772  26.992  1.00  0.00    -0.206 F 
ATOM     83  C   UNL A   1      48.001  35.366  29.772  1.00  0.00     0.060 A 
BRANCH  83  84
ATOM     84  S   UNL A   1      48.664  36.981  30.237  1.00  0.00     0.124 S 
ATOM     85  O   UNL A   1      49.870  37.048  29.421  1.00  0.00    -0.237 OA
ATOM     86  O   UNL A   1      47.582  37.881  29.851  1.00  0.00    -0.237 OA
ATOM     87  O   UNL A   1      48.879  36.852  31.675  1.00  0.00    -0.744 OA
ENDBRANCH  83  84
ENDBRANCH  51  76
BRANCH  63  88
ATOM     88  C   UNL A   1      49.686  27.253  25.875  1.00  0.00     0.058 A 
ATOM     89  C   UNL A   1      50.784  26.817  26.630  1.00  0.00     0.135 A 
ATOM     90  C   UNL A   1      49.851  27.379  24.487  1.00  0.00     0.135 A 
ATOM     91  F   UNL A   1      50.679  26.686  27.963  1.00  0.00    -0.206 F 
ATOM     92  C   UNL A   1      52.008  26.534  26.034  1.00  0.00     0.059 A 
ATOM     93  C   UNL A   1      51.059  27.079  23.866  1.00  0.00     0.059 A 
ATOM     94  F   UNL A   1      48.828  27.783  23.717  1.00  0.00    -0.206 F 
ATOM     95  C   UNL A   1      52.136  26.667  24.651  1.00  0.00     0.060 A 
BRANCH  95  96
ATOM     96  S   UNL A   1      53.718  26.261  23.881  1.00  0.00     0.124 S 
ATOM     97  O   UNL A   1      53.327  26.076  22.488  1.00  0.00    -0.237 OA
ATOM     98  O   UNL A   1      54.518  27.449  24.164  1.00  0.00    -0.237 OA
ATOM     99  O   UNL A   1      54.137  25.051  24.583  1.00  0.00    -0.744 OA
ENDBRANCH  95  96
ENDBRANCH  63  88
ENDBRANCH  37  38
ENDBRANCH  29  32
ENDBRANCH  27  28
ENDBRANCH  26  27
ENDBRANCH   1  26
TORSDOF 20
ENDMDL
MODEL 3
REMARK VINA RESULT:     -10.3      4.066     10.707
REMARK SMILES CCC(CC)(CC)NC(=O)NC[C@@H]1CC[C@H](C(=O)NCCCCNC(=O)c2ccc(-c3c4nc(c(-c5c(F)cc(S(=O)(=O)[O-])cc5F)c5ccc([nH]5)c(-c5c(F)cc(S(=O)(=O)[O-])cc5F)c5nc(c(-c6c(F)cc(S(=O)(=O)[O-])cc6F)c6ccc3[nH]6)C=C5)C=C4)cc2)O1
REMARK SMILES IDX 21 1 20 2 19 3 17 4 18 5 16 7 13 8 14 9 93 10 15 11 12 12
REMARK SMILES IDX 11 13 8 14 9 15 10 17 3 19 2 20 1 21 4 22 5 23 6 24 7 25
REMARK SMILES IDX 22 26 23 27 24 28 25 29 26 31 27 32 28 33 92 34 29 35 91 36
REMARK SMILES IDX 30 37 31 38 32 39 85 40 33 41 90 42 84 43 86 44 34 45 89 46
REMARK SMILES IDX 83 47 82 48 35 50 69 51 48 52 68 53 49 54 52 55 67 56 87 57
REMARK SMILES IDX 50 58 51 59 66 61 88 62 53 63 36 64 37 65 46 66 38 67 39 68
REMARK SMILES IDX 45 69 47 70 40 71 41 72 42 73 43 74 44 75 70 76 71 77 80 78
REMARK SMILES IDX 72 79 73 80 79 81 81 82 74 83 75 84 76 85 77 86 78 87 54 88
REMARK SMILES IDX 55 89 64 90 56 91 57 92 63 93 65 94 58 95 59 96 60 97 61 98
REMARK SMILES IDX 62 99
REMARK H PARENT 19 6 8 16 11 18 24 30 86 49 52 60
REMARK Flexibility Score: inf
ROOT
ATOM      1  C   UNL A   1      34.957  33.432  30.533  1.00  0.00     0.023 C 
ENDROOT
BRANCH   1   2
ATOM      2  C   UNL A   1      34.335  34.827  30.486  1.00  0.00     0.116 C 
BRANCH   2   3
ATOM      3  N   UNL A   1      34.221  35.430  31.796  1.00  0.00    -0.354 N 
ATOM      4  C   UNL A   1      35.019  35.302  32.894  1.00  0.00     0.249 C 
ATOM      5  O   UNL A   1      34.759  35.998  33.880  1.00  0.00    -0.272 OA
ATOM      6  H   UNL A   1      33.446  36.027  31.912  1.00  0.00     0.163 HD
BRANCH   4   7
ATOM      7  C   UNL A   1      36.154  34.262  32.951  1.00  0.00     0.207 C 
ATOM      8  C   UNL A   1      37.680  33.421  34.499  1.00  0.00     0.138 C 
ATOM      9  C   UNL A   1      38.396  34.559  33.788  1.00  0.00     0.037 C 
ATOM     10  O   UNL A   1      36.292  33.574  34.188  1.00  0.00    -0.363 OA
ATOM     11  C   UNL A   1      37.509  34.862  32.600  1.00  0.00     0.045 C 
BRANCH   8  12
ATOM     12  C   UNL A   1      37.923  33.354  36.027  1.00  0.00     0.149 C 
BRANCH  12  13
ATOM     13  N   UNL A   1      37.736  32.045  36.646  1.00  0.00    -0.336 N 
ATOM     14  N   UNL A   1      39.187  30.286  35.926  1.00  0.00    -0.333 N 
ATOM     15  C   UNL A   1      38.183  30.801  36.620  1.00  0.00     0.315 C 
ATOM     16  H   UNL A   1      39.182  29.307  36.036  1.00  0.00     0.165 HD
ATOM     17  O   UNL A   1      37.582  30.007  37.356  1.00  0.00    -0.249 OA
ATOM     18  H   UNL A   1      37.024  32.113  37.324  1.00  0.00     0.165 HD
BRANCH  14  19
ATOM     19  C   UNL A   1      40.313  30.665  35.042  1.00  0.00     0.041 C 
BRANCH  19  20
ATOM     20  C   UNL A   1      41.010  31.969  35.475  1.00  0.00     0.025 C 
ATOM     21  C   UNL A   1      41.795  31.852  36.783  1.00  0.00     0.006 C 
ENDBRANCH  19  20
BRANCH  19  22
ATOM     22  C   UNL A   1      39.677  30.902  33.617  1.00  0.00     0.025 C 
ATOM     23  C   UNL A   1      38.536  29.964  33.228  1.00  0.00     0.006 C 
ENDBRANCH  19  22
BRANCH  19  24
ATOM     24  C   UNL A   1      41.321  29.480  34.893  1.00  0.00     0.025 C 
ATOM     25  C   UNL A   1      42.017  29.304  33.551  1.00  0.00     0.006 C 
ENDBRANCH  19  24
ENDBRANCH  14  19
ENDBRANCH  12  13
ENDBRANCH   8  12
ENDBRANCH   4   7
ENDBRANCH   2   3
ENDBRANCH   1   2
BRANCH   1  26
ATOM     26  C   UNL A   1      36.168  33.281  29.618  1.00  0.00     0.023 C 
BRANCH  26  27
ATOM     27  C   UNL A   1      35.821  32.988  28.164  1.00  0.00     0.116 C 
BRANCH  27  28
ATOM     28  N   UNL A   1      34.650  32.138  27.990  1.00  0.00    -0.352 N 
ATOM     29  C   UNL A   1      34.617  30.759  27.992  1.00  0.00     0.251 C 
ATOM     30  H   UNL A   1      33.789  32.598  27.856  1.00  0.00     0.163 HD
ATOM     31  O   UNL A   1      33.573  30.153  27.770  1.00  0.00    -0.269 OA
BRANCH  29  32
ATOM     32  C   UNL A   1      35.888  30.033  28.201  1.00  0.00     0.039 A 
ATOM     33  C   UNL A   1      36.791  29.938  27.141  1.00  0.00     0.014 A 
ATOM     34  C   UNL A   1      36.239  29.595  29.480  1.00  0.00     0.014 A 
ATOM     35  C   UNL A   1      38.090  29.489  27.389  1.00  0.00     0.010 A 
ATOM     36  C   UNL A   1      37.556  29.226  29.737  1.00  0.00     0.010 A 
ATOM     37  C   UNL A   1      38.499  29.181  28.698  1.00  0.00    -0.014 A 
BRANCH  37  38
ATOM     38  C   UNL A   1      39.911  28.836  29.004  1.00  0.00     0.031 A 
ATOM     39  C   UNL A   1      40.832  29.875  29.583  1.00  0.00     0.074 A 
ATOM     40  C   UNL A   1      40.389  27.615  28.681  1.00  0.00     0.049 A 
ATOM     41  N   UNL A   1      42.110  29.791  29.846  1.00  0.00    -0.248 NA
ATOM     42  C   UNL A   1      40.246  31.195  29.872  1.00  0.00     0.031 C 
ATOM     43  C   UNL A   1      39.620  26.542  28.044  1.00  0.00     0.029 A 
ATOM     44  N   UNL A   1      41.643  27.075  28.828  1.00  0.00    -0.354 N 
ATOM     45  C   UNL A   1      42.486  31.048  30.304  1.00  0.00     0.074 A 
ATOM     46  C   UNL A   1      41.312  31.890  30.241  1.00  0.00     0.031 C 
ATOM     47  C   UNL A   1      40.413  25.472  27.872  1.00  0.00     0.029 A 
ATOM     48  C   UNL A   1      41.753  25.787  28.355  1.00  0.00     0.049 A 
ATOM     49  H   UNL A   1      42.396  27.564  29.234  1.00  0.00     0.167 HD
ATOM     50  C   UNL A   1      43.694  31.458  30.757  1.00  0.00     0.037 A 
ATOM     51  C   UNL A   1      42.814  24.957  28.312  1.00  0.00     0.037 A 
ATOM     52  C   UNL A   1      44.846  30.603  30.869  1.00  0.00     0.049 A 
ATOM     53  C   UNL A   1      44.134  25.422  28.867  1.00  0.00     0.074 A 
ATOM     54  C   UNL A   1      46.085  30.897  31.409  1.00  0.00     0.029 A 
ATOM     55  N   UNL A   1      44.902  29.288  30.432  1.00  0.00    -0.354 N 
ATOM     56  N   UNL A   1      44.444  26.585  29.387  1.00  0.00    -0.248 NA
ATOM     57  C   UNL A   1      45.245  24.459  28.840  1.00  0.00     0.031 C 
ATOM     58  C   UNL A   1      46.902  29.772  31.267  1.00  0.00     0.029 A 
ATOM     59  C   UNL A   1      46.160  28.764  30.674  1.00  0.00     0.049 A 
ATOM     60  H   UNL A   1      44.157  28.800  30.012  1.00  0.00     0.167 HD
ATOM     61  C   UNL A   1      45.778  26.485  29.770  1.00  0.00     0.074 A 
ATOM     62  C   UNL A   1      46.210  25.146  29.435  1.00  0.00     0.031 C 
ATOM     63  C   UNL A   1      46.571  27.421  30.347  1.00  0.00     0.037 A 
BRANCH  50  64
ATOM     64  C   UNL A   1      43.830  32.891  31.185  1.00  0.00     0.058 A 
ATOM     65  C   UNL A   1      44.158  33.905  30.270  1.00  0.00     0.135 A 
ATOM     66  C   UNL A   1      43.583  33.264  32.516  1.00  0.00     0.135 A 
ATOM     67  F   UNL A   1      44.420  33.600  28.989  1.00  0.00    -0.206 F 
ATOM     68  C   UNL A   1      44.259  35.235  30.663  1.00  0.00     0.059 A 
ATOM     69  C   UNL A   1      43.653  34.592  32.926  1.00  0.00     0.059 A 
ATOM     70  F   UNL A   1      43.268  32.334  33.431  1.00  0.00    -0.206 F 
ATOM     71  C   UNL A   1      44.002  35.569  31.995  1.00  0.00     0.060 A 
BRANCH  71  72
ATOM     72  S   UNL A   1      44.114  37.303  32.485  1.00  0.00     0.124 S 
ATOM     73  O   UNL A   1      43.865  37.980  31.217  1.00  0.00    -0.237 OA
ATOM     74  O   UNL A   1      43.052  37.414  33.481  1.00  0.00    -0.237 OA
ATOM     75  O   UNL A   1      45.472  37.422  33.005  1.00  0.00    -0.744 OA
ENDBRANCH  71  72
ENDBRANCH  50  64
BRANCH  51  76
ATOM     76  C   UNL A   1      42.673  23.591  27.739  1.00  0.00     0.058 A 
ATOM     77  C   UNL A   1      42.741  23.377  26.354  1.00  0.00     0.135 A 
ATOM     78  C   UNL A   1      42.456  22.475  28.561  1.00  0.00     0.135 A 
ATOM     79  F   UNL A   1      42.941  24.414  25.526  1.00  0.00    -0.206 F 
ATOM     80  C   UNL A   1      42.574  22.111  25.801  1.00  0.00     0.059 A 
ATOM     81  C   UNL A   1      42.310  21.194  28.033  1.00  0.00     0.059 A 
ATOM     82  F   UNL A   1      42.400  22.622  29.894  1.00  0.00    -0.206 F 
ATOM     83  C   UNL A   1      42.356  21.026  26.650  1.00  0.00     0.060 A 
BRANCH  83  84
ATOM     84  S   UNL A   1      42.172  19.380  25.928  1.00  0.00     0.124 S 
ATOM     85  O   UNL A   1      40.738  19.332  25.671  1.00  0.00    -0.237 OA
ATOM     86  O   UNL A   1      43.029  19.463  24.750  1.00  0.00    -0.237 OA
ATOM     87  O   UNL A   1      42.656  18.497  26.984  1.00  0.00    -0.744 OA
ENDBRANCH  83  84
ENDBRANCH  51  76
BRANCH  63  88
ATOM     88  C   UNL A   1      47.978  27.021  30.688  1.00  0.00     0.058 A 
ATOM     89  C   UNL A   1      49.046  27.266  29.812  1.00  0.00     0.135 A 
ATOM     90  C   UNL A   1      48.269  26.438  31.932  1.00  0.00     0.135 A 
ATOM     91  F   UNL A   1      48.820  27.817  28.608  1.00  0.00    -0.206 F 
ATOM     92  C   UNL A   1      50.352  26.928  30.149  1.00  0.00     0.059 A 
ATOM     93  C   UNL A   1      49.570  26.114  32.299  1.00  0.00     0.059 A 
ATOM     94  F   UNL A   1      47.283  26.192  32.811  1.00  0.00    -0.206 F 
ATOM     95  C   UNL A   1      50.605  26.353  31.395  1.00  0.00     0.060 A 
BRANCH  95  96
ATOM     96  S   UNL A   1      52.309  25.952  31.838  1.00  0.00     0.124 S 
ATOM     97  O   UNL A   1      52.599  26.972  32.840  1.00  0.00    -0.237 OA
ATOM     98  O   UNL A   1      52.190  24.586  32.337  1.00  0.00    -0.237 OA
ATOM     99  O   UNL A   1      53.029  26.089  30.574  1.00  0.00    -0.744 OA
ENDBRANCH  95  96
ENDBRANCH  63  88
ENDBRANCH  37  38
ENDBRANCH  29  32
ENDBRANCH  27  28
ENDBRANCH  26  27
ENDBRANCH   1  26
TORSDOF 20
ENDMDL
