MODEL 1
REMARK VINA RESULT:     -12.9      0.000      0.000
REMARK SMILES CC1(C)[C@H](C(=O)N(Cc2ccccc2)Cc2ccccc2)CC[C@@]1(C)C(=O)NCCCCNC(=O)c1ccc(-c2c3nc(c(-c4c(F)cc(S(=O)(=O)[O-])cc4F)c4ccc([nH]4)c(-c4c(F)cc(S(=O)(=O)[O-])cc4F)c4nc(c(-c5c(F)cc(S(=O)(=O)[O-])cc5F)c5ccc2[nH]5)C=C4)C=C3)cc1
REMARK SMILES IDX 30 1 29 2 28 3 26 4 27 5 24 7 1 8 2 9 3 10 4 11 22 12 23 13
REMARK SMILES IDX 25 14 5 15 6 16 7 17 8 18 9 19 10 20 14 21 11 22 13 23 12 24
REMARK SMILES IDX 15 25 16 26 17 27 21 28 18 29 20 30 19 31 31 32 32 33 33 34
REMARK SMILES IDX 34 35 35 37 36 38 37 39 101 40 38 41 100 42 39 43 40 44
REMARK SMILES IDX 41 45 94 46 42 47 99 48 93 49 95 50 43 51 98 52 92 53 91 54
REMARK SMILES IDX 44 56 78 57 57 58 77 59 58 60 61 61 76 62 96 63 59 64 60 65
REMARK SMILES IDX 75 67 97 68 62 69 45 70 46 71 55 72 47 73 48 74 54 75 56 76
REMARK SMILES IDX 49 77 50 78 51 79 52 80 53 81 79 82 80 83 89 84 81 85 82 86
REMARK SMILES IDX 88 87 90 88 83 89 84 90 85 91 86 92 87 93 63 94 64 95 73 96
REMARK SMILES IDX 65 97 66 98 72 99 74 100 67 101 68 102 69 103 70 104 71 105
REMARK H PARENT 28 6 33 36 95 55 61 66
REMARK Flexibility Score: inf
ROOT
ATOM      1  C   UNL A   1      34.887  28.794  26.681  1.00  0.00     0.023 C 
ENDROOT
BRANCH   1   2
ATOM      2  C   UNL A   1      33.859  27.766  26.215  1.00  0.00     0.116 C 
BRANCH   2   3
ATOM      3  N   UNL A   1      33.584  27.857  24.799  1.00  0.00    -0.356 N 
ATOM      4  C   UNL A   1      32.615  27.368  23.990  1.00  0.00     0.226 C 
ATOM      5  O   UNL A   1      32.707  27.735  22.810  1.00  0.00    -0.274 OA
ATOM      6  H   UNL A   1      34.251  28.393  24.314  1.00  0.00     0.163 HD
BRANCH   4   7
ATOM      7  C   UNL A   1      31.505  26.359  24.409  1.00  0.00     0.052 C 
ATOM      8  C   UNL A   1      33.027  24.696  23.063  1.00  0.00     0.013 C 
ATOM      9  C   UNL A   1      31.871  24.845  24.078  1.00  0.00    -0.010 C 
ATOM     10  C   UNL A   1      30.704  24.096  23.440  1.00  0.00     0.013 C 
ATOM     11  C   UNL A   1      32.274  24.268  25.462  1.00  0.00     0.085 C 
ATOM     12  C   UNL A   1      31.516  25.042  26.532  1.00  0.00     0.015 C 
ATOM     13  C   UNL A   1      31.141  26.389  25.915  1.00  0.00     0.018 C 
ATOM     14  C   UNL A   1      30.232  26.861  23.660  1.00  0.00     0.022 C 
BRANCH  11  15
ATOM     15  C   UNL A   1      32.481  22.762  25.725  1.00  0.00     0.226 C 
ATOM     16  O   UNL A   1      31.480  22.173  26.171  1.00  0.00    -0.275 OA
ATOM     17  N   UNL A   1      33.649  22.040  25.503  1.00  0.00    -0.334 N 
BRANCH  17  18
ATOM     18  C   UNL A   1      34.712  22.379  24.536  1.00  0.00     0.155 C 
BRANCH  18  19
ATOM     19  C   UNL A   1      36.145  22.491  25.025  1.00  0.00    -0.029 A 
ATOM     20  C   UNL A   1      37.081  21.457  24.943  1.00  0.00     0.005 A 
ATOM     21  C   UNL A   1      36.581  23.713  25.579  1.00  0.00     0.005 A 
ATOM     22  C   UNL A   1      38.358  21.588  25.496  1.00  0.00     0.000 A 
ATOM     23  C   UNL A   1      37.848  23.842  26.153  1.00  0.00     0.000 A 
ATOM     24  C   UNL A   1      38.732  22.771  26.125  1.00  0.00     0.000 A 
ENDBRANCH  18  19
ENDBRANCH  17  18
BRANCH  17  25
ATOM     25  C   UNL A   1      33.609  20.631  25.950  1.00  0.00     0.155 C 
BRANCH  25  26
ATOM     26  C   UNL A   1      33.433  19.584  24.862  1.00  0.00    -0.029 A 
ATOM     27  C   UNL A   1      34.395  18.565  24.729  1.00  0.00     0.005 A 
ATOM     28  C   UNL A   1      32.398  19.630  23.918  1.00  0.00     0.005 A 
ATOM     29  C   UNL A   1      34.296  17.606  23.718  1.00  0.00     0.000 A 
ATOM     30  C   UNL A   1      32.303  18.678  22.901  1.00  0.00     0.000 A 
ATOM     31  C   UNL A   1      33.248  17.662  22.804  1.00  0.00     0.000 A 
ENDBRANCH  25  26
ENDBRANCH  17  25
ENDBRANCH  11  15
ENDBRANCH   4   7
ENDBRANCH   2   3
ENDBRANCH   1   2
BRANCH   1  32
ATOM     32  C   UNL A   1      34.329  29.896  27.579  1.00  0.00     0.023 C 
BRANCH  32  33
ATOM     33  C   UNL A   1      35.364  30.876  28.118  1.00  0.00     0.116 C 
BRANCH  33  34
ATOM     34  N   UNL A   1      35.300  31.050  29.561  1.00  0.00    -0.352 N 
ATOM     35  C   UNL A   1      36.221  30.673  30.516  1.00  0.00     0.251 C 
ATOM     36  H   UNL A   1      34.491  31.495  29.902  1.00  0.00     0.163 HD
ATOM     37  O   UNL A   1      35.986  30.821  31.701  1.00  0.00    -0.269 OA
BRANCH  35  38
ATOM     38  C   UNL A   1      37.479  30.045  30.064  1.00  0.00     0.039 A 
ATOM     39  C   UNL A   1      37.852  30.180  28.726  1.00  0.00     0.014 A 
ATOM     40  C   UNL A   1      38.317  29.406  30.980  1.00  0.00     0.014 A 
ATOM     41  C   UNL A   1      39.112  29.737  28.319  1.00  0.00     0.010 A 
ATOM     42  C   UNL A   1      39.598  29.037  30.591  1.00  0.00     0.010 A 
ATOM     43  C   UNL A   1      40.009  29.203  29.258  1.00  0.00    -0.014 A 
BRANCH  43  44
ATOM     44  C   UNL A   1      41.389  28.818  28.874  1.00  0.00     0.031 A 
ATOM     45  C   UNL A   1      42.468  29.861  28.813  1.00  0.00     0.074 A 
ATOM     46  C   UNL A   1      41.644  27.554  28.486  1.00  0.00     0.049 A 
ATOM     47  N   UNL A   1      43.708  29.746  28.416  1.00  0.00    -0.248 NA
ATOM     48  C   UNL A   1      42.090  31.225  29.217  1.00  0.00     0.031 C 
ATOM     49  C   UNL A   1      40.659  26.472  28.426  1.00  0.00     0.029 A 
ATOM     50  N   UNL A   1      42.806  26.971  28.046  1.00  0.00    -0.354 N 
ATOM     51  C   UNL A   1      44.249  31.023  28.493  1.00  0.00     0.074 A 
ATOM     52  C   UNL A   1      43.187  31.906  28.924  1.00  0.00     0.031 C 
ATOM     53  C   UNL A   1      41.260  25.355  27.985  1.00  0.00     0.029 A 
ATOM     54  C   UNL A   1      42.663  25.647  27.704  1.00  0.00     0.049 A 
ATOM     55  H   UNL A   1      43.660  27.455  27.980  1.00  0.00     0.167 HD
ATOM     56  C   UNL A   1      45.520  31.420  28.248  1.00  0.00     0.037 A 
ATOM     57  C   UNL A   1      43.559  24.770  27.212  1.00  0.00     0.037 A 
ATOM     58  C   UNL A   1      46.577  30.529  27.850  1.00  0.00     0.049 A 
ATOM     59  C   UNL A   1      44.977  25.214  26.998  1.00  0.00     0.074 A 
ATOM     60  C   UNL A   1      47.918  30.810  27.663  1.00  0.00     0.029 A 
ATOM     61  N   UNL A   1      46.410  29.178  27.576  1.00  0.00    -0.354 N 
ATOM     62  N   UNL A   1      45.498  26.408  27.163  1.00  0.00    -0.248 NA
ATOM     63  C   UNL A   1      45.934  24.196  26.547  1.00  0.00     0.031 C 
ATOM     64  C   UNL A   1      48.556  29.638  27.241  1.00  0.00     0.029 A 
ATOM     65  C   UNL A   1      47.619  28.616  27.203  1.00  0.00     0.049 A 
ATOM     66  H   UNL A   1      45.556  28.692  27.637  1.00  0.00     0.167 HD
ATOM     67  C   UNL A   1      46.846  26.282  26.848  1.00  0.00     0.074 A 
ATOM     68  C   UNL A   1      47.062  24.892  26.497  1.00  0.00     0.031 C 
ATOM     69  C   UNL A   1      47.815  27.230  26.852  1.00  0.00     0.037 A 
BRANCH  56  70
ATOM     70  C   UNL A   1      45.819  32.885  28.403  1.00  0.00     0.058 A 
ATOM     71  C   UNL A   1      46.182  33.436  29.643  1.00  0.00     0.135 A 
ATOM     72  C   UNL A   1      45.711  33.757  27.306  1.00  0.00     0.135 A 
ATOM     73  F   UNL A   1      46.286  32.652  30.728  1.00  0.00    -0.206 F 
ATOM     74  C   UNL A   1      46.369  34.805  29.804  1.00  0.00     0.059 A 
ATOM     75  C   UNL A   1      45.923  35.126  27.439  1.00  0.00     0.059 A 
ATOM     76  F   UNL A   1      45.372  33.283  26.098  1.00  0.00    -0.206 F 
ATOM     77  C   UNL A   1      46.224  35.644  28.698  1.00  0.00     0.060 A 
BRANCH  77  78
ATOM     78  S   UNL A   1      46.416  37.423  28.929  1.00  0.00     0.124 S 
ATOM     79  O   UNL A   1      46.369  37.900  27.551  1.00  0.00    -0.237 OA
ATOM     80  O   UNL A   1      45.261  37.761  29.755  1.00  0.00    -0.237 OA
ATOM     81  O   UNL A   1      47.711  37.540  29.592  1.00  0.00    -0.744 OA
ENDBRANCH  77  78
ENDBRANCH  56  70
BRANCH  57  82
ATOM     82  C   UNL A   1      43.129  23.377  26.929  1.00  0.00     0.058 A 
ATOM     83  C   UNL A   1      42.956  22.930  25.611  1.00  0.00     0.135 A 
ATOM     84  C   UNL A   1      42.958  22.445  27.965  1.00  0.00     0.135 A 
ATOM     85  F   UNL A   1      43.104  23.787  24.589  1.00  0.00    -0.206 F 
ATOM     86  C   UNL A   1      42.637  21.607  25.326  1.00  0.00     0.059 A 
ATOM     87  C   UNL A   1      42.658  21.111  27.704  1.00  0.00     0.059 A 
ATOM     88  F   UNL A   1      43.129  22.820  29.241  1.00  0.00    -0.206 F 
ATOM     89  C   UNL A   1      42.501  20.701  26.380  1.00  0.00     0.060 A 
BRANCH  89  90
ATOM     90  S   UNL A   1      42.190  18.964  25.994  1.00  0.00     0.124 S 
ATOM     91  O   UNL A   1      43.102  18.742  24.879  1.00  0.00    -0.237 OA
ATOM     92  O   UNL A   1      42.540  18.303  27.248  1.00  0.00    -0.237 OA
ATOM     93  O   UNL A   1      40.768  18.945  25.662  1.00  0.00    -0.744 OA
ENDBRANCH  89  90
ENDBRANCH  57  82
BRANCH  69  94
ATOM     94  C   UNL A   1      49.205  26.798  26.476  1.00  0.00     0.058 A 
ATOM     95  C   UNL A   1      50.094  26.278  27.429  1.00  0.00     0.135 A 
ATOM     96  C   UNL A   1      49.628  26.848  25.139  1.00  0.00     0.135 A 
ATOM     97  F   UNL A   1      49.738  26.215  28.723  1.00  0.00    -0.206 F 
ATOM     98  C   UNL A   1      51.364  25.836  27.071  1.00  0.00     0.059 A 
ATOM     99  C   UNL A   1      50.885  26.391  24.755  1.00  0.00     0.059 A 
ATOM    100  F   UNL A   1      48.811  27.328  24.188  1.00  0.00    -0.206 F 
ATOM    101  C   UNL A   1      51.748  25.895  25.730  1.00  0.00     0.060 A 
BRANCH 101 102
ATOM    102  S   UNL A   1      53.382  25.279  25.270  1.00  0.00     0.124 S 
ATOM    103  O   UNL A   1      53.457  25.664  23.865  1.00  0.00    -0.237 OA
ATOM    104  O   UNL A   1      54.261  26.013  26.175  1.00  0.00    -0.237 OA
ATOM    105  O   UNL A   1      53.288  23.845  25.525  1.00  0.00    -0.744 OA
ENDBRANCH 101 102
ENDBRANCH  69  94
ENDBRANCH  43  44
ENDBRANCH  35  38
ENDBRANCH  33  34
ENDBRANCH  32  33
ENDBRANCH   1  32
TORSDOF 19
ENDMDL
MODEL 2
REMARK VINA RESULT:     -12.3      1.030      2.624
REMARK SMILES CC1(C)[C@H](C(=O)N(Cc2ccccc2)Cc2ccccc2)CC[C@@]1(C)C(=O)NCCCCNC(=O)c1ccc(-c2c3nc(c(-c4c(F)cc(S(=O)(=O)[O-])cc4F)c4ccc([nH]4)c(-c4c(F)cc(S(=O)(=O)[O-])cc4F)c4nc(c(-c5c(F)cc(S(=O)(=O)[O-])cc5F)c5ccc2[nH]5)C=C4)C=C3)cc1
REMARK SMILES IDX 30 1 29 2 28 3 26 4 27 5 24 7 1 8 2 9 3 10 4 11 22 12 23 13
REMARK SMILES IDX 25 14 5 15 6 16 7 17 8 18 9 19 10 20 14 21 11 22 13 23 12 24
REMARK SMILES IDX 15 25 16 26 17 27 21 28 18 29 20 30 19 31 31 32 32 33 33 34
REMARK SMILES IDX 34 35 35 37 36 38 37 39 101 40 38 41 100 42 39 43 40 44
REMARK SMILES IDX 41 45 94 46 42 47 99 48 93 49 95 50 43 51 98 52 92 53 91 54
REMARK SMILES IDX 44 56 78 57 57 58 77 59 58 60 61 61 76 62 96 63 59 64 60 65
REMARK SMILES IDX 75 67 97 68 62 69 45 70 46 71 55 72 47 73 48 74 54 75 56 76
REMARK SMILES IDX 49 77 50 78 51 79 52 80 53 81 79 82 80 83 89 84 81 85 82 86
REMARK SMILES IDX 88 87 90 88 83 89 84 90 85 91 86 92 87 93 63 94 64 95 73 96
REMARK SMILES IDX 65 97 66 98 72 99 74 100 67 101 68 102 69 103 70 104 71 105
REMARK H PARENT 28 6 33 36 95 55 61 66
REMARK Flexibility Score: inf
ROOT
ATOM      1  C   UNL A   1      33.722  28.306  26.866  1.00  0.00     0.023 C 
ENDROOT
BRANCH   1   2
ATOM      2  C   UNL A   1      32.199  28.204  26.874  1.00  0.00     0.116 C 
BRANCH   2   3
ATOM      3  N   UNL A   1      31.579  29.063  25.889  1.00  0.00    -0.356 N 
ATOM      4  C   UNL A   1      30.916  28.848  24.729  1.00  0.00     0.226 C 
ATOM      5  O   UNL A   1      30.476  29.877  24.199  1.00  0.00    -0.274 OA
ATOM      6  H   UNL A   1      31.658  30.018  26.112  1.00  0.00     0.163 HD
BRANCH   4   7
ATOM      7  C   UNL A   1      30.757  27.473  24.015  1.00  0.00     0.052 C 
ATOM      8  C   UNL A   1      33.036  28.192  22.928  1.00  0.00     0.013 C 
ATOM      9  C   UNL A   1      32.051  27.032  23.199  1.00  0.00    -0.010 C 
ATOM     10  C   UNL A   1      31.703  26.494  21.814  1.00  0.00     0.013 C 
ATOM     11  C   UNL A   1      32.700  25.960  24.118  1.00  0.00     0.085 C 
ATOM     12  C   UNL A   1      31.591  25.300  24.924  1.00  0.00     0.015 C 
ATOM     13  C   UNL A   1      30.426  26.289  24.960  1.00  0.00     0.018 C 
ATOM     14  C   UNL A   1      29.496  27.655  23.115  1.00  0.00     0.022 C 
BRANCH  11  15
ATOM     15  C   UNL A   1      33.854  25.044  23.665  1.00  0.00     0.226 C 
ATOM     16  O   UNL A   1      34.787  25.632  23.090  1.00  0.00    -0.275 OA
ATOM     17  N   UNL A   1      33.934  23.666  23.848  1.00  0.00    -0.334 N 
BRANCH  17  18
ATOM     18  C   UNL A   1      33.261  22.889  24.908  1.00  0.00     0.155 C 
BRANCH  18  19
ATOM     19  C   UNL A   1      33.045  21.400  24.705  1.00  0.00    -0.029 A 
ATOM     20  C   UNL A   1      32.525  20.839  23.536  1.00  0.00     0.005 A 
ATOM     21  C   UNL A   1      33.407  20.513  25.741  1.00  0.00     0.005 A 
ATOM     22  C   UNL A   1      32.261  19.468  23.445  1.00  0.00     0.000 A 
ATOM     23  C   UNL A   1      33.124  19.147  25.663  1.00  0.00     0.000 A 
ATOM     24  C   UNL A   1      32.536  18.627  24.518  1.00  0.00     0.000 A 
ENDBRANCH  18  19
ENDBRANCH  17  18
BRANCH  17  25
ATOM     25  C   UNL A   1      35.099  23.016  23.212  1.00  0.00     0.155 C 
BRANCH  25  26
ATOM     26  C   UNL A   1      36.281  22.714  24.120  1.00  0.00    -0.029 A 
ATOM     27  C   UNL A   1      36.732  21.386  24.240  1.00  0.00     0.005 A 
ATOM     28  C   UNL A   1      36.897  23.686  24.921  1.00  0.00     0.005 A 
ATOM     29  C   UNL A   1      37.787  21.056  25.094  1.00  0.00     0.000 A 
ATOM     30  C   UNL A   1      37.945  23.356  25.782  1.00  0.00     0.000 A 
ATOM     31  C   UNL A   1      38.394  22.043  25.865  1.00  0.00     0.000 A 
ENDBRANCH  25  26
ENDBRANCH  17  25
ENDBRANCH  11  15
ENDBRANCH   4   7
ENDBRANCH   2   3
ENDBRANCH   1   2
BRANCH   1  32
ATOM     32  C   UNL A   1      34.271  29.719  27.054  1.00  0.00     0.023 C 
BRANCH  32  33
ATOM     33  C   UNL A   1      35.569  29.808  27.846  1.00  0.00     0.116 C 
BRANCH  33  34
ATOM     34  N   UNL A   1      35.372  30.160  29.244  1.00  0.00    -0.352 N 
ATOM     35  C   UNL A   1      36.317  30.296  30.240  1.00  0.00     0.251 C 
ATOM     36  H   UNL A   1      34.441  30.324  29.517  1.00  0.00     0.163 HD
ATOM     37  O   UNL A   1      35.983  30.523  31.388  1.00  0.00    -0.269 OA
BRANCH  35  38
ATOM     38  C   UNL A   1      37.739  30.114  29.884  1.00  0.00     0.039 A 
ATOM     39  C   UNL A   1      38.645  29.787  30.894  1.00  0.00     0.014 A 
ATOM     40  C   UNL A   1      38.147  30.182  28.550  1.00  0.00     0.014 A 
ATOM     41  C   UNL A   1      39.956  29.450  30.553  1.00  0.00     0.010 A 
ATOM     42  C   UNL A   1      39.428  29.772  28.207  1.00  0.00     0.010 A 
ATOM     43  C   UNL A   1      40.343  29.398  29.204  1.00  0.00    -0.014 A 
BRANCH  43  44
ATOM     44  C   UNL A   1      41.699  28.946  28.808  1.00  0.00     0.031 A 
ATOM     45  C   UNL A   1      42.821  29.939  28.709  1.00  0.00     0.074 A 
ATOM     46  C   UNL A   1      41.893  27.664  28.443  1.00  0.00     0.049 A 
ATOM     47  N   UNL A   1      44.049  29.761  28.296  1.00  0.00    -0.248 NA
ATOM     48  C   UNL A   1      42.509  31.325  29.089  1.00  0.00     0.031 C 
ATOM     49  C   UNL A   1      40.861  26.625  28.421  1.00  0.00     0.029 A 
ATOM     50  N   UNL A   1      43.021  27.022  27.998  1.00  0.00    -0.354 N 
ATOM     51  C   UNL A   1      44.646  31.014  28.338  1.00  0.00     0.074 A 
ATOM     52  C   UNL A   1      43.631  31.952  28.766  1.00  0.00     0.031 C 
ATOM     53  C   UNL A   1      41.406  25.474  27.994  1.00  0.00     0.029 A 
ATOM     54  C   UNL A   1      42.816  25.698  27.687  1.00  0.00     0.049 A 
ATOM     55  H   UNL A   1      43.895  27.466  27.910  1.00  0.00     0.167 HD
ATOM     56  C   UNL A   1      45.929  31.350  28.066  1.00  0.00     0.037 A 
ATOM     57  C   UNL A   1      43.665  24.773  27.201  1.00  0.00     0.037 A 
ATOM     58  C   UNL A   1      46.940  30.406  27.672  1.00  0.00     0.049 A 
ATOM     59  C   UNL A   1      45.098  25.150  26.956  1.00  0.00     0.074 A 
ATOM     60  C   UNL A   1      48.289  30.625  27.459  1.00  0.00     0.029 A 
ATOM     61  N   UNL A   1      46.710  29.059  27.428  1.00  0.00    -0.354 N 
ATOM     62  N   UNL A   1      45.673  26.323  27.088  1.00  0.00    -0.248 NA
ATOM     63  C   UNL A   1      46.002  24.082  26.513  1.00  0.00     0.031 C 
ATOM     64  C   UNL A   1      48.868  29.417  27.053  1.00  0.00     0.029 A 
ATOM     65  C   UNL A   1      47.888  28.437  27.049  1.00  0.00     0.049 A 
ATOM     66  H   UNL A   1      45.836  28.611  27.513  1.00  0.00     0.167 HD
ATOM     67  C   UNL A   1      47.009  26.132  26.756  1.00  0.00     0.074 A 
ATOM     68  C   UNL A   1      47.159  24.726  26.431  1.00  0.00     0.031 C 
ATOM     69  C   UNL A   1      48.018  27.036  26.725  1.00  0.00     0.037 A 
BRANCH  56  70
ATOM     70  C   UNL A   1      46.294  32.804  28.185  1.00  0.00     0.058 A 
ATOM     71  C   UNL A   1      46.706  33.363  29.406  1.00  0.00     0.135 A 
ATOM     72  C   UNL A   1      46.200  33.658  27.074  1.00  0.00     0.135 A 
ATOM     73  F   UNL A   1      46.800  32.596  30.504  1.00  0.00    -0.206 F 
ATOM     74  C   UNL A   1      46.955  34.725  29.537  1.00  0.00     0.059 A 
ATOM     75  C   UNL A   1      46.473  35.019  27.175  1.00  0.00     0.059 A 
ATOM     76  F   UNL A   1      45.815  33.177  25.882  1.00  0.00    -0.206 F 
ATOM     77  C   UNL A   1      46.822  35.548  28.417  1.00  0.00     0.060 A 
BRANCH  77  78
ATOM     78  S   UNL A   1      47.096  37.322  28.608  1.00  0.00     0.124 S 
ATOM     79  O   UNL A   1      46.273  37.859  27.530  1.00  0.00    -0.237 OA
ATOM     80  O   UNL A   1      46.608  37.572  29.961  1.00  0.00    -0.237 OA
ATOM     81  O   UNL A   1      48.537  37.463  28.430  1.00  0.00    -0.744 OA
ENDBRANCH  77  78
ENDBRANCH  56  70
BRANCH  57  82
ATOM     82  C   UNL A   1      43.170  23.395  26.953  1.00  0.00     0.058 A 
ATOM     83  C   UNL A   1      42.915  22.944  25.650  1.00  0.00     0.135 A 
ATOM     84  C   UNL A   1      43.018  22.478  28.006  1.00  0.00     0.135 A 
ATOM     85  F   UNL A   1      43.042  23.786  24.614  1.00  0.00    -0.206 F 
ATOM     86  C   UNL A   1      42.534  21.631  25.395  1.00  0.00     0.059 A 
ATOM     87  C   UNL A   1      42.657  21.154  27.774  1.00  0.00     0.059 A 
ATOM     88  F   UNL A   1      43.268  22.857  29.268  1.00  0.00    -0.206 F 
ATOM     89  C   UNL A   1      42.418  20.740  26.464  1.00  0.00     0.060 A 
BRANCH  89  90
ATOM     90  S   UNL A   1      42.025  19.012  26.111  1.00  0.00     0.124 S 
ATOM     91  O   UNL A   1      40.614  19.098  25.754  1.00  0.00    -0.237 OA
ATOM     92  O   UNL A   1      42.943  18.705  25.018  1.00  0.00    -0.237 OA
ATOM     93  O   UNL A   1      42.318  18.338  27.373  1.00  0.00    -0.744 OA
ENDBRANCH  89  90
ENDBRANCH  57  82
BRANCH  69  94
ATOM     94  C   UNL A   1      49.381  26.537  26.339  1.00  0.00     0.058 A 
ATOM     95  C   UNL A   1      49.871  26.677  25.031  1.00  0.00     0.135 A 
ATOM     96  C   UNL A   1      50.230  25.968  27.302  1.00  0.00     0.135 A 
ATOM     97  F   UNL A   1      49.096  27.209  24.072  1.00  0.00    -0.206 F 
ATOM     98  C   UNL A   1      51.152  26.255  24.687  1.00  0.00     0.059 A 
ATOM     99  C   UNL A   1      51.521  25.560  26.986  1.00  0.00     0.059 A 
ATOM    100  F   UNL A   1      49.811  25.821  28.569  1.00  0.00    -0.206 F 
ATOM    101  C   UNL A   1      51.970  25.700  25.673  1.00  0.00     0.060 A 
BRANCH 101 102
ATOM    102  S   UNL A   1      53.644  25.194  25.225  1.00  0.00     0.124 S 
ATOM    103  O   UNL A   1      54.442  25.906  26.218  1.00  0.00    -0.237 OA
ATOM    104  O   UNL A   1      53.587  23.745  25.380  1.00  0.00    -0.237 OA
ATOM    105  O   UNL A   1      53.784  25.666  23.850  1.00  0.00    -0.744 OA
ENDBRANCH 101 102
ENDBRANCH  69  94
ENDBRANCH  43  44
ENDBRANCH  35  38
ENDBRANCH  33  34
ENDBRANCH  32  33
ENDBRANCH   1  32
TORSDOF 19
ENDMDL
MODEL 3
REMARK VINA RESULT:     -12.1      1.188      8.206
REMARK SMILES CC1(C)[C@H](C(=O)N(Cc2ccccc2)Cc2ccccc2)CC[C@@]1(C)C(=O)NCCCCNC(=O)c1ccc(-c2c3nc(c(-c4c(F)cc(S(=O)(=O)[O-])cc4F)c4ccc([nH]4)c(-c4c(F)cc(S(=O)(=O)[O-])cc4F)c4nc(c(-c5c(F)cc(S(=O)(=O)[O-])cc5F)c5ccc2[nH]5)C=C4)C=C3)cc1
REMARK SMILES IDX 30 1 29 2 28 3 26 4 27 5 24 7 1 8 2 9 3 10 4 11 22 12 23 13
REMARK SMILES IDX 25 14 5 15 6 16 7 17 8 18 9 19 10 20 14 21 11 22 13 23 12 24
REMARK SMILES IDX 15 25 16 26 17 27 21 28 18 29 20 30 19 31 31 32 32 33 33 34
REMARK SMILES IDX 34 35 35 37 36 38 37 39 101 40 38 41 100 42 39 43 40 44
REMARK SMILES IDX 41 45 94 46 42 47 99 48 93 49 95 50 43 51 98 52 92 53 91 54
REMARK SMILES IDX 44 56 78 57 57 58 77 59 58 60 61 61 76 62 96 63 59 64 60 65
REMARK SMILES IDX 75 67 97 68 62 69 45 70 46 71 55 72 47 73 48 74 54 75 56 76
REMARK SMILES IDX 49 77 50 78 51 79 52 80 53 81 79 82 80 83 89 84 81 85 82 86
REMARK SMILES IDX 88 87 90 88 83 89 84 90 85 91 86 92 87 93 63 94 64 95 73 96
REMARK SMILES IDX 65 97 66 98 72 99 74 100 67 101 68 102 69 103 70 104 71 105
REMARK H PARENT 28 6 33 36 95 55 61 66
REMARK Flexibility Score: inf
ROOT
ATOM      1  C   UNL A   1      33.649  28.197  26.958  1.00  0.00     0.023 C 
ENDROOT
BRANCH   1   2
ATOM      2  C   UNL A   1      32.125  28.210  27.034  1.00  0.00     0.116 C 
BRANCH   2   3
ATOM      3  N   UNL A   1      31.526  29.069  26.038  1.00  0.00    -0.356 N 
ATOM      4  C   UNL A   1      30.880  28.854  24.868  1.00  0.00     0.226 C 
ATOM      5  O   UNL A   1      30.454  29.885  24.327  1.00  0.00    -0.274 OA
ATOM      6  H   UNL A   1      31.606  30.025  26.259  1.00  0.00     0.163 HD
BRANCH   4   7
ATOM      7  C   UNL A   1      30.723  27.478  24.156  1.00  0.00     0.052 C 
ATOM      8  C   UNL A   1      33.011  28.191  23.083  1.00  0.00     0.013 C 
ATOM      9  C   UNL A   1      32.022  27.033  23.350  1.00  0.00    -0.010 C 
ATOM     10  C   UNL A   1      31.683  26.493  21.963  1.00  0.00     0.013 C 
ATOM     11  C   UNL A   1      32.662  25.963  24.276  1.00  0.00     0.085 C 
ATOM     12  C   UNL A   1      31.547  25.306  25.076  1.00  0.00     0.015 C 
ATOM     13  C   UNL A   1      30.384  26.297  25.101  1.00  0.00     0.018 C 
ATOM     14  C   UNL A   1      29.468  27.660  23.247  1.00  0.00     0.022 C 
BRANCH  11  15
ATOM     15  C   UNL A   1      33.819  25.043  23.833  1.00  0.00     0.226 C 
ATOM     16  O   UNL A   1      34.797  25.638  23.347  1.00  0.00    -0.275 OA
ATOM     17  N   UNL A   1      33.855  23.655  23.937  1.00  0.00    -0.334 N 
BRANCH  17  18
ATOM     18  C   UNL A   1      33.104  22.836  24.909  1.00  0.00     0.155 C 
BRANCH  18  19
ATOM     19  C   UNL A   1      32.933  21.350  24.644  1.00  0.00    -0.029 A 
ATOM     20  C   UNL A   1      33.348  20.348  25.524  1.00  0.00     0.005 A 
ATOM     21  C   UNL A   1      32.300  20.940  23.452  1.00  0.00     0.005 A 
ATOM     22  C   UNL A   1      33.250  18.996  25.182  1.00  0.00     0.000 A 
ATOM     23  C   UNL A   1      32.219  19.592  23.096  1.00  0.00     0.000 A 
ATOM     24  C   UNL A   1      32.710  18.619  23.957  1.00  0.00     0.000 A 
ENDBRANCH  18  19
ENDBRANCH  17  18
BRANCH  17  25
ATOM     25  C   UNL A   1      35.039  23.013  23.328  1.00  0.00     0.155 C 
BRANCH  25  26
ATOM     26  C   UNL A   1      36.181  22.673  24.272  1.00  0.00    -0.029 A 
ATOM     27  C   UNL A   1      36.743  23.693  25.063  1.00  0.00     0.005 A 
ATOM     28  C   UNL A   1      36.768  21.402  24.334  1.00  0.00     0.005 A 
ATOM     29  C   UNL A   1      37.822  23.436  25.913  1.00  0.00     0.000 A 
ATOM     30  C   UNL A   1      37.852  21.146  25.177  1.00  0.00     0.000 A 
ATOM     31  C   UNL A   1      38.376  22.161  25.970  1.00  0.00     0.000 A 
ENDBRANCH  25  26
ENDBRANCH  17  25
ENDBRANCH  11  15
ENDBRANCH   4   7
ENDBRANCH   2   3
ENDBRANCH   1   2
BRANCH   1  32
ATOM     32  C   UNL A   1      34.304  29.576  26.978  1.00  0.00     0.023 C 
BRANCH  32  33
ATOM     33  C   UNL A   1      35.620  29.655  27.740  1.00  0.00     0.116 C 
BRANCH  33  34
ATOM     34  N   UNL A   1      35.450  29.728  29.184  1.00  0.00    -0.352 N 
ATOM     35  C   UNL A   1      36.418  29.722  30.167  1.00  0.00     0.251 C 
ATOM     36  H   UNL A   1      34.521  29.789  29.502  1.00  0.00     0.163 HD
ATOM     37  O   UNL A   1      36.109  29.712  31.344  1.00  0.00    -0.269 OA
BRANCH  35  38
ATOM     38  C   UNL A   1      37.835  29.683  29.752  1.00  0.00     0.039 A 
ATOM     39  C   UNL A   1      38.798  29.316  30.694  1.00  0.00     0.014 A 
ATOM     40  C   UNL A   1      38.189  29.923  28.423  1.00  0.00     0.014 A 
ATOM     41  C   UNL A   1      40.115  29.114  30.281  1.00  0.00     0.010 A 
ATOM     42  C   UNL A   1      39.482  29.646  28.001  1.00  0.00     0.010 A 
ATOM     43  C   UNL A   1      40.456  29.236  28.924  1.00  0.00    -0.014 A 
BRANCH  43  44
ATOM     44  C   UNL A   1      41.825  28.928  28.442  1.00  0.00     0.031 A 
ATOM     45  C   UNL A   1      42.165  27.538  27.988  1.00  0.00     0.074 A 
ATOM     46  C   UNL A   1      42.782  29.874  28.509  1.00  0.00     0.049 A 
ATOM     47  N   UNL A   1      43.319  27.048  27.619  1.00  0.00    -0.248 NA
ATOM     48  C   UNL A   1      41.067  26.559  27.986  1.00  0.00     0.031 C 
ATOM     49  C   UNL A   1      42.592  31.237  29.008  1.00  0.00     0.029 A 
ATOM     50  N   UNL A   1      44.112  29.824  28.177  1.00  0.00    -0.354 N 
ATOM     51  C   UNL A   1      43.094  25.700  27.370  1.00  0.00     0.074 A 
ATOM     52  C   UNL A   1      41.705  25.439  27.680  1.00  0.00     0.031 C 
ATOM     53  C   UNL A   1      43.759  31.897  28.940  1.00  0.00     0.029 A 
ATOM     54  C   UNL A   1      44.786  30.998  28.421  1.00  0.00     0.049 A 
ATOM     55  H   UNL A   1      44.544  29.024  27.801  1.00  0.00     0.167 HD
ATOM     56  C   UNL A   1      43.960  24.769  26.903  1.00  0.00     0.037 A 
ATOM     57  C   UNL A   1      46.084  31.312  28.252  1.00  0.00     0.037 A 
ATOM     58  C   UNL A   1      45.331  25.045  26.566  1.00  0.00     0.049 A 
ATOM     59  C   UNL A   1      47.018  30.283  27.682  1.00  0.00     0.074 A 
ATOM     60  C   UNL A   1      46.268  24.199  26.002  1.00  0.00     0.029 A 
ATOM     61  N   UNL A   1      45.962  26.265  26.765  1.00  0.00    -0.354 N 
ATOM     62  N   UNL A   1      46.770  29.034  27.364  1.00  0.00    -0.248 NA
ATOM     63  C   UNL A   1      48.403  30.704  27.434  1.00  0.00     0.031 C 
ATOM     64  C   UNL A   1      47.476  24.896  25.893  1.00  0.00     0.029 A 
ATOM     65  C   UNL A   1      47.282  26.189  26.353  1.00  0.00     0.049 A 
ATOM     66  H   UNL A   1      45.534  27.067  27.144  1.00  0.00     0.167 HD
ATOM     67  C   UNL A   1      47.963  28.523  26.866  1.00  0.00     0.074 A 
ATOM     68  C   UNL A   1      48.929  29.604  26.912  1.00  0.00     0.031 C 
ATOM     69  C   UNL A   1      48.232  27.275  26.410  1.00  0.00     0.037 A 
BRANCH  56  70
ATOM     70  C   UNL A   1      43.434  23.370  26.740  1.00  0.00     0.058 A 
ATOM     71  C   UNL A   1      43.147  22.556  27.848  1.00  0.00     0.135 A 
ATOM     72  C   UNL A   1      43.246  22.822  25.460  1.00  0.00     0.135 A 
ATOM     73  F   UNL A   1      43.324  23.024  29.095  1.00  0.00    -0.206 F 
ATOM     74  C   UNL A   1      42.749  21.232  27.696  1.00  0.00     0.059 A 
ATOM     75  C   UNL A   1      42.819  21.509  25.284  1.00  0.00     0.059 A 
ATOM     76  F   UNL A   1      43.500  23.557  24.366  1.00  0.00    -0.206 F 
ATOM     77  C   UNL A   1      42.600  20.714  26.409  1.00  0.00     0.060 A 
BRANCH  77  78
ATOM     78  S   UNL A   1      42.134  18.980  26.221  1.00  0.00     0.124 S 
ATOM     79  O   UNL A   1      42.975  18.574  25.100  1.00  0.00    -0.237 OA
ATOM     80  O   UNL A   1      42.494  18.415  27.518  1.00  0.00    -0.237 OA
ATOM     81  O   UNL A   1      40.703  19.043  25.945  1.00  0.00    -0.744 OA
ENDBRANCH  77  78
ENDBRANCH  56  70
BRANCH  57  82
ATOM     82  C   UNL A   1      46.551  32.678  28.601  1.00  0.00     0.058 A 
ATOM     83  C   UNL A   1      47.155  32.939  29.838  1.00  0.00     0.135 A 
ATOM     84  C   UNL A   1      46.473  33.730  27.674  1.00  0.00     0.135 A 
ATOM     85  F   UNL A   1      47.248  31.965  30.757  1.00  0.00    -0.206 F 
ATOM     86  C   UNL A   1      47.675  34.192  30.145  1.00  0.00     0.059 A 
ATOM     87  C   UNL A   1      47.002  34.987  27.951  1.00  0.00     0.059 A 
ATOM     88  F   UNL A   1      45.919  33.525  26.469  1.00  0.00    -0.206 F 
ATOM     89  C   UNL A   1      47.603  35.208  29.190  1.00  0.00     0.060 A 
BRANCH  89  90
ATOM     90  S   UNL A   1      48.372  36.800  29.560  1.00  0.00     0.124 S 
ATOM     91  O   UNL A   1      47.791  37.654  28.532  1.00  0.00    -0.237 OA
ATOM     92  O   UNL A   1      47.922  37.049  30.927  1.00  0.00    -0.237 OA
ATOM     93  O   UNL A   1      49.799  36.523  29.420  1.00  0.00    -0.744 OA
ENDBRANCH  89  90
ENDBRANCH  57  82
BRANCH  69  94
ATOM     94  C   UNL A   1      49.624  27.007  25.911  1.00  0.00     0.058 A 
ATOM     95  C   UNL A   1      50.626  26.515  26.762  1.00  0.00     0.135 A 
ATOM     96  C   UNL A   1      49.940  27.187  24.556  1.00  0.00     0.135 A 
ATOM     97  F   UNL A   1      50.375  26.332  28.068  1.00  0.00    -0.206 F 
ATOM     98  C   UNL A   1      51.901  26.224  26.287  1.00  0.00     0.059 A 
ATOM     99  C   UNL A   1      51.202  26.882  24.055  1.00  0.00     0.059 A 
ATOM    100  F   UNL A   1      49.013  27.646  23.700  1.00  0.00    -0.206 F 
ATOM    101  C   UNL A   1      52.178  26.409  24.931  1.00  0.00     0.060 A 
BRANCH 101 102
ATOM    102  S   UNL A   1      53.824  25.989  24.317  1.00  0.00     0.124 S 
ATOM    103  O   UNL A   1      53.631  26.078  22.874  1.00  0.00    -0.237 OA
ATOM    104  O   UNL A   1      54.656  27.031  24.910  1.00  0.00    -0.237 OA
ATOM    105  O   UNL A   1      54.047  24.645  24.841  1.00  0.00    -0.744 OA
ENDBRANCH 101 102
ENDBRANCH  69  94
ENDBRANCH  43  44
ENDBRANCH  35  38
ENDBRANCH  33  34
ENDBRANCH  32  33
ENDBRANCH   1  32
TORSDOF 19
ENDMDL
