MODEL 1
REMARK VINA RESULT:     -11.4      0.000      0.000
REMARK SMILES CC[NH2+][C@H](C)c1cccn1Cc1ccc(C(=O)NCCCCNC(=O)c2ccc(-c3c4nc(c(-c5c(F)cc(S(=O)(=O)[O-])cc5F)c5ccc([nH]5)c(-c5c(F)cc(S(=O)(=O)[O-])cc5F)c5nc(c(-c6c(F)cc(S(=O)(=O)[O-])cc6F)c6ccc3[nH]6)C=C5)C=C4)cc2)cc1
REMARK SMILES IDX 19 1 18 2 16 3 17 4 15 6 12 7 13 8 93 9 14 10 92 11 11 12
REMARK SMILES IDX 10 13 6 14 7 15 8 16 9 17 4 18 5 19 3 20 2 23 1 24 20 25
REMARK SMILES IDX 21 26 22 27 23 28 24 29 25 31 26 32 27 33 91 34 28 35 90 36
REMARK SMILES IDX 29 37 30 38 31 39 84 40 32 41 89 42 83 43 85 44 33 45 88 46
REMARK SMILES IDX 82 47 81 48 34 50 68 51 47 52 67 53 48 54 51 55 66 56 86 57
REMARK SMILES IDX 49 58 50 59 65 61 87 62 52 63 35 64 36 65 45 66 37 67 38 68
REMARK SMILES IDX 44 69 46 70 39 71 40 72 41 73 42 74 43 75 69 76 70 77 79 78
REMARK SMILES IDX 71 79 72 80 78 81 80 82 73 83 74 84 75 85 76 86 77 87 53 88
REMARK SMILES IDX 54 89 63 90 55 91 56 92 62 93 64 94 57 95 58 96 59 97 60 98
REMARK SMILES IDX 61 99
REMARK H PARENT 18 5 3 21 3 22 23 30 85 49 51 60
REMARK Flexibility Score: inf
ROOT
ATOM      1  C   UNL A   1      33.421  28.283  23.466  1.00  0.00     0.116 C 
ENDROOT
BRANCH   1   2
ATOM      2  N   UNL A   1      32.048  28.743  23.440  1.00  0.00    -0.352 N 
ATOM      3  C   UNL A   1      30.861  28.084  23.629  1.00  0.00     0.251 C 
ATOM      4  O   UNL A   1      29.822  28.725  23.461  1.00  0.00    -0.269 OA
ATOM      5  H   UNL A   1      31.950  29.703  23.253  1.00  0.00     0.163 HD
BRANCH   3   6
ATOM      6  C   UNL A   1      30.763  26.661  24.071  1.00  0.00     0.039 A 
ATOM      7  C   UNL A   1      30.758  24.025  25.154  1.00  0.00    -0.028 A 
ATOM      8  C   UNL A   1      30.643  25.150  25.972  1.00  0.00     0.006 A 
ATOM      9  C   UNL A   1      30.748  24.242  23.773  1.00  0.00     0.006 A 
ATOM     10  C   UNL A   1      30.662  26.447  25.449  1.00  0.00     0.014 A 
ATOM     11  C   UNL A   1      30.744  25.539  23.242  1.00  0.00     0.014 A 
BRANCH   7  12
ATOM     12  C   UNL A   1      30.887  22.628  25.741  1.00  0.00     0.157 C 
BRANCH  12  13
ATOM     13  N   UNL A   1      32.237  22.332  26.245  1.00  0.00    -0.342 N 
ATOM     14  C   UNL A   1      33.364  21.839  25.588  1.00  0.00     0.076 A 
ATOM     15  C   UNL A   1      34.381  21.808  26.547  1.00  0.00     0.029 A 
ATOM     16  C   UNL A   1      33.904  22.328  27.759  1.00  0.00     0.020 A 
ATOM     17  C   UNL A   1      32.604  22.687  27.535  1.00  0.00     0.086 A 
BRANCH  14  18
ATOM     18  C   UNL A   1      33.574  21.523  24.117  1.00  0.00     0.227 C 
ATOM     19  C   UNL A   1      32.565  20.483  23.591  1.00  0.00     0.082 C 
BRANCH  18  20
ATOM     20  N   UNL A   1      33.711  22.659  23.202  1.00  0.00    -0.339 N 
ATOM     21  H   UNL A   1      33.867  22.292  22.263  1.00  0.00     0.346 HD
ATOM     22  H   UNL A   1      32.851  23.201  23.289  1.00  0.00     0.346 HD
BRANCH  20  23
ATOM     23  C   UNL A   1      34.805  23.577  23.518  1.00  0.00     0.257 C 
ATOM     24  C   UNL A   1      36.123  22.844  23.291  1.00  0.00     0.071 C 
ENDBRANCH  20  23
ENDBRANCH  18  20
ENDBRANCH  14  18
ENDBRANCH  12  13
ENDBRANCH   7  12
ENDBRANCH   3   6
ENDBRANCH   1   2
BRANCH   1  25
ATOM     25  C   UNL A   1      33.873  28.058  24.912  1.00  0.00     0.023 C 
BRANCH  25  26
ATOM     26  C   UNL A   1      33.351  29.105  25.901  1.00  0.00     0.023 C 
BRANCH  26  27
ATOM     27  C   UNL A   1      34.025  29.041  27.267  1.00  0.00     0.116 C 
BRANCH  27  28
ATOM     28  N   UNL A   1      34.076  30.358  27.885  1.00  0.00    -0.352 N 
ATOM     29  C   UNL A   1      35.027  30.881  28.726  1.00  0.00     0.251 C 
ATOM     30  H   UNL A   1      33.325  30.957  27.670  1.00  0.00     0.163 HD
ATOM     31  O   UNL A   1      34.756  31.843  29.430  1.00  0.00    -0.269 OA
BRANCH  29  32
ATOM     32  C   UNL A   1      36.369  30.276  28.784  1.00  0.00     0.039 A 
ATOM     33  C   UNL A   1      37.176  30.337  27.642  1.00  0.00     0.014 A 
ATOM     34  C   UNL A   1      36.798  29.603  29.934  1.00  0.00     0.014 A 
ATOM     35  C   UNL A   1      38.445  29.773  27.676  1.00  0.00     0.010 A 
ATOM     36  C   UNL A   1      38.074  29.067  29.980  1.00  0.00     0.010 A 
ATOM     37  C   UNL A   1      38.895  29.159  28.852  1.00  0.00    -0.014 A 
BRANCH  37  38
ATOM     38  C   UNL A   1      40.299  28.708  28.930  1.00  0.00     0.031 A 
ATOM     39  C   UNL A   1      41.232  29.877  29.352  1.00  0.00     0.074 A 
ATOM     40  C   UNL A   1      40.512  27.391  28.609  1.00  0.00     0.049 A 
ATOM     41  N   UNL A   1      42.450  30.155  28.999  1.00  0.00    -0.248 NA
ATOM     42  C   UNL A   1      40.688  30.958  30.229  1.00  0.00     0.031 C 
ATOM     43  C   UNL A   1      39.446  26.424  28.243  1.00  0.00     0.029 A 
ATOM     44  N   UNL A   1      41.626  26.582  28.527  1.00  0.00    -0.354 N 
ATOM     45  C   UNL A   1      42.884  31.276  29.758  1.00  0.00     0.074 A 
ATOM     46  C   UNL A   1      41.711  31.805  30.383  1.00  0.00     0.031 C 
ATOM     47  C   UNL A   1      39.965  25.224  27.902  1.00  0.00     0.029 A 
ATOM     48  C   UNL A   1      41.407  25.267  28.019  1.00  0.00     0.049 A 
ATOM     49  H   UNL A   1      42.518  26.893  28.802  1.00  0.00     0.167 HD
ATOM     50  C   UNL A   1      44.205  31.593  29.945  1.00  0.00     0.037 A 
ATOM     51  C   UNL A   1      42.331  24.316  27.663  1.00  0.00     0.037 A 
ATOM     52  C   UNL A   1      45.012  30.593  29.329  1.00  0.00     0.049 A 
ATOM     53  C   UNL A   1      43.623  24.901  28.057  1.00  0.00     0.074 A 
ATOM     54  C   UNL A   1      45.272  30.293  28.018  1.00  0.00     0.029 A 
ATOM     55  N   UNL A   1      45.340  29.514  30.117  1.00  0.00    -0.354 N 
ATOM     56  N   UNL A   1      44.032  25.064  29.280  1.00  0.00    -0.248 NA
ATOM     57  C   UNL A   1      44.463  25.484  27.002  1.00  0.00     0.031 C 
ATOM     58  C   UNL A   1      45.224  28.884  28.012  1.00  0.00     0.029 A 
ATOM     59  C   UNL A   1      45.228  28.400  29.327  1.00  0.00     0.049 A 
ATOM     60  H   UNL A   1      45.603  29.538  31.066  1.00  0.00     0.167 HD
ATOM     61  C   UNL A   1      44.984  26.043  29.144  1.00  0.00     0.074 A 
ATOM     62  C   UNL A   1      45.411  26.024  27.760  1.00  0.00     0.031 C 
ATOM     63  C   UNL A   1      44.966  27.127  29.962  1.00  0.00     0.037 A 
BRANCH  50  64
ATOM     64  C   UNL A   1      44.948  32.551  30.847  1.00  0.00     0.058 A 
ATOM     65  C   UNL A   1      45.859  33.457  30.236  1.00  0.00     0.135 A 
ATOM     66  C   UNL A   1      45.092  32.381  32.230  1.00  0.00     0.135 A 
ATOM     67  F   UNL A   1      45.762  33.747  28.927  1.00  0.00    -0.206 F 
ATOM     68  C   UNL A   1      46.933  34.024  30.914  1.00  0.00     0.059 A 
ATOM     69  C   UNL A   1      46.141  32.980  32.944  1.00  0.00     0.059 A 
ATOM     70  F   UNL A   1      44.270  31.572  32.910  1.00  0.00    -0.206 F 
ATOM     71  C   UNL A   1      47.089  33.748  32.265  1.00  0.00     0.060 A 
BRANCH  71  72
ATOM     72  S   UNL A   1      48.564  34.381  33.096  1.00  0.00     0.124 S 
ATOM     73  O   UNL A   1      49.202  35.148  32.031  1.00  0.00    -0.237 OA
ATOM     74  O   UNL A   1      47.992  35.172  34.183  1.00  0.00    -0.237 OA
ATOM     75  O   UNL A   1      49.263  33.171  33.514  1.00  0.00    -0.744 OA
ENDBRANCH  71  72
ENDBRANCH  50  64
BRANCH  51  76
ATOM     76  C   UNL A   1      42.390  23.022  26.860  1.00  0.00     0.058 A 
ATOM     77  C   UNL A   1      42.982  22.841  25.603  1.00  0.00     0.135 A 
ATOM     78  C   UNL A   1      41.943  21.806  27.460  1.00  0.00     0.135 A 
ATOM     79  F   UNL A   1      43.295  23.887  24.830  1.00  0.00    -0.206 F 
ATOM     80  C   UNL A   1      43.282  21.562  25.086  1.00  0.00     0.059 A 
ATOM     81  C   UNL A   1      42.279  20.535  27.003  1.00  0.00     0.059 A 
ATOM     82  F   UNL A   1      41.179  21.803  28.561  1.00  0.00    -0.206 F 
ATOM     83  C   UNL A   1      42.991  20.418  25.827  1.00  0.00     0.060 A 
BRANCH  83  84
ATOM     84  S   UNL A   1      43.640  18.800  25.346  1.00  0.00     0.124 S 
ATOM     85  O   UNL A   1      42.641  17.893  25.895  1.00  0.00    -0.237 OA
ATOM     86  O   UNL A   1      43.680  18.900  23.889  1.00  0.00    -0.237 OA
ATOM     87  O   UNL A   1      44.951  18.761  25.991  1.00  0.00    -0.744 OA
ENDBRANCH  83  84
ENDBRANCH  51  76
BRANCH  63  88
ATOM     88  C   UNL A   1      44.328  26.917  31.328  1.00  0.00     0.058 A 
ATOM     89  C   UNL A   1      44.891  26.016  32.244  1.00  0.00     0.135 A 
ATOM     90  C   UNL A   1      43.143  27.543  31.753  1.00  0.00     0.135 A 
ATOM     91  F   UNL A   1      46.024  25.368  31.930  1.00  0.00    -0.206 F 
ATOM     92  C   UNL A   1      44.326  25.771  33.502  1.00  0.00     0.059 A 
ATOM     93  C   UNL A   1      42.556  27.327  33.003  1.00  0.00     0.059 A 
ATOM     94  F   UNL A   1      42.509  28.394  30.952  1.00  0.00    -0.206 F 
ATOM     95  C   UNL A   1      43.162  26.440  33.880  1.00  0.00     0.060 A 
BRANCH  95  96
ATOM     96  S   UNL A   1      42.477  26.164  35.531  1.00  0.00     0.124 S 
ATOM     97  O   UNL A   1      42.888  24.793  35.816  1.00  0.00    -0.237 OA
ATOM     98  O   UNL A   1      43.144  27.200  36.312  1.00  0.00    -0.237 OA
ATOM     99  O   UNL A   1      41.040  26.353  35.345  1.00  0.00    -0.744 OA
ENDBRANCH  95  96
ENDBRANCH  63  88
ENDBRANCH  37  38
ENDBRANCH  29  32
ENDBRANCH  27  28
ENDBRANCH  26  27
ENDBRANCH  25  26
ENDBRANCH   1  25
TORSDOF 19
ENDMDL
MODEL 2
REMARK VINA RESULT:     -11.4      4.493      9.830
REMARK SMILES CC[NH2+][C@H](C)c1cccn1Cc1ccc(C(=O)NCCCCNC(=O)c2ccc(-c3c4nc(c(-c5c(F)cc(S(=O)(=O)[O-])cc5F)c5ccc([nH]5)c(-c5c(F)cc(S(=O)(=O)[O-])cc5F)c5nc(c(-c6c(F)cc(S(=O)(=O)[O-])cc6F)c6ccc3[nH]6)C=C5)C=C4)cc2)cc1
REMARK SMILES IDX 19 1 18 2 16 3 17 4 15 6 12 7 13 8 93 9 14 10 92 11 11 12
REMARK SMILES IDX 10 13 6 14 7 15 8 16 9 17 4 18 5 19 3 20 2 23 1 24 20 25
REMARK SMILES IDX 21 26 22 27 23 28 24 29 25 31 26 32 27 33 91 34 28 35 90 36
REMARK SMILES IDX 29 37 30 38 31 39 84 40 32 41 89 42 83 43 85 44 33 45 88 46
REMARK SMILES IDX 82 47 81 48 34 50 68 51 47 52 67 53 48 54 51 55 66 56 86 57
REMARK SMILES IDX 49 58 50 59 65 61 87 62 52 63 35 64 36 65 45 66 37 67 38 68
REMARK SMILES IDX 44 69 46 70 39 71 40 72 41 73 42 74 43 75 69 76 70 77 79 78
REMARK SMILES IDX 71 79 72 80 78 81 80 82 73 83 74 84 75 85 76 86 77 87 53 88
REMARK SMILES IDX 54 89 63 90 55 91 56 92 62 93 64 94 57 95 58 96 59 97 60 98
REMARK SMILES IDX 61 99
REMARK H PARENT 18 5 3 21 3 22 23 30 85 49 51 60
REMARK Flexibility Score: inf
ROOT
ATOM      1  C   UNL A   1      32.595  29.328  24.827  1.00  0.00     0.116 C 
ENDROOT
BRANCH   1   2
ATOM      2  N   UNL A   1      31.598  29.341  23.777  1.00  0.00    -0.352 N 
ATOM      3  C   UNL A   1      31.221  28.391  22.865  1.00  0.00     0.251 C 
ATOM      4  O   UNL A   1      30.387  28.716  22.018  1.00  0.00    -0.269 OA
ATOM      5  H   UNL A   1      31.102  30.187  23.706  1.00  0.00     0.163 HD
BRANCH   3   6
ATOM      6  C   UNL A   1      31.725  26.985  22.873  1.00  0.00     0.039 A 
ATOM      7  C   UNL A   1      32.839  24.373  22.629  1.00  0.00    -0.028 A 
ATOM      8  C   UNL A   1      33.596  25.517  22.370  1.00  0.00     0.006 A 
ATOM      9  C   UNL A   1      31.551  24.568  23.134  1.00  0.00     0.006 A 
ATOM     10  C   UNL A   1      33.051  26.801  22.472  1.00  0.00     0.014 A 
ATOM     11  C   UNL A   1      31.006  25.853  23.260  1.00  0.00     0.014 A 
BRANCH   7  12
ATOM     12  C   UNL A   1      33.393  22.981  22.371  1.00  0.00     0.157 C 
BRANCH  12  13
ATOM     13  N   UNL A   1      33.347  22.109  23.554  1.00  0.00    -0.342 N 
ATOM     14  C   UNL A   1      34.017  22.193  24.774  1.00  0.00     0.076 A 
ATOM     15  C   UNL A   1      33.547  21.126  25.543  1.00  0.00     0.029 A 
ATOM     16  C   UNL A   1      32.560  20.429  24.832  1.00  0.00     0.020 A 
ATOM     17  C   UNL A   1      32.420  21.078  23.637  1.00  0.00     0.086 A 
BRANCH  14  18
ATOM     18  C   UNL A   1      34.958  23.267  25.296  1.00  0.00     0.227 C 
ATOM     19  C   UNL A   1      34.201  24.457  25.918  1.00  0.00     0.082 C 
BRANCH  18  20
ATOM     20  N   UNL A   1      36.070  22.827  26.141  1.00  0.00    -0.339 N 
ATOM     21  H   UNL A   1      36.024  23.344  27.019  1.00  0.00     0.346 HD
ATOM     22  H   UNL A   1      35.961  21.820  26.256  1.00  0.00     0.346 HD
BRANCH  20  23
ATOM     23  C   UNL A   1      37.400  23.031  25.566  1.00  0.00     0.257 C 
ATOM     24  C   UNL A   1      38.127  24.078  26.405  1.00  0.00     0.071 C 
ENDBRANCH  20  23
ENDBRANCH  18  20
ENDBRANCH  14  18
ENDBRANCH  12  13
ENDBRANCH   7  12
ENDBRANCH   3   6
ENDBRANCH   1   2
BRANCH   1  25
ATOM     25  C   UNL A   1      31.944  29.653  26.174  1.00  0.00     0.023 C 
BRANCH  25  26
ATOM     26  C   UNL A   1      31.739  31.151  26.424  1.00  0.00     0.023 C 
BRANCH  26  27
ATOM     27  C   UNL A   1      32.851  31.788  27.251  1.00  0.00     0.116 C 
BRANCH  27  28
ATOM     28  N   UNL A   1      32.608  33.210  27.444  1.00  0.00    -0.352 N 
ATOM     29  C   UNL A   1      33.132  34.055  28.390  1.00  0.00     0.251 C 
ATOM     30  H   UNL A   1      31.981  33.623  26.807  1.00  0.00     0.163 HD
ATOM     31  O   UNL A   1      32.572  35.112  28.640  1.00  0.00    -0.269 OA
BRANCH  29  32
ATOM     32  C   UNL A   1      34.364  33.682  29.107  1.00  0.00     0.039 A 
ATOM     33  C   UNL A   1      34.257  32.845  30.223  1.00  0.00     0.014 A 
ATOM     34  C   UNL A   1      35.601  34.204  28.713  1.00  0.00     0.014 A 
ATOM     35  C   UNL A   1      35.406  32.481  30.912  1.00  0.00     0.010 A 
ATOM     36  C   UNL A   1      36.753  33.817  29.380  1.00  0.00     0.010 A 
ATOM     37  C   UNL A   1      36.651  32.953  30.475  1.00  0.00    -0.014 A 
BRANCH  37  38
ATOM     38  C   UNL A   1      37.877  32.432  31.113  1.00  0.00     0.031 A 
ATOM     39  C   UNL A   1      38.367  31.143  30.396  1.00  0.00     0.074 A 
ATOM     40  C   UNL A   1      38.328  33.150  32.191  1.00  0.00     0.049 A 
ATOM     41  N   UNL A   1      38.937  30.078  30.872  1.00  0.00    -0.248 NA
ATOM     42  C   UNL A   1      38.089  30.973  28.938  1.00  0.00     0.031 C 
ATOM     43  C   UNL A   1      37.700  34.393  32.706  1.00  0.00     0.029 A 
ATOM     44  N   UNL A   1      39.383  33.016  33.070  1.00  0.00    -0.354 N 
ATOM     45  C   UNL A   1      39.283  29.237  29.779  1.00  0.00     0.074 A 
ATOM     46  C   UNL A   1      38.606  29.777  28.639  1.00  0.00     0.031 C 
ATOM     47  C   UNL A   1      38.317  34.830  33.826  1.00  0.00     0.029 A 
ATOM     48  C   UNL A   1      39.412  33.942  34.155  1.00  0.00     0.049 A 
ATOM     49  H   UNL A   1      40.073  32.325  32.956  1.00  0.00     0.167 HD
ATOM     50  C   UNL A   1      40.229  28.248  29.858  1.00  0.00     0.037 A 
ATOM     51  C   UNL A   1      40.221  33.944  35.265  1.00  0.00     0.037 A 
ATOM     52  C   UNL A   1      40.820  28.277  31.155  1.00  0.00     0.049 A 
ATOM     53  C   UNL A   1      41.169  32.844  35.023  1.00  0.00     0.074 A 
ATOM     54  C   UNL A   1      40.351  27.924  32.392  1.00  0.00     0.029 A 
ATOM     55  N   UNL A   1      41.916  29.097  31.299  1.00  0.00    -0.354 N 
ATOM     56  N   UNL A   1      42.120  32.854  34.137  1.00  0.00    -0.248 NA
ATOM     57  C   UNL A   1      40.944  31.576  35.729  1.00  0.00     0.031 C 
ATOM     58  C   UNL A   1      40.832  28.968  33.210  1.00  0.00     0.029 A 
ATOM     59  C   UNL A   1      41.783  29.723  32.510  1.00  0.00     0.049 A 
ATOM     60  H   UNL A   1      42.652  29.212  30.655  1.00  0.00     0.167 HD
ATOM     61  C   UNL A   1      42.367  31.516  33.956  1.00  0.00     0.074 A 
ATOM     62  C   UNL A   1      41.873  30.835  35.135  1.00  0.00     0.031 C 
ATOM     63  C   UNL A   1      42.434  31.001  32.702  1.00  0.00     0.037 A 
BRANCH  50  64
ATOM     64  C   UNL A   1      40.941  27.378  28.849  1.00  0.00     0.058 A 
ATOM     65  C   UNL A   1      40.501  26.032  28.714  1.00  0.00     0.135 A 
ATOM     66  C   UNL A   1      42.203  27.663  28.311  1.00  0.00     0.135 A 
ATOM     67  F   UNL A   1      39.276  25.668  29.130  1.00  0.00    -0.206 F 
ATOM     68  C   UNL A   1      41.316  25.013  28.233  1.00  0.00     0.059 A 
ATOM     69  C   UNL A   1      43.025  26.659  27.780  1.00  0.00     0.059 A 
ATOM     70  F   UNL A   1      42.703  28.905  28.360  1.00  0.00    -0.206 F 
ATOM     71  C   UNL A   1      42.596  25.331  27.801  1.00  0.00     0.060 A 
BRANCH  71  72
ATOM     72  S   UNL A   1      43.686  23.976  27.310  1.00  0.00     0.124 S 
ATOM     73  O   UNL A   1      42.774  22.838  27.318  1.00  0.00    -0.237 OA
ATOM     74  O   UNL A   1      44.140  24.407  25.990  1.00  0.00    -0.237 OA
ATOM     75  O   UNL A   1      44.713  23.975  28.346  1.00  0.00    -0.744 OA
ENDBRANCH  71  72
ENDBRANCH  50  64
BRANCH  51  76
ATOM     76  C   UNL A   1      40.270  34.590  36.644  1.00  0.00     0.058 A 
ATOM     77  C   UNL A   1      41.272  35.436  37.139  1.00  0.00     0.135 A 
ATOM     78  C   UNL A   1      39.141  34.478  37.509  1.00  0.00     0.135 A 
ATOM     79  F   UNL A   1      42.466  35.517  36.541  1.00  0.00    -0.206 F 
ATOM     80  C   UNL A   1      41.082  36.246  38.280  1.00  0.00     0.059 A 
ATOM     81  C   UNL A   1      38.903  35.306  38.603  1.00  0.00     0.059 A 
ATOM     82  F   UNL A   1      38.181  33.565  37.300  1.00  0.00    -0.206 F 
ATOM     83  C   UNL A   1      39.867  36.225  38.962  1.00  0.00     0.060 A 
BRANCH  83  84
ATOM     84  S   UNL A   1      39.479  37.464  40.221  1.00  0.00     0.124 S 
ATOM     85  O   UNL A   1      40.788  38.045  40.492  1.00  0.00    -0.237 OA
ATOM     86  O   UNL A   1      38.528  38.328  39.526  1.00  0.00    -0.237 OA
ATOM     87  O   UNL A   1      38.904  36.671  41.306  1.00  0.00    -0.744 OA
ENDBRANCH  83  84
ENDBRANCH  51  76
BRANCH  63  88
ATOM     88  C   UNL A   1      42.850  31.972  31.606  1.00  0.00     0.058 A 
ATOM     89  C   UNL A   1      44.156  32.482  31.568  1.00  0.00     0.135 A 
ATOM     90  C   UNL A   1      41.986  32.459  30.610  1.00  0.00     0.135 A 
ATOM     91  F   UNL A   1      45.056  32.078  32.477  1.00  0.00    -0.206 F 
ATOM     92  C   UNL A   1      44.578  33.397  30.595  1.00  0.00     0.059 A 
ATOM     93  C   UNL A   1      42.375  33.367  29.621  1.00  0.00     0.059 A 
ATOM     94  F   UNL A   1      40.717  32.064  30.571  1.00  0.00    -0.206 F 
ATOM     95  C   UNL A   1      43.682  33.828  29.615  1.00  0.00     0.060 A 
BRANCH  95  96
ATOM     96  S   UNL A   1      44.255  34.959  28.326  1.00  0.00     0.124 S 
ATOM     97  O   UNL A   1      43.405  34.602  27.195  1.00  0.00    -0.237 OA
ATOM     98  O   UNL A   1      43.993  36.262  28.927  1.00  0.00    -0.237 OA
ATOM     99  O   UNL A   1      45.667  34.619  28.170  1.00  0.00    -0.744 OA
ENDBRANCH  95  96
ENDBRANCH  63  88
ENDBRANCH  37  38
ENDBRANCH  29  32
ENDBRANCH  27  28
ENDBRANCH  26  27
ENDBRANCH  25  26
ENDBRANCH   1  25
TORSDOF 19
ENDMDL
MODEL 3
REMARK VINA RESULT:     -11.2      3.858      7.727
REMARK SMILES CC[NH2+][C@H](C)c1cccn1Cc1ccc(C(=O)NCCCCNC(=O)c2ccc(-c3c4nc(c(-c5c(F)cc(S(=O)(=O)[O-])cc5F)c5ccc([nH]5)c(-c5c(F)cc(S(=O)(=O)[O-])cc5F)c5nc(c(-c6c(F)cc(S(=O)(=O)[O-])cc6F)c6ccc3[nH]6)C=C5)C=C4)cc2)cc1
REMARK SMILES IDX 19 1 18 2 16 3 17 4 15 6 12 7 13 8 93 9 14 10 92 11 11 12
REMARK SMILES IDX 10 13 6 14 7 15 8 16 9 17 4 18 5 19 3 20 2 23 1 24 20 25
REMARK SMILES IDX 21 26 22 27 23 28 24 29 25 31 26 32 27 33 91 34 28 35 90 36
REMARK SMILES IDX 29 37 30 38 31 39 84 40 32 41 89 42 83 43 85 44 33 45 88 46
REMARK SMILES IDX 82 47 81 48 34 50 68 51 47 52 67 53 48 54 51 55 66 56 86 57
REMARK SMILES IDX 49 58 50 59 65 61 87 62 52 63 35 64 36 65 45 66 37 67 38 68
REMARK SMILES IDX 44 69 46 70 39 71 40 72 41 73 42 74 43 75 69 76 70 77 79 78
REMARK SMILES IDX 71 79 72 80 78 81 80 82 73 83 74 84 75 85 76 86 77 87 53 88
REMARK SMILES IDX 54 89 63 90 55 91 56 92 62 93 64 94 57 95 58 96 59 97 60 98
REMARK SMILES IDX 61 99
REMARK H PARENT 18 5 3 21 3 22 23 30 85 49 51 60
REMARK Flexibility Score: inf
ROOT
ATOM      1  C   UNL A   1      35.417  20.755  24.767  1.00  0.00     0.116 C 
ENDROOT
BRANCH   1   2
ATOM      2  N   UNL A   1      34.959  20.930  26.130  1.00  0.00    -0.352 N 
ATOM      3  C   UNL A   1      34.428  22.012  26.782  1.00  0.00     0.251 C 
ATOM      4  O   UNL A   1      34.204  21.894  27.988  1.00  0.00    -0.269 OA
ATOM      5  H   UNL A   1      35.044  20.125  26.688  1.00  0.00     0.163 HD
BRANCH   3   6
ATOM      6  C   UNL A   1      34.066  23.294  26.106  1.00  0.00     0.039 A 
ATOM      7  C   UNL A   1      33.134  25.587  24.693  1.00  0.00    -0.028 A 
ATOM      8  C   UNL A   1      32.253  24.725  25.349  1.00  0.00     0.006 A 
ATOM      9  C   UNL A   1      34.500  25.347  24.866  1.00  0.00     0.006 A 
ATOM     10  C   UNL A   1      32.703  23.589  26.029  1.00  0.00     0.014 A 
ATOM     11  C   UNL A   1      34.957  24.222  25.566  1.00  0.00     0.014 A 
BRANCH   7  12
ATOM     12  C   UNL A   1      32.627  26.733  23.832  1.00  0.00     0.157 C 
BRANCH  12  13
ATOM     13  N   UNL A   1      32.323  27.948  24.601  1.00  0.00    -0.342 N 
ATOM     14  C   UNL A   1      31.416  28.978  24.354  1.00  0.00     0.076 A 
ATOM     15  C   UNL A   1      31.513  29.844  25.447  1.00  0.00     0.029 A 
ATOM     16  C   UNL A   1      32.422  29.325  26.380  1.00  0.00     0.020 A 
ATOM     17  C   UNL A   1      32.868  28.141  25.863  1.00  0.00     0.086 A 
BRANCH  14  18
ATOM     18  C   UNL A   1      30.394  29.129  23.239  1.00  0.00     0.227 C 
ATOM     19  C   UNL A   1      29.404  27.948  23.188  1.00  0.00     0.082 C 
BRANCH  18  20
ATOM     20  N   UNL A   1      29.709  30.419  23.131  1.00  0.00    -0.339 N 
ATOM     21  H   UNL A   1      29.786  30.894  24.030  1.00  0.00     0.346 HD
ATOM     22  H   UNL A   1      30.161  30.920  22.367  1.00  0.00     0.346 HD
BRANCH  20  23
ATOM     23  C   UNL A   1      28.291  30.337  22.783  1.00  0.00     0.257 C 
ATOM     24  C   UNL A   1      28.141  30.689  21.306  1.00  0.00     0.071 C 
ENDBRANCH  20  23
ENDBRANCH  18  20
ENDBRANCH  14  18
ENDBRANCH  12  13
ENDBRANCH   7  12
ENDBRANCH   3   6
ENDBRANCH   1   2
BRANCH   1  25
ATOM     25  C   UNL A   1      36.891  21.154  24.653  1.00  0.00     0.023 C 
BRANCH  25  26
ATOM     26  C   UNL A   1      37.873  20.019  24.960  1.00  0.00     0.023 C 
BRANCH  26  27
ATOM     27  C   UNL A   1      39.014  20.433  25.882  1.00  0.00     0.116 C 
BRANCH  27  28
ATOM     28  N   UNL A   1      40.032  19.396  25.951  1.00  0.00    -0.352 N 
ATOM     29  C   UNL A   1      41.397  19.526  26.000  1.00  0.00     0.251 C 
ATOM     30  H   UNL A   1      39.693  18.471  25.965  1.00  0.00     0.163 HD
ATOM     31  O   UNL A   1      42.111  18.581  25.699  1.00  0.00    -0.269 OA
BRANCH  29  32
ATOM     32  C   UNL A   1      41.997  20.809  26.407  1.00  0.00     0.039 A 
ATOM     33  C   UNL A   1      42.420  21.693  25.408  1.00  0.00     0.014 A 
ATOM     34  C   UNL A   1      42.195  21.104  27.761  1.00  0.00     0.014 A 
ATOM     35  C   UNL A   1      42.987  22.907  25.771  1.00  0.00     0.010 A 
ATOM     36  C   UNL A   1      42.733  22.327  28.126  1.00  0.00     0.010 A 
ATOM     37  C   UNL A   1      43.123  23.227  27.128  1.00  0.00    -0.014 A 
BRANCH  37  38
ATOM     38  C   UNL A   1      43.577  24.582  27.501  1.00  0.00     0.031 A 
ATOM     39  C   UNL A   1      42.364  25.514  27.772  1.00  0.00     0.074 A 
ATOM     40  C   UNL A   1      44.937  24.761  27.522  1.00  0.00     0.049 A 
ATOM     41  N   UNL A   1      42.205  26.782  27.538  1.00  0.00    -0.248 NA
ATOM     42  C   UNL A   1      41.096  24.923  28.296  1.00  0.00     0.031 C 
ATOM     43  C   UNL A   1      45.937  23.700  27.240  1.00  0.00     0.029 A 
ATOM     44  N   UNL A   1      45.768  25.830  27.782  1.00  0.00    -0.354 N 
ATOM     45  C   UNL A   1      40.949  27.175  28.075  1.00  0.00     0.074 A 
ATOM     46  C   UNL A   1      40.260  25.962  28.394  1.00  0.00     0.031 C 
ATOM     47  C   UNL A   1      47.195  24.192  27.257  1.00  0.00     0.029 A 
ATOM     48  C   UNL A   1      47.160  25.606  27.561  1.00  0.00     0.049 A 
ATOM     49  H   UNL A   1      45.423  26.695  28.100  1.00  0.00     0.167 HD
ATOM     50  C   UNL A   1      40.627  28.476  28.367  1.00  0.00     0.037 A 
ATOM     51  C   UNL A   1      48.190  26.515  27.562  1.00  0.00     0.037 A 
ATOM     52  C   UNL A   1      41.762  29.300  28.113  1.00  0.00     0.049 A 
ATOM     53  C   UNL A   1      47.560  27.775  27.989  1.00  0.00     0.074 A 
ATOM     54  C   UNL A   1      42.365  29.711  26.955  1.00  0.00     0.029 A 
ATOM     55  N   UNL A   1      42.636  29.462  29.165  1.00  0.00    -0.354 N 
ATOM     56  N   UNL A   1      47.126  28.030  29.188  1.00  0.00    -0.248 NA
ATOM     57  C   UNL A   1      47.259  28.776  26.957  1.00  0.00     0.031 C 
ATOM     58  C   UNL A   1      43.736  29.587  27.263  1.00  0.00     0.029 A 
ATOM     59  C   UNL A   1      43.900  29.393  28.641  1.00  0.00     0.049 A 
ATOM     60  H   UNL A   1      42.398  29.601  30.110  1.00  0.00     0.167 HD
ATOM     61  C   UNL A   1      46.228  29.044  28.966  1.00  0.00     0.074 A 
ATOM     62  C   UNL A   1      46.579  29.646  27.697  1.00  0.00     0.031 C 
ATOM     63  C   UNL A   1      44.984  28.980  29.506  1.00  0.00     0.037 A 
BRANCH  50  64
ATOM     64  C   UNL A   1      39.504  29.148  29.123  1.00  0.00     0.058 A 
ATOM     65  C   UNL A   1      38.618  29.977  28.382  1.00  0.00     0.135 A 
ATOM     66  C   UNL A   1      39.478  29.316  30.513  1.00  0.00     0.135 A 
ATOM     67  F   UNL A   1      38.512  29.847  27.048  1.00  0.00    -0.206 F 
ATOM     68  C   UNL A   1      37.885  31.008  28.960  1.00  0.00     0.059 A 
ATOM     69  C   UNL A   1      38.711  30.320  31.123  1.00  0.00     0.059 A 
ATOM     70  F   UNL A   1      40.253  28.567  31.308  1.00  0.00    -0.206 F 
ATOM     71  C   UNL A   1      37.967  31.197  30.332  1.00  0.00     0.060 A 
BRANCH  71  72
ATOM     72  S   UNL A   1      37.116  32.624  31.045  1.00  0.00     0.124 S 
ATOM     73  O   UNL A   1      37.076  33.544  29.915  1.00  0.00    -0.237 OA
ATOM     74  O   UNL A   1      35.829  32.053  31.436  1.00  0.00    -0.237 OA
ATOM     75  O   UNL A   1      37.981  33.014  32.153  1.00  0.00    -0.744 OA
ENDBRANCH  71  72
ENDBRANCH  50  64
BRANCH  51  76
ATOM     76  C   UNL A   1      49.636  26.606  27.091  1.00  0.00     0.058 A 
ATOM     77  C   UNL A   1      50.763  26.857  27.885  1.00  0.00     0.135 A 
ATOM     78  C   UNL A   1      49.954  26.267  25.741  1.00  0.00     0.135 A 
ATOM     79  F   UNL A   1      50.640  27.355  29.121  1.00  0.00    -0.206 F 
ATOM     80  C   UNL A   1      52.077  26.598  27.437  1.00  0.00     0.059 A 
ATOM     81  C   UNL A   1      51.232  25.948  25.292  1.00  0.00     0.059 A 
ATOM     82  F   UNL A   1      49.010  26.191  24.793  1.00  0.00    -0.206 F 
ATOM     83  C   UNL A   1      52.294  26.076  26.162  1.00  0.00     0.060 A 
BRANCH  83  84
ATOM     84  S   UNL A   1      53.916  25.442  25.676  1.00  0.00     0.124 S 
ATOM     85  O   UNL A   1      54.500  25.075  26.959  1.00  0.00    -0.237 OA
ATOM     86  O   UNL A   1      53.566  24.332  24.793  1.00  0.00    -0.237 OA
ATOM     87  O   UNL A   1      54.534  26.584  25.005  1.00  0.00    -0.744 OA
ENDBRANCH  83  84
ENDBRANCH  51  76
BRANCH  63  88
ATOM     88  C   UNL A   1      44.855  28.159  30.781  1.00  0.00     0.058 A 
ATOM     89  C   UNL A   1      45.448  28.601  31.973  1.00  0.00     0.135 A 
ATOM     90  C   UNL A   1      44.201  26.917  30.860  1.00  0.00     0.135 A 
ATOM     91  F   UNL A   1      46.096  29.776  31.999  1.00  0.00    -0.206 F 
ATOM     92  C   UNL A   1      45.377  27.868  33.165  1.00  0.00     0.059 A 
ATOM     93  C   UNL A   1      44.106  26.164  32.034  1.00  0.00     0.059 A 
ATOM     94  F   UNL A   1      43.629  26.390  29.782  1.00  0.00    -0.206 F 
ATOM     95  C   UNL A   1      44.694  26.652  33.190  1.00  0.00     0.060 A 
BRANCH  95  96
ATOM     96  S   UNL A   1      44.554  25.746  34.749  1.00  0.00     0.124 S 
ATOM     97  O   UNL A   1      45.364  24.559  34.495  1.00  0.00    -0.237 OA
ATOM     98  O   UNL A   1      45.110  26.698  35.704  1.00  0.00    -0.237 OA
ATOM     99  O   UNL A   1      43.120  25.500  34.878  1.00  0.00    -0.744 OA
ENDBRANCH  95  96
ENDBRANCH  63  88
ENDBRANCH  37  38
ENDBRANCH  29  32
ENDBRANCH  27  28
ENDBRANCH  26  27
ENDBRANCH  25  26
ENDBRANCH   1  25
TORSDOF 19
ENDMDL
