MODEL 1
REMARK VINA RESULT:     -10.7      0.000      0.000
REMARK SMILES CC(C)[C@](C)(CC(=O)NC#N)C(=O)NCCCCNC(=O)c1ccc(-c2c3nc(c(-c4c(F)cc(S(=O)(=O)[O-])cc4F)c4ccc([nH]4)c(-c4c(F)cc(S(=O)(=O)[O-])cc4F)c4nc(c(-c5c(F)cc(S(=O)(=O)[O-])cc5F)c5ccc2[nH]5)C=C4)C=C3)cc1
REMARK SMILES IDX 16 1 15 2 14 3 12 4 13 5 4 7 5 8 2 9 1 10 3 11 6 12 7 13
REMARK SMILES IDX 8 14 9 15 10 17 11 18 17 19 18 20 19 21 20 22 21 24 22 25
REMARK SMILES IDX 23 26 87 27 24 28 86 29 25 30 26 31 27 32 80 33 28 34 85 35
REMARK SMILES IDX 79 36 81 37 29 38 84 39 78 40 77 41 30 43 64 44 43 45 63 46
REMARK SMILES IDX 44 47 47 48 62 49 82 50 45 51 46 52 61 54 83 55 48 56 31 57
REMARK SMILES IDX 32 58 41 59 33 60 34 61 40 62 42 63 35 64 36 65 37 66 38 67
REMARK SMILES IDX 39 68 65 69 66 70 75 71 67 72 68 73 74 74 76 75 69 76 70 77
REMARK SMILES IDX 71 78 72 79 73 80 49 81 50 82 59 83 51 84 52 85 58 86 60 87
REMARK SMILES IDX 53 88 54 89 55 90 56 91 57 92
REMARK H PARENT 14 6 9 16 19 23 81 42 47 53
REMARK Flexibility Score: inf
ROOT
ATOM      1  C   UNL A   1      37.335  21.917  25.667  1.00  0.00     0.023 C 
ENDROOT
BRANCH   1   2
ATOM      2  C   UNL A   1      36.406  21.291  24.633  1.00  0.00     0.116 C 
BRANCH   2   3
ATOM      3  N   UNL A   1      35.295  20.590  25.239  1.00  0.00    -0.356 N 
ATOM      4  C   UNL A   1      33.989  20.923  25.400  1.00  0.00     0.226 C 
ATOM      5  O   UNL A   1      33.285  20.085  25.971  1.00  0.00    -0.274 OA
ATOM      6  H   UNL A   1      35.530  19.706  25.602  1.00  0.00     0.163 HD
BRANCH   4   7
ATOM      7  C   UNL A   1      33.395  22.277  24.914  1.00  0.00     0.057 C 
ATOM      8  C   UNL A   1      34.160  22.627  23.605  1.00  0.00     0.022 C 
BRANCH   7   9
ATOM      9  C   UNL A   1      33.634  23.410  26.017  1.00  0.00    -0.002 C 
ATOM     10  C   UNL A   1      34.300  22.928  27.320  1.00  0.00     0.008 C 
ATOM     11  C   UNL A   1      34.432  24.641  25.547  1.00  0.00     0.008 C 
ENDBRANCH   7   9
BRANCH   7  12
ATOM     12  C   UNL A   1      31.895  22.084  24.542  1.00  0.00     0.118 C 
BRANCH  12  13
ATOM     13  C   UNL A   1      31.090  23.365  24.366  1.00  0.00     0.234 C 
ATOM     14  O   UNL A   1      31.099  23.997  23.312  1.00  0.00    -0.274 OA
ATOM     15  N   UNL A   1      30.309  23.793  25.398  1.00  0.00    -0.263 N 
ATOM     16  H   UNL A   1      29.827  24.628  25.203  1.00  0.00     0.182 HD
BRANCH  15  17
ATOM     17  C   UNL A   1      30.063  23.311  26.623  1.00  0.00     0.183 C 
ATOM     18  N   UNL A   1      29.855  22.902  27.687  1.00  0.00    -0.172 NA
ENDBRANCH  15  17
ENDBRANCH  12  13
ENDBRANCH   7  12
ENDBRANCH   4   7
ENDBRANCH   2   3
ENDBRANCH   1   2
BRANCH   1  19
ATOM     19  C   UNL A   1      37.618  23.400  25.443  1.00  0.00     0.023 C 
BRANCH  19  20
ATOM     20  C   UNL A   1      38.474  24.058  26.520  1.00  0.00     0.116 C 
BRANCH  20  21
ATOM     21  N   UNL A   1      39.902  23.879  26.294  1.00  0.00    -0.352 N 
ATOM     22  C   UNL A   1      40.949  24.664  26.713  1.00  0.00     0.251 C 
ATOM     23  H   UNL A   1      40.151  23.085  25.767  1.00  0.00     0.163 HD
ATOM     24  O   UNL A   1      42.083  24.452  26.295  1.00  0.00    -0.269 OA
BRANCH  22  25
ATOM     25  C   UNL A   1      40.689  25.784  27.641  1.00  0.00     0.039 A 
ATOM     26  C   UNL A   1      39.724  25.625  28.638  1.00  0.00     0.014 A 
ATOM     27  C   UNL A   1      41.428  26.968  27.556  1.00  0.00     0.014 A 
ATOM     28  C   UNL A   1      39.559  26.624  29.599  1.00  0.00     0.010 A 
ATOM     29  C   UNL A   1      41.323  27.921  28.564  1.00  0.00     0.010 A 
ATOM     30  C   UNL A   1      40.392  27.757  29.601  1.00  0.00    -0.014 A 
BRANCH  30  31
ATOM     31  C   UNL A   1      40.323  28.756  30.699  1.00  0.00     0.031 A 
ATOM     32  C   UNL A   1      41.197  28.612  31.916  1.00  0.00     0.074 A 
ATOM     33  C   UNL A   1      39.429  29.764  30.622  1.00  0.00     0.049 A 
ATOM     34  N   UNL A   1      41.242  29.358  32.990  1.00  0.00    -0.248 NA
ATOM     35  C   UNL A   1      42.126  27.471  31.942  1.00  0.00     0.031 C 
ATOM     36  C   UNL A   1      38.493  29.980  29.515  1.00  0.00     0.029 A 
ATOM     37  N   UNL A   1      39.153  30.791  31.490  1.00  0.00    -0.354 N 
ATOM     38  C   UNL A   1      42.194  28.777  33.818  1.00  0.00     0.074 A 
ATOM     39  C   UNL A   1      42.666  27.586  33.147  1.00  0.00     0.031 C 
ATOM     40  C   UNL A   1      37.769  31.084  29.758  1.00  0.00     0.029 A 
ATOM     41  C   UNL A   1      38.148  31.626  31.057  1.00  0.00     0.049 A 
ATOM     42  H   UNL A   1      39.630  30.920  32.341  1.00  0.00     0.167 HD
ATOM     43  C   UNL A   1      42.648  29.210  35.018  1.00  0.00     0.037 A 
ATOM     44  C   UNL A   1      37.581  32.697  31.648  1.00  0.00     0.037 A 
ATOM     45  C   UNL A   1      42.181  30.406  35.672  1.00  0.00     0.049 A 
ATOM     46  C   UNL A   1      38.087  33.139  32.997  1.00  0.00     0.074 A 
ATOM     47  C   UNL A   1      42.620  30.959  36.862  1.00  0.00     0.029 A 
ATOM     48  N   UNL A   1      41.164  31.225  35.203  1.00  0.00    -0.354 N 
ATOM     49  N   UNL A   1      39.046  32.621  33.728  1.00  0.00    -0.248 NA
ATOM     50  C   UNL A   1      37.439  34.312  33.599  1.00  0.00     0.031 C 
ATOM     51  C   UNL A   1      41.824  32.072  37.148  1.00  0.00     0.029 A 
ATOM     52  C   UNL A   1      40.939  32.258  36.099  1.00  0.00     0.049 A 
ATOM     53  H   UNL A   1      40.676  31.093  34.359  1.00  0.00     0.167 HD
ATOM     54  C   UNL A   1      39.136  33.424  34.860  1.00  0.00     0.074 A 
ATOM     55  C   UNL A   1      38.150  34.473  34.706  1.00  0.00     0.031 C 
ATOM     56  C   UNL A   1      39.960  33.304  35.931  1.00  0.00     0.037 A 
BRANCH  43  57
ATOM     57  C   UNL A   1      43.705  28.395  35.713  1.00  0.00     0.058 A 
ATOM     58  C   UNL A   1      45.074  28.635  35.517  1.00  0.00     0.135 A 
ATOM     59  C   UNL A   1      43.343  27.413  36.652  1.00  0.00     0.135 A 
ATOM     60  F   UNL A   1      45.481  29.549  34.622  1.00  0.00    -0.206 F 
ATOM     61  C   UNL A   1      46.046  27.924  36.215  1.00  0.00     0.059 A 
ATOM     62  C   UNL A   1      44.297  26.713  37.385  1.00  0.00     0.059 A 
ATOM     63  F   UNL A   1      42.048  27.139  36.876  1.00  0.00    -0.206 F 
ATOM     64  C   UNL A   1      45.647  26.972  37.155  1.00  0.00     0.060 A 
BRANCH  64  65
ATOM     65  S   UNL A   1      46.921  26.092  38.081  1.00  0.00     0.124 S 
ATOM     66  O   UNL A   1      46.226  25.801  39.331  1.00  0.00    -0.237 OA
ATOM     67  O   UNL A   1      47.190  24.943  37.223  1.00  0.00    -0.237 OA
ATOM     68  O   UNL A   1      48.005  27.065  38.181  1.00  0.00    -0.744 OA
ENDBRANCH  64  65
ENDBRANCH  43  57
BRANCH  44  69
ATOM     69  C   UNL A   1      36.467  33.426  30.978  1.00  0.00     0.058 A 
ATOM     70  C   UNL A   1      35.152  33.347  31.460  1.00  0.00     0.135 A 
ATOM     71  C   UNL A   1      36.692  34.200  29.829  1.00  0.00     0.135 A 
ATOM     72  F   UNL A   1      34.880  32.616  32.552  1.00  0.00    -0.206 F 
ATOM     73  C   UNL A   1      34.096  33.976  30.809  1.00  0.00     0.059 A 
ATOM     74  C   UNL A   1      35.660  34.869  29.180  1.00  0.00     0.059 A 
ATOM     75  F   UNL A   1      37.933  34.326  29.333  1.00  0.00    -0.206 F 
ATOM     76  C   UNL A   1      34.360  34.736  29.668  1.00  0.00     0.060 A 
BRANCH  76  77
ATOM     77  S   UNL A   1      32.985  35.565  28.842  1.00  0.00     0.124 S 
ATOM     78  O   UNL A   1      32.188  36.012  29.978  1.00  0.00    -0.237 OA
ATOM     79  O   UNL A   1      33.668  36.610  28.087  1.00  0.00    -0.237 OA
ATOM     80  O   UNL A   1      32.391  34.503  28.034  1.00  0.00    -0.744 OA
ENDBRANCH  76  77
ENDBRANCH  44  69
BRANCH  56  81
ATOM     81  C   UNL A   1      39.864  34.356  37.005  1.00  0.00     0.058 A 
ATOM     82  C   UNL A   1      40.618  35.538  36.957  1.00  0.00     0.135 A 
ATOM     83  C   UNL A   1      38.964  34.197  38.072  1.00  0.00     0.135 A 
ATOM     84  F   UNL A   1      41.499  35.740  35.964  1.00  0.00    -0.206 F 
ATOM     85  C   UNL A   1      40.507  36.512  37.945  1.00  0.00     0.059 A 
ATOM     86  C   UNL A   1      38.808  35.175  39.049  1.00  0.00     0.059 A 
ATOM     87  F   UNL A   1      38.208  33.091  38.162  1.00  0.00    -0.206 F 
ATOM     88  C   UNL A   1      39.595  36.323  38.984  1.00  0.00     0.060 A 
BRANCH  88  89
ATOM     89  S   UNL A   1      39.437  37.610  40.240  1.00  0.00     0.124 S 
ATOM     90  O   UNL A   1      38.264  38.340  39.769  1.00  0.00    -0.237 OA
ATOM     91  O   UNL A   1      39.251  36.831  41.460  1.00  0.00    -0.237 OA
ATOM     92  O   UNL A   1      40.702  38.332  40.150  1.00  0.00    -0.744 OA
ENDBRANCH  88  89
ENDBRANCH  56  81
ENDBRANCH  30  31
ENDBRANCH  22  25
ENDBRANCH  20  21
ENDBRANCH  19  20
ENDBRANCH   1  19
TORSDOF 18
ENDMDL
MODEL 2
REMARK VINA RESULT:     -10.5      1.118      2.131
REMARK SMILES CC(C)[C@](C)(CC(=O)NC#N)C(=O)NCCCCNC(=O)c1ccc(-c2c3nc(c(-c4c(F)cc(S(=O)(=O)[O-])cc4F)c4ccc([nH]4)c(-c4c(F)cc(S(=O)(=O)[O-])cc4F)c4nc(c(-c5c(F)cc(S(=O)(=O)[O-])cc5F)c5ccc2[nH]5)C=C4)C=C3)cc1
REMARK SMILES IDX 16 1 15 2 14 3 12 4 13 5 4 7 5 8 2 9 1 10 3 11 6 12 7 13
REMARK SMILES IDX 8 14 9 15 10 17 11 18 17 19 18 20 19 21 20 22 21 24 22 25
REMARK SMILES IDX 23 26 87 27 24 28 86 29 25 30 26 31 27 32 80 33 28 34 85 35
REMARK SMILES IDX 79 36 81 37 29 38 84 39 78 40 77 41 30 43 64 44 43 45 63 46
REMARK SMILES IDX 44 47 47 48 62 49 82 50 45 51 46 52 61 54 83 55 48 56 31 57
REMARK SMILES IDX 32 58 41 59 33 60 34 61 40 62 42 63 35 64 36 65 37 66 38 67
REMARK SMILES IDX 39 68 65 69 66 70 75 71 67 72 68 73 74 74 76 75 69 76 70 77
REMARK SMILES IDX 71 78 72 79 73 80 49 81 50 82 59 83 51 84 52 85 58 86 60 87
REMARK SMILES IDX 53 88 54 89 55 90 56 91 57 92
REMARK H PARENT 14 6 9 16 19 23 81 42 47 53
REMARK Flexibility Score: inf
ROOT
ATOM      1  C   UNL A   1      37.759  22.178  25.840  1.00  0.00     0.023 C 
ENDROOT
BRANCH   1   2
ATOM      2  C   UNL A   1      36.490  21.444  25.423  1.00  0.00     0.116 C 
BRANCH   2   3
ATOM      3  N   UNL A   1      35.448  21.529  26.423  1.00  0.00    -0.356 N 
ATOM      4  C   UNL A   1      34.192  22.044  26.386  1.00  0.00     0.226 C 
ATOM      5  O   UNL A   1      33.542  21.954  27.432  1.00  0.00    -0.274 OA
ATOM      6  H   UNL A   1      35.696  21.139  27.292  1.00  0.00     0.163 HD
BRANCH   4   7
ATOM      7  C   UNL A   1      33.591  22.719  25.120  1.00  0.00     0.057 C 
ATOM      8  C   UNL A   1      32.234  23.330  25.573  1.00  0.00     0.022 C 
BRANCH   7   9
ATOM      9  C   UNL A   1      33.354  21.628  23.975  1.00  0.00    -0.002 C 
ATOM     10  C   UNL A   1      32.694  20.317  24.443  1.00  0.00     0.008 C 
ATOM     11  C   UNL A   1      32.554  22.109  22.750  1.00  0.00     0.008 C 
ENDBRANCH   7   9
BRANCH   7  12
ATOM     12  C   UNL A   1      34.507  23.896  24.672  1.00  0.00     0.118 C 
BRANCH  12  13
ATOM     13  C   UNL A   1      33.939  25.293  24.888  1.00  0.00     0.234 C 
ATOM     14  O   UNL A   1      33.893  25.808  26.003  1.00  0.00    -0.274 OA
ATOM     15  N   UNL A   1      33.509  25.997  23.804  1.00  0.00    -0.263 N 
ATOM     16  H   UNL A   1      33.155  26.887  24.032  1.00  0.00     0.182 HD
BRANCH  15  17
ATOM     17  C   UNL A   1      33.470  25.730  22.493  1.00  0.00     0.183 C 
ATOM     18  N   UNL A   1      33.436  25.508  21.356  1.00  0.00    -0.172 NA
ENDBRANCH  15  17
ENDBRANCH  12  13
ENDBRANCH   7  12
ENDBRANCH   4   7
ENDBRANCH   2   3
ENDBRANCH   1   2
BRANCH   1  19
ATOM     19  C   UNL A   1      37.555  23.655  26.168  1.00  0.00     0.023 C 
BRANCH  19  20
ATOM     20  C   UNL A   1      38.773  24.540  25.929  1.00  0.00     0.116 C 
BRANCH  20  21
ATOM     21  N   UNL A   1      40.027  23.874  26.255  1.00  0.00    -0.352 N 
ATOM     22  C   UNL A   1      41.020  24.275  27.117  1.00  0.00     0.251 C 
ATOM     23  H   UNL A   1      40.186  23.019  25.794  1.00  0.00     0.163 HD
ATOM     24  O   UNL A   1      42.087  23.670  27.150  1.00  0.00    -0.269 OA
BRANCH  22  25
ATOM     25  C   UNL A   1      40.802  25.460  27.973  1.00  0.00     0.039 A 
ATOM     26  C   UNL A   1      39.649  25.523  28.757  1.00  0.00     0.014 A 
ATOM     27  C   UNL A   1      41.756  26.480  28.035  1.00  0.00     0.014 A 
ATOM     28  C   UNL A   1      39.493  26.573  29.664  1.00  0.00     0.010 A 
ATOM     29  C   UNL A   1      41.639  27.476  28.999  1.00  0.00     0.010 A 
ATOM     30  C   UNL A   1      40.510  27.530  29.830  1.00  0.00    -0.014 A 
BRANCH  30  31
ATOM     31  C   UNL A   1      40.419  28.567  30.891  1.00  0.00     0.031 A 
ATOM     32  C   UNL A   1      41.280  28.475  32.123  1.00  0.00     0.074 A 
ATOM     33  C   UNL A   1      39.518  29.563  30.767  1.00  0.00     0.049 A 
ATOM     34  N   UNL A   1      41.306  29.259  33.169  1.00  0.00    -0.248 NA
ATOM     35  C   UNL A   1      42.219  27.343  32.200  1.00  0.00     0.031 C 
ATOM     36  C   UNL A   1      38.593  29.731  29.643  1.00  0.00     0.029 A 
ATOM     37  N   UNL A   1      39.223  30.618  31.594  1.00  0.00    -0.354 N 
ATOM     38  C   UNL A   1      42.254  28.716  34.028  1.00  0.00     0.074 A 
ATOM     39  C   UNL A   1      42.744  27.506  33.407  1.00  0.00     0.031 C 
ATOM     40  C   UNL A   1      37.857  30.837  29.837  1.00  0.00     0.029 A 
ATOM     41  C   UNL A   1      38.216  31.429  31.120  1.00  0.00     0.049 A 
ATOM     42  H   UNL A   1      39.689  30.782  32.446  1.00  0.00     0.167 HD
ATOM     43  C   UNL A   1      42.690  29.197  35.217  1.00  0.00     0.037 A 
ATOM     44  C   UNL A   1      37.633  32.515  31.666  1.00  0.00     0.037 A 
ATOM     45  C   UNL A   1      42.205  30.411  35.822  1.00  0.00     0.049 A 
ATOM     46  C   UNL A   1      38.119  33.009  33.003  1.00  0.00     0.074 A 
ATOM     47  C   UNL A   1      42.625  31.010  36.997  1.00  0.00     0.029 A 
ATOM     48  N   UNL A   1      41.187  31.204  35.313  1.00  0.00    -0.354 N 
ATOM     49  N   UNL A   1      39.074  32.527  33.764  1.00  0.00    -0.248 NA
ATOM     50  C   UNL A   1      37.455  34.197  33.555  1.00  0.00     0.031 C 
ATOM     51  C   UNL A   1      41.816  32.126  37.233  1.00  0.00     0.029 A 
ATOM     52  C   UNL A   1      40.942  32.266  36.168  1.00  0.00     0.049 A 
ATOM     53  H   UNL A   1      40.710  31.036  34.468  1.00  0.00     0.167 HD
ATOM     54  C   UNL A   1      39.144  33.371  34.867  1.00  0.00     0.074 A 
ATOM     55  C   UNL A   1      38.151  34.405  34.664  1.00  0.00     0.031 C 
ATOM     56  C   UNL A   1      39.956  33.297  35.951  1.00  0.00     0.037 A 
BRANCH  43  57
ATOM     57  C   UNL A   1      43.745  28.416  35.953  1.00  0.00     0.058 A 
ATOM     58  C   UNL A   1      45.110  28.723  35.837  1.00  0.00     0.135 A 
ATOM     59  C   UNL A   1      43.381  27.399  36.852  1.00  0.00     0.135 A 
ATOM     60  F   UNL A   1      45.521  29.674  34.982  1.00  0.00    -0.206 F 
ATOM     61  C   UNL A   1      46.076  28.044  36.573  1.00  0.00     0.059 A 
ATOM     62  C   UNL A   1      44.325  26.729  37.623  1.00  0.00     0.059 A 
ATOM     63  F   UNL A   1      42.090  27.061  37.001  1.00  0.00    -0.206 F 
ATOM     64  C   UNL A   1      45.672  27.054  37.472  1.00  0.00     0.060 A 
BRANCH  64  65
ATOM     65  S   UNL A   1      46.935  26.215  38.449  1.00  0.00     0.124 S 
ATOM     66  O   UNL A   1      46.119  25.416  39.358  1.00  0.00    -0.237 OA
ATOM     67  O   UNL A   1      47.668  25.468  37.433  1.00  0.00    -0.237 OA
ATOM     68  O   UNL A   1      47.671  27.311  39.071  1.00  0.00    -0.744 OA
ENDBRANCH  64  65
ENDBRANCH  43  57
BRANCH  44  69
ATOM     69  C   UNL A   1      36.521  33.209  30.957  1.00  0.00     0.058 A 
ATOM     70  C   UNL A   1      36.765  34.021  29.839  1.00  0.00     0.135 A 
ATOM     71  C   UNL A   1      35.193  33.094  31.399  1.00  0.00     0.135 A 
ATOM     72  F   UNL A   1      38.017  34.171  29.379  1.00  0.00    -0.206 F 
ATOM     73  C   UNL A   1      35.742  34.720  29.206  1.00  0.00     0.059 A 
ATOM     74  C   UNL A   1      34.148  33.752  30.761  1.00  0.00     0.059 A 
ATOM     75  F   UNL A   1      34.899  32.317  32.453  1.00  0.00    -0.206 F 
ATOM     76  C   UNL A   1      34.435  34.578  29.675  1.00  0.00     0.060 A 
BRANCH  76  77
ATOM     77  S   UNL A   1      33.112  35.474  28.834  1.00  0.00     0.124 S 
ATOM     78  O   UNL A   1      33.866  36.459  28.068  1.00  0.00    -0.237 OA
ATOM     79  O   UNL A   1      32.471  34.416  28.061  1.00  0.00    -0.237 OA
ATOM     80  O   UNL A   1      32.315  36.008  29.936  1.00  0.00    -0.744 OA
ENDBRANCH  76  77
ENDBRANCH  44  69
BRANCH  56  81
ATOM     81  C   UNL A   1      39.839  34.385  36.985  1.00  0.00     0.058 A 
ATOM     82  C   UNL A   1      38.994  34.265  38.099  1.00  0.00     0.135 A 
ATOM     83  C   UNL A   1      40.624  35.546  36.883  1.00  0.00     0.135 A 
ATOM     84  F   UNL A   1      38.215  33.181  38.244  1.00  0.00    -0.206 F 
ATOM     85  C   UNL A   1      38.907  35.269  39.058  1.00  0.00     0.059 A 
ATOM     86  C   UNL A   1      40.583  36.545  37.851  1.00  0.00     0.059 A 
ATOM     87  F   UNL A   1      41.460  35.709  35.844  1.00  0.00    -0.206 F 
ATOM     88  C   UNL A   1      39.711  36.403  38.928  1.00  0.00     0.060 A 
BRANCH  88  89
ATOM     89  S   UNL A   1      39.614  37.681  40.198  1.00  0.00     0.124 S 
ATOM     90  O   UNL A   1      40.741  38.537  39.844  1.00  0.00    -0.237 OA
ATOM     91  O   UNL A   1      38.289  38.249  39.965  1.00  0.00    -0.237 OA
ATOM     92  O   UNL A   1      39.759  36.937  41.445  1.00  0.00    -0.744 OA
ENDBRANCH  88  89
ENDBRANCH  56  81
ENDBRANCH  30  31
ENDBRANCH  22  25
ENDBRANCH  20  21
ENDBRANCH  19  20
ENDBRANCH   1  19
TORSDOF 18
ENDMDL
MODEL 3
REMARK VINA RESULT:     -10.5      5.456     11.737
REMARK SMILES CC(C)[C@](C)(CC(=O)NC#N)C(=O)NCCCCNC(=O)c1ccc(-c2c3nc(c(-c4c(F)cc(S(=O)(=O)[O-])cc4F)c4ccc([nH]4)c(-c4c(F)cc(S(=O)(=O)[O-])cc4F)c4nc(c(-c5c(F)cc(S(=O)(=O)[O-])cc5F)c5ccc2[nH]5)C=C4)C=C3)cc1
REMARK SMILES IDX 16 1 15 2 14 3 12 4 13 5 4 7 5 8 2 9 1 10 3 11 6 12 7 13
REMARK SMILES IDX 8 14 9 15 10 17 11 18 17 19 18 20 19 21 20 22 21 24 22 25
REMARK SMILES IDX 23 26 87 27 24 28 86 29 25 30 26 31 27 32 80 33 28 34 85 35
REMARK SMILES IDX 79 36 81 37 29 38 84 39 78 40 77 41 30 43 64 44 43 45 63 46
REMARK SMILES IDX 44 47 47 48 62 49 82 50 45 51 46 52 61 54 83 55 48 56 31 57
REMARK SMILES IDX 32 58 41 59 33 60 34 61 40 62 42 63 35 64 36 65 37 66 38 67
REMARK SMILES IDX 39 68 65 69 66 70 75 71 67 72 68 73 74 74 76 75 69 76 70 77
REMARK SMILES IDX 71 78 72 79 73 80 49 81 50 82 59 83 51 84 52 85 58 86 60 87
REMARK SMILES IDX 53 88 54 89 55 90 56 91 57 92
REMARK H PARENT 14 6 9 16 19 23 81 42 47 53
REMARK Flexibility Score: inf
ROOT
ATOM      1  C   UNL A   1      35.976  32.786  31.998  1.00  0.00     0.023 C 
ENDROOT
BRANCH   1   2
ATOM      2  C   UNL A   1      37.333  32.539  31.348  1.00  0.00     0.116 C 
BRANCH   2   3
ATOM      3  N   UNL A   1      38.371  33.382  31.897  1.00  0.00    -0.356 N 
ATOM      4  C   UNL A   1      39.161  33.255  32.995  1.00  0.00     0.226 C 
ATOM      5  O   UNL A   1      39.967  34.170  33.188  1.00  0.00    -0.274 OA
ATOM      6  H   UNL A   1      38.538  34.201  31.377  1.00  0.00     0.163 HD
BRANCH   4   7
ATOM      7  C   UNL A   1      39.066  32.047  33.970  1.00  0.00     0.057 C 
ATOM      8  C   UNL A   1      40.223  32.239  34.992  1.00  0.00     0.022 C 
BRANCH   7   9
ATOM      9  C   UNL A   1      39.255  30.677  33.167  1.00  0.00    -0.002 C 
ATOM     10  C   UNL A   1      40.557  29.912  33.471  1.00  0.00     0.008 C 
ATOM     11  C   UNL A   1      38.108  29.659  33.305  1.00  0.00     0.008 C 
ENDBRANCH   7   9
BRANCH   7  12
ATOM     12  C   UNL A   1      37.726  32.119  34.761  1.00  0.00     0.118 C 
BRANCH  12  13
ATOM     13  C   UNL A   1      37.428  33.455  35.431  1.00  0.00     0.234 C 
ATOM     14  O   UNL A   1      37.164  34.462  34.778  1.00  0.00    -0.274 OA
ATOM     15  N   UNL A   1      37.416  33.514  36.792  1.00  0.00    -0.263 N 
ATOM     16  H   UNL A   1      37.219  34.412  37.142  1.00  0.00     0.182 HD
BRANCH  15  17
ATOM     17  C   UNL A   1      37.618  32.602  37.752  1.00  0.00     0.183 C 
ATOM     18  N   UNL A   1      37.797  31.808  38.576  1.00  0.00    -0.172 NA
ENDBRANCH  15  17
ENDBRANCH  12  13
ENDBRANCH   7  12
ENDBRANCH   4   7
ENDBRANCH   2   3
ENDBRANCH   1   2
BRANCH   1  19
ATOM     19  C   UNL A   1      34.786  32.614  31.058  1.00  0.00     0.023 C 
BRANCH  19  20
ATOM     20  C   UNL A   1      35.143  32.550  29.577  1.00  0.00     0.116 C 
BRANCH  20  21
ATOM     21  N   UNL A   1      34.290  31.636  28.829  1.00  0.00    -0.352 N 
ATOM     22  C   UNL A   1      34.631  30.476  28.176  1.00  0.00     0.251 C 
ATOM     23  H   UNL A   1      33.339  31.884  28.786  1.00  0.00     0.163 HD
ATOM     24  O   UNL A   1      33.811  29.911  27.457  1.00  0.00    -0.269 OA
BRANCH  22  25
ATOM     25  C   UNL A   1      35.999  29.937  28.319  1.00  0.00     0.039 A 
ATOM     26  C   UNL A   1      36.896  30.083  27.259  1.00  0.00     0.014 A 
ATOM     27  C   UNL A   1      36.407  29.333  29.512  1.00  0.00     0.014 A 
ATOM     28  C   UNL A   1      38.226  29.695  27.428  1.00  0.00     0.010 A 
ATOM     29  C   UNL A   1      37.750  29.028  29.707  1.00  0.00     0.010 A 
ATOM     30  C   UNL A   1      38.677  29.212  28.670  1.00  0.00    -0.014 A 
BRANCH  30  31
ATOM     31  C   UNL A   1      40.117  28.931  28.904  1.00  0.00     0.031 A 
ATOM     32  C   UNL A   1      40.699  27.588  28.550  1.00  0.00     0.074 A 
ATOM     33  C   UNL A   1      40.888  29.870  29.489  1.00  0.00     0.049 A 
ATOM     34  N   UNL A   1      41.918  27.148  28.723  1.00  0.00    -0.248 NA
ATOM     35  C   UNL A   1      39.789  26.603  27.943  1.00  0.00     0.031 C 
ATOM     36  C   UNL A   1      40.427  31.193  29.923  1.00  0.00     0.029 A 
ATOM     37  N   UNL A   1      42.219  29.861  29.827  1.00  0.00    -0.354 N 
ATOM     38  C   UNL A   1      41.922  25.840  28.254  1.00  0.00     0.074 A 
ATOM     39  C   UNL A   1      40.571  25.538  27.838  1.00  0.00     0.031 C 
ATOM     40  C   UNL A   1      41.461  31.874  30.442  1.00  0.00     0.029 A 
ATOM     41  C   UNL A   1      42.646  31.024  30.428  1.00  0.00     0.049 A 
ATOM     42  H   UNL A   1      42.813  29.095  29.656  1.00  0.00     0.167 HD
ATOM     43  C   UNL A   1      42.963  24.979  28.160  1.00  0.00     0.037 A 
ATOM     44  C   UNL A   1      43.851  31.362  30.929  1.00  0.00     0.037 A 
ATOM     45  C   UNL A   1      44.309  25.295  28.567  1.00  0.00     0.049 A 
ATOM     46  C   UNL A   1      44.983  30.372  30.837  1.00  0.00     0.074 A 
ATOM     47  C   UNL A   1      45.443  24.509  28.458  1.00  0.00     0.029 A 
ATOM     48  N   UNL A   1      44.702  26.481  29.168  1.00  0.00    -0.354 N 
ATOM     49  N   UNL A   1      44.985  29.167  30.316  1.00  0.00    -0.248 NA
ATOM     50  C   UNL A   1      46.277  30.787  31.395  1.00  0.00     0.031 C 
ATOM     51  C   UNL A   1      46.507  25.191  29.056  1.00  0.00     0.029 A 
ATOM     52  C   UNL A   1      46.054  26.433  29.468  1.00  0.00     0.049 A 
ATOM     53  H   UNL A   1      44.109  27.244  29.353  1.00  0.00     0.167 HD
ATOM     54  C   UNL A   1      46.286  28.695  30.456  1.00  0.00     0.074 A 
ATOM     55  C   UNL A   1      47.046  29.752  31.090  1.00  0.00     0.031 C 
ATOM     56  C   UNL A   1      46.804  27.495  30.092  1.00  0.00     0.037 A 
BRANCH  43  57
ATOM     57  C   UNL A   1      42.700  23.608  27.599  1.00  0.00     0.058 A 
ATOM     58  C   UNL A   1      42.800  23.339  26.224  1.00  0.00     0.135 A 
ATOM     59  C   UNL A   1      42.426  22.528  28.456  1.00  0.00     0.135 A 
ATOM     60  F   UNL A   1      43.045  24.332  25.355  1.00  0.00    -0.206 F 
ATOM     61  C   UNL A   1      42.625  22.054  25.719  1.00  0.00     0.059 A 
ATOM     62  C   UNL A   1      42.279  21.230  27.977  1.00  0.00     0.059 A 
ATOM     63  F   UNL A   1      42.314  22.729  29.779  1.00  0.00    -0.206 F 
ATOM     64  C   UNL A   1      42.374  21.004  26.605  1.00  0.00     0.060 A 
BRANCH  64  65
ATOM     65  S   UNL A   1      42.193  19.339  25.934  1.00  0.00     0.124 S 
ATOM     66  O   UNL A   1      43.038  19.408  24.746  1.00  0.00    -0.237 OA
ATOM     67  O   UNL A   1      42.697  18.510  27.024  1.00  0.00    -0.237 OA
ATOM     68  O   UNL A   1      40.760  19.228  25.675  1.00  0.00    -0.744 OA
ENDBRANCH  64  65
ENDBRANCH  43  57
BRANCH  44  69
ATOM     69  C   UNL A   1      44.055  32.692  31.570  1.00  0.00     0.058 A 
ATOM     70  C   UNL A   1      43.751  32.902  32.923  1.00  0.00     0.135 A 
ATOM     71  C   UNL A   1      44.536  33.787  30.835  1.00  0.00     0.135 A 
ATOM     72  F   UNL A   1      43.282  31.890  33.670  1.00  0.00    -0.206 F 
ATOM     73  C   UNL A   1      43.883  34.153  33.516  1.00  0.00     0.059 A 
ATOM     74  C   UNL A   1      44.712  35.039  31.413  1.00  0.00     0.059 A 
ATOM     75  F   UNL A   1      44.860  33.640  29.540  1.00  0.00    -0.206 F 
ATOM     76  C   UNL A   1      44.365  35.217  32.752  1.00  0.00     0.060 A 
BRANCH  76  77
ATOM     77  S   UNL A   1      44.550  36.833  33.536  1.00  0.00     0.124 S 
ATOM     78  O   UNL A   1      43.232  37.417  33.318  1.00  0.00    -0.237 OA
ATOM     79  O   UNL A   1      44.869  36.469  34.912  1.00  0.00    -0.237 OA
ATOM     80  O   UNL A   1      45.644  37.446  32.787  1.00  0.00    -0.744 OA
ENDBRANCH  76  77
ENDBRANCH  44  69
BRANCH  56  81
ATOM     81  C   UNL A   1      48.274  27.271  30.332  1.00  0.00     0.058 A 
ATOM     82  C   UNL A   1      48.752  26.650  31.496  1.00  0.00     0.135 A 
ATOM     83  C   UNL A   1      49.215  27.639  29.354  1.00  0.00     0.135 A 
ATOM     84  F   UNL A   1      47.899  26.284  32.467  1.00  0.00    -0.206 F 
ATOM     85  C   UNL A   1      50.111  26.431  31.698  1.00  0.00     0.059 A 
ATOM     86  C   UNL A   1      50.574  27.393  29.518  1.00  0.00     0.059 A 
ATOM     87  F   UNL A   1      48.813  28.226  28.215  1.00  0.00    -0.206 F 
ATOM     88  C   UNL A   1      51.014  26.801  30.700  1.00  0.00     0.060 A 
BRANCH  88  89
ATOM     89  S   UNL A   1      52.770  26.478  30.961  1.00  0.00     0.124 S 
ATOM     90  O   UNL A   1      52.732  25.248  31.744  1.00  0.00    -0.237 OA
ATOM     91  O   UNL A   1      53.267  26.344  29.594  1.00  0.00    -0.237 OA
ATOM     92  O   UNL A   1      53.233  27.663  31.676  1.00  0.00    -0.744 OA
ENDBRANCH  88  89
ENDBRANCH  56  81
ENDBRANCH  30  31
ENDBRANCH  22  25
ENDBRANCH  20  21
ENDBRANCH  19  20
ENDBRANCH   1  19
TORSDOF 18
ENDMDL
