MODEL 1
REMARK VINA RESULT:     -10.6      0.000      0.000
REMARK SMILES C=C(C)CN(CC)c1ccc(F)cc1C(=O)NCCCCNC(=O)c1ccc(-c2c3nc(c(-c4c(F)cc(S(=O)(=O)[O-])cc4F)c4ccc([nH]4)c(-c4c(F)cc(S(=O)(=O)[O-])cc4F)c4nc(c(-c5c(F)cc(S(=O)(=O)[O-])cc5F)c5ccc2[nH]5)C=C4)C=C3)cc1
REMARK SMILES IDX 19 1 18 2 17 3 15 4 16 5 14 7 8 8 9 9 10 10 13 11 11 12
REMARK SMILES IDX 12 13 5 14 4 15 2 16 1 17 3 18 6 19 7 20 20 21 21 22 22 23
REMARK SMILES IDX 23 24 24 26 25 27 26 28 90 29 27 30 89 31 28 32 29 33 30 34
REMARK SMILES IDX 83 35 31 36 88 37 82 38 84 39 32 40 87 41 81 42 80 43 33 45
REMARK SMILES IDX 67 46 46 47 66 48 47 49 50 50 65 51 85 52 48 53 49 54 64 56
REMARK SMILES IDX 86 57 51 58 34 59 35 60 44 61 36 62 37 63 43 64 45 65 38 66
REMARK SMILES IDX 39 67 40 68 41 69 42 70 68 71 69 72 78 73 70 74 71 75 77 76
REMARK SMILES IDX 79 77 72 78 73 79 74 80 75 81 76 82 52 83 53 84 62 85 54 86
REMARK SMILES IDX 55 87 61 88 63 89 56 90 57 91 58 92 59 93 60 94
REMARK H PARENT 17 6 22 25 84 44 50 55
REMARK Flexibility Score: inf
ROOT
ATOM      1  C   UNL A   1      32.152  27.246  26.695  1.00  0.00     0.023 C 
ENDROOT
BRANCH   1   2
ATOM      2  C   UNL A   1      31.995  25.906  25.991  1.00  0.00     0.116 C 
BRANCH   2   3
ATOM      3  N   UNL A   1      31.751  24.763  26.824  1.00  0.00    -0.352 N 
ATOM      4  C   UNL A   1      32.492  23.608  26.926  1.00  0.00     0.253 C 
ATOM      5  O   UNL A   1      32.133  22.788  27.777  1.00  0.00    -0.269 OA
ATOM      6  H   UNL A   1      30.952  24.812  27.396  1.00  0.00     0.163 HD
BRANCH   4   7
ATOM      7  C   UNL A   1      33.637  23.233  26.030  1.00  0.00     0.066 A 
ATOM      8  C   UNL A   1      33.622  22.439  24.851  1.00  0.00     0.050 A 
ATOM      9  C   UNL A   1      34.819  22.369  24.097  1.00  0.00     0.030 A 
ATOM     10  C   UNL A   1      35.993  23.011  24.485  1.00  0.00     0.041 A 
ATOM     11  C   UNL A   1      34.836  23.892  26.397  1.00  0.00     0.055 A 
ATOM     12  C   UNL A   1      35.989  23.769  25.637  1.00  0.00     0.124 A 
ATOM     13  F   UNL A   1      37.105  24.411  26.007  1.00  0.00    -0.207 F 
BRANCH   8  14
ATOM     14  N   UNL A   1      32.507  21.778  24.340  1.00  0.00    -0.367 N 
BRANCH  14  15
ATOM     15  C   UNL A   1      32.209  20.404  24.796  1.00  0.00     0.146 C 
BRANCH  15  16
ATOM     16  C   UNL A   1      32.845  19.296  23.996  1.00  0.00    -0.061 C 
ATOM     17  C   UNL A   1      32.264  18.730  22.924  1.00  0.00     0.009 C 
ATOM     18  C   UNL A   1      34.146  18.777  24.552  1.00  0.00     0.041 C 
ENDBRANCH  15  16
ENDBRANCH  14  15
BRANCH  14  19
ATOM     19  C   UNL A   1      31.950  22.219  23.053  1.00  0.00     0.113 C 
ATOM     20  C   UNL A   1      31.477  23.666  23.054  1.00  0.00     0.027 C 
ENDBRANCH  14  19
ENDBRANCH   8  14
ENDBRANCH   4   7
ENDBRANCH   2   3
ENDBRANCH   1   2
BRANCH   1  21
ATOM     21  C   UNL A   1      33.578  27.798  26.787  1.00  0.00     0.023 C 
BRANCH  21  22
ATOM     22  C   UNL A   1      33.841  29.174  26.174  1.00  0.00     0.116 C 
BRANCH  22  23
ATOM     23  N   UNL A   1      33.715  30.286  27.106  1.00  0.00    -0.352 N 
ATOM     24  C   UNL A   1      34.588  30.771  28.057  1.00  0.00     0.251 C 
ATOM     25  H   UNL A   1      32.862  30.775  27.046  1.00  0.00     0.163 HD
ATOM     26  O   UNL A   1      34.238  31.706  28.769  1.00  0.00    -0.269 OA
BRANCH  24  27
ATOM     27  C   UNL A   1      35.917  30.146  28.264  1.00  0.00     0.039 A 
ATOM     28  C   UNL A   1      36.854  30.212  27.228  1.00  0.00     0.014 A 
ATOM     29  C   UNL A   1      36.255  29.504  29.457  1.00  0.00     0.014 A 
ATOM     30  C   UNL A   1      38.156  29.746  27.433  1.00  0.00     0.010 A 
ATOM     31  C   UNL A   1      37.576  29.114  29.690  1.00  0.00     0.010 A 
ATOM     32  C   UNL A   1      38.548  29.251  28.688  1.00  0.00    -0.014 A 
BRANCH  32  33
ATOM     33  C   UNL A   1      39.973  28.929  28.982  1.00  0.00     0.031 A 
ATOM     34  C   UNL A   1      40.890  29.961  29.583  1.00  0.00     0.074 A 
ATOM     35  C   UNL A   1      40.463  27.719  28.643  1.00  0.00     0.049 A 
ATOM     36  N   UNL A   1      42.171  29.875  29.838  1.00  0.00    -0.248 NA
ATOM     37  C   UNL A   1      40.297  31.264  29.922  1.00  0.00     0.031 C 
ATOM     38  C   UNL A   1      39.696  26.643  28.009  1.00  0.00     0.029 A 
ATOM     39  N   UNL A   1      41.723  27.187  28.776  1.00  0.00    -0.354 N 
ATOM     40  C   UNL A   1      42.539  31.110  30.359  1.00  0.00     0.074 A 
ATOM     41  C   UNL A   1      41.357  31.946  30.336  1.00  0.00     0.031 C 
ATOM     42  C   UNL A   1      40.489  25.573  27.840  1.00  0.00     0.029 A 
ATOM     43  C   UNL A   1      41.834  25.897  28.310  1.00  0.00     0.049 A 
ATOM     44  H   UNL A   1      42.478  27.684  29.167  1.00  0.00     0.167 HD
ATOM     45  C   UNL A   1      43.745  31.506  30.834  1.00  0.00     0.037 A 
ATOM     46  C   UNL A   1      42.893  25.065  28.258  1.00  0.00     0.037 A 
ATOM     47  C   UNL A   1      44.915  30.666  30.880  1.00  0.00     0.049 A 
ATOM     48  C   UNL A   1      44.224  25.530  28.782  1.00  0.00     0.074 A 
ATOM     49  C   UNL A   1      46.167  30.967  31.392  1.00  0.00     0.029 A 
ATOM     50  N   UNL A   1      44.982  29.367  30.402  1.00  0.00    -0.354 N 
ATOM     51  N   UNL A   1      44.539  26.688  29.313  1.00  0.00    -0.248 NA
ATOM     52  C   UNL A   1      45.342  24.580  28.701  1.00  0.00     0.031 C 
ATOM     53  C   UNL A   1      47.001  29.864  31.187  1.00  0.00     0.029 A 
ATOM     54  C   UNL A   1      46.258  28.859  30.590  1.00  0.00     0.049 A 
ATOM     55  H   UNL A   1      44.234  28.877  29.989  1.00  0.00     0.167 HD
ATOM     56  C   UNL A   1      45.886  26.597  29.649  1.00  0.00     0.074 A 
ATOM     57  C   UNL A   1      46.323  25.268  29.273  1.00  0.00     0.031 C 
ATOM     58  C   UNL A   1      46.684  27.533  30.216  1.00  0.00     0.037 A 
BRANCH  45  59
ATOM     59  C   UNL A   1      43.864  32.907  31.369  1.00  0.00     0.058 A 
ATOM     60  C   UNL A   1      43.614  33.182  32.723  1.00  0.00     0.135 A 
ATOM     61  C   UNL A   1      44.158  33.989  30.524  1.00  0.00     0.135 A 
ATOM     62  F   UNL A   1      43.332  32.185  33.575  1.00  0.00    -0.206 F 
ATOM     63  C   UNL A   1      43.637  34.482  33.217  1.00  0.00     0.059 A 
ATOM     64  C   UNL A   1      44.212  35.295  31.002  1.00  0.00     0.059 A 
ATOM     65  F   UNL A   1      44.425  33.779  29.225  1.00  0.00    -0.206 F 
ATOM     66  C   UNL A   1      43.935  35.533  32.348  1.00  0.00     0.060 A 
BRANCH  66  67
ATOM     67  S   UNL A   1      43.990  37.212  33.010  1.00  0.00     0.124 S 
ATOM     68  O   UNL A   1      43.907  38.017  31.797  1.00  0.00    -0.237 OA
ATOM     69  O   UNL A   1      42.815  37.238  33.876  1.00  0.00    -0.237 OA
ATOM     70  O   UNL A   1      45.273  37.256  33.708  1.00  0.00    -0.744 OA
ENDBRANCH  66  67
ENDBRANCH  45  59
BRANCH  46  71
ATOM     71  C   UNL A   1      42.725  23.690  27.715  1.00  0.00     0.058 A 
ATOM     72  C   UNL A   1      42.727  23.444  26.334  1.00  0.00     0.135 A 
ATOM     73  C   UNL A   1      42.525  22.599  28.574  1.00  0.00     0.135 A 
ATOM     74  F   UNL A   1      42.906  24.455  25.469  1.00  0.00    -0.206 F 
ATOM     75  C   UNL A   1      42.507  22.169  25.822  1.00  0.00     0.059 A 
ATOM     76  C   UNL A   1      42.327  21.311  28.087  1.00  0.00     0.059 A 
ATOM     77  F   UNL A   1      42.529  22.784  29.903  1.00  0.00    -0.206 F 
ATOM     78  C   UNL A   1      42.301  21.110  26.707  1.00  0.00     0.060 A 
BRANCH  78  79
ATOM     79  S   UNL A   1      41.997  19.468  26.023  1.00  0.00     0.124 S 
ATOM     80  O   UNL A   1      40.549  19.489  25.848  1.00  0.00    -0.237 OA
ATOM     81  O   UNL A   1      42.786  19.495  24.795  1.00  0.00    -0.237 OA
ATOM     82  O   UNL A   1      42.491  18.571  27.063  1.00  0.00    -0.744 OA
ENDBRANCH  78  79
ENDBRANCH  46  71
BRANCH  58  83
ATOM     83  C   UNL A   1      48.115  27.160  30.490  1.00  0.00     0.058 A 
ATOM     84  C   UNL A   1      48.481  26.598  31.723  1.00  0.00     0.135 A 
ATOM     85  C   UNL A   1      49.135  27.431  29.564  1.00  0.00     0.135 A 
ATOM     86  F   UNL A   1      47.544  26.322  32.646  1.00  0.00    -0.206 F 
ATOM     87  C   UNL A   1      49.810  26.336  32.039  1.00  0.00     0.059 A 
ATOM     88  C   UNL A   1      50.470  27.155  29.849  1.00  0.00     0.059 A 
ATOM     89  F   UNL A   1      48.837  27.957  28.366  1.00  0.00    -0.206 F 
ATOM     90  C   UNL A   1      50.799  26.623  31.096  1.00  0.00     0.060 A 
BRANCH  90  91
ATOM     91  S   UNL A   1      52.519  26.273  31.520  1.00  0.00     0.124 S 
ATOM     92  O   UNL A   1      52.815  27.338  32.470  1.00  0.00    -0.237 OA
ATOM     93  O   UNL A   1      52.432  24.928  32.080  1.00  0.00    -0.237 OA
ATOM     94  O   UNL A   1      53.209  26.366  30.237  1.00  0.00    -0.744 OA
ENDBRANCH  90  91
ENDBRANCH  58  83
ENDBRANCH  32  33
ENDBRANCH  24  27
ENDBRANCH  22  23
ENDBRANCH  21  22
ENDBRANCH   1  21
TORSDOF 18
ENDMDL
MODEL 2
REMARK VINA RESULT:     -10.4      3.024      4.416
REMARK SMILES C=C(C)CN(CC)c1ccc(F)cc1C(=O)NCCCCNC(=O)c1ccc(-c2c3nc(c(-c4c(F)cc(S(=O)(=O)[O-])cc4F)c4ccc([nH]4)c(-c4c(F)cc(S(=O)(=O)[O-])cc4F)c4nc(c(-c5c(F)cc(S(=O)(=O)[O-])cc5F)c5ccc2[nH]5)C=C4)C=C3)cc1
REMARK SMILES IDX 19 1 18 2 17 3 15 4 16 5 14 7 8 8 9 9 10 10 13 11 11 12
REMARK SMILES IDX 12 13 5 14 4 15 2 16 1 17 3 18 6 19 7 20 20 21 21 22 22 23
REMARK SMILES IDX 23 24 24 26 25 27 26 28 90 29 27 30 89 31 28 32 29 33 30 34
REMARK SMILES IDX 83 35 31 36 88 37 82 38 84 39 32 40 87 41 81 42 80 43 33 45
REMARK SMILES IDX 67 46 46 47 66 48 47 49 50 50 65 51 85 52 48 53 49 54 64 56
REMARK SMILES IDX 86 57 51 58 34 59 35 60 44 61 36 62 37 63 43 64 45 65 38 66
REMARK SMILES IDX 39 67 40 68 41 69 42 70 68 71 69 72 78 73 70 74 71 75 77 76
REMARK SMILES IDX 79 77 72 78 73 79 74 80 75 81 76 82 52 83 53 84 62 85 54 86
REMARK SMILES IDX 55 87 61 88 63 89 56 90 57 91 58 92 59 93 60 94
REMARK H PARENT 17 6 22 25 84 44 50 55
REMARK Flexibility Score: inf
ROOT
ATOM      1  C   UNL A   1      33.447  29.799  26.918  1.00  0.00     0.023 C 
ENDROOT
BRANCH   1   2
ATOM      2  C   UNL A   1      32.571  29.835  25.673  1.00  0.00     0.116 C 
BRANCH   2   3
ATOM      3  N   UNL A   1      33.190  29.450  24.437  1.00  0.00    -0.352 N 
ATOM      4  C   UNL A   1      32.585  29.031  23.274  1.00  0.00     0.253 C 
ATOM      5  O   UNL A   1      33.321  28.830  22.303  1.00  0.00    -0.269 OA
ATOM      6  H   UNL A   1      34.173  29.491  24.418  1.00  0.00     0.163 HD
BRANCH   4   7
ATOM      7  C   UNL A   1      31.124  28.718  23.123  1.00  0.00     0.066 A 
ATOM      8  C   UNL A   1      30.409  27.573  23.570  1.00  0.00     0.050 A 
ATOM      9  C   UNL A   1      28.998  27.596  23.442  1.00  0.00     0.030 A 
ATOM     10  C   UNL A   1      28.309  28.665  22.874  1.00  0.00     0.041 A 
ATOM     11  C   UNL A   1      30.403  29.802  22.566  1.00  0.00     0.055 A 
ATOM     12  C   UNL A   1      29.023  29.763  22.439  1.00  0.00     0.124 A 
ATOM     13  F   UNL A   1      28.370  30.808  21.914  1.00  0.00    -0.207 F 
BRANCH   8  14
ATOM     14  N   UNL A   1      30.976  26.459  24.184  1.00  0.00    -0.367 N 
BRANCH  14  15
ATOM     15  C   UNL A   1      31.319  25.278  23.365  1.00  0.00     0.146 C 
BRANCH  15  16
ATOM     16  C   UNL A   1      32.646  25.337  22.652  1.00  0.00    -0.061 C 
ATOM     17  C   UNL A   1      33.829  25.302  23.289  1.00  0.00     0.009 C 
ATOM     18  C   UNL A   1      32.559  25.552  21.163  1.00  0.00     0.041 C 
ENDBRANCH  15  16
ENDBRANCH  14  15
BRANCH  14  19
ATOM     19  C   UNL A   1      30.778  26.269  25.628  1.00  0.00     0.113 C 
ATOM     20  C   UNL A   1      32.075  26.137  26.413  1.00  0.00     0.027 C 
ENDBRANCH  14  19
ENDBRANCH   8  14
ENDBRANCH   4   7
ENDBRANCH   2   3
ENDBRANCH   1   2
BRANCH   1  21
ATOM     21  C   UNL A   1      33.825  31.156  27.517  1.00  0.00     0.023 C 
BRANCH  21  22
ATOM     22  C   UNL A   1      35.203  31.280  28.167  1.00  0.00     0.116 C 
BRANCH  22  23
ATOM     23  N   UNL A   1      35.181  31.401  29.618  1.00  0.00    -0.352 N 
ATOM     24  C   UNL A   1      36.095  31.006  30.572  1.00  0.00     0.251 C 
ATOM     25  H   UNL A   1      34.376  31.839  29.979  1.00  0.00     0.163 HD
ATOM     26  O   UNL A   1      35.832  31.173  31.758  1.00  0.00    -0.269 OA
BRANCH  24  27
ATOM     27  C   UNL A   1      37.361  30.337  30.186  1.00  0.00     0.039 A 
ATOM     28  C   UNL A   1      37.773  30.407  28.851  1.00  0.00     0.014 A 
ATOM     29  C   UNL A   1      38.148  29.650  31.112  1.00  0.00     0.014 A 
ATOM     30  C   UNL A   1      39.020  29.898  28.476  1.00  0.00     0.010 A 
ATOM     31  C   UNL A   1      39.427  29.217  30.757  1.00  0.00     0.010 A 
ATOM     32  C   UNL A   1      39.887  29.355  29.439  1.00  0.00    -0.014 A 
BRANCH  32  33
ATOM     33  C   UNL A   1      41.289  28.984  29.096  1.00  0.00     0.031 A 
ATOM     34  C   UNL A   1      42.395  30.004  29.156  1.00  0.00     0.074 A 
ATOM     35  C   UNL A   1      41.557  27.736  28.661  1.00  0.00     0.049 A 
ATOM     36  N   UNL A   1      43.655  29.873  28.825  1.00  0.00    -0.248 NA
ATOM     37  C   UNL A   1      42.037  31.350  29.630  1.00  0.00     0.031 C 
ATOM     38  C   UNL A   1      40.570  26.663  28.508  1.00  0.00     0.029 A 
ATOM     39  N   UNL A   1      42.736  27.154  28.260  1.00  0.00    -0.354 N 
ATOM     40  C   UNL A   1      44.237  31.116  29.042  1.00  0.00     0.074 A 
ATOM     41  C   UNL A   1      43.182  32.003  29.485  1.00  0.00     0.031 C 
ATOM     42  C   UNL A   1      41.188  25.550  28.081  1.00  0.00     0.029 A 
ATOM     43  C   UNL A   1      42.606  25.836  27.885  1.00  0.00     0.049 A 
ATOM     44  H   UNL A   1      43.595  27.636  28.243  1.00  0.00     0.167 HD
ATOM     45  C   UNL A   1      45.535  31.481  28.907  1.00  0.00     0.037 A 
ATOM     46  C   UNL A   1      43.519  24.955  27.429  1.00  0.00     0.037 A 
ATOM     47  C   UNL A   1      46.589  30.592  28.490  1.00  0.00     0.049 A 
ATOM     48  C   UNL A   1      44.951  25.386  27.278  1.00  0.00     0.074 A 
ATOM     49  C   UNL A   1      47.943  30.862  28.374  1.00  0.00     0.029 A 
ATOM     50  N   UNL A   1      46.415  29.267  28.124  1.00  0.00    -0.354 N 
ATOM     51  N   UNL A   1      45.489  26.555  27.532  1.00  0.00    -0.248 NA
ATOM     52  C   UNL A   1      45.901  24.382  26.779  1.00  0.00     0.031 C 
ATOM     53  C   UNL A   1      48.581  29.713  27.900  1.00  0.00     0.029 A 
ATOM     54  C   UNL A   1      47.633  28.711  27.764  1.00  0.00     0.049 A 
ATOM     55  H   UNL A   1      45.553  28.791  28.119  1.00  0.00     0.167 HD
ATOM     56  C   UNL A   1      46.843  26.421  27.245  1.00  0.00     0.074 A 
ATOM     57  C   UNL A   1      47.045  25.054  26.809  1.00  0.00     0.031 C 
ATOM     58  C   UNL A   1      47.826  27.348  27.335  1.00  0.00     0.037 A 
BRANCH  45  59
ATOM     59  C   UNL A   1      45.903  32.903  29.234  1.00  0.00     0.058 A 
ATOM     60  C   UNL A   1      46.259  33.269  30.543  1.00  0.00     0.135 A 
ATOM     61  C   UNL A   1      45.834  33.918  28.266  1.00  0.00     0.135 A 
ATOM     62  F   UNL A   1      46.344  32.338  31.506  1.00  0.00    -0.206 F 
ATOM     63  C   UNL A   1      46.521  34.592  30.882  1.00  0.00     0.059 A 
ATOM     64  C   UNL A   1      46.117  35.244  28.577  1.00  0.00     0.059 A 
ATOM     65  F   UNL A   1      45.517  33.618  26.997  1.00  0.00    -0.206 F 
ATOM     66  C   UNL A   1      46.445  35.574  29.892  1.00  0.00     0.060 A 
BRANCH  66  67
ATOM     67  S   UNL A   1      46.816  37.283  30.341  1.00  0.00     0.124 S 
ATOM     68  O   UNL A   1      46.199  37.389  31.658  1.00  0.00    -0.237 OA
ATOM     69  O   UNL A   1      48.276  37.295  30.317  1.00  0.00    -0.237 OA
ATOM     70  O   UNL A   1      46.175  38.056  29.281  1.00  0.00    -0.744 OA
ENDBRANCH  66  67
ENDBRANCH  45  59
BRANCH  46  71
ATOM     71  C   UNL A   1      43.104  23.562  27.114  1.00  0.00     0.058 A 
ATOM     72  C   UNL A   1      42.949  22.598  28.122  1.00  0.00     0.135 A 
ATOM     73  C   UNL A   1      42.888  23.160  25.787  1.00  0.00     0.135 A 
ATOM     74  F   UNL A   1      43.153  22.928  29.407  1.00  0.00    -0.206 F 
ATOM     75  C   UNL A   1      42.623  21.279  27.824  1.00  0.00     0.059 A 
ATOM     76  C   UNL A   1      42.536  21.853  25.466  1.00  0.00     0.059 A 
ATOM     77  F   UNL A   1      43.010  24.051  24.790  1.00  0.00    -0.206 F 
ATOM     78  C   UNL A   1      42.425  20.915  26.492  1.00  0.00     0.060 A 
BRANCH  78  79
ATOM     79  S   UNL A   1      42.022  19.194  26.124  1.00  0.00     0.124 S 
ATOM     80  O   UNL A   1      42.426  18.531  27.360  1.00  0.00    -0.237 OA
ATOM     81  O   UNL A   1      40.585  19.259  25.879  1.00  0.00    -0.237 OA
ATOM     82  O   UNL A   1      42.844  18.897  24.955  1.00  0.00    -0.744 OA
ENDBRANCH  78  79
ENDBRANCH  46  71
BRANCH  58  83
ATOM     83  C   UNL A   1      49.223  26.925  26.974  1.00  0.00     0.058 A 
ATOM     84  C   UNL A   1      49.695  27.071  25.659  1.00  0.00     0.135 A 
ATOM     85  C   UNL A   1      50.068  26.304  27.908  1.00  0.00     0.135 A 
ATOM     86  F   UNL A   1      48.925  27.654  24.725  1.00  0.00    -0.206 F 
ATOM     87  C   UNL A   1      50.945  26.597  25.277  1.00  0.00     0.059 A 
ATOM     88  C   UNL A   1      51.334  25.844  27.553  1.00  0.00     0.059 A 
ATOM     89  F   UNL A   1      49.670  26.152  29.181  1.00  0.00    -0.206 F 
ATOM     90  C   UNL A   1      51.756  25.980  26.230  1.00  0.00     0.060 A 
BRANCH  90  91
ATOM     91  S   UNL A   1      53.379  25.375  25.719  1.00  0.00     0.124 S 
ATOM     92  O   UNL A   1      53.639  26.183  24.533  1.00  0.00    -0.237 OA
ATOM     93  O   UNL A   1      54.202  25.676  26.886  1.00  0.00    -0.237 OA
ATOM     94  O   UNL A   1      53.149  23.955  25.473  1.00  0.00    -0.744 OA
ENDBRANCH  90  91
ENDBRANCH  58  83
ENDBRANCH  32  33
ENDBRANCH  24  27
ENDBRANCH  22  23
ENDBRANCH  21  22
ENDBRANCH   1  21
TORSDOF 18
ENDMDL
MODEL 3
REMARK VINA RESULT:     -10.3      4.832     10.261
REMARK SMILES C=C(C)CN(CC)c1ccc(F)cc1C(=O)NCCCCNC(=O)c1ccc(-c2c3nc(c(-c4c(F)cc(S(=O)(=O)[O-])cc4F)c4ccc([nH]4)c(-c4c(F)cc(S(=O)(=O)[O-])cc4F)c4nc(c(-c5c(F)cc(S(=O)(=O)[O-])cc5F)c5ccc2[nH]5)C=C4)C=C3)cc1
REMARK SMILES IDX 19 1 18 2 17 3 15 4 16 5 14 7 8 8 9 9 10 10 13 11 11 12
REMARK SMILES IDX 12 13 5 14 4 15 2 16 1 17 3 18 6 19 7 20 20 21 21 22 22 23
REMARK SMILES IDX 23 24 24 26 25 27 26 28 90 29 27 30 89 31 28 32 29 33 30 34
REMARK SMILES IDX 83 35 31 36 88 37 82 38 84 39 32 40 87 41 81 42 80 43 33 45
REMARK SMILES IDX 67 46 46 47 66 48 47 49 50 50 65 51 85 52 48 53 49 54 64 56
REMARK SMILES IDX 86 57 51 58 34 59 35 60 44 61 36 62 37 63 43 64 45 65 38 66
REMARK SMILES IDX 39 67 40 68 41 69 42 70 68 71 69 72 78 73 70 74 71 75 77 76
REMARK SMILES IDX 79 77 72 78 73 79 74 80 75 81 76 82 52 83 53 84 62 85 54 86
REMARK SMILES IDX 55 87 61 88 63 89 56 90 57 91 58 92 59 93 60 94
REMARK H PARENT 17 6 22 25 84 44 50 55
REMARK Flexibility Score: inf
ROOT
ATOM      1  C   UNL A   1      38.021  23.943  26.343  1.00  0.00     0.023 C 
ENDROOT
BRANCH   1   2
ATOM      2  C   UNL A   1      36.611  23.516  25.962  1.00  0.00     0.116 C 
BRANCH   2   3
ATOM      3  N   UNL A   1      36.290  23.523  24.564  1.00  0.00    -0.352 N 
ATOM      4  C   UNL A   1      35.145  23.983  23.953  1.00  0.00     0.253 C 
ATOM      5  O   UNL A   1      35.125  23.963  22.718  1.00  0.00    -0.269 OA
ATOM      6  H   UNL A   1      36.976  23.151  23.963  1.00  0.00     0.163 HD
BRANCH   4   7
ATOM      7  C   UNL A   1      33.900  24.421  24.668  1.00  0.00     0.066 A 
ATOM      8  C   UNL A   1      32.676  23.717  24.834  1.00  0.00     0.050 A 
ATOM      9  C   UNL A   1      31.707  24.291  25.694  1.00  0.00     0.030 A 
ATOM     10  C   UNL A   1      31.897  25.511  26.338  1.00  0.00     0.041 A 
ATOM     11  C   UNL A   1      34.081  25.651  25.346  1.00  0.00     0.055 A 
ATOM     12  C   UNL A   1      33.089  26.183  26.156  1.00  0.00     0.124 A 
ATOM     13  F   UNL A   1      33.294  27.345  26.789  1.00  0.00    -0.207 F 
BRANCH   8  14
ATOM     14  N   UNL A   1      32.378  22.477  24.275  1.00  0.00    -0.367 N 
BRANCH  14  15
ATOM     15  C   UNL A   1      32.380  21.276  25.135  1.00  0.00     0.146 C 
BRANCH  15  16
ATOM     16  C   UNL A   1      33.667  20.998  25.869  1.00  0.00    -0.061 C 
ATOM     17  C   UNL A   1      33.886  21.368  27.143  1.00  0.00     0.009 C 
ATOM     18  C   UNL A   1      34.751  20.366  25.036  1.00  0.00     0.041 C 
ENDBRANCH  15  16
ENDBRANCH  14  15
BRANCH  14  19
ATOM     19  C   UNL A   1      32.550  22.295  22.826  1.00  0.00     0.113 C 
ATOM     20  C   UNL A   1      31.911  21.023  22.287  1.00  0.00     0.027 C 
ENDBRANCH  14  19
ENDBRANCH   8  14
ENDBRANCH   4   7
ENDBRANCH   2   3
ENDBRANCH   1   2
BRANCH   1  21
ATOM     21  C   UNL A   1      39.022  22.814  26.603  1.00  0.00     0.023 C 
BRANCH  21  22
ATOM     22  C   UNL A   1      40.470  23.208  26.892  1.00  0.00     0.116 C 
BRANCH  22  23
ATOM     23  N   UNL A   1      41.061  24.109  25.912  1.00  0.00    -0.352 N 
ATOM     24  C   UNL A   1      41.500  25.411  26.031  1.00  0.00     0.251 C 
ATOM     25  H   UNL A   1      41.163  23.723  25.012  1.00  0.00     0.163 HD
ATOM     26  O   UNL A   1      41.924  25.992  25.038  1.00  0.00    -0.269 OA
BRANCH  24  27
ATOM     27  C   UNL A   1      41.419  26.130  27.326  1.00  0.00     0.039 A 
ATOM     28  C   UNL A   1      42.476  26.970  27.689  1.00  0.00     0.014 A 
ATOM     29  C   UNL A   1      40.324  25.993  28.181  1.00  0.00     0.014 A 
ATOM     30  C   UNL A   1      42.378  27.759  28.840  1.00  0.00     0.010 A 
ATOM     31  C   UNL A   1      40.189  26.840  29.283  1.00  0.00     0.010 A 
ATOM     32  C   UNL A   1      41.205  27.749  29.614  1.00  0.00    -0.014 A 
BRANCH  32  33
ATOM     33  C   UNL A   1      41.006  28.718  30.729  1.00  0.00     0.031 A 
ATOM     34  C   UNL A   1      41.849  28.647  31.974  1.00  0.00     0.074 A 
ATOM     35  C   UNL A   1      40.012  29.626  30.647  1.00  0.00     0.049 A 
ATOM     36  N   UNL A   1      41.766  29.363  33.066  1.00  0.00    -0.248 NA
ATOM     37  C   UNL A   1      42.911  27.628  32.003  1.00  0.00     0.031 C 
ATOM     38  C   UNL A   1      39.089  29.772  29.518  1.00  0.00     0.029 A 
ATOM     39  N   UNL A   1      39.605  30.597  31.530  1.00  0.00    -0.354 N 
ATOM     40  C   UNL A   1      42.754  28.878  33.915  1.00  0.00     0.074 A 
ATOM     41  C   UNL A   1      43.392  27.773  33.231  1.00  0.00     0.031 C 
ATOM     42  C   UNL A   1      38.249  30.791  29.762  1.00  0.00     0.029 A 
ATOM     43  C   UNL A   1      38.539  31.345  31.081  1.00  0.00     0.049 A 
ATOM     44  H   UNL A   1      40.034  30.745  32.404  1.00  0.00     0.167 HD
ATOM     45  C   UNL A   1      43.112  29.326  35.143  1.00  0.00     0.037 A 
ATOM     46  C   UNL A   1      37.865  32.357  31.662  1.00  0.00     0.037 A 
ATOM     47  C   UNL A   1      42.494  30.441  35.814  1.00  0.00     0.049 A 
ATOM     48  C   UNL A   1      38.275  32.830  33.029  1.00  0.00     0.074 A 
ATOM     49  C   UNL A   1      42.827  30.998  37.038  1.00  0.00     0.029 A 
ATOM     50  N   UNL A   1      41.423  31.171  35.322  1.00  0.00    -0.354 N 
ATOM     51  N   UNL A   1      39.243  32.387  33.796  1.00  0.00    -0.248 NA
ATOM     52  C   UNL A   1      37.505  33.938  33.611  1.00  0.00     0.031 C 
ATOM     53  C   UNL A   1      41.932  32.038  37.305  1.00  0.00     0.029 A 
ATOM     54  C   UNL A   1      41.070  32.161  36.227  1.00  0.00     0.049 A 
ATOM     55  H   UNL A   1      40.978  31.010  34.459  1.00  0.00     0.167 HD
ATOM     56  C   UNL A   1      39.211  33.176  34.941  1.00  0.00     0.074 A 
ATOM     57  C   UNL A   1      38.137  34.132  34.762  1.00  0.00     0.031 C 
ATOM     58  C   UNL A   1      40.002  33.111  36.039  1.00  0.00     0.037 A 
BRANCH  45  59
ATOM     59  C   UNL A   1      44.245  28.626  35.843  1.00  0.00     0.058 A 
ATOM     60  C   UNL A   1      45.578  28.996  35.598  1.00  0.00     0.135 A 
ATOM     61  C   UNL A   1      44.015  27.540  36.703  1.00  0.00     0.135 A 
ATOM     62  F   UNL A   1      45.855  30.029  34.788  1.00  0.00    -0.206 F 
ATOM     63  C   UNL A   1      46.641  28.306  36.171  1.00  0.00     0.059 A 
ATOM     64  C   UNL A   1      45.062  26.852  37.307  1.00  0.00     0.059 A 
ATOM     65  F   UNL A   1      42.759  27.158  36.985  1.00  0.00    -0.206 F 
ATOM     66  C   UNL A   1      46.373  27.233  37.023  1.00  0.00     0.060 A 
BRANCH  66  67
ATOM     67  S   UNL A   1      47.762  26.365  37.782  1.00  0.00     0.124 S 
ATOM     68  O   UNL A   1      48.136  27.277  38.857  1.00  0.00    -0.237 OA
ATOM     69  O   UNL A   1      47.148  25.107  38.196  1.00  0.00    -0.237 OA
ATOM     70  O   UNL A   1      48.726  26.251  36.690  1.00  0.00    -0.744 OA
ENDBRANCH  66  67
ENDBRANCH  45  59
BRANCH  46  71
ATOM     71  C   UNL A   1      36.748  33.013  30.931  1.00  0.00     0.058 A 
ATOM     72  C   UNL A   1      36.988  33.974  29.937  1.00  0.00     0.135 A 
ATOM     73  C   UNL A   1      35.413  32.714  31.242  1.00  0.00     0.135 A 
ATOM     74  F   UNL A   1      38.247  34.303  29.608  1.00  0.00    -0.206 F 
ATOM     75  C   UNL A   1      35.945  34.634  29.296  1.00  0.00     0.059 A 
ATOM     76  C   UNL A   1      34.352  33.343  30.598  1.00  0.00     0.059 A 
ATOM     77  F   UNL A   1      35.134  31.792  32.176  1.00  0.00    -0.206 F 
ATOM     78  C   UNL A   1      34.630  34.317  29.639  1.00  0.00     0.060 A 
BRANCH  78  79
ATOM     79  S   UNL A   1      33.291  35.200  28.811  1.00  0.00     0.124 S 
ATOM     80  O   UNL A   1      32.497  35.655  29.947  1.00  0.00    -0.237 OA
ATOM     81  O   UNL A   1      34.012  36.240  28.083  1.00  0.00    -0.237 OA
ATOM     82  O   UNL A   1      32.670  34.172  27.981  1.00  0.00    -0.744 OA
ENDBRANCH  78  79
ENDBRANCH  46  71
BRANCH  58  83
ATOM     83  C   UNL A   1      39.759  34.109  37.137  1.00  0.00     0.058 A 
ATOM     84  C   UNL A   1      40.483  35.311  37.181  1.00  0.00     0.135 A 
ATOM     85  C   UNL A   1      38.868  33.842  38.189  1.00  0.00     0.135 A 
ATOM     86  F   UNL A   1      41.352  35.613  36.202  1.00  0.00    -0.206 F 
ATOM     87  C   UNL A   1      40.349  36.204  38.238  1.00  0.00     0.059 A 
ATOM     88  C   UNL A   1      38.699  34.734  39.246  1.00  0.00     0.059 A 
ATOM     89  F   UNL A   1      38.142  32.713  38.189  1.00  0.00    -0.206 F 
ATOM     90  C   UNL A   1      39.458  35.904  39.270  1.00  0.00     0.060 A 
BRANCH  90  91
ATOM     91  S   UNL A   1      39.292  37.077  40.632  1.00  0.00     0.124 S 
ATOM     92  O   UNL A   1      40.642  37.620  40.726  1.00  0.00    -0.237 OA
ATOM     93  O   UNL A   1      38.273  37.993  40.130  1.00  0.00    -0.237 OA
ATOM     94  O   UNL A   1      38.873  36.239  41.752  1.00  0.00    -0.744 OA
ENDBRANCH  90  91
ENDBRANCH  58  83
ENDBRANCH  32  33
ENDBRANCH  24  27
ENDBRANCH  22  23
ENDBRANCH  21  22
ENDBRANCH   1  21
TORSDOF 18
ENDMDL
