MODEL 1
REMARK VINA RESULT:     -12.2      0.000      0.000
REMARK SMILES CC[C@@H](C)c1ccccc1NC(=O)[C@@H]1[C@@H](C(=O)NCCCCNC(=O)c2ccc(-c3c4nc(c(-c5c(F)cc(S(=O)(=O)[O-])cc5F)c5ccc([nH]5)c(-c5c(F)cc(S(=O)(=O)[O-])cc5F)c5nc(c(-c6c(F)cc(S(=O)(=O)[O-])cc6F)c6ccc3[nH]6)C=C5)C=C4)cc2)[C@@H]2C=C[C@H]1C2
REMARK SMILES IDX 20 1 19 2 18 3 16 4 17 5 15 7 14 8 95 9 92 10 94 11 96 12
REMARK SMILES IDX 93 13 12 14 11 15 13 17 10 18 5 19 6 20 7 21 9 22 8 23 3 24
REMARK SMILES IDX 4 25 2 26 1 27 21 28 22 29 23 30 24 31 25 33 26 34 27 35
REMARK SMILES IDX 91 36 28 37 90 38 29 39 30 40 31 41 84 42 32 43 89 44 83 45
REMARK SMILES IDX 85 46 33 47 88 48 82 49 81 50 34 52 68 53 47 54 67 55 48 56
REMARK SMILES IDX 51 57 66 58 86 59 49 60 50 61 65 63 87 64 52 65 35 66 36 67
REMARK SMILES IDX 45 68 37 69 38 70 44 71 46 72 39 73 40 74 41 75 42 76 43 77
REMARK SMILES IDX 69 78 70 79 79 80 71 81 72 82 78 83 80 84 73 85 74 86 75 87
REMARK SMILES IDX 76 88 77 89 53 90 54 91 63 92 55 93 56 94 62 95 64 96 57 97
REMARK SMILES IDX 58 98 59 99 60 100 61 101
REMARK H PARENT 18 6 11 16 23 32 85 51 51 62
REMARK Flexibility Score: inf
ROOT
ATOM      1  C   UNL A   1      32.899  26.792  25.337  1.00  0.00     0.023 C 
ENDROOT
BRANCH   1   2
ATOM      2  C   UNL A   1      33.709  25.500  25.245  1.00  0.00     0.116 C 
BRANCH   2   3
ATOM      3  N   UNL A   1      33.679  24.954  23.896  1.00  0.00    -0.356 N 
ATOM      4  C   UNL A   1      34.169  23.838  23.299  1.00  0.00     0.224 C 
ATOM      5  O   UNL A   1      33.921  23.744  22.090  1.00  0.00    -0.275 OA
ATOM      6  H   UNL A   1      33.184  25.529  23.269  1.00  0.00     0.163 HD
BRANCH   4   7
ATOM      7  C   UNL A   1      34.893  22.682  24.012  1.00  0.00     0.098 C 
ATOM      8  C   UNL A   1      34.849  22.621  25.558  1.00  0.00     0.099 C 
ATOM      9  C   UNL A   1      36.367  22.760  25.933  1.00  0.00     0.025 C 
ATOM     10  C   UNL A   1      36.419  22.833  23.714  1.00  0.00     0.025 C 
ATOM     11  C   UNL A   1      37.104  21.524  25.471  1.00  0.00    -0.027 C 
ATOM     12  C   UNL A   1      36.856  23.739  24.865  1.00  0.00     0.017 C 
ATOM     13  C   UNL A   1      37.118  21.557  24.132  1.00  0.00    -0.027 C 
BRANCH   8  14
ATOM     14  C   UNL A   1      34.261  21.429  26.328  1.00  0.00     0.228 C 
ATOM     15  N   UNL A   1      33.654  20.303  25.877  1.00  0.00    -0.326 N 
ATOM     16  H   UNL A   1      33.537  19.661  26.613  1.00  0.00     0.169 HD
ATOM     17  O   UNL A   1      34.342  21.473  27.571  1.00  0.00    -0.274 OA
BRANCH  15  18
ATOM     18  C   UNL A   1      33.141  19.769  24.681  1.00  0.00     0.044 A 
ATOM     19  C   UNL A   1      33.257  18.394  24.369  1.00  0.00    -0.022 A 
ATOM     20  C   UNL A   1      32.891  17.976  23.056  1.00  0.00     0.006 A 
ATOM     21  C   UNL A   1      32.344  18.844  22.119  1.00  0.00     0.000 A 
ATOM     22  C   UNL A   1      32.455  20.571  23.771  1.00  0.00     0.026 A 
ATOM     23  C   UNL A   1      32.080  20.142  22.498  1.00  0.00     0.002 A 
BRANCH  19  24
ATOM     24  C   UNL A   1      33.693  17.234  25.277  1.00  0.00     0.018 C 
ATOM     25  C   UNL A   1      34.848  16.337  24.821  1.00  0.00     0.013 C 
BRANCH  24  26
ATOM     26  C   UNL A   1      32.481  16.409  25.764  1.00  0.00     0.005 C 
ATOM     27  C   UNL A   1      32.587  14.934  25.392  1.00  0.00     0.004 C 
ENDBRANCH  24  26
ENDBRANCH  19  24
ENDBRANCH  15  18
ENDBRANCH   8  14
ENDBRANCH   4   7
ENDBRANCH   2   3
ENDBRANCH   1   2
BRANCH   1  28
ATOM     28  C   UNL A   1      33.739  28.007  25.734  1.00  0.00     0.023 C 
BRANCH  28  29
ATOM     29  C   UNL A   1      33.690  28.351  27.222  1.00  0.00     0.116 C 
BRANCH  29  30
ATOM     30  N   UNL A   1      33.610  29.781  27.480  1.00  0.00    -0.352 N 
ATOM     31  C   UNL A   1      34.597  30.603  27.971  1.00  0.00     0.251 C 
ATOM     32  H   UNL A   1      32.746  30.210  27.280  1.00  0.00     0.163 HD
ATOM     33  O   UNL A   1      34.362  31.777  28.236  1.00  0.00    -0.269 OA
BRANCH  31  34
ATOM     34  C   UNL A   1      35.935  30.029  28.216  1.00  0.00     0.039 A 
ATOM     35  C   UNL A   1      36.870  30.029  27.179  1.00  0.00     0.014 A 
ATOM     36  C   UNL A   1      36.281  29.568  29.490  1.00  0.00     0.014 A 
ATOM     37  C   UNL A   1      38.180  29.628  27.439  1.00  0.00     0.010 A 
ATOM     38  C   UNL A   1      37.602  29.230  29.760  1.00  0.00     0.010 A 
ATOM     39  C   UNL A   1      38.565  29.260  28.739  1.00  0.00    -0.014 A 
BRANCH  39  40
ATOM     40  C   UNL A   1      39.971  28.907  29.052  1.00  0.00     0.031 A 
ATOM     41  C   UNL A   1      40.865  29.912  29.720  1.00  0.00     0.074 A 
ATOM     42  C   UNL A   1      40.456  27.706  28.680  1.00  0.00     0.049 A 
ATOM     43  N   UNL A   1      42.135  29.817  30.022  1.00  0.00    -0.248 NA
ATOM     44  C   UNL A   1      40.259  31.206  30.070  1.00  0.00     0.031 C 
ATOM     45  C   UNL A   1      39.697  26.664  27.984  1.00  0.00     0.029 A 
ATOM     46  N   UNL A   1      41.705  27.161  28.830  1.00  0.00    -0.354 N 
ATOM     47  C   UNL A   1      42.480  31.039  30.585  1.00  0.00     0.074 A 
ATOM     48  C   UNL A   1      41.303  31.879  30.531  1.00  0.00     0.031 C 
ATOM     49  C   UNL A   1      40.488  25.595  27.796  1.00  0.00     0.029 A 
ATOM     50  C   UNL A   1      41.817  25.886  28.326  1.00  0.00     0.049 A 
ATOM     51  H   UNL A   1      42.454  27.637  29.258  1.00  0.00     0.167 HD
ATOM     52  C   UNL A   1      43.664  31.419  31.123  1.00  0.00     0.037 A 
ATOM     53  C   UNL A   1      42.871  25.048  28.299  1.00  0.00     0.037 A 
ATOM     54  C   UNL A   1      44.824  30.572  31.194  1.00  0.00     0.049 A 
ATOM     55  C   UNL A   1      44.176  25.491  28.901  1.00  0.00     0.074 A 
ATOM     56  C   UNL A   1      46.059  30.845  31.759  1.00  0.00     0.029 A 
ATOM     57  N   UNL A   1      44.894  29.283  30.685  1.00  0.00    -0.354 N 
ATOM     58  N   UNL A   1      44.473  26.632  29.474  1.00  0.00    -0.248 NA
ATOM     59  C   UNL A   1      45.287  24.531  28.856  1.00  0.00     0.031 C 
ATOM     60  C   UNL A   1      46.884  29.732  31.564  1.00  0.00     0.029 A 
ATOM     61  C   UNL A   1      46.152  28.752  30.912  1.00  0.00     0.049 A 
ATOM     62  H   UNL A   1      44.157  28.815  30.230  1.00  0.00     0.167 HD
ATOM     63  C   UNL A   1      45.796  26.519  29.883  1.00  0.00     0.074 A 
ATOM     64  C   UNL A   1      46.240  25.195  29.497  1.00  0.00     0.031 C 
ATOM     65  C   UNL A   1      46.573  27.428  30.523  1.00  0.00     0.037 A 
BRANCH  52  66
ATOM     66  C   UNL A   1      43.747  32.813  31.679  1.00  0.00     0.058 A 
ATOM     67  C   UNL A   1      43.335  33.105  32.990  1.00  0.00     0.135 A 
ATOM     68  C   UNL A   1      44.232  33.871  30.894  1.00  0.00     0.135 A 
ATOM     69  F   UNL A   1      42.847  32.134  33.778  1.00  0.00    -0.206 F 
ATOM     70  C   UNL A   1      43.358  34.403  33.488  1.00  0.00     0.059 A 
ATOM     71  C   UNL A   1      44.290  35.174  31.382  1.00  0.00     0.059 A 
ATOM     72  F   UNL A   1      44.640  33.648  29.635  1.00  0.00    -0.206 F 
ATOM     73  C   UNL A   1      43.829  35.433  32.672  1.00  0.00     0.060 A 
BRANCH  73  74
ATOM     74  S   UNL A   1      43.825  37.118  33.318  1.00  0.00     0.124 S 
ATOM     75  O   UNL A   1      43.682  37.898  32.092  1.00  0.00    -0.237 OA
ATOM     76  O   UNL A   1      42.666  37.114  34.205  1.00  0.00    -0.237 OA
ATOM     77  O   UNL A   1      45.119  37.229  33.985  1.00  0.00    -0.744 OA
ENDBRANCH  73  74
ENDBRANCH  52  66
BRANCH  53  78
ATOM     78  C   UNL A   1      42.719  23.688  27.719  1.00  0.00     0.058 A 
ATOM     79  C   UNL A   1      42.963  23.460  26.357  1.00  0.00     0.135 A 
ATOM     80  C   UNL A   1      42.356  22.589  28.513  1.00  0.00     0.135 A 
ATOM     81  F   UNL A   1      43.307  24.481  25.558  1.00  0.00    -0.206 F 
ATOM     82  C   UNL A   1      42.845  22.193  25.797  1.00  0.00     0.059 A 
ATOM     83  C   UNL A   1      42.251  21.307  27.979  1.00  0.00     0.059 A 
ATOM     84  F   UNL A   1      42.128  22.752  29.825  1.00  0.00    -0.206 F 
ATOM     85  C   UNL A   1      42.491  21.121  26.618  1.00  0.00     0.060 A 
BRANCH  85  86
ATOM     86  S   UNL A   1      42.400  19.468  25.893  1.00  0.00     0.124 S 
ATOM     87  O   UNL A   1      43.186  19.637  24.677  1.00  0.00    -0.237 OA
ATOM     88  O   UNL A   1      43.003  18.642  26.935  1.00  0.00    -0.237 OA
ATOM     89  O   UNL A   1      40.967  19.269  25.699  1.00  0.00    -0.744 OA
ENDBRANCH  85  86
ENDBRANCH  53  78
BRANCH  65  90
ATOM     90  C   UNL A   1      47.973  27.011  30.873  1.00  0.00     0.058 A 
ATOM     91  C   UNL A   1      48.275  26.404  32.102  1.00  0.00     0.135 A 
ATOM     92  C   UNL A   1      49.015  27.174  29.946  1.00  0.00     0.135 A 
ATOM     93  F   UNL A   1      47.315  26.233  33.025  1.00  0.00    -0.206 F 
ATOM     94  C   UNL A   1      49.567  25.989  32.407  1.00  0.00     0.059 A 
ATOM     95  C   UNL A   1      50.309  26.745  30.221  1.00  0.00     0.059 A 
ATOM     96  F   UNL A   1      48.775  27.739  28.752  1.00  0.00    -0.206 F 
ATOM     97  C   UNL A   1      50.578  26.163  31.460  1.00  0.00     0.060 A 
BRANCH  97  98
ATOM     98  S   UNL A   1      52.243  25.586  31.851  1.00  0.00     0.124 S 
ATOM     99  O   UNL A   1      52.968  25.939  30.635  1.00  0.00    -0.237 OA
ATOM    100  O   UNL A   1      52.576  26.368  33.037  1.00  0.00    -0.237 OA
ATOM    101  O   UNL A   1      52.061  24.156  32.081  1.00  0.00    -0.744 OA
ENDBRANCH  97  98
ENDBRANCH  65  90
ENDBRANCH  39  40
ENDBRANCH  31  34
ENDBRANCH  29  30
ENDBRANCH  28  29
ENDBRANCH   1  28
TORSDOF 18
ENDMDL
MODEL 2
REMARK VINA RESULT:     -12.2      0.756      2.159
REMARK SMILES CC[C@@H](C)c1ccccc1NC(=O)[C@@H]1[C@@H](C(=O)NCCCCNC(=O)c2ccc(-c3c4nc(c(-c5c(F)cc(S(=O)(=O)[O-])cc5F)c5ccc([nH]5)c(-c5c(F)cc(S(=O)(=O)[O-])cc5F)c5nc(c(-c6c(F)cc(S(=O)(=O)[O-])cc6F)c6ccc3[nH]6)C=C5)C=C4)cc2)[C@@H]2C=C[C@H]1C2
REMARK SMILES IDX 20 1 19 2 18 3 16 4 17 5 15 7 14 8 95 9 92 10 94 11 96 12
REMARK SMILES IDX 93 13 12 14 11 15 13 17 10 18 5 19 6 20 7 21 9 22 8 23 3 24
REMARK SMILES IDX 4 25 2 26 1 27 21 28 22 29 23 30 24 31 25 33 26 34 27 35
REMARK SMILES IDX 91 36 28 37 90 38 29 39 30 40 31 41 84 42 32 43 89 44 83 45
REMARK SMILES IDX 85 46 33 47 88 48 82 49 81 50 34 52 68 53 47 54 67 55 48 56
REMARK SMILES IDX 51 57 66 58 86 59 49 60 50 61 65 63 87 64 52 65 35 66 36 67
REMARK SMILES IDX 45 68 37 69 38 70 44 71 46 72 39 73 40 74 41 75 42 76 43 77
REMARK SMILES IDX 69 78 70 79 79 80 71 81 72 82 78 83 80 84 73 85 74 86 75 87
REMARK SMILES IDX 76 88 77 89 53 90 54 91 63 92 55 93 56 94 62 95 64 96 57 97
REMARK SMILES IDX 58 98 59 99 60 100 61 101
REMARK H PARENT 18 6 11 16 23 32 85 51 51 62
REMARK Flexibility Score: inf
ROOT
ATOM      1  C   UNL A   1      32.299  26.639  25.973  1.00  0.00     0.023 C 
ENDROOT
BRANCH   1   2
ATOM      2  C   UNL A   1      33.082  25.341  25.778  1.00  0.00     0.116 C 
BRANCH   2   3
ATOM      3  N   UNL A   1      33.665  25.272  24.446  1.00  0.00    -0.356 N 
ATOM      4  C   UNL A   1      34.533  24.439  23.818  1.00  0.00     0.224 C 
ATOM      5  O   UNL A   1      34.786  24.740  22.645  1.00  0.00    -0.275 OA
ATOM      6  H   UNL A   1      33.356  26.002  23.862  1.00  0.00     0.163 HD
BRANCH   4   7
ATOM      7  C   UNL A   1      35.118  23.142  24.406  1.00  0.00     0.098 C 
ATOM      8  C   UNL A   1      35.311  23.044  25.939  1.00  0.00     0.099 C 
ATOM      9  C   UNL A   1      36.866  22.871  26.061  1.00  0.00     0.025 C 
ATOM     10  C   UNL A   1      36.576  23.000  23.862  1.00  0.00     0.025 C 
ATOM     11  C   UNL A   1      37.260  21.530  25.487  1.00  0.00    -0.027 C 
ATOM     12  C   UNL A   1      37.362  23.768  24.926  1.00  0.00     0.017 C 
ATOM     13  C   UNL A   1      37.066  21.600  24.164  1.00  0.00    -0.027 C 
BRANCH   8  14
ATOM     14  C   UNL A   1      34.629  21.968  26.796  1.00  0.00     0.228 C 
ATOM     15  N   UNL A   1      34.018  20.812  26.436  1.00  0.00    -0.326 N 
ATOM     16  H   UNL A   1      33.827  20.266  27.232  1.00  0.00     0.169 HD
ATOM     17  O   UNL A   1      34.624  22.157  28.029  1.00  0.00    -0.274 OA
BRANCH  15  18
ATOM     18  C   UNL A   1      33.571  20.153  25.276  1.00  0.00     0.044 A 
ATOM     19  C   UNL A   1      32.527  20.675  24.478  1.00  0.00    -0.022 A 
ATOM     20  C   UNL A   1      32.004  19.848  23.442  1.00  0.00     0.006 A 
ATOM     21  C   UNL A   1      32.540  18.603  23.134  1.00  0.00     0.000 A 
ATOM     22  C   UNL A   1      34.173  18.974  24.843  1.00  0.00     0.026 A 
ATOM     23  C   UNL A   1      33.665  18.185  23.810  1.00  0.00     0.002 A 
BRANCH  19  24
ATOM     24  C   UNL A   1      31.876  22.065  24.533  1.00  0.00     0.018 C 
ATOM     25  C   UNL A   1      30.787  22.327  25.579  1.00  0.00     0.013 C 
BRANCH  24  26
ATOM     26  C   UNL A   1      31.453  22.549  23.128  1.00  0.00     0.005 C 
ATOM     27  C   UNL A   1      30.613  23.821  23.172  1.00  0.00     0.004 C 
ENDBRANCH  24  26
ENDBRANCH  19  24
ENDBRANCH  15  18
ENDBRANCH   8  14
ENDBRANCH   4   7
ENDBRANCH   2   3
ENDBRANCH   1   2
BRANCH   1  28
ATOM     28  C   UNL A   1      33.196  27.870  26.116  1.00  0.00     0.023 C 
BRANCH  28  29
ATOM     29  C   UNL A   1      33.370  28.361  27.552  1.00  0.00     0.116 C 
BRANCH  29  30
ATOM     30  N   UNL A   1      33.324  29.811  27.675  1.00  0.00    -0.352 N 
ATOM     31  C   UNL A   1      34.350  30.658  28.021  1.00  0.00     0.251 C 
ATOM     32  H   UNL A   1      32.455  30.235  27.487  1.00  0.00     0.163 HD
ATOM     33  O   UNL A   1      34.147  31.857  28.184  1.00  0.00    -0.269 OA
BRANCH  31  34
ATOM     34  C   UNL A   1      35.694  30.086  28.237  1.00  0.00     0.039 A 
ATOM     35  C   UNL A   1      36.598  30.064  27.173  1.00  0.00     0.014 A 
ATOM     36  C   UNL A   1      36.077  29.648  29.509  1.00  0.00     0.014 A 
ATOM     37  C   UNL A   1      37.914  29.665  27.401  1.00  0.00     0.010 A 
ATOM     38  C   UNL A   1      37.405  29.314  29.746  1.00  0.00     0.010 A 
ATOM     39  C   UNL A   1      38.337  29.322  28.696  1.00  0.00    -0.014 A 
BRANCH  39  40
ATOM     40  C   UNL A   1      39.751  28.971  28.975  1.00  0.00     0.031 A 
ATOM     41  C   UNL A   1      40.670  29.992  29.582  1.00  0.00     0.074 A 
ATOM     42  C   UNL A   1      40.219  27.757  28.624  1.00  0.00     0.049 A 
ATOM     43  N   UNL A   1      41.949  29.900  29.845  1.00  0.00    -0.248 NA
ATOM     44  C   UNL A   1      40.080  31.299  29.913  1.00  0.00     0.031 C 
ATOM     45  C   UNL A   1      39.434  26.698  27.984  1.00  0.00     0.029 A 
ATOM     46  N   UNL A   1      41.471  27.211  28.749  1.00  0.00    -0.354 N 
ATOM     47  C   UNL A   1      42.317  31.137  30.360  1.00  0.00     0.074 A 
ATOM     48  C   UNL A   1      41.141  31.980  30.319  1.00  0.00     0.031 C 
ATOM     49  C   UNL A   1      40.215  25.621  27.803  1.00  0.00     0.029 A 
ATOM     50  C   UNL A   1      41.561  25.921  28.281  1.00  0.00     0.049 A 
ATOM     51  H   UNL A   1      42.235  27.697  29.138  1.00  0.00     0.167 HD
ATOM     52  C   UNL A   1      43.519  31.527  30.848  1.00  0.00     0.037 A 
ATOM     53  C   UNL A   1      42.610  25.077  28.244  1.00  0.00     0.037 A 
ATOM     54  C   UNL A   1      44.678  30.677  30.907  1.00  0.00     0.049 A 
ATOM     55  C   UNL A   1      43.936  25.532  28.790  1.00  0.00     0.074 A 
ATOM     56  C   UNL A   1      45.931  30.961  31.422  1.00  0.00     0.029 A 
ATOM     57  N   UNL A   1      44.726  29.373  30.435  1.00  0.00    -0.354 N 
ATOM     58  N   UNL A   1      44.256  26.689  29.319  1.00  0.00    -0.248 NA
ATOM     59  C   UNL A   1      45.041  24.566  28.738  1.00  0.00     0.031 C 
ATOM     60  C   UNL A   1      46.745  29.839  31.235  1.00  0.00     0.029 A 
ATOM     61  C   UNL A   1      45.989  28.843  30.636  1.00  0.00     0.049 A 
ATOM     62  H   UNL A   1      43.973  28.895  30.019  1.00  0.00     0.167 HD
ATOM     63  C   UNL A   1      45.591  26.582  29.688  1.00  0.00     0.074 A 
ATOM     64  C   UNL A   1      46.017  25.245  29.328  1.00  0.00     0.031 C 
ATOM     65  C   UNL A   1      46.392  27.506  30.275  1.00  0.00     0.037 A 
BRANCH  52  66
ATOM     66  C   UNL A   1      43.626  32.937  31.359  1.00  0.00     0.058 A 
ATOM     67  C   UNL A   1      43.870  34.014  30.491  1.00  0.00     0.135 A 
ATOM     68  C   UNL A   1      43.494  33.216  32.728  1.00  0.00     0.135 A 
ATOM     69  F   UNL A   1      44.020  33.801  29.174  1.00  0.00    -0.206 F 
ATOM     70  C   UNL A   1      44.026  35.311  30.967  1.00  0.00     0.059 A 
ATOM     71  C   UNL A   1      43.619  34.511  33.224  1.00  0.00     0.059 A 
ATOM     72  F   UNL A   1      43.260  32.224  33.601  1.00  0.00    -0.206 F 
ATOM     73  C   UNL A   1      43.907  35.548  32.338  1.00  0.00     0.060 A 
BRANCH  73  74
ATOM     74  S   UNL A   1      44.141  37.231  32.947  1.00  0.00     0.124 S 
ATOM     75  O   UNL A   1      42.929  37.422  33.739  1.00  0.00    -0.237 OA
ATOM     76  O   UNL A   1      45.382  37.121  33.708  1.00  0.00    -0.237 OA
ATOM     77  O   UNL A   1      44.226  38.025  31.726  1.00  0.00    -0.744 OA
ENDBRANCH  73  74
ENDBRANCH  52  66
BRANCH  53  78
ATOM     78  C   UNL A   1      42.435  23.701  27.712  1.00  0.00     0.058 A 
ATOM     79  C   UNL A   1      42.417  23.467  26.329  1.00  0.00     0.135 A 
ATOM     80  C   UNL A   1      42.308  22.595  28.565  1.00  0.00     0.135 A 
ATOM     81  F   UNL A   1      42.529  24.495  25.474  1.00  0.00    -0.206 F 
ATOM     82  C   UNL A   1      42.272  22.186  25.808  1.00  0.00     0.059 A 
ATOM     83  C   UNL A   1      42.183  21.301  28.068  1.00  0.00     0.059 A 
ATOM     84  F   UNL A   1      42.336  22.764  29.896  1.00  0.00    -0.206 F 
ATOM     85  C   UNL A   1      42.159  21.108  26.687  1.00  0.00     0.060 A 
BRANCH  85  86
ATOM     86  S   UNL A   1      42.033  19.441  26.001  1.00  0.00     0.124 S 
ATOM     87  O   UNL A   1      42.503  18.627  27.115  1.00  0.00    -0.237 OA
ATOM     88  O   UNL A   1      40.610  19.343  25.693  1.00  0.00    -0.237 OA
ATOM     89  O   UNL A   1      42.915  19.492  24.837  1.00  0.00    -0.744 OA
ENDBRANCH  85  86
ENDBRANCH  53  78
BRANCH  65  90
ATOM     90  C   UNL A   1      47.801  27.093  30.592  1.00  0.00     0.058 A 
ATOM     91  C   UNL A   1      48.865  27.383  29.725  1.00  0.00     0.135 A 
ATOM     92  C   UNL A   1      48.095  26.444  31.802  1.00  0.00     0.135 A 
ATOM     93  F   UNL A   1      48.634  27.995  28.553  1.00  0.00    -0.206 F 
ATOM     94  C   UNL A   1      50.173  27.028  30.039  1.00  0.00     0.059 A 
ATOM     95  C   UNL A   1      49.398  26.101  32.146  1.00  0.00     0.059 A 
ATOM     96  F   UNL A   1      47.113  26.153  32.670  1.00  0.00    -0.206 F 
ATOM     97  C   UNL A   1      50.430  26.388  31.252  1.00  0.00     0.060 A 
BRANCH  97  98
ATOM     98  S   UNL A   1      52.136  25.965  31.667  1.00  0.00     0.124 S 
ATOM     99  O   UNL A   1      52.421  26.916  32.736  1.00  0.00    -0.237 OA
ATOM    100  O   UNL A   1      52.024  24.569  32.075  1.00  0.00    -0.237 OA
ATOM    101  O   UNL A   1      52.855  26.191  30.417  1.00  0.00    -0.744 OA
ENDBRANCH  97  98
ENDBRANCH  65  90
ENDBRANCH  39  40
ENDBRANCH  31  34
ENDBRANCH  29  30
ENDBRANCH  28  29
ENDBRANCH   1  28
TORSDOF 18
ENDMDL
MODEL 3
REMARK VINA RESULT:     -12.1      2.164      2.736
REMARK SMILES CC[C@@H](C)c1ccccc1NC(=O)[C@@H]1[C@@H](C(=O)NCCCCNC(=O)c2ccc(-c3c4nc(c(-c5c(F)cc(S(=O)(=O)[O-])cc5F)c5ccc([nH]5)c(-c5c(F)cc(S(=O)(=O)[O-])cc5F)c5nc(c(-c6c(F)cc(S(=O)(=O)[O-])cc6F)c6ccc3[nH]6)C=C5)C=C4)cc2)[C@@H]2C=C[C@H]1C2
REMARK SMILES IDX 20 1 19 2 18 3 16 4 17 5 15 7 14 8 95 9 92 10 94 11 96 12
REMARK SMILES IDX 93 13 12 14 11 15 13 17 10 18 5 19 6 20 7 21 9 22 8 23 3 24
REMARK SMILES IDX 4 25 2 26 1 27 21 28 22 29 23 30 24 31 25 33 26 34 27 35
REMARK SMILES IDX 91 36 28 37 90 38 29 39 30 40 31 41 84 42 32 43 89 44 83 45
REMARK SMILES IDX 85 46 33 47 88 48 82 49 81 50 34 52 68 53 47 54 67 55 48 56
REMARK SMILES IDX 51 57 66 58 86 59 49 60 50 61 65 63 87 64 52 65 35 66 36 67
REMARK SMILES IDX 45 68 37 69 38 70 44 71 46 72 39 73 40 74 41 75 42 76 43 77
REMARK SMILES IDX 69 78 70 79 79 80 71 81 72 82 78 83 80 84 73 85 74 86 75 87
REMARK SMILES IDX 76 88 77 89 53 90 54 91 63 92 55 93 56 94 62 95 64 96 57 97
REMARK SMILES IDX 58 98 59 99 60 100 61 101
REMARK H PARENT 18 6 11 16 23 32 85 51 51 62
REMARK Flexibility Score: inf
ROOT
ATOM      1  C   UNL A   1      33.963  26.104  25.753  1.00  0.00     0.023 C 
ENDROOT
BRANCH   1   2
ATOM      2  C   UNL A   1      32.941  25.082  25.259  1.00  0.00     0.116 C 
BRANCH   2   3
ATOM      3  N   UNL A   1      33.213  24.686  23.885  1.00  0.00    -0.356 N 
ATOM      4  C   UNL A   1      33.955  23.718  23.291  1.00  0.00     0.224 C 
ATOM      5  O   UNL A   1      33.925  23.724  22.054  1.00  0.00    -0.275 OA
ATOM      6  H   UNL A   1      32.746  25.255  23.231  1.00  0.00     0.163 HD
BRANCH   4   7
ATOM      7  C   UNL A   1      34.719  22.598  24.022  1.00  0.00     0.098 C 
ATOM      8  C   UNL A   1      34.671  22.554  25.568  1.00  0.00     0.099 C 
ATOM      9  C   UNL A   1      36.182  22.753  25.946  1.00  0.00     0.025 C 
ATOM     10  C   UNL A   1      36.240  22.801  23.726  1.00  0.00     0.025 C 
ATOM     11  C   UNL A   1      36.965  21.539  25.501  1.00  0.00    -0.027 C 
ATOM     12  C   UNL A   1      36.638  23.736  24.868  1.00  0.00     0.017 C 
ATOM     13  C   UNL A   1      36.983  21.557  24.162  1.00  0.00    -0.027 C 
BRANCH   8  14
ATOM     14  C   UNL A   1      34.124  21.350  26.350  1.00  0.00     0.228 C 
ATOM     15  N   UNL A   1      33.591  20.184  25.910  1.00  0.00    -0.326 N 
ATOM     16  H   UNL A   1      33.486  19.554  26.658  1.00  0.00     0.169 HD
ATOM     17  O   UNL A   1      34.168  21.427  27.593  1.00  0.00    -0.274 OA
BRANCH  15  18
ATOM     18  C   UNL A   1      33.139  19.596  24.714  1.00  0.00     0.044 A 
ATOM     19  C   UNL A   1      33.354  18.227  24.429  1.00  0.00    -0.022 A 
ATOM     20  C   UNL A   1      33.046  17.764  23.118  1.00  0.00     0.006 A 
ATOM     21  C   UNL A   1      32.461  18.577  22.154  1.00  0.00     0.000 A 
ATOM     22  C   UNL A   1      32.421  20.334  23.776  1.00  0.00     0.026 A 
ATOM     23  C   UNL A   1      32.103  19.860  22.504  1.00  0.00     0.002 A 
BRANCH  19  24
ATOM     24  C   UNL A   1      33.848  17.115  25.367  1.00  0.00     0.018 C 
ATOM     25  C   UNL A   1      34.995  16.213  24.899  1.00  0.00     0.013 C 
BRANCH  24  26
ATOM     26  C   UNL A   1      32.672  16.297  25.944  1.00  0.00     0.005 C 
ATOM     27  C   UNL A   1      32.605  14.883  25.377  1.00  0.00     0.004 C 
ENDBRANCH  24  26
ENDBRANCH  19  24
ENDBRANCH  15  18
ENDBRANCH   8  14
ENDBRANCH   4   7
ENDBRANCH   2   3
ENDBRANCH   1   2
BRANCH   1  28
ATOM     28  C   UNL A   1      33.342  27.455  26.113  1.00  0.00     0.023 C 
BRANCH  28  29
ATOM     29  C   UNL A   1      34.170  28.665  25.686  1.00  0.00     0.116 C 
BRANCH  29  30
ATOM     30  N   UNL A   1      33.739  29.908  26.311  1.00  0.00    -0.352 N 
ATOM     31  C   UNL A   1      34.336  30.575  27.354  1.00  0.00     0.251 C 
ATOM     32  H   UNL A   1      32.923  30.318  25.942  1.00  0.00     0.163 HD
ATOM     33  O   UNL A   1      33.809  31.565  27.850  1.00  0.00    -0.269 OA
BRANCH  31  34
ATOM     34  C   UNL A   1      35.604  30.047  27.895  1.00  0.00     0.039 A 
ATOM     35  C   UNL A   1      36.791  30.302  27.205  1.00  0.00     0.014 A 
ATOM     36  C   UNL A   1      35.621  29.372  29.119  1.00  0.00     0.014 A 
ATOM     37  C   UNL A   1      38.009  29.939  27.781  1.00  0.00     0.010 A 
ATOM     38  C   UNL A   1      36.838  29.069  29.719  1.00  0.00     0.010 A 
ATOM     39  C   UNL A   1      38.043  29.353  29.057  1.00  0.00    -0.014 A 
BRANCH  39  40
ATOM     40  C   UNL A   1      39.332  29.032  29.719  1.00  0.00     0.031 A 
ATOM     41  C   UNL A   1      39.789  29.840  30.900  1.00  0.00     0.074 A 
ATOM     42  C   UNL A   1      40.113  28.055  29.219  1.00  0.00     0.049 A 
ATOM     43  N   UNL A   1      40.905  29.756  31.576  1.00  0.00    -0.248 NA
ATOM     44  C   UNL A   1      38.882  30.902  31.364  1.00  0.00     0.031 C 
ATOM     45  C   UNL A   1      39.798  27.232  28.049  1.00  0.00     0.029 A 
ATOM     46  N   UNL A   1      41.338  27.592  29.628  1.00  0.00    -0.354 N 
ATOM     47  C   UNL A   1      40.840  30.758  32.536  1.00  0.00     0.074 A 
ATOM     48  C   UNL A   1      39.602  31.474  32.318  1.00  0.00     0.031 C 
ATOM     49  C   UNL A   1      40.788  26.346  27.855  1.00  0.00     0.029 A 
ATOM     50  C   UNL A   1      41.823  26.558  28.863  1.00  0.00     0.049 A 
ATOM     51  H   UNL A   1      41.825  27.966  30.399  1.00  0.00     0.167 HD
ATOM     52  C   UNL A   1      41.721  31.040  33.527  1.00  0.00     0.037 A 
ATOM     53  C   UNL A   1      42.969  25.859  28.965  1.00  0.00     0.037 A 
ATOM     54  C   UNL A   1      42.939  30.310  33.752  1.00  0.00     0.049 A 
ATOM     55  C   UNL A   1      43.933  26.190  30.072  1.00  0.00     0.074 A 
ATOM     56  C   UNL A   1      43.879  30.487  34.754  1.00  0.00     0.029 A 
ATOM     57  N   UNL A   1      43.390  29.260  32.963  1.00  0.00    -0.354 N 
ATOM     58  N   UNL A   1      43.834  27.109  31.002  1.00  0.00    -0.248 NA
ATOM     59  C   UNL A   1      45.161  25.387  30.145  1.00  0.00     0.031 C 
ATOM     60  C   UNL A   1      44.910  29.563  34.553  1.00  0.00     0.029 A 
ATOM     61  C   UNL A   1      44.597  28.787  33.448  1.00  0.00     0.049 A 
ATOM     62  H   UNL A   1      42.919  28.905  32.175  1.00  0.00     0.167 HD
ATOM     63  C   UNL A   1      44.972  26.978  31.788  1.00  0.00     0.074 A 
ATOM     64  C   UNL A   1      45.743  25.886  31.228  1.00  0.00     0.031 C 
ATOM     65  C   UNL A   1      45.345  27.694  32.878  1.00  0.00     0.037 A 
BRANCH  52  66
ATOM     66  C   UNL A   1      41.381  32.186  34.438  1.00  0.00     0.058 A 
ATOM     67  C   UNL A   1      40.553  32.010  35.559  1.00  0.00     0.135 A 
ATOM     68  C   UNL A   1      41.877  33.475  34.186  1.00  0.00     0.135 A 
ATOM     69  F   UNL A   1      40.039  30.802  35.837  1.00  0.00    -0.206 F 
ATOM     70  C   UNL A   1      40.192  33.079  36.372  1.00  0.00     0.059 A 
ATOM     71  C   UNL A   1      41.550  34.554  35.002  1.00  0.00     0.059 A 
ATOM     72  F   UNL A   1      42.673  33.698  33.129  1.00  0.00    -0.206 F 
ATOM     73  C   UNL A   1      40.689  34.350  36.079  1.00  0.00     0.060 A 
BRANCH  73  74
ATOM     74  S   UNL A   1      40.188  35.735  37.122  1.00  0.00     0.124 S 
ATOM     75  O   UNL A   1      41.442  36.054  37.800  1.00  0.00    -0.237 OA
ATOM     76  O   UNL A   1      39.730  36.717  36.145  1.00  0.00    -0.237 OA
ATOM     77  O   UNL A   1      39.145  35.163  37.968  1.00  0.00    -0.744 OA
ENDBRANCH  73  74
ENDBRANCH  52  66
BRANCH  53  78
ATOM     78  C   UNL A   1      43.246  24.747  28.019  1.00  0.00     0.058 A 
ATOM     79  C   UNL A   1      43.908  24.989  26.806  1.00  0.00     0.135 A 
ATOM     80  C   UNL A   1      42.881  23.425  28.314  1.00  0.00     0.135 A 
ATOM     81  F   UNL A   1      44.271  26.238  26.478  1.00  0.00    -0.206 F 
ATOM     82  C   UNL A   1      44.193  23.961  25.913  1.00  0.00     0.059 A 
ATOM     83  C   UNL A   1      43.173  22.377  27.446  1.00  0.00     0.059 A 
ATOM     84  F   UNL A   1      42.260  23.140  29.469  1.00  0.00    -0.206 F 
ATOM     85  C   UNL A   1      43.824  22.656  26.245  1.00  0.00     0.060 A 
BRANCH  85  86
ATOM     86  S   UNL A   1      44.253  21.320  25.107  1.00  0.00     0.124 S 
ATOM     87  O   UNL A   1      45.603  20.985  25.543  1.00  0.00    -0.237 OA
ATOM     88  O   UNL A   1      43.222  20.328  25.395  1.00  0.00    -0.237 OA
ATOM     89  O   UNL A   1      44.151  21.955  23.795  1.00  0.00    -0.744 OA
ENDBRANCH  85  86
ENDBRANCH  53  78
BRANCH  65  90
ATOM     90  C   UNL A   1      46.628  27.301  33.554  1.00  0.00     0.058 A 
ATOM     91  C   UNL A   1      47.841  27.940  33.258  1.00  0.00     0.135 A 
ATOM     92  C   UNL A   1      46.632  26.306  34.545  1.00  0.00     0.135 A 
ATOM     93  F   UNL A   1      47.891  28.892  32.313  1.00  0.00    -0.206 F 
ATOM     94  C   UNL A   1      49.020  27.596  33.911  1.00  0.00     0.059 A 
ATOM     95  C   UNL A   1      47.794  25.962  35.227  1.00  0.00     0.059 A 
ATOM     96  F   UNL A   1      45.495  25.672  34.871  1.00  0.00    -0.206 F 
ATOM     97  C   UNL A   1      48.987  26.605  34.894  1.00  0.00     0.060 A 
BRANCH  97  98
ATOM     98  S   UNL A   1      50.515  26.191  35.762  1.00  0.00     0.124 S 
ATOM     99  O   UNL A   1      50.305  26.841  37.051  1.00  0.00    -0.237 OA
ATOM    100  O   UNL A   1      50.483  24.732  35.777  1.00  0.00    -0.237 OA
ATOM    101  O   UNL A   1      51.553  26.781  34.922  1.00  0.00    -0.744 OA
ENDBRANCH  97  98
ENDBRANCH  65  90
ENDBRANCH  39  40
ENDBRANCH  31  34
ENDBRANCH  29  30
ENDBRANCH  28  29
ENDBRANCH   1  28
TORSDOF 18
ENDMDL
