MODEL 1
REMARK VINA RESULT:     -11.8      0.000      0.000
REMARK SMILES O=C(Cn1cccc1C(=O)NCCCCNC(=O)c1ccc(-c2c3nc(c(-c4c(F)cc(S(=O)(=O)[O-])cc4F)c4ccc([nH]4)c(-c4c(F)cc(S(=O)(=O)[O-])cc4F)c4nc(c(-c5c(F)cc(S(=O)(=O)[O-])cc5F)c5ccc2[nH]5)C=C4)C=C3)cc1)NCC1CCCC1
REMARK SMILES IDX 13 1 12 2 11 3 9 4 10 5 8 7 4 8 5 9 6 10 7 11 3 12 2 13 1 14
REMARK SMILES IDX 85 15 86 17 87 18 88 19 91 20 89 21 90 22 14 23 15 24 16 25
REMARK SMILES IDX 17 26 18 28 19 29 20 30 84 31 21 32 83 33 22 34 23 35 24 36
REMARK SMILES IDX 77 37 25 38 82 39 76 40 78 41 26 42 81 43 75 44 74 45 27 47
REMARK SMILES IDX 61 48 40 49 60 50 41 51 44 52 59 53 79 54 42 55 43 56 58 58
REMARK SMILES IDX 80 59 45 60 28 61 29 62 38 63 30 64 31 65 37 66 39 67 32 68
REMARK SMILES IDX 33 69 34 70 35 71 36 72 62 73 63 74 72 75 64 76 65 77 71 78
REMARK SMILES IDX 73 79 66 80 67 81 68 82 69 83 70 84 46 85 47 86 56 87 48 88
REMARK SMILES IDX 49 89 55 90 57 91 50 92 51 93 52 94 53 95 54 96
REMARK H PARENT 11 6 85 16 16 27 78 46 44 57
REMARK Flexibility Score: inf
ROOT
ATOM      1  C   UNL A   1      32.233  28.672  26.982  1.00  0.00     0.023 C 
ENDROOT
BRANCH   1   2
ATOM      2  C   UNL A   1      31.073  27.730  27.305  1.00  0.00     0.116 C 
BRANCH   2   3
ATOM      3  N   UNL A   1      31.074  26.466  26.618  1.00  0.00    -0.351 N 
ATOM      4  C   UNL A   1      30.948  26.147  25.291  1.00  0.00     0.267 C 
ATOM      5  O   UNL A   1      30.949  24.937  25.051  1.00  0.00    -0.268 OA
ATOM      6  H   UNL A   1      31.188  25.687  27.209  1.00  0.00     0.163 HD
BRANCH   4   7
ATOM      7  C   UNL A   1      30.759  27.113  24.206  1.00  0.00     0.107 A 
ATOM      8  N   UNL A   1      31.615  27.714  23.287  1.00  0.00    -0.334 N 
ATOM      9  C   UNL A   1      30.884  28.558  22.463  1.00  0.00     0.087 A 
ATOM     10  C   UNL A   1      29.552  28.405  22.735  1.00  0.00     0.020 A 
ATOM     11  C   UNL A   1      29.474  27.494  23.800  1.00  0.00     0.033 A 
BRANCH   8  12
ATOM     12  C   UNL A   1      33.047  27.564  23.055  1.00  0.00     0.222 C 
BRANCH  12  13
ATOM     13  C   UNL A   1      33.590  26.220  22.638  1.00  0.00     0.239 C 
ATOM     14  O   UNL A   1      33.720  25.978  21.436  1.00  0.00    -0.273 OA
ATOM     15  N   UNL A   1      33.862  25.294  23.607  1.00  0.00    -0.354 N 
ATOM     16  H   UNL A   1      33.930  25.590  24.543  1.00  0.00     0.163 HD
BRANCH  15  17
ATOM     17  C   UNL A   1      34.055  23.897  23.300  1.00  0.00     0.119 C 
BRANCH  17  18
ATOM     18  C   UNL A   1      35.122  23.175  24.102  1.00  0.00     0.008 C 
ATOM     19  C   UNL A   1      36.433  23.030  23.340  1.00  0.00     0.005 C 
ATOM     20  C   UNL A   1      35.605  23.754  25.429  1.00  0.00     0.005 C 
ATOM     21  C   UNL A   1      37.283  22.321  24.373  1.00  0.00     0.000 C 
ATOM     22  C   UNL A   1      36.882  22.952  25.717  1.00  0.00     0.000 C 
ENDBRANCH  17  18
ENDBRANCH  15  17
ENDBRANCH  12  13
ENDBRANCH   8  12
ENDBRANCH   4   7
ENDBRANCH   2   3
ENDBRANCH   1   2
BRANCH   1  23
ATOM     23  C   UNL A   1      33.662  28.121  27.028  1.00  0.00     0.023 C 
BRANCH  23  24
ATOM     24  C   UNL A   1      34.761  29.033  26.478  1.00  0.00     0.116 C 
BRANCH  24  25
ATOM     25  N   UNL A   1      34.939  30.276  27.219  1.00  0.00    -0.352 N 
ATOM     26  C   UNL A   1      35.902  30.637  28.155  1.00  0.00     0.251 C 
ATOM     27  H   UNL A   1      34.270  30.972  27.026  1.00  0.00     0.163 HD
ATOM     28  O   UNL A   1      35.727  31.647  28.818  1.00  0.00    -0.269 OA
BRANCH  26  29
ATOM     29  C   UNL A   1      37.134  29.821  28.376  1.00  0.00     0.039 A 
ATOM     30  C   UNL A   1      38.208  29.863  27.462  1.00  0.00     0.014 A 
ATOM     31  C   UNL A   1      37.229  28.962  29.455  1.00  0.00     0.014 A 
ATOM     32  C   UNL A   1      39.383  29.110  27.681  1.00  0.00     0.010 A 
ATOM     33  C   UNL A   1      38.413  28.286  29.694  1.00  0.00     0.010 A 
ATOM     34  C   UNL A   1      39.496  28.329  28.829  1.00  0.00    -0.014 A 
BRANCH  34  35
ATOM     35  C   UNL A   1      40.724  27.616  29.286  1.00  0.00     0.031 A 
ATOM     36  C   UNL A   1      41.036  26.372  28.430  1.00  0.00     0.074 A 
ATOM     37  C   UNL A   1      41.468  28.180  30.293  1.00  0.00     0.049 A 
ATOM     38  N   UNL A   1      41.557  25.236  28.779  1.00  0.00    -0.248 NA
ATOM     39  C   UNL A   1      40.632  26.345  26.995  1.00  0.00     0.031 C 
ATOM     40  C   UNL A   1      41.162  29.484  30.921  1.00  0.00     0.029 A 
ATOM     41  N   UNL A   1      42.626  27.825  30.972  1.00  0.00    -0.354 N 
ATOM     42  C   UNL A   1      41.682  24.441  27.614  1.00  0.00     0.074 A 
ATOM     43  C   UNL A   1      40.970  25.123  26.581  1.00  0.00     0.031 C 
ATOM     44  C   UNL A   1      42.025  29.757  31.924  1.00  0.00     0.029 A 
ATOM     45  C   UNL A   1      42.987  28.679  32.057  1.00  0.00     0.049 A 
ATOM     46  H   UNL A   1      43.161  27.038  30.721  1.00  0.00     0.167 HD
ATOM     47  C   UNL A   1      42.495  23.347  27.526  1.00  0.00     0.037 A 
ATOM     48  C   UNL A   1      43.950  28.512  33.025  1.00  0.00     0.037 A 
ATOM     49  C   UNL A   1      43.237  23.213  28.734  1.00  0.00     0.049 A 
ATOM     50  C   UNL A   1      44.703  27.316  32.629  1.00  0.00     0.074 A 
ATOM     51  C   UNL A   1      42.877  22.870  30.009  1.00  0.00     0.029 A 
ATOM     52  N   UNL A   1      44.468  23.825  28.754  1.00  0.00    -0.354 N 
ATOM     53  N   UNL A   1      45.584  27.272  31.677  1.00  0.00    -0.248 NA
ATOM     54  C   UNL A   1      44.417  26.049  33.318  1.00  0.00     0.031 C 
ATOM     55  C   UNL A   1      43.682  23.704  30.807  1.00  0.00     0.029 A 
ATOM     56  C   UNL A   1      44.640  24.346  30.009  1.00  0.00     0.049 A 
ATOM     57  H   UNL A   1      45.107  23.880  28.007  1.00  0.00     0.167 HD
ATOM     58  C   UNL A   1      45.687  25.923  31.443  1.00  0.00     0.074 A 
ATOM     59  C   UNL A   1      45.244  25.253  32.646  1.00  0.00     0.031 C 
ATOM     60  C   UNL A   1      45.536  25.469  30.174  1.00  0.00     0.037 A 
BRANCH  47  61
ATOM     61  C   UNL A   1      42.941  22.483  26.376  1.00  0.00     0.058 A 
ATOM     62  C   UNL A   1      42.576  21.112  26.407  1.00  0.00     0.135 A 
ATOM     63  C   UNL A   1      43.944  22.832  25.462  1.00  0.00     0.135 A 
ATOM     64  F   UNL A   1      41.584  20.684  27.208  1.00  0.00    -0.206 F 
ATOM     65  C   UNL A   1      43.256  20.135  25.689  1.00  0.00     0.059 A 
ATOM     66  C   UNL A   1      44.609  21.870  24.692  1.00  0.00     0.059 A 
ATOM     67  F   UNL A   1      44.370  24.096  25.350  1.00  0.00    -0.206 F 
ATOM     68  C   UNL A   1      44.297  20.522  24.858  1.00  0.00     0.060 A 
BRANCH  68  69
ATOM     69  S   UNL A   1      45.259  19.234  24.036  1.00  0.00     0.124 S 
ATOM     70  O   UNL A   1      46.614  19.764  24.142  1.00  0.00    -0.237 OA
ATOM     71  O   UNL A   1      44.973  18.061  24.856  1.00  0.00    -0.237 OA
ATOM     72  O   UNL A   1      44.692  19.201  22.691  1.00  0.00    -0.744 OA
ENDBRANCH  68  69
ENDBRANCH  47  61
BRANCH  48  73
ATOM     73  C   UNL A   1      44.346  29.106  34.374  1.00  0.00     0.058 A 
ATOM     74  C   UNL A   1      45.426  29.960  34.629  1.00  0.00     0.135 A 
ATOM     75  C   UNL A   1      43.494  28.914  35.506  1.00  0.00     0.135 A 
ATOM     76  F   UNL A   1      46.409  30.115  33.735  1.00  0.00    -0.206 F 
ATOM     77  C   UNL A   1      45.540  30.700  35.826  1.00  0.00     0.059 A 
ATOM     78  C   UNL A   1      43.551  29.670  36.673  1.00  0.00     0.059 A 
ATOM     79  F   UNL A   1      42.526  27.986  35.522  1.00  0.00    -0.206 F 
ATOM     80  C   UNL A   1      44.560  30.598  36.813  1.00  0.00     0.060 A 
BRANCH  80  81
ATOM     81  S   UNL A   1      44.503  31.745  38.207  1.00  0.00     0.124 S 
ATOM     82  O   UNL A   1      44.017  32.968  37.579  1.00  0.00    -0.237 OA
ATOM     83  O   UNL A   1      43.578  31.086  39.123  1.00  0.00    -0.237 OA
ATOM     84  O   UNL A   1      45.892  31.780  38.663  1.00  0.00    -0.744 OA
ENDBRANCH  80  81
ENDBRANCH  48  73
BRANCH  60  85
ATOM     85  C   UNL A   1      45.979  26.453  29.108  1.00  0.00     0.058 A 
ATOM     86  C   UNL A   1      47.351  26.719  28.941  1.00  0.00     0.135 A 
ATOM     87  C   UNL A   1      45.101  27.231  28.333  1.00  0.00     0.135 A 
ATOM     88  F   UNL A   1      48.259  26.021  29.645  1.00  0.00    -0.206 F 
ATOM     89  C   UNL A   1      47.824  27.702  28.067  1.00  0.00     0.059 A 
ATOM     90  C   UNL A   1      45.550  28.211  27.439  1.00  0.00     0.059 A 
ATOM     91  F   UNL A   1      43.779  27.071  28.440  1.00  0.00    -0.206 F 
ATOM     92  C   UNL A   1      46.916  28.446  27.318  1.00  0.00     0.060 A 
BRANCH  92  93
ATOM     93  S   UNL A   1      47.548  29.707  26.184  1.00  0.00     0.124 S 
ATOM     94  O   UNL A   1      48.897  29.229  25.901  1.00  0.00    -0.237 OA
ATOM     95  O   UNL A   1      46.602  29.622  25.075  1.00  0.00    -0.237 OA
ATOM     96  O   UNL A   1      47.481  30.941  26.966  1.00  0.00    -0.744 OA
ENDBRANCH  92  93
ENDBRANCH  60  85
ENDBRANCH  34  35
ENDBRANCH  26  29
ENDBRANCH  24  25
ENDBRANCH  23  24
ENDBRANCH   1  23
TORSDOF 18
ENDMDL
MODEL 2
REMARK VINA RESULT:     -11.5      1.152      2.841
REMARK SMILES O=C(Cn1cccc1C(=O)NCCCCNC(=O)c1ccc(-c2c3nc(c(-c4c(F)cc(S(=O)(=O)[O-])cc4F)c4ccc([nH]4)c(-c4c(F)cc(S(=O)(=O)[O-])cc4F)c4nc(c(-c5c(F)cc(S(=O)(=O)[O-])cc5F)c5ccc2[nH]5)C=C4)C=C3)cc1)NCC1CCCC1
REMARK SMILES IDX 13 1 12 2 11 3 9 4 10 5 8 7 4 8 5 9 6 10 7 11 3 12 2 13 1 14
REMARK SMILES IDX 85 15 86 17 87 18 88 19 91 20 89 21 90 22 14 23 15 24 16 25
REMARK SMILES IDX 17 26 18 28 19 29 20 30 84 31 21 32 83 33 22 34 23 35 24 36
REMARK SMILES IDX 77 37 25 38 82 39 76 40 78 41 26 42 81 43 75 44 74 45 27 47
REMARK SMILES IDX 61 48 40 49 60 50 41 51 44 52 59 53 79 54 42 55 43 56 58 58
REMARK SMILES IDX 80 59 45 60 28 61 29 62 38 63 30 64 31 65 37 66 39 67 32 68
REMARK SMILES IDX 33 69 34 70 35 71 36 72 62 73 63 74 72 75 64 76 65 77 71 78
REMARK SMILES IDX 73 79 66 80 67 81 68 82 69 83 70 84 46 85 47 86 56 87 48 88
REMARK SMILES IDX 49 89 55 90 57 91 50 92 51 93 52 94 53 95 54 96
REMARK H PARENT 11 6 85 16 16 27 78 46 44 57
REMARK Flexibility Score: inf
ROOT
ATOM      1  C   UNL A   1      32.271  27.645  26.750  1.00  0.00     0.023 C 
ENDROOT
BRANCH   1   2
ATOM      2  C   UNL A   1      32.376  26.176  26.336  1.00  0.00     0.116 C 
BRANCH   2   3
ATOM      3  N   UNL A   1      31.298  25.322  26.760  1.00  0.00    -0.351 N 
ATOM      4  C   UNL A   1      31.195  23.959  26.851  1.00  0.00     0.267 C 
ATOM      5  O   UNL A   1      30.090  23.551  27.218  1.00  0.00    -0.268 OA
ATOM      6  H   UNL A   1      30.486  25.806  27.035  1.00  0.00     0.163 HD
BRANCH   4   7
ATOM      7  C   UNL A   1      32.251  23.008  26.496  1.00  0.00     0.107 A 
ATOM      8  N   UNL A   1      32.674  22.435  25.300  1.00  0.00    -0.334 N 
ATOM      9  C   UNL A   1      33.748  21.594  25.549  1.00  0.00     0.087 A 
ATOM     10  C   UNL A   1      34.124  21.722  26.858  1.00  0.00     0.020 A 
ATOM     11  C   UNL A   1      33.209  22.615  27.439  1.00  0.00     0.033 A 
BRANCH   8  12
ATOM     12  C   UNL A   1      32.214  22.610  23.927  1.00  0.00     0.222 C 
BRANCH  12  13
ATOM     13  C   UNL A   1      32.608  23.854  23.171  1.00  0.00     0.239 C 
ATOM     14  O   UNL A   1      33.761  24.278  23.281  1.00  0.00    -0.273 OA
ATOM     15  N   UNL A   1      31.654  24.504  22.436  1.00  0.00    -0.354 N 
ATOM     16  H   UNL A   1      30.816  24.034  22.221  1.00  0.00     0.163 HD
BRANCH  15  17
ATOM     17  C   UNL A   1      31.837  25.856  21.966  1.00  0.00     0.119 C 
BRANCH  17  18
ATOM     18  C   UNL A   1      31.323  26.958  22.873  1.00  0.00     0.008 C 
ATOM     19  C   UNL A   1      31.192  28.296  22.157  1.00  0.00     0.005 C 
ATOM     20  C   UNL A   1      29.951  26.830  23.531  1.00  0.00     0.005 C 
ATOM     21  C   UNL A   1      30.647  29.162  23.273  1.00  0.00     0.000 C 
ATOM     22  C   UNL A   1      29.674  28.251  24.042  1.00  0.00     0.000 C 
ENDBRANCH  17  18
ENDBRANCH  15  17
ENDBRANCH  12  13
ENDBRANCH   8  12
ENDBRANCH   4   7
ENDBRANCH   2   3
ENDBRANCH   1   2
BRANCH   1  23
ATOM     23  C   UNL A   1      33.157  28.674  26.040  1.00  0.00     0.023 C 
BRANCH  23  24
ATOM     24  C   UNL A   1      34.572  28.851  26.594  1.00  0.00     0.116 C 
BRANCH  24  25
ATOM     25  N   UNL A   1      34.856  30.186  27.106  1.00  0.00    -0.352 N 
ATOM     26  C   UNL A   1      35.906  30.644  27.896  1.00  0.00     0.251 C 
ATOM     27  H   UNL A   1      34.199  30.874  26.852  1.00  0.00     0.163 HD
ATOM     28  O   UNL A   1      35.823  31.755  28.395  1.00  0.00    -0.269 OA
BRANCH  26  29
ATOM     29  C   UNL A   1      37.121  29.814  28.153  1.00  0.00     0.039 A 
ATOM     30  C   UNL A   1      38.224  29.846  27.274  1.00  0.00     0.014 A 
ATOM     31  C   UNL A   1      37.172  28.953  29.233  1.00  0.00     0.014 A 
ATOM     32  C   UNL A   1      39.382  29.079  27.529  1.00  0.00     0.010 A 
ATOM     33  C   UNL A   1      38.339  28.263  29.508  1.00  0.00     0.010 A 
ATOM     34  C   UNL A   1      39.450  28.295  28.679  1.00  0.00    -0.014 A 
BRANCH  34  35
ATOM     35  C   UNL A   1      40.655  27.568  29.172  1.00  0.00     0.031 A 
ATOM     36  C   UNL A   1      40.990  26.331  28.314  1.00  0.00     0.074 A 
ATOM     37  C   UNL A   1      41.365  28.115  30.213  1.00  0.00     0.049 A 
ATOM     38  N   UNL A   1      41.489  25.187  28.670  1.00  0.00    -0.248 NA
ATOM     39  C   UNL A   1      40.639  26.323  26.865  1.00  0.00     0.031 C 
ATOM     40  C   UNL A   1      41.045  29.414  30.844  1.00  0.00     0.029 A 
ATOM     41  N   UNL A   1      42.494  27.743  30.930  1.00  0.00    -0.354 N 
ATOM     42  C   UNL A   1      41.652  24.405  27.501  1.00  0.00     0.074 A 
ATOM     43  C   UNL A   1      40.984  25.103  26.450  1.00  0.00     0.031 C 
ATOM     44  C   UNL A   1      41.872  29.669  31.882  1.00  0.00     0.029 A 
ATOM     45  C   UNL A   1      42.820  28.582  32.038  1.00  0.00     0.049 A 
ATOM     46  H   UNL A   1      43.033  26.955  30.691  1.00  0.00     0.167 HD
ATOM     47  C   UNL A   1      42.460  23.305  27.431  1.00  0.00     0.037 A 
ATOM     48  C   UNL A   1      43.745  28.397  33.039  1.00  0.00     0.037 A 
ATOM     49  C   UNL A   1      43.155  23.152  28.664  1.00  0.00     0.049 A 
ATOM     50  C   UNL A   1      44.504  27.200  32.658  1.00  0.00     0.074 A 
ATOM     51  C   UNL A   1      42.744  22.797  29.921  1.00  0.00     0.029 A 
ATOM     52  N   UNL A   1      44.389  23.754  28.737  1.00  0.00    -0.354 N 
ATOM     53  N   UNL A   1      45.420  27.159  31.739  1.00  0.00    -0.248 NA
ATOM     54  C   UNL A   1      44.183  25.927  33.321  1.00  0.00     0.031 C 
ATOM     55  C   UNL A   1      43.526  23.616  30.757  1.00  0.00     0.029 A 
ATOM     56  C   UNL A   1      44.517  24.260  30.004  1.00  0.00     0.049 A 
ATOM     57  H   UNL A   1      45.056  23.812  28.016  1.00  0.00     0.167 HD
ATOM     58  C   UNL A   1      45.522  25.812  31.494  1.00  0.00     0.074 A 
ATOM     59  C   UNL A   1      45.029  25.133  32.672  1.00  0.00     0.031 C 
ATOM     60  C   UNL A   1      45.414  25.374  30.214  1.00  0.00     0.037 A 
BRANCH  47  61
ATOM     61  C   UNL A   1      42.942  22.450  26.289  1.00  0.00     0.058 A 
ATOM     62  C   UNL A   1      42.636  21.066  26.333  1.00  0.00     0.135 A 
ATOM     63  C   UNL A   1      43.929  22.834  25.371  1.00  0.00     0.135 A 
ATOM     64  F   UNL A   1      41.664  20.603  27.138  1.00  0.00    -0.206 F 
ATOM     65  C   UNL A   1      43.357  20.112  25.623  1.00  0.00     0.059 A 
ATOM     66  C   UNL A   1      44.634  21.894  24.610  1.00  0.00     0.059 A 
ATOM     67  F   UNL A   1      44.300  24.114  25.247  1.00  0.00    -0.206 F 
ATOM     68  C   UNL A   1      44.381  20.536  24.787  1.00  0.00     0.060 A 
BRANCH  68  69
ATOM     69  S   UNL A   1      45.397  19.283  23.976  1.00  0.00     0.124 S 
ATOM     70  O   UNL A   1      46.714  19.910  24.000  1.00  0.00    -0.237 OA
ATOM     71  O   UNL A   1      45.229  18.130  24.856  1.00  0.00    -0.237 OA
ATOM     72  O   UNL A   1      44.779  19.152  22.660  1.00  0.00    -0.744 OA
ENDBRANCH  68  69
ENDBRANCH  47  61
BRANCH  48  73
ATOM     73  C   UNL A   1      44.095  28.973  34.409  1.00  0.00     0.058 A 
ATOM     74  C   UNL A   1      45.028  29.981  34.681  1.00  0.00     0.135 A 
ATOM     75  C   UNL A   1      43.337  28.577  35.554  1.00  0.00     0.135 A 
ATOM     76  F   UNL A   1      45.932  30.349  33.766  1.00  0.00    -0.206 F 
ATOM     77  C   UNL A   1      45.069  30.661  35.917  1.00  0.00     0.059 A 
ATOM     78  C   UNL A   1      43.317  29.266  36.764  1.00  0.00     0.059 A 
ATOM     79  F   UNL A   1      42.538  27.500  35.544  1.00  0.00    -0.206 F 
ATOM     80  C   UNL A   1      44.163  30.340  36.928  1.00  0.00     0.060 A 
BRANCH  80  81
ATOM     81  S   UNL A   1      43.977  31.382  38.392  1.00  0.00     0.124 S 
ATOM     82  O   UNL A   1      42.528  31.515  38.492  1.00  0.00    -0.237 OA
ATOM     83  O   UNL A   1      44.618  30.585  39.433  1.00  0.00    -0.237 OA
ATOM     84  O   UNL A   1      44.698  32.600  38.024  1.00  0.00    -0.744 OA
ENDBRANCH  80  81
ENDBRANCH  48  73
BRANCH  60  85
ATOM     85  C   UNL A   1      45.905  26.366  29.177  1.00  0.00     0.058 A 
ATOM     86  C   UNL A   1      44.973  27.009  28.340  1.00  0.00     0.135 A 
ATOM     87  C   UNL A   1      47.260  26.613  28.896  1.00  0.00     0.135 A 
ATOM     88  F   UNL A   1      43.657  26.825  28.539  1.00  0.00    -0.206 F 
ATOM     89  C   UNL A   1      45.361  27.837  27.284  1.00  0.00     0.059 A 
ATOM     90  C   UNL A   1      47.675  27.452  27.853  1.00  0.00     0.059 A 
ATOM     91  F   UNL A   1      48.221  26.028  29.618  1.00  0.00    -0.206 F 
ATOM     92  C   UNL A   1      46.715  28.054  27.046  1.00  0.00     0.060 A 
BRANCH  92  93
ATOM     93  S   UNL A   1      47.197  29.140  25.680  1.00  0.00     0.124 S 
ATOM     94  O   UNL A   1      47.495  28.190  24.612  1.00  0.00    -0.237 OA
ATOM     95  O   UNL A   1      45.994  29.944  25.489  1.00  0.00    -0.237 OA
ATOM     96  O   UNL A   1      48.353  29.865  26.203  1.00  0.00    -0.744 OA
ENDBRANCH  92  93
ENDBRANCH  60  85
ENDBRANCH  34  35
ENDBRANCH  26  29
ENDBRANCH  24  25
ENDBRANCH  23  24
ENDBRANCH   1  23
TORSDOF 18
ENDMDL
MODEL 3
REMARK VINA RESULT:     -11.2      3.051      9.042
REMARK SMILES O=C(Cn1cccc1C(=O)NCCCCNC(=O)c1ccc(-c2c3nc(c(-c4c(F)cc(S(=O)(=O)[O-])cc4F)c4ccc([nH]4)c(-c4c(F)cc(S(=O)(=O)[O-])cc4F)c4nc(c(-c5c(F)cc(S(=O)(=O)[O-])cc5F)c5ccc2[nH]5)C=C4)C=C3)cc1)NCC1CCCC1
REMARK SMILES IDX 13 1 12 2 11 3 9 4 10 5 8 7 4 8 5 9 6 10 7 11 3 12 2 13 1 14
REMARK SMILES IDX 85 15 86 17 87 18 88 19 91 20 89 21 90 22 14 23 15 24 16 25
REMARK SMILES IDX 17 26 18 28 19 29 20 30 84 31 21 32 83 33 22 34 23 35 24 36
REMARK SMILES IDX 77 37 25 38 82 39 76 40 78 41 26 42 81 43 75 44 74 45 27 47
REMARK SMILES IDX 61 48 40 49 60 50 41 51 44 52 59 53 79 54 42 55 43 56 58 58
REMARK SMILES IDX 80 59 45 60 28 61 29 62 38 63 30 64 31 65 37 66 39 67 32 68
REMARK SMILES IDX 33 69 34 70 35 71 36 72 62 73 63 74 72 75 64 76 65 77 71 78
REMARK SMILES IDX 73 79 66 80 67 81 68 82 69 83 70 84 46 85 47 86 56 87 48 88
REMARK SMILES IDX 49 89 55 90 57 91 50 92 51 93 52 94 53 95 54 96
REMARK H PARENT 11 6 85 16 16 27 78 46 44 57
REMARK Flexibility Score: inf
ROOT
ATOM      1  C   UNL A   1      33.361  29.133  24.506  1.00  0.00     0.023 C 
ENDROOT
BRANCH   1   2
ATOM      2  C   UNL A   1      33.250  28.931  22.995  1.00  0.00     0.116 C 
BRANCH   2   3
ATOM      3  N   UNL A   1      31.976  29.248  22.407  1.00  0.00    -0.351 N 
ATOM      4  C   UNL A   1      30.795  28.554  22.356  1.00  0.00     0.267 C 
ATOM      5  O   UNL A   1      29.898  29.113  21.720  1.00  0.00    -0.268 OA
ATOM      6  H   UNL A   1      31.946  30.125  21.960  1.00  0.00     0.163 HD
BRANCH   4   7
ATOM      7  C   UNL A   1      30.572  27.226  22.932  1.00  0.00     0.107 A 
ATOM      8  N   UNL A   1      31.129  25.970  22.710  1.00  0.00    -0.334 N 
ATOM      9  C   UNL A   1      30.539  25.049  23.563  1.00  0.00     0.087 A 
ATOM     10  C   UNL A   1      29.717  25.708  24.434  1.00  0.00     0.020 A 
ATOM     11  C   UNL A   1      29.754  27.060  24.057  1.00  0.00     0.033 A 
BRANCH   8  12
ATOM     12  C   UNL A   1      32.188  25.525  21.811  1.00  0.00     0.222 C 
BRANCH  12  13
ATOM     13  C   UNL A   1      33.347  24.738  22.370  1.00  0.00     0.239 C 
ATOM     14  O   UNL A   1      33.685  23.694  21.806  1.00  0.00    -0.273 OA
ATOM     15  N   UNL A   1      33.945  25.179  23.519  1.00  0.00    -0.354 N 
ATOM     16  H   UNL A   1      33.778  26.101  23.819  1.00  0.00     0.163 HD
BRANCH  15  17
ATOM     17  C   UNL A   1      34.815  24.336  24.302  1.00  0.00     0.119 C 
BRANCH  17  18
ATOM     18  C   UNL A   1      34.312  23.948  25.680  1.00  0.00     0.008 C 
ATOM     19  C   UNL A   1      32.798  23.789  25.730  1.00  0.00     0.005 C 
ATOM     20  C   UNL A   1      34.775  22.644  26.326  1.00  0.00     0.005 C 
ATOM     21  C   UNL A   1      32.603  23.384  27.176  1.00  0.00     0.000 C 
ATOM     22  C   UNL A   1      33.795  22.464  27.492  1.00  0.00     0.000 C 
ENDBRANCH  17  18
ENDBRANCH  15  17
ENDBRANCH  12  13
ENDBRANCH   8  12
ENDBRANCH   4   7
ENDBRANCH   2   3
ENDBRANCH   1   2
BRANCH   1  23
ATOM     23  C   UNL A   1      33.612  27.911  25.395  1.00  0.00     0.023 C 
BRANCH  23  24
ATOM     24  C   UNL A   1      33.982  28.195  26.853  1.00  0.00     0.116 C 
BRANCH  24  25
ATOM     25  N   UNL A   1      33.775  29.577  27.268  1.00  0.00    -0.352 N 
ATOM     26  C   UNL A   1      34.586  30.424  28.016  1.00  0.00     0.251 C 
ATOM     27  H   UNL A   1      32.925  29.974  26.973  1.00  0.00     0.163 HD
ATOM     28  O   UNL A   1      34.114  31.467  28.438  1.00  0.00    -0.269 OA
BRANCH  26  29
ATOM     29  C   UNL A   1      36.010  30.089  28.322  1.00  0.00     0.039 A 
ATOM     30  C   UNL A   1      36.380  29.567  29.580  1.00  0.00     0.014 A 
ATOM     31  C   UNL A   1      37.007  30.332  27.398  1.00  0.00     0.014 A 
ATOM     32  C   UNL A   1      37.722  29.227  29.862  1.00  0.00     0.010 A 
ATOM     33  C   UNL A   1      38.304  29.929  27.662  1.00  0.00     0.010 A 
ATOM     34  C   UNL A   1      38.694  29.387  28.878  1.00  0.00    -0.014 A 
BRANCH  34  35
ATOM     35  C   UNL A   1      40.109  28.922  28.961  1.00  0.00     0.031 A 
ATOM     36  C   UNL A   1      41.046  29.988  29.567  1.00  0.00     0.074 A 
ATOM     37  C   UNL A   1      40.389  27.623  28.615  1.00  0.00     0.049 A 
ATOM     38  N   UNL A   1      42.286  30.252  29.292  1.00  0.00    -0.248 NA
ATOM     39  C   UNL A   1      40.507  30.963  30.557  1.00  0.00     0.031 C 
ATOM     40  C   UNL A   1      39.367  26.631  28.216  1.00  0.00     0.029 A 
ATOM     41  N   UNL A   1      41.543  26.852  28.554  1.00  0.00    -0.354 N 
ATOM     42  C   UNL A   1      42.709  31.289  30.158  1.00  0.00     0.074 A 
ATOM     43  C   UNL A   1      41.536  31.775  30.811  1.00  0.00     0.031 C 
ATOM     44  C   UNL A   1      39.936  25.455  27.871  1.00  0.00     0.029 A 
ATOM     45  C   UNL A   1      41.377  25.543  28.012  1.00  0.00     0.049 A 
ATOM     46  H   UNL A   1      42.415  27.187  28.864  1.00  0.00     0.167 HD
ATOM     47  C   UNL A   1      44.020  31.582  30.406  1.00  0.00     0.037 A 
ATOM     48  C   UNL A   1      42.325  24.613  27.652  1.00  0.00     0.037 A 
ATOM     49  C   UNL A   1      44.849  30.636  29.741  1.00  0.00     0.049 A 
ATOM     50  C   UNL A   1      43.608  25.164  28.105  1.00  0.00     0.074 A 
ATOM     51  C   UNL A   1      45.126  30.415  28.418  1.00  0.00     0.029 A 
ATOM     52  N   UNL A   1      45.209  29.531  30.476  1.00  0.00    -0.354 N 
ATOM     53  N   UNL A   1      44.020  25.177  29.335  1.00  0.00    -0.248 NA
ATOM     54  C   UNL A   1      44.488  25.798  27.112  1.00  0.00     0.031 C 
ATOM     55  C   UNL A   1      45.205  29.012  28.337  1.00  0.00     0.029 A 
ATOM     56  C   UNL A   1      45.198  28.458  29.624  1.00  0.00     0.049 A 
ATOM     57  H   UNL A   1      45.433  29.513  31.434  1.00  0.00     0.167 HD
ATOM     58  C   UNL A   1      45.024  26.113  29.292  1.00  0.00     0.074 A 
ATOM     59  C   UNL A   1      45.470  26.187  27.918  1.00  0.00     0.031 C 
ATOM     60  C   UNL A   1      44.996  27.139  30.180  1.00  0.00     0.037 A 
BRANCH  47  61
ATOM     61  C   UNL A   1      44.705  32.476  31.406  1.00  0.00     0.058 A 
ATOM     62  C   UNL A   1      44.492  32.202  32.782  1.00  0.00     0.135 A 
ATOM     63  C   UNL A   1      45.257  33.729  31.106  1.00  0.00     0.135 A 
ATOM     64  F   UNL A   1      44.022  31.007  33.179  1.00  0.00    -0.206 F 
ATOM     65  C   UNL A   1      44.678  33.156  33.777  1.00  0.00     0.059 A 
ATOM     66  C   UNL A   1      45.497  34.687  32.098  1.00  0.00     0.059 A 
ATOM     67  F   UNL A   1      45.497  34.095  29.841  1.00  0.00    -0.206 F 
ATOM     68  C   UNL A   1      45.149  34.411  33.419  1.00  0.00     0.060 A 
BRANCH  68  69
ATOM     69  S   UNL A   1      45.257  35.681  34.697  1.00  0.00     0.124 S 
ATOM     70  O   UNL A   1      46.675  36.021  34.657  1.00  0.00    -0.237 OA
ATOM     71  O   UNL A   1      44.347  36.706  34.194  1.00  0.00    -0.237 OA
ATOM     72  O   UNL A   1      44.803  34.987  35.898  1.00  0.00    -0.744 OA
ENDBRANCH  68  69
ENDBRANCH  47  61
BRANCH  48  73
ATOM     73  C   UNL A   1      42.426  23.318  26.850  1.00  0.00     0.058 A 
ATOM     74  C   UNL A   1      42.953  23.169  25.562  1.00  0.00     0.135 A 
ATOM     75  C   UNL A   1      42.084  22.076  27.471  1.00  0.00     0.135 A 
ATOM     76  F   UNL A   1      43.167  24.231  24.777  1.00  0.00    -0.206 F 
ATOM     77  C   UNL A   1      43.287  21.908  25.021  1.00  0.00     0.059 A 
ATOM     78  C   UNL A   1      42.453  20.824  26.987  1.00  0.00     0.059 A 
ATOM     79  F   UNL A   1      41.389  22.019  28.617  1.00  0.00    -0.206 F 
ATOM     80  C   UNL A   1      43.095  20.748  25.771  1.00  0.00     0.060 A 
BRANCH  80  81
ATOM     81  S   UNL A   1      43.789  19.163  25.249  1.00  0.00     0.124 S 
ATOM     82  O   UNL A   1      43.915  19.343  23.808  1.00  0.00    -0.237 OA
ATOM     83  O   UNL A   1      45.040  19.104  25.997  1.00  0.00    -0.237 OA
ATOM     84  O   UNL A   1      42.775  18.202  25.679  1.00  0.00    -0.744 OA
ENDBRANCH  80  81
ENDBRANCH  48  73
BRANCH  60  85
ATOM     85  C   UNL A   1      44.349  26.791  31.507  1.00  0.00     0.058 A 
ATOM     86  C   UNL A   1      43.158  27.437  31.886  1.00  0.00     0.135 A 
ATOM     87  C   UNL A   1      44.922  25.939  32.469  1.00  0.00     0.135 A 
ATOM     88  F   UNL A   1      42.546  28.270  31.027  1.00  0.00    -0.206 F 
ATOM     89  C   UNL A   1      42.575  27.259  33.144  1.00  0.00     0.059 A 
ATOM     90  C   UNL A   1      44.349  25.731  33.730  1.00  0.00     0.059 A 
ATOM     91  F   UNL A   1      46.067  25.300  32.213  1.00  0.00    -0.206 F 
ATOM     92  C   UNL A   1      43.177  26.403  34.062  1.00  0.00     0.060 A 
BRANCH  92  93
ATOM     93  S   UNL A   1      42.401  26.177  35.682  1.00  0.00     0.124 S 
ATOM     94  O   UNL A   1      40.985  26.085  35.342  1.00  0.00    -0.237 OA
ATOM     95  O   UNL A   1      43.020  24.939  36.147  1.00  0.00    -0.237 OA
ATOM     96  O   UNL A   1      42.783  27.379  36.420  1.00  0.00    -0.744 OA
ENDBRANCH  92  93
ENDBRANCH  60  85
ENDBRANCH  34  35
ENDBRANCH  26  29
ENDBRANCH  24  25
ENDBRANCH  23  24
ENDBRANCH   1  23
TORSDOF 18
ENDMDL
