MODEL 1
REMARK VINA RESULT:     -10.6      0.000      0.000
REMARK SMILES O=C(NCCCCNC(=O)[C@H](Cc1ccccc1)SCc1nccs1)c1ccc(-c2c3nc(c(-c4c(F)cc(S(=O)(=O)[O-])cc4F)c4ccc([nH]4)c(-c4c(F)cc(S(=O)(=O)[O-])cc4F)c4nc(c(-c5c(F)cc(S(=O)(=O)[O-])cc5F)c5ccc2[nH]5)C=C4)C=C3)cc1
REMARK SMILES IDX 5 1 4 2 3 3 1 4 2 5 26 7 27 8 91 9 28 10 90 11 29 12 30 13
REMARK SMILES IDX 31 14 84 15 32 16 89 17 83 18 85 19 33 20 88 21 82 22 81 23
REMARK SMILES IDX 34 25 68 26 47 27 67 28 48 29 51 30 66 31 86 32 49 33 50 34
REMARK SMILES IDX 65 36 87 37 52 38 35 39 36 40 45 41 37 42 38 43 44 44 46 45
REMARK SMILES IDX 39 46 40 47 41 48 42 49 43 50 69 51 70 52 79 53 71 54 72 55
REMARK SMILES IDX 78 56 80 57 73 58 74 59 75 60 76 61 77 62 53 63 54 64 63 65
REMARK SMILES IDX 55 66 56 67 62 68 64 69 57 70 58 71 59 72 60 73 61 74 6 75
REMARK SMILES IDX 7 76 8 77 9 78 10 80 11 81 19 82 20 83 21 84 22 85 25 86
REMARK SMILES IDX 23 87 24 88 12 89 13 90 14 91 18 92 15 93 17 94 16 95
REMARK H PARENT 3 6 85 24 51 35 8 79
REMARK Flexibility Score: inf
ROOT
ATOM      1  C   UNL A   1      33.063  27.050  26.506  1.00  0.00     0.023 C 
ENDROOT
BRANCH   1   2
ATOM      2  C   UNL A   1      34.218  28.041  26.491  1.00  0.00     0.116 C 
BRANCH   2   3
ATOM      3  N   UNL A   1      33.829  29.362  26.964  1.00  0.00    -0.352 N 
ATOM      4  O   UNL A   1      33.979  31.247  28.196  1.00  0.00    -0.269 OA
ATOM      5  C   UNL A   1      34.529  30.241  27.758  1.00  0.00     0.251 C 
ATOM      6  H   UNL A   1      32.941  29.670  26.672  1.00  0.00     0.163 HD
BRANCH   5   7
ATOM      7  C   UNL A   1      35.940  29.953  28.103  1.00  0.00     0.039 A 
ATOM      8  C   UNL A   1      36.955  30.185  27.173  1.00  0.00     0.014 A 
ATOM      9  C   UNL A   1      36.253  29.442  29.367  1.00  0.00     0.014 A 
ATOM     10  C   UNL A   1      38.248  29.759  27.445  1.00  0.00     0.010 A 
ATOM     11  C   UNL A   1      37.577  29.105  29.675  1.00  0.00     0.010 A 
ATOM     12  C   UNL A   1      38.582  29.232  28.705  1.00  0.00    -0.014 A 
BRANCH  12  13
ATOM     13  C   UNL A   1      40.004  28.901  28.983  1.00  0.00     0.031 A 
ATOM     14  C   UNL A   1      40.594  27.568  28.612  1.00  0.00     0.074 A 
ATOM     15  C   UNL A   1      40.784  29.861  29.521  1.00  0.00     0.049 A 
ATOM     16  N   UNL A   1      41.834  27.161  28.722  1.00  0.00    -0.248 NA
ATOM     17  C   UNL A   1      39.682  26.557  28.055  1.00  0.00     0.031 C 
ATOM     18  C   UNL A   1      40.314  31.183  29.950  1.00  0.00     0.029 A 
ATOM     19  N   UNL A   1      42.132  29.896  29.768  1.00  0.00    -0.354 N 
ATOM     20  C   UNL A   1      41.853  25.850  28.258  1.00  0.00     0.074 A 
ATOM     21  C   UNL A   1      40.493  25.518  27.892  1.00  0.00     0.031 C 
ATOM     22  C   UNL A   1      41.362  31.917  30.347  1.00  0.00     0.029 A 
ATOM     23  C   UNL A   1      42.568  31.103  30.260  1.00  0.00     0.049 A 
ATOM     24  H   UNL A   1      42.730  29.129  29.609  1.00  0.00     0.167 HD
ATOM     25  C   UNL A   1      42.910  25.009  28.141  1.00  0.00     0.037 A 
ATOM     26  C   UNL A   1      43.801  31.513  30.612  1.00  0.00     0.037 A 
ATOM     27  C   UNL A   1      44.264  25.353  28.500  1.00  0.00     0.049 A 
ATOM     28  C   UNL A   1      44.953  30.564  30.457  1.00  0.00     0.074 A 
ATOM     29  C   UNL A   1      45.404  24.572  28.409  1.00  0.00     0.029 A 
ATOM     30  N   UNL A   1      44.664  26.580  29.010  1.00  0.00    -0.354 N 
ATOM     31  N   UNL A   1      44.948  29.333  30.003  1.00  0.00    -0.248 NA
ATOM     32  C   UNL A   1      46.275  31.056  30.863  1.00  0.00     0.031 C 
ATOM     33  C   UNL A   1      46.488  25.316  28.893  1.00  0.00     0.029 A 
ATOM     34  C   UNL A   1      46.029  26.574  29.249  1.00  0.00     0.049 A 
ATOM     35  H   UNL A   1      44.066  27.343  29.179  1.00  0.00     0.167 HD
ATOM     36  C   UNL A   1      46.266  28.902  30.073  1.00  0.00     0.074 A 
ATOM     37  C   UNL A   1      47.045  30.016  30.576  1.00  0.00     0.031 C 
ATOM     38  C   UNL A   1      46.784  27.688  29.762  1.00  0.00     0.037 A 
BRANCH  25  39
ATOM     39  C   UNL A   1      42.655  23.627  27.602  1.00  0.00     0.058 A 
ATOM     40  C   UNL A   1      42.737  23.350  26.229  1.00  0.00     0.135 A 
ATOM     41  C   UNL A   1      42.401  22.555  28.472  1.00  0.00     0.135 A 
ATOM     42  F   UNL A   1      42.963  24.341  25.351  1.00  0.00    -0.206 F 
ATOM     43  C   UNL A   1      42.568  22.059  25.736  1.00  0.00     0.059 A 
ATOM     44  C   UNL A   1      42.249  21.252  28.002  1.00  0.00     0.059 A 
ATOM     45  F   UNL A   1      42.312  22.764  29.794  1.00  0.00    -0.206 F 
ATOM     46  C   UNL A   1      42.327  21.016  26.630  1.00  0.00     0.060 A 
BRANCH  46  47
ATOM     47  S   UNL A   1      42.139  19.342  25.977  1.00  0.00     0.124 S 
ATOM     48  O   UNL A   1      40.697  19.274  25.763  1.00  0.00    -0.237 OA
ATOM     49  O   UNL A   1      42.956  19.385  24.769  1.00  0.00    -0.237 OA
ATOM     50  O   UNL A   1      42.654  18.498  27.050  1.00  0.00    -0.744 OA
ENDBRANCH  46  47
ENDBRANCH  25  39
BRANCH  26  51
ATOM     51  C   UNL A   1      43.997  32.879  31.161  1.00  0.00     0.058 A 
ATOM     52  C   UNL A   1      43.982  33.119  32.541  1.00  0.00     0.135 A 
ATOM     53  C   UNL A   1      44.220  33.971  30.307  1.00  0.00     0.135 A 
ATOM     54  F   UNL A   1      43.772  32.107  33.397  1.00  0.00    -0.206 F 
ATOM     55  C   UNL A   1      44.162  34.398  33.059  1.00  0.00     0.059 A 
ATOM     56  C   UNL A   1      44.430  35.253  30.801  1.00  0.00     0.059 A 
ATOM     57  F   UNL A   1      44.264  33.788  28.979  1.00  0.00    -0.206 F 
ATOM     58  C   UNL A   1      44.384  35.459  32.179  1.00  0.00     0.060 A 
BRANCH  58  59
ATOM     59  S   UNL A   1      44.657  37.111  32.853  1.00  0.00     0.124 S 
ATOM     60  O   UNL A   1      46.086  37.078  33.138  1.00  0.00    -0.237 OA
ATOM     61  O   UNL A   1      44.247  37.970  31.746  1.00  0.00    -0.237 OA
ATOM     62  O   UNL A   1      43.778  37.145  34.018  1.00  0.00    -0.744 OA
ENDBRANCH  58  59
ENDBRANCH  26  51
BRANCH  38  63
ATOM     63  C   UNL A   1      48.264  27.517  29.960  1.00  0.00     0.058 A 
ATOM     64  C   UNL A   1      49.181  27.900  28.970  1.00  0.00     0.135 A 
ATOM     65  C   UNL A   1      48.767  26.961  31.146  1.00  0.00     0.135 A 
ATOM     66  F   UNL A   1      48.748  28.429  27.814  1.00  0.00    -0.206 F 
ATOM     67  C   UNL A   1      50.548  27.702  29.132  1.00  0.00     0.059 A 
ATOM     68  C   UNL A   1      50.132  26.777  31.339  1.00  0.00     0.059 A 
ATOM     69  F   UNL A   1      47.930  26.587  32.127  1.00  0.00    -0.206 F 
ATOM     70  C   UNL A   1      51.014  27.133  30.319  1.00  0.00     0.060 A 
BRANCH  70  71
ATOM     71  S   UNL A   1      52.789  26.873  30.519  1.00  0.00     0.124 S 
ATOM     72  O   UNL A   1      53.235  28.204  30.918  1.00  0.00    -0.237 OA
ATOM     73  O   UNL A   1      52.844  25.848  31.557  1.00  0.00    -0.237 OA
ATOM     74  O   UNL A   1      53.217  26.437  29.193  1.00  0.00    -0.744 OA
ENDBRANCH  70  71
ENDBRANCH  38  63
ENDBRANCH  12  13
ENDBRANCH   5   7
ENDBRANCH   2   3
ENDBRANCH   1   2
BRANCH   1  75
ATOM     75  C   UNL A   1      32.802  26.338  25.179  1.00  0.00     0.023 C 
BRANCH  75  76
ATOM     76  C   UNL A   1      32.400  24.868  25.292  1.00  0.00     0.116 C 
BRANCH  76  77
ATOM     77  N   UNL A   1      33.026  24.216  26.427  1.00  0.00    -0.355 N 
ATOM     78  C   UNL A   1      33.620  22.992  26.524  1.00  0.00     0.233 C 
ATOM     79  H   UNL A   1      33.020  24.740  27.260  1.00  0.00     0.163 HD
ATOM     80  O   UNL A   1      34.103  22.702  27.619  1.00  0.00    -0.274 OA
BRANCH  78  81
ATOM     81  C   UNL A   1      33.587  22.016  25.346  1.00  0.00     0.140 C 
BRANCH  81  82
ATOM     82  S   UNL A   1      34.509  22.601  23.856  1.00  0.00    -0.141 SA
BRANCH  82  83
ATOM     83  C   UNL A   1      35.753  23.774  24.489  1.00  0.00     0.137 C 
BRANCH  83  84
ATOM     84  C   UNL A   1      36.951  23.206  25.175  1.00  0.00     0.102 A 
ATOM     85  N   UNL A   1      37.780  23.872  25.959  1.00  0.00    -0.249 NA
ATOM     86  S   UNL A   1      37.405  21.572  24.852  1.00  0.00    -0.126 S 
ATOM     87  C   UNL A   1      38.792  23.030  26.383  1.00  0.00     0.123 A 
ATOM     88  C   UNL A   1      38.744  21.743  25.899  1.00  0.00     0.087 A 
ENDBRANCH  83  84
ENDBRANCH  82  83
ENDBRANCH  81  82
BRANCH  81  89
ATOM     89  C   UNL A   1      33.774  20.532  25.736  1.00  0.00     0.060 C 
BRANCH  89  90
ATOM     90  C   UNL A   1      33.591  19.457  24.693  1.00  0.00    -0.046 A 
ATOM     91  C   UNL A   1      32.502  19.492  23.812  1.00  0.00     0.004 A 
ATOM     92  C   UNL A   1      34.517  18.413  24.571  1.00  0.00     0.004 A 
ATOM     93  C   UNL A   1      32.303  18.473  22.880  1.00  0.00     0.000 A 
ATOM     94  C   UNL A   1      34.316  17.390  23.640  1.00  0.00     0.000 A 
ATOM     95  C   UNL A   1      33.203  17.415  22.803  1.00  0.00     0.000 A 
ENDBRANCH  89  90
ENDBRANCH  81  89
ENDBRANCH  78  81
ENDBRANCH  76  77
ENDBRANCH  75  76
ENDBRANCH   1  75
TORSDOF 19
ENDMDL
MODEL 2
REMARK VINA RESULT:     -10.5      1.292      2.614
REMARK SMILES O=C(NCCCCNC(=O)[C@H](Cc1ccccc1)SCc1nccs1)c1ccc(-c2c3nc(c(-c4c(F)cc(S(=O)(=O)[O-])cc4F)c4ccc([nH]4)c(-c4c(F)cc(S(=O)(=O)[O-])cc4F)c4nc(c(-c5c(F)cc(S(=O)(=O)[O-])cc5F)c5ccc2[nH]5)C=C4)C=C3)cc1
REMARK SMILES IDX 5 1 4 2 3 3 1 4 2 5 26 7 27 8 91 9 28 10 90 11 29 12 30 13
REMARK SMILES IDX 31 14 84 15 32 16 89 17 83 18 85 19 33 20 88 21 82 22 81 23
REMARK SMILES IDX 34 25 68 26 47 27 67 28 48 29 51 30 66 31 86 32 49 33 50 34
REMARK SMILES IDX 65 36 87 37 52 38 35 39 36 40 45 41 37 42 38 43 44 44 46 45
REMARK SMILES IDX 39 46 40 47 41 48 42 49 43 50 69 51 70 52 79 53 71 54 72 55
REMARK SMILES IDX 78 56 80 57 73 58 74 59 75 60 76 61 77 62 53 63 54 64 63 65
REMARK SMILES IDX 55 66 56 67 62 68 64 69 57 70 58 71 59 72 60 73 61 74 6 75
REMARK SMILES IDX 7 76 8 77 9 78 10 80 11 81 19 82 20 83 21 84 22 85 25 86
REMARK SMILES IDX 23 87 24 88 12 89 13 90 14 91 18 92 15 93 17 94 16 95
REMARK H PARENT 3 6 85 24 51 35 8 79
REMARK Flexibility Score: inf
ROOT
ATOM      1  C   UNL A   1      32.904  27.676  25.793  1.00  0.00     0.023 C 
ENDROOT
BRANCH   1   2
ATOM      2  C   UNL A   1      34.042  28.192  26.663  1.00  0.00     0.116 C 
BRANCH   2   3
ATOM      3  N   UNL A   1      33.787  29.527  27.184  1.00  0.00    -0.352 N 
ATOM      4  O   UNL A   1      34.160  31.367  28.437  1.00  0.00    -0.269 OA
ATOM      5  C   UNL A   1      34.602  30.332  27.946  1.00  0.00     0.251 C 
ATOM      6  H   UNL A   1      32.908  29.908  26.958  1.00  0.00     0.163 HD
BRANCH   5   7
ATOM      7  C   UNL A   1      36.006  29.931  28.192  1.00  0.00     0.039 A 
ATOM      8  C   UNL A   1      36.385  29.409  29.430  1.00  0.00     0.014 A 
ATOM      9  C   UNL A   1      36.956  30.080  27.176  1.00  0.00     0.014 A 
ATOM     10  C   UNL A   1      37.728  29.192  29.703  1.00  0.00     0.010 A 
ATOM     11  C   UNL A   1      38.298  29.766  27.424  1.00  0.00     0.010 A 
ATOM     12  C   UNL A   1      38.701  29.348  28.700  1.00  0.00    -0.014 A 
BRANCH  12  13
ATOM     13  C   UNL A   1      40.109  28.989  29.014  1.00  0.00     0.031 A 
ATOM     14  C   UNL A   1      40.684  27.648  28.648  1.00  0.00     0.074 A 
ATOM     15  C   UNL A   1      40.891  29.930  29.581  1.00  0.00     0.049 A 
ATOM     16  N   UNL A   1      41.913  27.218  28.788  1.00  0.00    -0.248 NA
ATOM     17  C   UNL A   1      39.770  26.658  28.057  1.00  0.00     0.031 C 
ATOM     18  C   UNL A   1      40.433  31.256  30.009  1.00  0.00     0.029 A 
ATOM     19  N   UNL A   1      42.232  29.938  29.865  1.00  0.00    -0.354 N 
ATOM     20  C   UNL A   1      41.922  25.911  28.313  1.00  0.00     0.074 A 
ATOM     21  C   UNL A   1      40.566  25.606  27.907  1.00  0.00     0.031 C 
ATOM     22  C   UNL A   1      41.483  31.968  30.441  1.00  0.00     0.029 A 
ATOM     23  C   UNL A   1      42.676  31.132  30.380  1.00  0.00     0.049 A 
ATOM     24  H   UNL A   1      42.820  29.162  29.716  1.00  0.00     0.167 HD
ATOM     25  C   UNL A   1      42.966  25.051  28.218  1.00  0.00     0.037 A 
ATOM     26  C   UNL A   1      43.905  31.517  30.769  1.00  0.00     0.037 A 
ATOM     27  C   UNL A   1      44.316  25.368  28.616  1.00  0.00     0.049 A 
ATOM     28  C   UNL A   1      45.044  30.549  30.637  1.00  0.00     0.074 A 
ATOM     29  C   UNL A   1      45.444  24.566  28.550  1.00  0.00     0.029 A 
ATOM     30  N   UNL A   1      44.724  26.582  29.148  1.00  0.00    -0.354 N 
ATOM     31  N   UNL A   1      45.029  29.322  30.172  1.00  0.00    -0.248 NA
ATOM     32  C   UNL A   1      46.363  31.013  31.083  1.00  0.00     0.031 C 
ATOM     33  C   UNL A   1      46.527  25.286  29.070  1.00  0.00     0.029 A 
ATOM     34  C   UNL A   1      46.082  26.549  29.424  1.00  0.00     0.049 A 
ATOM     35  H   UNL A   1      44.135  27.355  29.307  1.00  0.00     0.167 HD
ATOM     36  C   UNL A   1      46.338  28.866  30.275  1.00  0.00     0.074 A 
ATOM     37  C   UNL A   1      47.122  29.961  30.809  1.00  0.00     0.031 C 
ATOM     38  C   UNL A   1      46.842  27.645  29.967  1.00  0.00     0.037 A 
BRANCH  25  39
ATOM     39  C   UNL A   1      42.701  23.679  27.659  1.00  0.00     0.058 A 
ATOM     40  C   UNL A   1      42.799  23.416  26.285  1.00  0.00     0.135 A 
ATOM     41  C   UNL A   1      42.421  22.600  28.514  1.00  0.00     0.135 A 
ATOM     42  F   UNL A   1      43.050  24.413  25.422  1.00  0.00    -0.206 F 
ATOM     43  C   UNL A   1      42.620  22.133  25.775  1.00  0.00     0.059 A 
ATOM     44  C   UNL A   1      42.259  21.305  28.028  1.00  0.00     0.059 A 
ATOM     45  F   UNL A   1      42.316  22.796  29.837  1.00  0.00    -0.206 F 
ATOM     46  C   UNL A   1      42.353  21.083  26.654  1.00  0.00     0.060 A 
BRANCH  46  47
ATOM     47  S   UNL A   1      42.154  19.419  25.980  1.00  0.00     0.124 S 
ATOM     48  O   UNL A   1      42.701  18.601  27.057  1.00  0.00    -0.237 OA
ATOM     49  O   UNL A   1      40.710  19.330  25.789  1.00  0.00    -0.237 OA
ATOM     50  O   UNL A   1      42.945  19.451  24.754  1.00  0.00    -0.744 OA
ENDBRANCH  46  47
ENDBRANCH  25  39
BRANCH  26  51
ATOM     51  C   UNL A   1      44.111  32.874  31.335  1.00  0.00     0.058 A 
ATOM     52  C   UNL A   1      44.017  33.112  32.713  1.00  0.00     0.135 A 
ATOM     53  C   UNL A   1      44.423  33.961  30.502  1.00  0.00     0.135 A 
ATOM     54  F   UNL A   1      43.721  32.105  33.550  1.00  0.00    -0.206 F 
ATOM     55  C   UNL A   1      44.205  34.383  33.246  1.00  0.00     0.059 A 
ATOM     56  C   UNL A   1      44.643  35.234  31.014  1.00  0.00     0.059 A 
ATOM     57  F   UNL A   1      44.544  33.780  29.179  1.00  0.00    -0.206 F 
ATOM     58  C   UNL A   1      44.517  35.438  32.386  1.00  0.00     0.060 A 
BRANCH  58  59
ATOM     59  S   UNL A   1      44.800  37.079  33.083  1.00  0.00     0.124 S 
ATOM     60  O   UNL A   1      43.459  37.444  33.524  1.00  0.00    -0.237 OA
ATOM     61  O   UNL A   1      45.768  36.805  34.142  1.00  0.00    -0.237 OA
ATOM     62  O   UNL A   1      45.323  37.836  31.950  1.00  0.00    -0.744 OA
ENDBRANCH  58  59
ENDBRANCH  26  51
BRANCH  38  63
ATOM     63  C   UNL A   1      48.312  27.445  30.204  1.00  0.00     0.058 A 
ATOM     64  C   UNL A   1      49.266  27.860  29.261  1.00  0.00     0.135 A 
ATOM     65  C   UNL A   1      48.770  26.832  31.380  1.00  0.00     0.135 A 
ATOM     66  F   UNL A   1      48.877  28.444  28.117  1.00  0.00    -0.206 F 
ATOM     67  C   UNL A   1      50.624  27.636  29.458  1.00  0.00     0.059 A 
ATOM     68  C   UNL A   1      50.126  26.621  31.608  1.00  0.00     0.059 A 
ATOM     69  F   UNL A   1      47.898  26.427  32.316  1.00  0.00    -0.206 F 
ATOM     70  C   UNL A   1      51.044  27.009  30.633  1.00  0.00     0.060 A 
BRANCH  70  71
ATOM     71  S   UNL A   1      52.808  26.717  30.877  1.00  0.00     0.124 S 
ATOM     72  O   UNL A   1      53.297  28.069  31.126  1.00  0.00    -0.237 OA
ATOM     73  O   UNL A   1      52.824  25.815  32.025  1.00  0.00    -0.237 OA
ATOM     74  O   UNL A   1      53.229  26.119  29.612  1.00  0.00    -0.744 OA
ENDBRANCH  70  71
ENDBRANCH  38  63
ENDBRANCH  12  13
ENDBRANCH   5   7
ENDBRANCH   2   3
ENDBRANCH   1   2
BRANCH   1  75
ATOM     75  C   UNL A   1      31.939  26.717  26.489  1.00  0.00     0.023 C 
BRANCH  75  76
ATOM     76  C   UNL A   1      32.442  25.284  26.652  1.00  0.00     0.116 C 
BRANCH  76  77
ATOM     77  N   UNL A   1      31.358  24.346  26.877  1.00  0.00    -0.355 N 
ATOM     78  C   UNL A   1      30.967  23.259  26.152  1.00  0.00     0.233 C 
ATOM     79  H   UNL A   1      30.819  24.522  27.682  1.00  0.00     0.163 HD
ATOM     80  O   UNL A   1      30.018  22.614  26.600  1.00  0.00    -0.274 OA
BRANCH  78  81
ATOM     81  C   UNL A   1      31.629  22.940  24.810  1.00  0.00     0.140 C 
BRANCH  81  82
ATOM     82  S   UNL A   1      32.312  21.227  24.694  1.00  0.00    -0.141 SA
BRANCH  82  83
ATOM     83  C   UNL A   1      33.506  21.091  26.064  1.00  0.00     0.137 C 
BRANCH  83  84
ATOM     84  C   UNL A   1      34.816  21.791  25.911  1.00  0.00     0.102 A 
ATOM     85  N   UNL A   1      35.065  23.045  26.239  1.00  0.00    -0.249 NA
ATOM     86  S   UNL A   1      36.118  20.969  25.128  1.00  0.00    -0.126 S 
ATOM     87  C   UNL A   1      36.374  23.356  25.920  1.00  0.00     0.123 A 
ATOM     88  C   UNL A   1      37.102  22.351  25.325  1.00  0.00     0.087 A 
ENDBRANCH  83  84
ENDBRANCH  82  83
ENDBRANCH  81  82
BRANCH  81  89
ATOM     89  C   UNL A   1      30.860  23.463  23.575  1.00  0.00     0.060 C 
BRANCH  89  90
ATOM     90  C   UNL A   1      30.784  24.948  23.315  1.00  0.00    -0.046 A 
ATOM     91  C   UNL A   1      29.727  25.711  23.829  1.00  0.00     0.004 A 
ATOM     92  C   UNL A   1      31.780  25.596  22.573  1.00  0.00     0.004 A 
ATOM     93  C   UNL A   1      29.628  27.074  23.549  1.00  0.00     0.000 A 
ATOM     94  C   UNL A   1      31.679  26.961  22.289  1.00  0.00     0.000 A 
ATOM     95  C   UNL A   1      30.597  27.697  22.767  1.00  0.00     0.000 A 
ENDBRANCH  89  90
ENDBRANCH  81  89
ENDBRANCH  78  81
ENDBRANCH  76  77
ENDBRANCH  75  76
ENDBRANCH   1  75
TORSDOF 19
ENDMDL
MODEL 3
REMARK VINA RESULT:     -10.5      3.098      8.943
REMARK SMILES O=C(NCCCCNC(=O)[C@H](Cc1ccccc1)SCc1nccs1)c1ccc(-c2c3nc(c(-c4c(F)cc(S(=O)(=O)[O-])cc4F)c4ccc([nH]4)c(-c4c(F)cc(S(=O)(=O)[O-])cc4F)c4nc(c(-c5c(F)cc(S(=O)(=O)[O-])cc5F)c5ccc2[nH]5)C=C4)C=C3)cc1
REMARK SMILES IDX 5 1 4 2 3 3 1 4 2 5 26 7 27 8 91 9 28 10 90 11 29 12 30 13
REMARK SMILES IDX 31 14 84 15 32 16 89 17 83 18 85 19 33 20 88 21 82 22 81 23
REMARK SMILES IDX 34 25 68 26 47 27 67 28 48 29 51 30 66 31 86 32 49 33 50 34
REMARK SMILES IDX 65 36 87 37 52 38 35 39 36 40 45 41 37 42 38 43 44 44 46 45
REMARK SMILES IDX 39 46 40 47 41 48 42 49 43 50 69 51 70 52 79 53 71 54 72 55
REMARK SMILES IDX 78 56 80 57 73 58 74 59 75 60 76 61 77 62 53 63 54 64 63 65
REMARK SMILES IDX 55 66 56 67 62 68 64 69 57 70 58 71 59 72 60 73 61 74 6 75
REMARK SMILES IDX 7 76 8 77 9 78 10 80 11 81 19 82 20 83 21 84 22 85 25 86
REMARK SMILES IDX 23 87 24 88 12 89 13 90 14 91 18 92 15 93 17 94 16 95
REMARK H PARENT 3 6 85 24 51 35 8 79
REMARK Flexibility Score: inf
ROOT
ATOM      1  C   UNL A   1      33.212  27.418  25.193  1.00  0.00     0.023 C 
ENDROOT
BRANCH   1   2
ATOM      2  C   UNL A   1      34.138  28.080  26.204  1.00  0.00     0.116 C 
BRANCH   2   3
ATOM      3  N   UNL A   1      33.735  29.441  26.526  1.00  0.00    -0.352 N 
ATOM      4  O   UNL A   1      33.756  31.393  27.658  1.00  0.00    -0.269 OA
ATOM      5  C   UNL A   1      34.327  30.343  27.381  1.00  0.00     0.251 C 
ATOM      6  H   UNL A   1      32.926  29.762  26.067  1.00  0.00     0.163 HD
BRANCH   5   7
ATOM      7  C   UNL A   1      35.643  30.027  27.983  1.00  0.00     0.039 A 
ATOM      8  C   UNL A   1      35.718  29.460  29.256  1.00  0.00     0.014 A 
ATOM      9  C   UNL A   1      36.814  30.304  27.271  1.00  0.00     0.014 A 
ATOM     10  C   UNL A   1      36.952  29.322  29.876  1.00  0.00     0.010 A 
ATOM     11  C   UNL A   1      38.061  30.070  27.862  1.00  0.00     0.010 A 
ATOM     12  C   UNL A   1      38.142  29.605  29.182  1.00  0.00    -0.014 A 
BRANCH  12  13
ATOM     13  C   UNL A   1      39.439  29.328  29.853  1.00  0.00     0.031 A 
ATOM     14  C   UNL A   1      39.858  30.059  31.099  1.00  0.00     0.074 A 
ATOM     15  C   UNL A   1      40.214  28.345  29.351  1.00  0.00     0.049 A 
ATOM     16  N   UNL A   1      40.923  29.875  31.838  1.00  0.00    -0.248 NA
ATOM     17  C   UNL A   1      38.980  31.139  31.578  1.00  0.00     0.031 C 
ATOM     18  C   UNL A   1      39.924  27.589  28.128  1.00  0.00     0.029 A 
ATOM     19  N   UNL A   1      41.377  27.787  29.815  1.00  0.00    -0.354 N 
ATOM     20  C   UNL A   1      40.851  30.814  32.861  1.00  0.00     0.074 A 
ATOM     21  C   UNL A   1      39.650  31.589  32.632  1.00  0.00     0.031 C 
ATOM     22  C   UNL A   1      40.846  26.628  27.973  1.00  0.00     0.029 A 
ATOM     23  C   UNL A   1      41.824  26.738  29.048  1.00  0.00     0.049 A 
ATOM     24  H   UNL A   1      41.846  28.107  30.619  1.00  0.00     0.167 HD
ATOM     25  C   UNL A   1      41.703  31.003  33.898  1.00  0.00     0.037 A 
ATOM     26  C   UNL A   1      42.908  25.951  29.185  1.00  0.00     0.037 A 
ATOM     27  C   UNL A   1      42.892  30.219  34.124  1.00  0.00     0.049 A 
ATOM     28  C   UNL A   1      43.824  26.175  30.352  1.00  0.00     0.074 A 
ATOM     29  C   UNL A   1      43.815  30.330  35.153  1.00  0.00     0.029 A 
ATOM     30  N   UNL A   1      43.322  29.176  33.317  1.00  0.00    -0.354 N 
ATOM     31  N   UNL A   1      43.728  27.062  31.314  1.00  0.00    -0.248 NA
ATOM     32  C   UNL A   1      44.996  25.297  30.452  1.00  0.00     0.031 C 
ATOM     33  C   UNL A   1      44.817  29.373  34.949  1.00  0.00     0.029 A 
ATOM     34  C   UNL A   1      44.499  28.641  33.817  1.00  0.00     0.049 A 
ATOM     35  H   UNL A   1      42.859  28.861  32.507  1.00  0.00     0.167 HD
ATOM     36  C   UNL A   1      44.830  26.850  32.132  1.00  0.00     0.074 A 
ATOM     37  C   UNL A   1      45.557  25.728  31.572  1.00  0.00     0.031 C 
ATOM     38  C   UNL A   1      45.214  27.532  33.239  1.00  0.00     0.037 A 
BRANCH  25  39
ATOM     39  C   UNL A   1      41.389  32.102  34.878  1.00  0.00     0.058 A 
ATOM     40  C   UNL A   1      41.932  33.388  34.736  1.00  0.00     0.135 A 
ATOM     41  C   UNL A   1      40.477  31.889  35.925  1.00  0.00     0.135 A 
ATOM     42  F   UNL A   1      42.820  33.643  33.762  1.00  0.00    -0.206 F 
ATOM     43  C   UNL A   1      41.589  34.422  35.602  1.00  0.00     0.059 A 
ATOM     44  C   UNL A   1      40.104  32.915  36.791  1.00  0.00     0.059 A 
ATOM     45  F   UNL A   1      39.928  30.678  36.106  1.00  0.00    -0.206 F 
ATOM     46  C   UNL A   1      40.672  34.177  36.625  1.00  0.00     0.060 A 
BRANCH  46  47
ATOM     47  S   UNL A   1      40.215  35.538  37.722  1.00  0.00     0.124 S 
ATOM     48  O   UNL A   1      39.880  36.585  36.762  1.00  0.00    -0.237 OA
ATOM     49  O   UNL A   1      39.092  34.977  38.464  1.00  0.00    -0.237 OA
ATOM     50  O   UNL A   1      41.427  35.768  38.502  1.00  0.00    -0.744 OA
ENDBRANCH  46  47
ENDBRANCH  25  39
BRANCH  26  51
ATOM     51  C   UNL A   1      43.187  24.895  28.178  1.00  0.00     0.058 A 
ATOM     52  C   UNL A   1      43.817  25.194  26.963  1.00  0.00     0.135 A 
ATOM     53  C   UNL A   1      42.840  23.558  28.425  1.00  0.00     0.135 A 
ATOM     54  F   UNL A   1      44.168  26.459  26.682  1.00  0.00    -0.206 F 
ATOM     55  C   UNL A   1      44.077  24.209  26.016  1.00  0.00     0.059 A 
ATOM     56  C   UNL A   1      43.113  22.550  27.507  1.00  0.00     0.059 A 
ATOM     57  F   UNL A   1      42.254  23.218  29.583  1.00  0.00    -0.206 F 
ATOM     58  C   UNL A   1      43.719  22.889  26.299  1.00  0.00     0.060 A 
BRANCH  58  59
ATOM     59  S   UNL A   1      44.092  21.604  25.087  1.00  0.00     0.124 S 
ATOM     60  O   UNL A   1      43.961  22.338  23.834  1.00  0.00    -0.237 OA
ATOM     61  O   UNL A   1      45.449  21.211  25.458  1.00  0.00    -0.237 OA
ATOM     62  O   UNL A   1      43.066  20.597  25.342  1.00  0.00    -0.744 OA
ENDBRANCH  58  59
ENDBRANCH  26  51
BRANCH  38  63
ATOM     63  C   UNL A   1      46.477  27.071  33.909  1.00  0.00     0.058 A 
ATOM     64  C   UNL A   1      46.454  26.093  34.915  1.00  0.00     0.135 A 
ATOM     65  C   UNL A   1      47.719  27.614  33.546  1.00  0.00     0.135 A 
ATOM     66  F   UNL A   1      45.289  25.549  35.304  1.00  0.00    -0.206 F 
ATOM     67  C   UNL A   1      47.616  25.696  35.568  1.00  0.00     0.059 A 
ATOM     68  C   UNL A   1      48.897  27.214  34.168  1.00  0.00     0.059 A 
ATOM     69  F   UNL A   1      47.795  28.546  32.582  1.00  0.00    -0.206 F 
ATOM     70  C   UNL A   1      48.833  26.268  35.191  1.00  0.00     0.060 A 
BRANCH  70  71
ATOM     71  S   UNL A   1      50.336  25.753  36.048  1.00  0.00     0.124 S 
ATOM     72  O   UNL A   1      49.984  26.016  37.439  1.00  0.00    -0.237 OA
ATOM     73  O   UNL A   1      50.445  24.345  35.677  1.00  0.00    -0.237 OA
ATOM     74  O   UNL A   1      51.362  26.625  35.483  1.00  0.00    -0.744 OA
ENDBRANCH  70  71
ENDBRANCH  38  63
ENDBRANCH  12  13
ENDBRANCH   5   7
ENDBRANCH   2   3
ENDBRANCH   1   2
BRANCH   1  75
ATOM     75  C   UNL A   1      32.371  26.266  25.742  1.00  0.00     0.023 C 
BRANCH  75  76
ATOM     76  C   UNL A   1      33.047  24.896  25.725  1.00  0.00     0.116 C 
BRANCH  76  77
ATOM     77  N   UNL A   1      33.489  24.520  24.395  1.00  0.00    -0.355 N 
ATOM     78  C   UNL A   1      34.165  23.414  23.971  1.00  0.00     0.233 C 
ATOM     79  H   UNL A   1      33.264  25.165  23.687  1.00  0.00     0.163 HD
ATOM     80  O   UNL A   1      34.386  23.338  22.761  1.00  0.00    -0.274 OA
BRANCH  78  81
ATOM     81  C   UNL A   1      34.693  22.391  24.977  1.00  0.00     0.140 C 
BRANCH  81  82
ATOM     82  S   UNL A   1      33.427  21.171  25.547  1.00  0.00    -0.141 SA
BRANCH  82  83
ATOM     83  C   UNL A   1      33.261  19.976  24.180  1.00  0.00     0.137 C 
BRANCH  83  84
ATOM     84  C   UNL A   1      33.067  18.539  24.538  1.00  0.00     0.102 A 
ATOM     85  N   UNL A   1      32.465  18.088  25.622  1.00  0.00    -0.249 NA
ATOM     86  S   UNL A   1      33.780  17.325  23.538  1.00  0.00    -0.126 S 
ATOM     87  C   UNL A   1      32.509  16.705  25.634  1.00  0.00     0.123 A 
ATOM     88  C   UNL A   1      33.166  16.117  24.578  1.00  0.00     0.087 A 
ENDBRANCH  83  84
ENDBRANCH  82  83
ENDBRANCH  81  82
BRANCH  81  89
ATOM     89  C   UNL A   1      36.095  21.829  24.647  1.00  0.00     0.060 C 
BRANCH  89  90
ATOM     90  C   UNL A   1      37.303  22.357  25.381  1.00  0.00    -0.046 A 
ATOM     91  C   UNL A   1      38.403  21.528  25.640  1.00  0.00     0.004 A 
ATOM     92  C   UNL A   1      37.358  23.693  25.801  1.00  0.00     0.004 A 
ATOM     93  C   UNL A   1      39.500  22.000  26.361  1.00  0.00     0.000 A 
ATOM     94  C   UNL A   1      38.454  24.165  26.528  1.00  0.00     0.000 A 
ATOM     95  C   UNL A   1      39.520  23.315  26.817  1.00  0.00     0.000 A 
ENDBRANCH  89  90
ENDBRANCH  81  89
ENDBRANCH  78  81
ENDBRANCH  76  77
ENDBRANCH  75  76
ENDBRANCH   1  75
TORSDOF 19
ENDMDL
