MODEL 1
REMARK VINA RESULT:     -12.2      0.000      0.000
REMARK SMILES Cc1oc2ccc(OCc3ccc(Br)cc3)cc2c1C(=O)NCCCCNC(=O)c1ccc(-c2c3nc(c(-c4c(F)cc(S(=O)(=O)[O-])cc4F)c4ccc([nH]4)c(-c4c(F)cc(S(=O)(=O)[O-])cc4F)c4nc(c(-c5c(F)cc(S(=O)(=O)[O-])cc5F)c5ccc2[nH]5)C=C4)C=C3)cc1
REMARK SMILES IDX 24 1 23 2 22 3 20 4 21 5 19 7 1 8 2 9 3 10 4 11 18 12 5 13
REMARK SMILES IDX 17 14 6 15 7 16 8 17 9 18 10 19 11 20 16 21 12 22 15 23
REMARK SMILES IDX 13 24 14 25 25 26 26 27 27 28 28 29 29 31 30 32 31 33 95 34
REMARK SMILES IDX 32 35 94 36 33 37 34 38 35 39 88 40 36 41 93 42 87 43 89 44
REMARK SMILES IDX 37 45 92 46 86 47 85 48 38 50 72 51 51 52 71 53 52 54 55 55
REMARK SMILES IDX 70 56 90 57 53 58 54 59 69 61 91 62 56 63 39 64 40 65 49 66
REMARK SMILES IDX 41 67 42 68 48 69 50 70 43 71 44 72 45 73 46 74 47 75 73 76
REMARK SMILES IDX 74 77 83 78 75 79 76 80 82 81 84 82 77 83 78 84 79 85 80 86
REMARK SMILES IDX 81 87 57 88 58 89 67 90 59 91 60 92 66 93 68 94 61 95 62 96
REMARK SMILES IDX 63 97 64 98 65 99
REMARK H PARENT 22 6 27 30 89 49 55 60
REMARK Flexibility Score: inf
ROOT
ATOM      1  C   UNL A   1      32.643  29.218  26.981  1.00  0.00     0.023 C 
ENDROOT
BRANCH   1   2
ATOM      2  C   UNL A   1      32.889  27.727  26.776  1.00  0.00     0.116 C 
BRANCH   2   3
ATOM      3  N   UNL A   1      31.712  26.897  26.878  1.00  0.00    -0.352 N 
ATOM      4  C   UNL A   1      30.834  26.450  25.920  1.00  0.00     0.255 C 
ATOM      5  O   UNL A   1      29.864  25.812  26.338  1.00  0.00    -0.269 OA
ATOM      6  H   UNL A   1      31.502  26.600  27.793  1.00  0.00     0.163 HD
BRANCH   4   7
ATOM      7  C   UNL A   1      30.990  26.706  24.486  1.00  0.00     0.088 A 
ATOM      8  C   UNL A   1      30.189  29.203  23.938  1.00  0.00     0.088 C 
ATOM      9  C   UNL A   1      30.718  27.841  23.720  1.00  0.00     0.115 A 
ATOM     10  O   UNL A   1      31.117  27.656  22.432  1.00  0.00    -0.461 OA
ATOM     11  C   UNL A   1      31.714  26.452  22.350  1.00  0.00     0.135 A 
ATOM     12  C   UNL A   1      31.640  25.789  23.562  1.00  0.00     0.037 A 
ATOM     13  C   UNL A   1      32.351  25.973  21.216  1.00  0.00     0.051 A 
ATOM     14  C   UNL A   1      32.201  24.488  23.618  1.00  0.00     0.059 A 
ATOM     15  C   UNL A   1      32.953  24.719  21.324  1.00  0.00     0.050 A 
ATOM     16  C   UNL A   1      32.832  23.947  22.479  1.00  0.00     0.120 A 
BRANCH  16  17
ATOM     17  O   UNL A   1      33.295  22.662  22.616  1.00  0.00    -0.489 OA
BRANCH  17  18
ATOM     18  C   UNL A   1      33.438  22.110  23.933  1.00  0.00     0.265 C 
BRANCH  18  19
ATOM     19  C   UNL A   1      34.875  22.079  24.414  1.00  0.00    -0.011 A 
ATOM     20  C   UNL A   1      35.455  20.898  24.906  1.00  0.00     0.008 A 
ATOM     21  C   UNL A   1      35.648  23.249  24.404  1.00  0.00     0.008 A 
ATOM     22  C   UNL A   1      36.752  20.895  25.423  1.00  0.00     0.016 A 
ATOM     23  C   UNL A   1      36.959  23.242  24.892  1.00  0.00     0.016 A 
ATOM     24  C   UNL A   1      37.499  22.069  25.413  1.00  0.00     0.017 A 
ATOM     25  Br  UNL A   1      39.253  22.065  26.116  1.00  0.00    -0.051 Br
ENDBRANCH  18  19
ENDBRANCH  17  18
ENDBRANCH  16  17
ENDBRANCH   4   7
ENDBRANCH   2   3
ENDBRANCH   1   2
BRANCH   1  26
ATOM     26  C   UNL A   1      33.873  30.124  26.998  1.00  0.00     0.023 C 
BRANCH  26  27
ATOM     27  C   UNL A   1      35.058  29.661  27.841  1.00  0.00     0.116 C 
BRANCH  27  28
ATOM     28  N   UNL A   1      35.223  30.398  29.088  1.00  0.00    -0.352 N 
ATOM     29  C   UNL A   1      36.321  30.527  29.908  1.00  0.00     0.251 C 
ATOM     30  H   UNL A   1      34.420  30.880  29.391  1.00  0.00     0.163 HD
ATOM     31  O   UNL A   1      36.218  31.144  30.966  1.00  0.00    -0.269 OA
BRANCH  29  32
ATOM     32  C   UNL A   1      37.606  29.890  29.547  1.00  0.00     0.039 A 
ATOM     33  C   UNL A   1      38.021  29.914  28.212  1.00  0.00     0.014 A 
ATOM     34  C   UNL A   1      38.417  29.296  30.517  1.00  0.00     0.014 A 
ATOM     35  C   UNL A   1      39.293  29.445  27.871  1.00  0.00     0.010 A 
ATOM     36  C   UNL A   1      39.714  28.909  30.191  1.00  0.00     0.010 A 
ATOM     37  C   UNL A   1      40.173  28.991  28.867  1.00  0.00    -0.014 A 
BRANCH  37  38
ATOM     38  C   UNL A   1      41.581  28.624  28.555  1.00  0.00     0.031 A 
ATOM     39  C   UNL A   1      42.654  29.679  28.539  1.00  0.00     0.074 A 
ATOM     40  C   UNL A   1      41.877  27.357  28.197  1.00  0.00     0.049 A 
ATOM     41  N   UNL A   1      43.909  29.578  28.185  1.00  0.00    -0.248 NA
ATOM     42  C   UNL A   1      42.254  31.037  28.945  1.00  0.00     0.031 C 
ATOM     43  C   UNL A   1      40.920  26.252  28.114  1.00  0.00     0.029 A 
ATOM     44  N   UNL A   1      43.069  26.787  27.819  1.00  0.00    -0.354 N 
ATOM     45  C   UNL A   1      44.441  30.856  28.300  1.00  0.00     0.074 A 
ATOM     46  C   UNL A   1      43.361  31.727  28.709  1.00  0.00     0.031 C 
ATOM     47  C   UNL A   1      41.562  25.137  27.733  1.00  0.00     0.029 A 
ATOM     48  C   UNL A   1      42.969  25.451  27.505  1.00  0.00     0.049 A 
ATOM     49  H   UNL A   1      43.915  27.288  27.776  1.00  0.00     0.167 HD
ATOM     50  C   UNL A   1      45.718  31.264  28.105  1.00  0.00     0.037 A 
ATOM     51  C   UNL A   1      43.902  24.579  27.076  1.00  0.00     0.037 A 
ATOM     52  C   UNL A   1      46.798  30.388  27.736  1.00  0.00     0.049 A 
ATOM     53  C   UNL A   1      45.318  25.050  26.891  1.00  0.00     0.074 A 
ATOM     54  C   UNL A   1      48.139  30.694  27.578  1.00  0.00     0.029 A 
ATOM     55  N   UNL A   1      46.664  29.033  27.472  1.00  0.00    -0.354 N 
ATOM     56  N   UNL A   1      45.816  26.252  27.063  1.00  0.00    -0.248 NA
ATOM     57  C   UNL A   1      46.304  24.047  26.462  1.00  0.00     0.031 C 
ATOM     58  C   UNL A   1      48.810  29.531  27.188  1.00  0.00     0.029 A 
ATOM     59  C   UNL A   1      47.896  28.490  27.143  1.00  0.00     0.049 A 
ATOM     60  H   UNL A   1      45.819  28.531  27.514  1.00  0.00     0.167 HD
ATOM     61  C   UNL A   1      47.175  26.143  26.791  1.00  0.00     0.074 A 
ATOM     62  C   UNL A   1      47.424  24.758  26.452  1.00  0.00     0.031 C 
ATOM     63  C   UNL A   1      48.130  27.105  26.822  1.00  0.00     0.037 A 
BRANCH  50  64
ATOM     64  C   UNL A   1      46.018  32.725  28.301  1.00  0.00     0.058 A 
ATOM     65  C   UNL A   1      46.465  33.224  29.534  1.00  0.00     0.135 A 
ATOM     66  C   UNL A   1      45.885  33.632  27.237  1.00  0.00     0.135 A 
ATOM     67  F   UNL A   1      46.594  32.403  30.589  1.00  0.00    -0.206 F 
ATOM     68  C   UNL A   1      46.738  34.575  29.717  1.00  0.00     0.059 A 
ATOM     69  C   UNL A   1      46.180  34.984  27.389  1.00  0.00     0.059 A 
ATOM     70  F   UNL A   1      45.463  33.209  26.035  1.00  0.00    -0.206 F 
ATOM     71  C   UNL A   1      46.590  35.448  28.638  1.00  0.00     0.060 A 
BRANCH  71  72
ATOM     72  S   UNL A   1      46.949  37.200  28.891  1.00  0.00     0.124 S 
ATOM     73  O   UNL A   1      45.818  37.610  29.719  1.00  0.00    -0.237 OA
ATOM     74  O   UNL A   1      48.244  37.161  29.562  1.00  0.00    -0.237 OA
ATOM     75  O   UNL A   1      46.964  37.742  27.536  1.00  0.00    -0.744 OA
ENDBRANCH  71  72
ENDBRANCH  50  64
BRANCH  51  76
ATOM     76  C   UNL A   1      43.532  23.161  26.818  1.00  0.00     0.058 A 
ATOM     77  C   UNL A   1      43.257  22.287  27.880  1.00  0.00     0.135 A 
ATOM     78  C   UNL A   1      43.436  22.655  25.513  1.00  0.00     0.135 A 
ATOM     79  F   UNL A   1      43.341  22.723  29.146  1.00  0.00    -0.206 F 
ATOM     80  C   UNL A   1      42.914  20.956  27.659  1.00  0.00     0.059 A 
ATOM     81  C   UNL A   1      43.073  21.335  25.265  1.00  0.00     0.059 A 
ATOM     82  F   UNL A   1      43.674  23.456  24.462  1.00  0.00    -0.206 F 
ATOM     83  C   UNL A   1      42.824  20.490  26.347  1.00  0.00     0.060 A 
BRANCH  83  84
ATOM     84  S   UNL A   1      42.331  18.774  26.069  1.00  0.00     0.124 S 
ATOM     85  O   UNL A   1      42.562  18.187  27.383  1.00  0.00    -0.237 OA
ATOM     86  O   UNL A   1      40.934  18.917  25.669  1.00  0.00    -0.237 OA
ATOM     87  O   UNL A   1      43.235  18.334  25.011  1.00  0.00    -0.744 OA
ENDBRANCH  83  84
ENDBRANCH  51  76
BRANCH  63  88
ATOM     88  C   UNL A   1      49.542  26.689  26.521  1.00  0.00     0.058 A 
ATOM     89  C   UNL A   1      50.376  26.143  27.508  1.00  0.00     0.135 A 
ATOM     90  C   UNL A   1      50.045  26.784  25.213  1.00  0.00     0.135 A 
ATOM     91  F   UNL A   1      49.945  26.037  28.775  1.00  0.00    -0.206 F 
ATOM     92  C   UNL A   1      51.668  25.718  27.212  1.00  0.00     0.059 A 
ATOM     93  C   UNL A   1      51.324  26.344  24.890  1.00  0.00     0.059 A 
ATOM     94  F   UNL A   1      49.282  27.291  24.231  1.00  0.00    -0.206 F 
ATOM     95  C   UNL A   1      52.132  25.821  25.900  1.00  0.00     0.060 A 
BRANCH  95  96
ATOM     96  S   UNL A   1      53.795  25.228  25.518  1.00  0.00     0.124 S 
ATOM     97  O   UNL A   1      54.341  26.352  24.765  1.00  0.00    -0.237 OA
ATOM     98  O   UNL A   1      54.364  25.017  26.845  1.00  0.00    -0.237 OA
ATOM     99  O   UNL A   1      53.553  24.012  24.747  1.00  0.00    -0.744 OA
ENDBRANCH  95  96
ENDBRANCH  63  88
ENDBRANCH  37  38
ENDBRANCH  29  32
ENDBRANCH  27  28
ENDBRANCH  26  27
ENDBRANCH   1  26
TORSDOF 17
ENDMDL
MODEL 2
REMARK VINA RESULT:     -12.0      0.582      1.693
REMARK SMILES Cc1oc2ccc(OCc3ccc(Br)cc3)cc2c1C(=O)NCCCCNC(=O)c1ccc(-c2c3nc(c(-c4c(F)cc(S(=O)(=O)[O-])cc4F)c4ccc([nH]4)c(-c4c(F)cc(S(=O)(=O)[O-])cc4F)c4nc(c(-c5c(F)cc(S(=O)(=O)[O-])cc5F)c5ccc2[nH]5)C=C4)C=C3)cc1
REMARK SMILES IDX 24 1 23 2 22 3 20 4 21 5 19 7 1 8 2 9 3 10 4 11 18 12 5 13
REMARK SMILES IDX 17 14 6 15 7 16 8 17 9 18 10 19 11 20 16 21 12 22 15 23
REMARK SMILES IDX 13 24 14 25 25 26 26 27 27 28 28 29 29 31 30 32 31 33 95 34
REMARK SMILES IDX 32 35 94 36 33 37 34 38 35 39 88 40 36 41 93 42 87 43 89 44
REMARK SMILES IDX 37 45 92 46 86 47 85 48 38 50 72 51 51 52 71 53 52 54 55 55
REMARK SMILES IDX 70 56 90 57 53 58 54 59 69 61 91 62 56 63 39 64 40 65 49 66
REMARK SMILES IDX 41 67 42 68 48 69 50 70 43 71 44 72 45 73 46 74 47 75 73 76
REMARK SMILES IDX 74 77 83 78 75 79 76 80 82 81 84 82 77 83 78 84 79 85 80 86
REMARK SMILES IDX 81 87 57 88 58 89 67 90 59 91 60 92 66 93 68 94 61 95 62 96
REMARK SMILES IDX 63 97 64 98 65 99
REMARK H PARENT 22 6 27 30 89 49 55 60
REMARK Flexibility Score: inf
ROOT
ATOM      1  C   UNL A   1      34.727  28.989  26.887  1.00  0.00     0.023 C 
ENDROOT
BRANCH   1   2
ATOM      2  C   UNL A   1      33.704  28.515  25.861  1.00  0.00     0.116 C 
BRANCH   2   3
ATOM      3  N   UNL A   1      32.593  27.773  26.408  1.00  0.00    -0.352 N 
ATOM      4  C   UNL A   1      31.505  27.192  25.802  1.00  0.00     0.255 C 
ATOM      5  O   UNL A   1      30.674  26.689  26.561  1.00  0.00    -0.269 OA
ATOM      6  H   UNL A   1      32.620  27.663  27.386  1.00  0.00     0.163 HD
BRANCH   4   7
ATOM      7  C   UNL A   1      31.297  27.165  24.352  1.00  0.00     0.088 A 
ATOM      8  C   UNL A   1      29.985  29.378  23.602  1.00  0.00     0.088 C 
ATOM      9  C   UNL A   1      30.676  28.076  23.496  1.00  0.00     0.115 A 
ATOM     10  O   UNL A   1      30.806  27.681  22.200  1.00  0.00    -0.461 OA
ATOM     11  C   UNL A   1      31.565  26.570  22.178  1.00  0.00     0.135 A 
ATOM     12  C   UNL A   1      31.873  26.166  23.465  1.00  0.00     0.037 A 
ATOM     13  C   UNL A   1      32.009  25.950  21.020  1.00  0.00     0.051 A 
ATOM     14  C   UNL A   1      32.644  24.984  23.601  1.00  0.00     0.059 A 
ATOM     15  C   UNL A   1      32.823  24.829  21.187  1.00  0.00     0.050 A 
ATOM     16  C   UNL A   1      33.091  24.302  22.451  1.00  0.00     0.120 A 
BRANCH  16  17
ATOM     17  O   UNL A   1      33.783  23.141  22.685  1.00  0.00    -0.489 OA
BRANCH  17  18
ATOM     18  C   UNL A   1      33.773  22.578  24.005  1.00  0.00     0.265 C 
BRANCH  18  19
ATOM     19  C   UNL A   1      35.147  22.533  24.645  1.00  0.00    -0.011 A 
ATOM     20  C   UNL A   1      35.756  23.695  25.148  1.00  0.00     0.008 A 
ATOM     21  C   UNL A   1      35.852  21.323  24.719  1.00  0.00     0.008 A 
ATOM     22  C   UNL A   1      37.054  23.661  25.662  1.00  0.00     0.016 A 
ATOM     23  C   UNL A   1      37.140  21.281  25.263  1.00  0.00     0.016 A 
ATOM     24  C   UNL A   1      37.740  22.453  25.718  1.00  0.00     0.017 A 
ATOM     25  Br  UNL A   1      39.498  22.409  26.410  1.00  0.00    -0.051 Br
ENDBRANCH  18  19
ENDBRANCH  17  18
ENDBRANCH  16  17
ENDBRANCH   4   7
ENDBRANCH   2   3
ENDBRANCH   1   2
BRANCH   1  26
ATOM     26  C   UNL A   1      34.444  30.322  27.579  1.00  0.00     0.023 C 
BRANCH  26  27
ATOM     27  C   UNL A   1      35.635  31.037  28.210  1.00  0.00     0.116 C 
BRANCH  27  28
ATOM     28  N   UNL A   1      35.619  31.043  29.667  1.00  0.00    -0.352 N 
ATOM     29  C   UNL A   1      36.529  30.540  30.571  1.00  0.00     0.251 C 
ATOM     30  H   UNL A   1      34.832  31.476  30.070  1.00  0.00     0.163 HD
ATOM     31  O   UNL A   1      36.279  30.588  31.773  1.00  0.00    -0.269 OA
BRANCH  29  32
ATOM     32  C   UNL A   1      37.779  29.903  30.101  1.00  0.00     0.039 A 
ATOM     33  C   UNL A   1      38.105  29.975  28.743  1.00  0.00     0.014 A 
ATOM     34  C   UNL A   1      38.643  29.262  30.991  1.00  0.00     0.014 A 
ATOM     35  C   UNL A   1      39.345  29.505  28.300  1.00  0.00     0.010 A 
ATOM     36  C   UNL A   1      39.909  28.873  30.565  1.00  0.00     0.010 A 
ATOM     37  C   UNL A   1      40.282  29.002  29.217  1.00  0.00    -0.014 A 
BRANCH  37  38
ATOM     38  C   UNL A   1      41.661  28.631  28.800  1.00  0.00     0.031 A 
ATOM     39  C   UNL A   1      42.734  29.682  28.708  1.00  0.00     0.074 A 
ATOM     40  C   UNL A   1      41.925  27.365  28.415  1.00  0.00     0.049 A 
ATOM     41  N   UNL A   1      43.958  29.578  28.259  1.00  0.00    -0.248 NA
ATOM     42  C   UNL A   1      42.371  31.039  29.147  1.00  0.00     0.031 C 
ATOM     43  C   UNL A   1      40.959  26.264  28.400  1.00  0.00     0.029 A 
ATOM     44  N   UNL A   1      43.082  26.792  27.946  1.00  0.00    -0.354 N 
ATOM     45  C   UNL A   1      44.503  30.854  28.339  1.00  0.00     0.074 A 
ATOM     46  C   UNL A   1      43.459  31.727  28.833  1.00  0.00     0.031 C 
ATOM     47  C   UNL A   1      41.567  25.148  27.966  1.00  0.00     0.029 A 
ATOM     48  C   UNL A   1      42.953  25.458  27.635  1.00  0.00     0.049 A 
ATOM     49  H   UNL A   1      43.924  27.290  27.841  1.00  0.00     0.167 HD
ATOM     50  C   UNL A   1      45.763  31.258  28.051  1.00  0.00     0.037 A 
ATOM     51  C   UNL A   1      43.848  24.585  27.133  1.00  0.00     0.037 A 
ATOM     52  C   UNL A   1      46.809  30.379  27.598  1.00  0.00     0.049 A 
ATOM     53  C   UNL A   1      45.249  25.051  26.844  1.00  0.00     0.074 A 
ATOM     54  C   UNL A   1      48.135  30.681  27.341  1.00  0.00     0.029 A 
ATOM     55  N   UNL A   1      46.650  29.026  27.339  1.00  0.00    -0.354 N 
ATOM     56  N   UNL A   1      45.762  26.250  26.983  1.00  0.00    -0.248 NA
ATOM     57  C   UNL A   1      46.196  24.047  26.338  1.00  0.00     0.031 C 
ATOM     58  C   UNL A   1      48.771  29.518  26.897  1.00  0.00     0.029 A 
ATOM     59  C   UNL A   1      47.851  28.481  26.916  1.00  0.00     0.049 A 
ATOM     60  H   UNL A   1      45.808  28.527  27.442  1.00  0.00     0.167 HD
ATOM     61  C   UNL A   1      47.096  26.138  26.609  1.00  0.00     0.074 A 
ATOM     62  C   UNL A   1      47.314  24.753  26.246  1.00  0.00     0.031 C 
ATOM     63  C   UNL A   1      48.055  27.096  26.572  1.00  0.00     0.037 A 
BRANCH  50  64
ATOM     64  C   UNL A   1      46.083  32.717  28.230  1.00  0.00     0.058 A 
ATOM     65  C   UNL A   1      45.922  33.638  27.183  1.00  0.00     0.135 A 
ATOM     66  C   UNL A   1      46.528  33.206  29.469  1.00  0.00     0.135 A 
ATOM     67  F   UNL A   1      45.515  33.222  25.973  1.00  0.00    -0.206 F 
ATOM     68  C   UNL A   1      46.222  34.986  27.346  1.00  0.00     0.059 A 
ATOM     69  C   UNL A   1      46.806  34.555  29.664  1.00  0.00     0.059 A 
ATOM     70  F   UNL A   1      46.698  32.369  30.504  1.00  0.00    -0.206 F 
ATOM     71  C   UNL A   1      46.666  35.435  28.591  1.00  0.00     0.060 A 
BRANCH  71  72
ATOM     72  S   UNL A   1      47.050  37.188  28.788  1.00  0.00     0.124 S 
ATOM     73  O   UNL A   1      45.892  37.811  28.154  1.00  0.00    -0.237 OA
ATOM     74  O   UNL A   1      47.133  37.331  30.238  1.00  0.00    -0.237 OA
ATOM     75  O   UNL A   1      48.314  37.339  28.073  1.00  0.00    -0.744 OA
ENDBRANCH  71  72
ENDBRANCH  50  64
BRANCH  51  76
ATOM     76  C   UNL A   1      43.455  23.169  26.897  1.00  0.00     0.058 A 
ATOM     77  C   UNL A   1      43.316  22.669  25.594  1.00  0.00     0.135 A 
ATOM     78  C   UNL A   1      43.222  22.287  27.964  1.00  0.00     0.135 A 
ATOM     79  F   UNL A   1      43.522  23.476  24.542  1.00  0.00    -0.206 F 
ATOM     80  C   UNL A   1      42.944  21.350  25.354  1.00  0.00     0.059 A 
ATOM     81  C   UNL A   1      42.872  20.957  27.750  1.00  0.00     0.059 A 
ATOM     82  F   UNL A   1      43.359  22.712  29.230  1.00  0.00    -0.206 F 
ATOM     83  C   UNL A   1      42.725  20.502  26.440  1.00  0.00     0.060 A 
BRANCH  83  84
ATOM     84  S   UNL A   1      42.291  18.777  26.118  1.00  0.00     0.124 S 
ATOM     85  O   UNL A   1      42.537  18.166  27.419  1.00  0.00    -0.237 OA
ATOM     86  O   UNL A   1      40.892  18.882  25.716  1.00  0.00    -0.237 OA
ATOM     87  O   UNL A   1      43.214  18.394  25.054  1.00  0.00    -0.744 OA
ENDBRANCH  83  84
ENDBRANCH  51  76
BRANCH  63  88
ATOM     88  C   UNL A   1      49.439  26.677  26.165  1.00  0.00     0.058 A 
ATOM     89  C   UNL A   1      49.898  26.830  24.848  1.00  0.00     0.135 A 
ATOM     90  C   UNL A   1      50.337  26.172  27.120  1.00  0.00     0.135 A 
ATOM     91  F   UNL A   1      49.078  27.301  23.896  1.00  0.00    -0.206 F 
ATOM     92  C   UNL A   1      51.197  26.481  24.488  1.00  0.00     0.059 A 
ATOM     93  C   UNL A   1      51.645  25.840  26.788  1.00  0.00     0.059 A 
ATOM     94  F   UNL A   1      49.948  26.017  28.397  1.00  0.00    -0.206 F 
ATOM     95  C   UNL A   1      52.063  25.988  25.466  1.00  0.00     0.060 A 
BRANCH  95  96
ATOM     96  S   UNL A   1      53.759  25.579  24.997  1.00  0.00     0.124 S 
ATOM     97  O   UNL A   1      54.519  26.201  26.076  1.00  0.00    -0.237 OA
ATOM     98  O   UNL A   1      53.739  24.120  24.994  1.00  0.00    -0.237 OA
ATOM     99  O   UNL A   1      53.907  26.200  23.684  1.00  0.00    -0.744 OA
ENDBRANCH  95  96
ENDBRANCH  63  88
ENDBRANCH  37  38
ENDBRANCH  29  32
ENDBRANCH  27  28
ENDBRANCH  26  27
ENDBRANCH   1  26
TORSDOF 17
ENDMDL
MODEL 3
REMARK VINA RESULT:     -11.7      4.695      5.848
REMARK SMILES Cc1oc2ccc(OCc3ccc(Br)cc3)cc2c1C(=O)NCCCCNC(=O)c1ccc(-c2c3nc(c(-c4c(F)cc(S(=O)(=O)[O-])cc4F)c4ccc([nH]4)c(-c4c(F)cc(S(=O)(=O)[O-])cc4F)c4nc(c(-c5c(F)cc(S(=O)(=O)[O-])cc5F)c5ccc2[nH]5)C=C4)C=C3)cc1
REMARK SMILES IDX 24 1 23 2 22 3 20 4 21 5 19 7 1 8 2 9 3 10 4 11 18 12 5 13
REMARK SMILES IDX 17 14 6 15 7 16 8 17 9 18 10 19 11 20 16 21 12 22 15 23
REMARK SMILES IDX 13 24 14 25 25 26 26 27 27 28 28 29 29 31 30 32 31 33 95 34
REMARK SMILES IDX 32 35 94 36 33 37 34 38 35 39 88 40 36 41 93 42 87 43 89 44
REMARK SMILES IDX 37 45 92 46 86 47 85 48 38 50 72 51 51 52 71 53 52 54 55 55
REMARK SMILES IDX 70 56 90 57 53 58 54 59 69 61 91 62 56 63 39 64 40 65 49 66
REMARK SMILES IDX 41 67 42 68 48 69 50 70 43 71 44 72 45 73 46 74 47 75 73 76
REMARK SMILES IDX 74 77 83 78 75 79 76 80 82 81 84 82 77 83 78 84 79 85 80 86
REMARK SMILES IDX 81 87 57 88 58 89 67 90 59 91 60 92 66 93 68 94 61 95 62 96
REMARK SMILES IDX 63 97 64 98 65 99
REMARK H PARENT 22 6 27 30 89 49 55 60
REMARK Flexibility Score: inf
ROOT
ATOM      1  C   UNL A   1      31.890  27.505  26.627  1.00  0.00     0.023 C 
ENDROOT
BRANCH   1   2
ATOM      2  C   UNL A   1      31.363  26.082  26.479  1.00  0.00     0.116 C 
BRANCH   2   3
ATOM      3  N   UNL A   1      29.990  25.985  26.042  1.00  0.00    -0.352 N 
ATOM      4  C   UNL A   1      29.425  26.123  24.796  1.00  0.00     0.255 C 
ATOM      5  O   UNL A   1      28.194  26.060  24.757  1.00  0.00    -0.269 OA
ATOM      6  H   UNL A   1      29.348  25.784  26.760  1.00  0.00     0.163 HD
BRANCH   4   7
ATOM      7  C   UNL A   1      30.196  26.348  23.571  1.00  0.00     0.088 A 
ATOM      8  C   UNL A   1      29.796  28.857  22.719  1.00  0.00     0.088 C 
ATOM      9  C   UNL A   1      30.321  27.476  22.758  1.00  0.00     0.115 A 
ATOM     10  O   UNL A   1      31.231  27.256  21.770  1.00  0.00    -0.461 OA
ATOM     11  C   UNL A   1      31.764  26.035  21.960  1.00  0.00     0.135 A 
ATOM     12  C   UNL A   1      31.150  25.396  23.024  1.00  0.00     0.037 A 
ATOM     13  C   UNL A   1      32.813  25.517  21.216  1.00  0.00     0.051 A 
ATOM     14  C   UNL A   1      31.588  24.081  23.323  1.00  0.00     0.059 A 
ATOM     15  C   UNL A   1      33.266  24.248  21.579  1.00  0.00     0.050 A 
ATOM     16  C   UNL A   1      32.631  23.501  22.572  1.00  0.00     0.120 A 
BRANCH  16  17
ATOM     17  O   UNL A   1      32.945  22.207  22.901  1.00  0.00    -0.489 OA
BRANCH  17  18
ATOM     18  C   UNL A   1      32.003  21.165  22.608  1.00  0.00     0.265 C 
BRANCH  18  19
ATOM     19  C   UNL A   1      32.359  19.840  23.254  1.00  0.00    -0.011 A 
ATOM     20  C   UNL A   1      32.504  18.671  22.489  1.00  0.00     0.008 A 
ATOM     21  C   UNL A   1      32.523  19.753  24.644  1.00  0.00     0.008 A 
ATOM     22  C   UNL A   1      32.752  17.439  23.097  1.00  0.00     0.016 A 
ATOM     23  C   UNL A   1      32.803  18.526  25.253  1.00  0.00     0.016 A 
ATOM     24  C   UNL A   1      32.901  17.373  24.479  1.00  0.00     0.017 A 
ATOM     25  Br  UNL A   1      33.233  15.705  25.302  1.00  0.00    -0.051 Br
ENDBRANCH  18  19
ENDBRANCH  17  18
ENDBRANCH  16  17
ENDBRANCH   4   7
ENDBRANCH   2   3
ENDBRANCH   1   2
BRANCH   1  26
ATOM     26  C   UNL A   1      33.409  27.681  26.630  1.00  0.00     0.023 C 
BRANCH  26  27
ATOM     27  C   UNL A   1      33.968  28.851  25.826  1.00  0.00     0.116 C 
BRANCH  27  28
ATOM     28  N   UNL A   1      33.759  30.152  26.449  1.00  0.00    -0.352 N 
ATOM     29  C   UNL A   1      34.492  30.806  27.414  1.00  0.00     0.251 C 
ATOM     30  H   UNL A   1      32.968  30.641  26.127  1.00  0.00     0.163 HD
ATOM     31  O   UNL A   1      34.091  31.879  27.856  1.00  0.00    -0.269 OA
BRANCH  29  32
ATOM     32  C   UNL A   1      35.731  30.202  27.953  1.00  0.00     0.039 A 
ATOM     33  C   UNL A   1      36.926  30.369  27.247  1.00  0.00     0.014 A 
ATOM     34  C   UNL A   1      35.728  29.500  29.160  1.00  0.00     0.014 A 
ATOM     35  C   UNL A   1      38.131  29.931  27.806  1.00  0.00     0.010 A 
ATOM     36  C   UNL A   1      36.935  29.141  29.753  1.00  0.00     0.010 A 
ATOM     37  C   UNL A   1      38.152  29.364  29.090  1.00  0.00    -0.014 A 
BRANCH  37  38
ATOM     38  C   UNL A   1      39.430  29.022  29.771  1.00  0.00     0.031 A 
ATOM     39  C   UNL A   1      39.918  29.852  30.928  1.00  0.00     0.074 A 
ATOM     40  C   UNL A   1      40.197  28.022  29.290  1.00  0.00     0.049 A 
ATOM     41  N   UNL A   1      41.053  29.783  31.575  1.00  0.00    -0.248 NA
ATOM     42  C   UNL A   1      39.025  30.924  31.398  1.00  0.00     0.031 C 
ATOM     43  C   UNL A   1      39.868  27.179  28.138  1.00  0.00     0.029 A 
ATOM     44  N   UNL A   1      41.421  27.553  29.700  1.00  0.00    -0.354 N 
ATOM     45  C   UNL A   1      41.021  30.812  32.509  1.00  0.00     0.074 A 
ATOM     46  C   UNL A   1      39.777  31.523  32.311  1.00  0.00     0.031 C 
ATOM     47  C   UNL A   1      40.852  26.286  27.947  1.00  0.00     0.029 A 
ATOM     48  C   UNL A   1      41.901  26.514  28.936  1.00  0.00     0.049 A 
ATOM     49  H   UNL A   1      41.910  27.926  30.468  1.00  0.00     0.167 HD
ATOM     50  C   UNL A   1      41.935  31.124  33.460  1.00  0.00     0.037 A 
ATOM     51  C   UNL A   1      43.058  25.827  29.017  1.00  0.00     0.037 A 
ATOM     52  C   UNL A   1      43.154  30.390  33.679  1.00  0.00     0.049 A 
ATOM     53  C   UNL A   1      44.045  26.174  30.097  1.00  0.00     0.074 A 
ATOM     54  C   UNL A   1      44.112  30.587  34.658  1.00  0.00     0.029 A 
ATOM     55  N   UNL A   1      43.581  29.315  32.913  1.00  0.00    -0.354 N 
ATOM     56  N   UNL A   1      43.970  27.114  31.010  1.00  0.00    -0.248 NA
ATOM     57  C   UNL A   1      45.270  25.365  30.166  1.00  0.00     0.031 C 
ATOM     58  C   UNL A   1      45.134  29.651  34.465  1.00  0.00     0.029 A 
ATOM     59  C   UNL A   1      44.793  28.845  33.391  1.00  0.00     0.049 A 
ATOM     60  H   UNL A   1      43.093  28.942  32.144  1.00  0.00     0.167 HD
ATOM     61  C   UNL A   1      45.123  26.990  31.777  1.00  0.00     0.074 A 
ATOM     62  C   UNL A   1      45.874  25.881  31.228  1.00  0.00     0.031 C 
ATOM     63  C   UNL A   1      45.521  27.729  32.842  1.00  0.00     0.037 A 
BRANCH  50  64
ATOM     64  C   UNL A   1      41.642  32.304  34.344  1.00  0.00     0.058 A 
ATOM     65  C   UNL A   1      42.142  33.582  34.052  1.00  0.00     0.135 A 
ATOM     66  C   UNL A   1      40.830  32.163  35.481  1.00  0.00     0.135 A 
ATOM     67  F   UNL A   1      42.938  33.770  32.986  1.00  0.00    -0.206 F 
ATOM     68  C   UNL A   1      41.876  34.673  34.872  1.00  0.00     0.059 A 
ATOM     69  C   UNL A   1      40.526  33.246  36.300  1.00  0.00     0.059 A 
ATOM     70  F   UNL A   1      40.324  30.963  35.806  1.00  0.00    -0.206 F 
ATOM     71  C   UNL A   1      41.068  34.494  35.997  1.00  0.00     0.060 A 
BRANCH  71  72
ATOM     72  S   UNL A   1      40.730  35.921  37.051  1.00  0.00     0.124 S 
ATOM     73  O   UNL A   1      42.058  36.517  37.164  1.00  0.00    -0.237 OA
ATOM     74  O   UNL A   1      39.763  36.674  36.260  1.00  0.00    -0.237 OA
ATOM     75  O   UNL A   1      40.205  35.321  38.274  1.00  0.00    -0.744 OA
ENDBRANCH  71  72
ENDBRANCH  50  64
BRANCH  51  76
ATOM     76  C   UNL A   1      43.333  24.720  28.062  1.00  0.00     0.058 A 
ATOM     77  C   UNL A   1      44.007  24.962  26.856  1.00  0.00     0.135 A 
ATOM     78  C   UNL A   1      42.942  23.401  28.339  1.00  0.00     0.135 A 
ATOM     79  F   UNL A   1      44.395  26.207  26.545  1.00  0.00    -0.206 F 
ATOM     80  C   UNL A   1      44.269  23.940  25.949  1.00  0.00     0.059 A 
ATOM     81  C   UNL A   1      43.213  22.357  27.459  1.00  0.00     0.059 A 
ATOM     82  F   UNL A   1      42.309  23.114  29.488  1.00  0.00    -0.206 F 
ATOM     83  C   UNL A   1      43.869  22.640  26.261  1.00  0.00     0.060 A 
BRANCH  83  84
ATOM     84  S   UNL A   1      44.258  21.312  25.099  1.00  0.00     0.124 S 
ATOM     85  O   UNL A   1      45.608  20.949  25.511  1.00  0.00    -0.237 OA
ATOM     86  O   UNL A   1      43.215  20.332  25.392  1.00  0.00    -0.237 OA
ATOM     87  O   UNL A   1      44.146  21.963  23.797  1.00  0.00    -0.744 OA
ENDBRANCH  83  84
ENDBRANCH  51  76
BRANCH  63  88
ATOM     88  C   UNL A   1      46.807  27.339  33.514  1.00  0.00     0.058 A 
ATOM     89  C   UNL A   1      48.041  27.872  33.111  1.00  0.00     0.135 A 
ATOM     90  C   UNL A   1      46.795  26.468  34.616  1.00  0.00     0.135 A 
ATOM     91  F   UNL A   1      48.107  28.703  32.060  1.00  0.00    -0.206 F 
ATOM     92  C   UNL A   1      49.222  27.541  33.767  1.00  0.00     0.059 A 
ATOM     93  C   UNL A   1      47.960  26.142  35.301  1.00  0.00     0.059 A 
ATOM     94  F   UNL A   1      45.638  25.939  35.047  1.00  0.00    -0.206 F 
ATOM     95  C   UNL A   1      49.172  26.676  34.862  1.00  0.00     0.060 A 
BRANCH  95  96
ATOM     96  S   UNL A   1      50.705  26.287  35.733  1.00  0.00     0.124 S 
ATOM     97  O   UNL A   1      51.642  26.137  34.625  1.00  0.00    -0.237 OA
ATOM     98  O   UNL A   1      50.898  27.468  36.570  1.00  0.00    -0.237 OA
ATOM     99  O   UNL A   1      50.384  25.061  36.456  1.00  0.00    -0.744 OA
ENDBRANCH  95  96
ENDBRANCH  63  88
ENDBRANCH  37  38
ENDBRANCH  29  32
ENDBRANCH  27  28
ENDBRANCH  26  27
ENDBRANCH   1  26
TORSDOF 17
ENDMDL
