MODEL 1
REMARK VINA RESULT:     -12.1      0.000      0.000
REMARK SMILES COC(=O)c1c(NC(=O)[C@@H]2[C@H]3CC[C@H](CC3)[C@H]2C(=O)NCCCCNC(=O)c2ccc(-c3c4nc(c(-c5c(F)cc(S(=O)(=O)[O-])cc5F)c5ccc([nH]5)c(-c5c(F)cc(S(=O)(=O)[O-])cc5F)c5nc(c(-c6c(F)cc(S(=O)(=O)[O-])cc6F)c6ccc3[nH]6)C=C5)C=C4)cc2)sc(C)c1-c1ccc(C)cc1
REMARK SMILES IDX 22 1 21 2 20 3 18 4 19 5 17 7 10 8 11 9 16 10 12 11 14 12
REMARK SMILES IDX 15 13 13 14 8 15 7 16 9 18 6 19 5 20 97 21 94 22 95 23 96 24
REMARK SMILES IDX 3 25 4 26 2 27 1 28 98 29 99 30 104 31 100 32 103 33 101 34
REMARK SMILES IDX 102 35 23 36 24 37 25 38 26 39 27 41 28 42 29 43 93 44 30 45
REMARK SMILES IDX 92 46 31 47 32 48 33 49 86 50 34 51 91 52 85 53 87 54 35 55
REMARK SMILES IDX 90 56 84 57 83 58 36 60 70 61 49 62 69 63 50 64 53 65 68 66
REMARK SMILES IDX 88 67 51 68 52 69 67 71 89 72 54 73 37 74 38 75 47 76 39 77
REMARK SMILES IDX 40 78 46 79 48 80 41 81 42 82 43 83 44 84 45 85 71 86 72 87
REMARK SMILES IDX 81 88 73 89 74 90 80 91 82 92 75 93 76 94 77 95 78 96 79 97
REMARK SMILES IDX 55 98 56 99 65 100 57 101 58 102 64 103 66 104 59 105 60 106
REMARK SMILES IDX 61 107 62 108 63 109
REMARK H PARENT 20 6 7 17 25 40 87 59 53 70
REMARK Flexibility Score: inf
ROOT
ATOM      1  C   UNL A   1      34.986  23.615  23.763  1.00  0.00     0.023 C 
ENDROOT
BRANCH   1   2
ATOM      2  C   UNL A   1      34.428  24.997  24.067  1.00  0.00     0.116 C 
BRANCH   2   3
ATOM      3  N   UNL A   1      33.731  25.680  23.009  1.00  0.00    -0.356 N 
ATOM      4  C   UNL A   1      32.851  26.719  23.054  1.00  0.00     0.224 C 
ATOM      5  O   UNL A   1      32.536  27.213  21.964  1.00  0.00    -0.275 OA
ATOM      6  H   UNL A   1      33.922  25.341  22.105  1.00  0.00     0.163 HD
BRANCH   4   7
ATOM      7  C   UNL A   1      32.250  27.317  24.340  1.00  0.00     0.094 C 
ATOM      8  C   UNL A   1      32.339  26.510  25.661  1.00  0.00     0.094 C 
ATOM      9  C   UNL A   1      32.749  27.523  26.814  1.00  0.00     0.002 C 
ATOM     10  C   UNL A   1      34.127  28.161  26.520  1.00  0.00     0.005 C 
ATOM     11  C   UNL A   1      31.797  28.742  26.915  1.00  0.00     0.005 C 
ATOM     12  C   UNL A   1      32.667  28.804  24.556  1.00  0.00     0.002 C 
ATOM     13  C   UNL A   1      34.056  28.962  25.204  1.00  0.00     0.005 C 
ATOM     14  C   UNL A   1      31.659  29.424  25.547  1.00  0.00     0.005 C 
BRANCH   8  15
ATOM     15  C   UNL A   1      30.987  25.821  26.002  1.00  0.00     0.229 C 
ATOM     16  N   UNL A   1      30.566  24.577  25.638  1.00  0.00    -0.317 N 
ATOM     17  H   UNL A   1      29.651  24.403  25.953  1.00  0.00     0.170 HD
ATOM     18  O   UNL A   1      30.153  26.424  26.695  1.00  0.00    -0.274 OA
BRANCH  16  19
ATOM     19  C   UNL A   1      31.075  23.496  24.946  1.00  0.00     0.111 A 
ATOM     20  C   UNL A   1      31.758  22.402  25.479  1.00  0.00     0.102 A 
ATOM     21  C   UNL A   1      32.167  21.472  24.429  1.00  0.00     0.012 A 
ATOM     22  S   UNL A   1      30.928  23.370  23.291  1.00  0.00    -0.122 S 
ATOM     23  C   UNL A   1      31.735  21.888  23.181  1.00  0.00     0.012 A 
ATOM     24  C   UNL A   1      31.873  21.259  21.830  1.00  0.00     0.057 C 
BRANCH  20  25
ATOM     25  C   UNL A   1      32.015  22.276  26.917  1.00  0.00     0.341 C 
ATOM     26  O   UNL A   1      31.194  22.592  27.768  1.00  0.00    -0.246 OA
BRANCH  25  27
ATOM     27  O   UNL A   1      33.257  21.795  27.198  1.00  0.00    -0.465 OA
ATOM     28  C   UNL A   1      34.264  22.780  27.414  1.00  0.00     0.282 C 
ENDBRANCH  25  27
ENDBRANCH  20  25
BRANCH  21  29
ATOM     29  C   UNL A   1      32.916  20.227  24.572  1.00  0.00    -0.016 A 
ATOM     30  C   UNL A   1      34.315  20.237  24.588  1.00  0.00     0.009 A 
ATOM     31  C   UNL A   1      32.236  19.008  24.682  1.00  0.00     0.009 A 
ATOM     32  C   UNL A   1      35.024  19.037  24.683  1.00  0.00     0.004 A 
ATOM     33  C   UNL A   1      32.946  17.812  24.796  1.00  0.00     0.004 A 
ATOM     34  C   UNL A   1      34.344  17.815  24.789  1.00  0.00    -0.051 A 
ATOM     35  C   UNL A   1      35.114  16.529  24.861  1.00  0.00     0.044 C 
ENDBRANCH  21  29
ENDBRANCH  16  19
ENDBRANCH   8  15
ENDBRANCH   4   7
ENDBRANCH   2   3
ENDBRANCH   1   2
BRANCH   1  36
ATOM     36  C   UNL A   1      36.499  23.515  23.762  1.00  0.00     0.023 C 
BRANCH  36  37
ATOM     37  C   UNL A   1      37.128  23.682  25.136  1.00  0.00     0.116 C 
BRANCH  37  38
ATOM     38  N   UNL A   1      38.237  22.766  25.388  1.00  0.00    -0.352 N 
ATOM     39  C   UNL A   1      39.382  22.990  26.114  1.00  0.00     0.251 C 
ATOM     40  H   UNL A   1      38.153  21.872  24.985  1.00  0.00     0.163 HD
ATOM     41  O   UNL A   1      40.274  22.152  26.156  1.00  0.00    -0.269 OA
BRANCH  39  42
ATOM     42  C   UNL A   1      39.521  24.284  26.806  1.00  0.00     0.039 A 
ATOM     43  C   UNL A   1      39.032  24.416  28.105  1.00  0.00     0.014 A 
ATOM     44  C   UNL A   1      40.247  25.314  26.202  1.00  0.00     0.014 A 
ATOM     45  C   UNL A   1      39.342  25.563  28.833  1.00  0.00     0.010 A 
ATOM     46  C   UNL A   1      40.639  26.405  26.963  1.00  0.00     0.010 A 
ATOM     47  C   UNL A   1      40.186  26.544  28.284  1.00  0.00    -0.014 A 
BRANCH  47  48
ATOM     48  C   UNL A   1      40.595  27.736  29.064  1.00  0.00     0.031 A 
ATOM     49  C   UNL A   1      41.932  27.748  29.754  1.00  0.00     0.074 A 
ATOM     50  C   UNL A   1      39.741  28.769  29.210  1.00  0.00     0.049 A 
ATOM     51  N   UNL A   1      42.448  28.657  30.539  1.00  0.00    -0.248 NA
ATOM     52  C   UNL A   1      42.786  26.563  29.566  1.00  0.00     0.031 C 
ATOM     53  C   UNL A   1      38.391  28.842  28.645  1.00  0.00     0.029 A 
ATOM     54  N   UNL A   1      39.880  29.955  29.885  1.00  0.00    -0.354 N 
ATOM     55  C   UNL A   1      43.673  28.145  30.951  1.00  0.00     0.074 A 
ATOM     56  C   UNL A   1      43.792  26.820  30.388  1.00  0.00     0.031 C 
ATOM     57  C   UNL A   1      37.840  30.024  28.970  1.00  0.00     0.029 A 
ATOM     58  C   UNL A   1      38.781  30.777  29.792  1.00  0.00     0.049 A 
ATOM     59  H   UNL A   1      40.691  30.196  30.389  1.00  0.00     0.167 HD
ATOM     60  C   UNL A   1      44.627  28.741  31.703  1.00  0.00     0.037 A 
ATOM     61  C   UNL A   1      38.561  32.000  30.311  1.00  0.00     0.037 A 
ATOM     62  C   UNL A   1      44.516  30.076  32.227  1.00  0.00     0.049 A 
ATOM     63  C   UNL A   1      39.648  32.653  31.122  1.00  0.00     0.074 A 
ATOM     64  C   UNL A   1      45.449  30.797  32.949  1.00  0.00     0.029 A 
ATOM     65  N   UNL A   1      43.405  30.893  32.077  1.00  0.00    -0.354 N 
ATOM     66  N   UNL A   1      40.830  32.183  31.447  1.00  0.00    -0.248 NA
ATOM     67  C   UNL A   1      39.381  34.007  31.625  1.00  0.00     0.031 C 
ATOM     68  C   UNL A   1      44.889  32.039  33.268  1.00  0.00     0.029 A 
ATOM     69  C   UNL A   1      43.624  32.107  32.704  1.00  0.00     0.049 A 
ATOM     70  H   UNL A   1      42.582  30.645  31.597  1.00  0.00     0.167 HD
ATOM     71  C   UNL A   1      41.457  33.194  32.168  1.00  0.00     0.074 A 
ATOM     72  C   UNL A   1      40.528  34.304  32.220  1.00  0.00     0.031 C 
ATOM     73  C   UNL A   1      42.689  33.204  32.735  1.00  0.00     0.037 A 
BRANCH  60  74
ATOM     74  C   UNL A   1      45.877  27.953  31.985  1.00  0.00     0.058 A 
ATOM     75  C   UNL A   1      45.974  27.102  33.099  1.00  0.00     0.135 A 
ATOM     76  C   UNL A   1      46.986  28.037  31.129  1.00  0.00     0.135 A 
ATOM     77  F   UNL A   1      44.951  26.999  33.963  1.00  0.00    -0.206 F 
ATOM     78  C   UNL A   1      47.136  26.390  33.372  1.00  0.00     0.059 A 
ATOM     79  C   UNL A   1      48.149  27.309  31.365  1.00  0.00     0.059 A 
ATOM     80  F   UNL A   1      46.948  28.837  30.051  1.00  0.00    -0.206 F 
ATOM     81  C   UNL A   1      48.220  26.502  32.500  1.00  0.00     0.060 A 
BRANCH  81  82
ATOM     82  S   UNL A   1      49.721  25.570  32.868  1.00  0.00     0.124 S 
ATOM     83  O   UNL A   1      49.893  24.802  31.639  1.00  0.00    -0.237 OA
ATOM     84  O   UNL A   1      50.698  26.630  33.095  1.00  0.00    -0.237 OA
ATOM     85  O   UNL A   1      49.357  24.794  34.049  1.00  0.00    -0.744 OA
ENDBRANCH  81  82
ENDBRANCH  60  74
BRANCH  61  86
ATOM     86  C   UNL A   1      37.278  32.704  30.047  1.00  0.00     0.058 A 
ATOM     87  C   UNL A   1      36.142  32.448  30.830  1.00  0.00     0.135 A 
ATOM     88  C   UNL A   1      37.162  33.651  29.017  1.00  0.00     0.135 A 
ATOM     89  F   UNL A   1      36.202  31.549  31.824  1.00  0.00    -0.206 F 
ATOM     90  C   UNL A   1      34.932  33.091  30.592  1.00  0.00     0.059 A 
ATOM     91  C   UNL A   1      35.968  34.324  28.774  1.00  0.00     0.059 A 
ATOM     92  F   UNL A   1      38.224  33.945  28.251  1.00  0.00    -0.206 F 
ATOM     93  C   UNL A   1      34.855  34.030  29.561  1.00  0.00     0.060 A 
BRANCH  93  94
ATOM     94  S   UNL A   1      33.292  34.894  29.290  1.00  0.00     0.124 S 
ATOM     95  O   UNL A   1      33.753  36.189  28.806  1.00  0.00    -0.237 OA
ATOM     96  O   UNL A   1      32.636  34.039  28.307  1.00  0.00    -0.237 OA
ATOM     97  O   UNL A   1      32.678  34.896  30.615  1.00  0.00    -0.744 OA
ENDBRANCH  93  94
ENDBRANCH  61  86
BRANCH  73  98
ATOM     98  C   UNL A   1      43.121  34.468  33.422  1.00  0.00     0.058 A 
ATOM     99  C   UNL A   1      43.040  34.616  34.815  1.00  0.00     0.135 A 
ATOM    100  C   UNL A   1      43.668  35.526  32.679  1.00  0.00     0.135 A 
ATOM    101  F   UNL A   1      42.520  33.634  35.570  1.00  0.00    -0.206 F 
ATOM    102  C   UNL A   1      43.461  35.781  35.446  1.00  0.00     0.059 A 
ATOM    103  C   UNL A   1      44.121  36.690  33.291  1.00  0.00     0.059 A 
ATOM    104  F   UNL A   1      43.779  35.429  31.345  1.00  0.00    -0.206 F 
ATOM    105  C   UNL A   1      43.999  36.814  34.675  1.00  0.00     0.060 A 
BRANCH 105 106
ATOM    106  S   UNL A   1      44.564  38.313  35.507  1.00  0.00     0.124 S 
ATOM    107  O   UNL A   1      46.000  38.078  35.590  1.00  0.00    -0.237 OA
ATOM    108  O   UNL A   1      44.145  39.361  34.582  1.00  0.00    -0.237 OA
ATOM    109  O   UNL A   1      43.847  38.286  36.778  1.00  0.00    -0.744 OA
ENDBRANCH 105 106
ENDBRANCH  73  98
ENDBRANCH  47  48
ENDBRANCH  39  42
ENDBRANCH  37  38
ENDBRANCH  36  37
ENDBRANCH   1  36
TORSDOF 19
ENDMDL
MODEL 2
REMARK VINA RESULT:     -12.0      3.023      5.589
REMARK SMILES COC(=O)c1c(NC(=O)[C@@H]2[C@H]3CC[C@H](CC3)[C@H]2C(=O)NCCCCNC(=O)c2ccc(-c3c4nc(c(-c5c(F)cc(S(=O)(=O)[O-])cc5F)c5ccc([nH]5)c(-c5c(F)cc(S(=O)(=O)[O-])cc5F)c5nc(c(-c6c(F)cc(S(=O)(=O)[O-])cc6F)c6ccc3[nH]6)C=C5)C=C4)cc2)sc(C)c1-c1ccc(C)cc1
REMARK SMILES IDX 22 1 21 2 20 3 18 4 19 5 17 7 10 8 11 9 16 10 12 11 14 12
REMARK SMILES IDX 15 13 13 14 8 15 7 16 9 18 6 19 5 20 97 21 94 22 95 23 96 24
REMARK SMILES IDX 3 25 4 26 2 27 1 28 98 29 99 30 104 31 100 32 103 33 101 34
REMARK SMILES IDX 102 35 23 36 24 37 25 38 26 39 27 41 28 42 29 43 93 44 30 45
REMARK SMILES IDX 92 46 31 47 32 48 33 49 86 50 34 51 91 52 85 53 87 54 35 55
REMARK SMILES IDX 90 56 84 57 83 58 36 60 70 61 49 62 69 63 50 64 53 65 68 66
REMARK SMILES IDX 88 67 51 68 52 69 67 71 89 72 54 73 37 74 38 75 47 76 39 77
REMARK SMILES IDX 40 78 46 79 48 80 41 81 42 82 43 83 44 84 45 85 71 86 72 87
REMARK SMILES IDX 81 88 73 89 74 90 80 91 82 92 75 93 76 94 77 95 78 96 79 97
REMARK SMILES IDX 55 98 56 99 65 100 57 101 58 102 64 103 66 104 59 105 60 106
REMARK SMILES IDX 61 107 62 108 63 109
REMARK H PARENT 20 6 7 17 25 40 87 59 53 70
REMARK Flexibility Score: inf
ROOT
ATOM      1  C   UNL A   1      38.427  22.468  26.032  1.00  0.00     0.023 C 
ENDROOT
BRANCH   1   2
ATOM      2  C   UNL A   1      37.759  21.516  25.050  1.00  0.00     0.116 C 
BRANCH   2   3
ATOM      3  N   UNL A   1      37.182  22.086  23.861  1.00  0.00    -0.356 N 
ATOM      4  C   UNL A   1      35.974  22.684  23.661  1.00  0.00     0.224 C 
ATOM      5  O   UNL A   1      35.814  23.234  22.564  1.00  0.00    -0.275 OA
ATOM      6  H   UNL A   1      37.754  22.035  23.061  1.00  0.00     0.163 HD
BRANCH   4   7
ATOM      7  C   UNL A   1      34.830  22.737  24.691  1.00  0.00     0.094 C 
ATOM      8  C   UNL A   1      33.717  23.804  24.528  1.00  0.00     0.094 C 
ATOM      9  C   UNL A   1      32.326  23.090  24.809  1.00  0.00     0.002 C 
ATOM     10  C   UNL A   1      32.081  21.947  23.797  1.00  0.00     0.005 C 
ATOM     11  C   UNL A   1      32.280  22.376  26.184  1.00  0.00     0.005 C 
ATOM     12  C   UNL A   1      34.228  21.330  24.985  1.00  0.00     0.002 C 
ATOM     13  C   UNL A   1      33.185  20.881  23.942  1.00  0.00     0.005 C 
ATOM     14  C   UNL A   1      33.475  21.425  26.329  1.00  0.00     0.005 C 
BRANCH   8  15
ATOM     15  C   UNL A   1      33.920  24.997  25.505  1.00  0.00     0.229 C 
ATOM     16  N   UNL A   1      33.162  26.123  25.619  1.00  0.00    -0.317 N 
ATOM     17  H   UNL A   1      33.534  26.739  26.290  1.00  0.00     0.170 HD
ATOM     18  O   UNL A   1      34.865  24.974  26.308  1.00  0.00    -0.274 OA
BRANCH  16  19
ATOM     19  C   UNL A   1      32.013  26.636  25.049  1.00  0.00     0.111 A 
ATOM     20  C   UNL A   1      31.853  27.891  24.460  1.00  0.00     0.102 A 
ATOM     21  C   UNL A   1      30.483  28.084  23.993  1.00  0.00     0.012 A 
ATOM     22  S   UNL A   1      30.596  25.761  25.003  1.00  0.00    -0.122 S 
ATOM     23  C   UNL A   1      29.704  26.960  24.210  1.00  0.00     0.012 A 
ATOM     24  C   UNL A   1      28.276  26.670  23.872  1.00  0.00     0.057 C 
BRANCH  20  25
ATOM     25  C   UNL A   1      32.958  28.851  24.375  1.00  0.00     0.341 C 
ATOM     26  O   UNL A   1      33.530  29.294  25.362  1.00  0.00    -0.246 OA
BRANCH  25  27
ATOM     27  O   UNL A   1      33.260  29.205  23.095  1.00  0.00    -0.465 OA
ATOM     28  C   UNL A   1      34.258  28.413  22.456  1.00  0.00     0.282 C 
ENDBRANCH  25  27
ENDBRANCH  20  25
BRANCH  21  29
ATOM     29  C   UNL A   1      29.911  29.262  23.347  1.00  0.00    -0.016 A 
ATOM     30  C   UNL A   1      29.546  30.381  24.103  1.00  0.00     0.009 A 
ATOM     31  C   UNL A   1      29.713  29.274  21.961  1.00  0.00     0.009 A 
ATOM     32  C   UNL A   1      28.960  31.487  23.481  1.00  0.00     0.004 A 
ATOM     33  C   UNL A   1      29.145  30.388  21.339  1.00  0.00     0.004 A 
ATOM     34  C   UNL A   1      28.757  31.499  22.094  1.00  0.00    -0.051 A 
ATOM     35  C   UNL A   1      28.101  32.679  21.440  1.00  0.00     0.044 C 
ENDBRANCH  21  29
ENDBRANCH  16  19
ENDBRANCH   8  15
ENDBRANCH   4   7
ENDBRANCH   2   3
ENDBRANCH   1   2
BRANCH   1  36
ATOM     36  C   UNL A   1      39.739  21.978  26.616  1.00  0.00     0.023 C 
BRANCH  36  37
ATOM     37  C   UNL A   1      40.634  23.091  27.136  1.00  0.00     0.116 C 
BRANCH  37  38
ATOM     38  N   UNL A   1      41.574  23.600  26.140  1.00  0.00    -0.352 N 
ATOM     39  C   UNL A   1      42.036  24.884  25.979  1.00  0.00     0.251 C 
ATOM     40  H   UNL A   1      41.921  22.936  25.502  1.00  0.00     0.163 HD
ATOM     41  O   UNL A   1      42.753  25.179  25.030  1.00  0.00    -0.269 OA
BRANCH  39  42
ATOM     42  C   UNL A   1      41.611  25.901  26.957  1.00  0.00     0.039 A 
ATOM     43  C   UNL A   1      40.603  25.588  27.868  1.00  0.00     0.014 A 
ATOM     44  C   UNL A   1      42.303  27.113  27.037  1.00  0.00     0.014 A 
ATOM     45  C   UNL A   1      40.342  26.466  28.919  1.00  0.00     0.010 A 
ATOM     46  C   UNL A   1      42.113  27.931  28.139  1.00  0.00     0.010 A 
ATOM     47  C   UNL A   1      41.126  27.621  29.088  1.00  0.00    -0.014 A 
BRANCH  47  48
ATOM     48  C   UNL A   1      40.922  28.531  30.240  1.00  0.00     0.031 A 
ATOM     49  C   UNL A   1      41.772  28.371  31.471  1.00  0.00     0.074 A 
ATOM     50  C   UNL A   1      39.933  29.445  30.206  1.00  0.00     0.049 A 
ATOM     51  N   UNL A   1      41.708  29.013  32.608  1.00  0.00    -0.248 NA
ATOM     52  C   UNL A   1      42.807  27.324  31.432  1.00  0.00     0.031 C 
ATOM     53  C   UNL A   1      38.999  29.647  29.095  1.00  0.00     0.029 A 
ATOM     54  N   UNL A   1      39.541  30.374  31.137  1.00  0.00    -0.354 N 
ATOM     55  C   UNL A   1      42.677  28.436  33.420  1.00  0.00     0.074 A 
ATOM     56  C   UNL A   1      43.266  27.349  32.673  1.00  0.00     0.031 C 
ATOM     57  C   UNL A   1      38.167  30.659  29.395  1.00  0.00     0.029 A 
ATOM     58  C   UNL A   1      38.484  31.153  30.731  1.00  0.00     0.049 A 
ATOM     59  H   UNL A   1      39.979  30.474  32.014  1.00  0.00     0.167 HD
ATOM     60  C   UNL A   1      43.064  28.803  34.664  1.00  0.00     0.037 A 
ATOM     61  C   UNL A   1      37.844  32.155  31.366  1.00  0.00     0.037 A 
ATOM     62  C   UNL A   1      42.499  29.912  35.384  1.00  0.00     0.049 A 
ATOM     63  C   UNL A   1      38.311  32.562  32.738  1.00  0.00     0.074 A 
ATOM     64  C   UNL A   1      42.859  30.407  36.624  1.00  0.00     0.029 A 
ATOM     65  N   UNL A   1      41.456  30.703  34.923  1.00  0.00    -0.354 N 
ATOM     66  N   UNL A   1      39.274  32.049  33.467  1.00  0.00    -0.248 NA
ATOM     67  C   UNL A   1      37.615  33.690  33.369  1.00  0.00     0.031 C 
ATOM     68  C   UNL A   1      42.011  31.476  36.930  1.00  0.00     0.029 A 
ATOM     69  C   UNL A   1      41.153  31.676  35.860  1.00  0.00     0.049 A 
ATOM     70  H   UNL A   1      41.000  30.589  34.058  1.00  0.00     0.167 HD
ATOM     71  C   UNL A   1      39.319  32.811  34.630  1.00  0.00     0.074 A 
ATOM     72  C   UNL A   1      38.293  33.826  34.500  1.00  0.00     0.031 C 
ATOM     73  C   UNL A   1      40.134  32.685  35.706  1.00  0.00     0.037 A 
BRANCH  60  74
ATOM     74  C   UNL A   1      44.162  28.003  35.310  1.00  0.00     0.058 A 
ATOM     75  C   UNL A   1      43.881  26.890  36.121  1.00  0.00     0.135 A 
ATOM     76  C   UNL A   1      45.509  28.341  35.108  1.00  0.00     0.135 A 
ATOM     77  F   UNL A   1      42.609  26.535  36.365  1.00  0.00    -0.206 F 
ATOM     78  C   UNL A   1      44.893  26.164  36.736  1.00  0.00     0.059 A 
ATOM     79  C   UNL A   1      46.541  27.608  35.688  1.00  0.00     0.059 A 
ATOM     80  F   UNL A   1      45.834  29.395  34.343  1.00  0.00    -0.206 F 
ATOM     81  C   UNL A   1      46.222  26.532  36.515  1.00  0.00     0.060 A 
BRANCH  81  82
ATOM     82  S   UNL A   1      47.525  25.577  37.319  1.00  0.00     0.124 S 
ATOM     83  O   UNL A   1      48.387  25.252  36.188  1.00  0.00    -0.237 OA
ATOM     84  O   UNL A   1      48.069  26.536  38.275  1.00  0.00    -0.237 OA
ATOM     85  O   UNL A   1      46.806  24.450  37.906  1.00  0.00    -0.744 OA
ENDBRANCH  81  82
ENDBRANCH  60  74
BRANCH  61  86
ATOM     86  C   UNL A   1      36.724  32.868  30.697  1.00  0.00     0.058 A 
ATOM     87  C   UNL A   1      35.390  32.571  31.013  1.00  0.00     0.135 A 
ATOM     88  C   UNL A   1      36.961  33.865  29.738  1.00  0.00     0.135 A 
ATOM     89  F   UNL A   1      35.112  31.623  31.922  1.00  0.00    -0.206 F 
ATOM     90  C   UNL A   1      34.330  33.222  30.392  1.00  0.00     0.059 A 
ATOM     91  C   UNL A   1      35.917  34.547  29.119  1.00  0.00     0.059 A 
ATOM     92  F   UNL A   1      38.219  34.200  29.412  1.00  0.00    -0.206 F 
ATOM     93  C   UNL A   1      34.604  34.212  29.446  1.00  0.00     0.060 A 
BRANCH  93  94
ATOM     94  S   UNL A   1      33.221  35.085  28.679  1.00  0.00     0.124 S 
ATOM     95  O   UNL A   1      32.470  35.529  29.847  1.00  0.00    -0.237 OA
ATOM     96  O   UNL A   1      33.901  36.130  27.920  1.00  0.00    -0.237 OA
ATOM     97  O   UNL A   1      32.580  34.051  27.872  1.00  0.00    -0.744 OA
ENDBRANCH  93  94
ENDBRANCH  61  86
BRANCH  73  98
ATOM     98  C   UNL A   1      39.980  33.692  36.810  1.00  0.00     0.058 A 
ATOM     99  C   UNL A   1      40.723  34.883  36.831  1.00  0.00     0.135 A 
ATOM    100  C   UNL A   1      39.041  33.484  37.833  1.00  0.00     0.135 A 
ATOM    101  F   UNL A   1      41.636  35.127  35.878  1.00  0.00    -0.206 F 
ATOM    102  C   UNL A   1      40.560  35.820  37.845  1.00  0.00     0.059 A 
ATOM    103  C   UNL A   1      38.842  34.420  38.842  1.00  0.00     0.059 A 
ATOM    104  F   UNL A   1      38.297  32.367  37.850  1.00  0.00    -0.206 F 
ATOM    105  C   UNL A   1      39.618  35.579  38.847  1.00  0.00     0.060 A 
BRANCH 105 106
ATOM    106  S   UNL A   1      39.398  36.814  40.146  1.00  0.00     0.124 S 
ATOM    107  O   UNL A   1      38.429  36.156  41.014  1.00  0.00    -0.237 OA
ATOM    108  O   UNL A   1      40.748  36.944  40.685  1.00  0.00    -0.237 OA
ATOM    109  O   UNL A   1      38.904  37.982  39.423  1.00  0.00    -0.744 OA
ENDBRANCH 105 106
ENDBRANCH  73  98
ENDBRANCH  47  48
ENDBRANCH  39  42
ENDBRANCH  37  38
ENDBRANCH  36  37
ENDBRANCH   1  36
TORSDOF 19
ENDMDL
MODEL 3
REMARK VINA RESULT:     -11.7      2.336      3.102
REMARK SMILES COC(=O)c1c(NC(=O)[C@@H]2[C@H]3CC[C@H](CC3)[C@H]2C(=O)NCCCCNC(=O)c2ccc(-c3c4nc(c(-c5c(F)cc(S(=O)(=O)[O-])cc5F)c5ccc([nH]5)c(-c5c(F)cc(S(=O)(=O)[O-])cc5F)c5nc(c(-c6c(F)cc(S(=O)(=O)[O-])cc6F)c6ccc3[nH]6)C=C5)C=C4)cc2)sc(C)c1-c1ccc(C)cc1
REMARK SMILES IDX 22 1 21 2 20 3 18 4 19 5 17 7 10 8 11 9 16 10 12 11 14 12
REMARK SMILES IDX 15 13 13 14 8 15 7 16 9 18 6 19 5 20 97 21 94 22 95 23 96 24
REMARK SMILES IDX 3 25 4 26 2 27 1 28 98 29 99 30 104 31 100 32 103 33 101 34
REMARK SMILES IDX 102 35 23 36 24 37 25 38 26 39 27 41 28 42 29 43 93 44 30 45
REMARK SMILES IDX 92 46 31 47 32 48 33 49 86 50 34 51 91 52 85 53 87 54 35 55
REMARK SMILES IDX 90 56 84 57 83 58 36 60 70 61 49 62 69 63 50 64 53 65 68 66
REMARK SMILES IDX 88 67 51 68 52 69 67 71 89 72 54 73 37 74 38 75 47 76 39 77
REMARK SMILES IDX 40 78 46 79 48 80 41 81 42 82 43 83 44 84 45 85 71 86 72 87
REMARK SMILES IDX 81 88 73 89 74 90 80 91 82 92 75 93 76 94 77 95 78 96 79 97
REMARK SMILES IDX 55 98 56 99 65 100 57 101 58 102 64 103 66 104 59 105 60 106
REMARK SMILES IDX 61 107 62 108 63 109
REMARK H PARENT 20 6 7 17 25 40 87 59 53 70
REMARK Flexibility Score: inf
ROOT
ATOM      1  C   UNL A   1      35.133  23.427  23.785  1.00  0.00     0.023 C 
ENDROOT
BRANCH   1   2
ATOM      2  C   UNL A   1      34.484  24.777  24.049  1.00  0.00     0.116 C 
BRANCH   2   3
ATOM      3  N   UNL A   1      33.806  25.415  22.951  1.00  0.00    -0.356 N 
ATOM      4  C   UNL A   1      32.920  26.449  22.937  1.00  0.00     0.224 C 
ATOM      5  O   UNL A   1      32.626  26.899  21.822  1.00  0.00    -0.275 OA
ATOM      6  H   UNL A   1      34.017  25.042  22.065  1.00  0.00     0.163 HD
BRANCH   4   7
ATOM      7  C   UNL A   1      32.291  27.094  24.186  1.00  0.00     0.094 C 
ATOM      8  C   UNL A   1      32.370  26.347  25.543  1.00  0.00     0.094 C 
ATOM      9  C   UNL A   1      32.747  27.416  26.656  1.00  0.00     0.002 C 
ATOM     10  C   UNL A   1      34.120  28.060  26.356  1.00  0.00     0.005 C 
ATOM     11  C   UNL A   1      31.777  28.623  26.689  1.00  0.00     0.005 C 
ATOM     12  C   UNL A   1      32.683  28.595  24.343  1.00  0.00     0.002 C 
ATOM     13  C   UNL A   1      34.059  28.802  25.005  1.00  0.00     0.005 C 
ATOM     14  C   UNL A   1      31.651  29.243  25.291  1.00  0.00     0.005 C 
BRANCH   8  15
ATOM     15  C   UNL A   1      31.022  25.654  25.893  1.00  0.00     0.229 C 
ATOM     16  N   UNL A   1      30.606  24.406  25.539  1.00  0.00    -0.317 N 
ATOM     17  H   UNL A   1      29.692  24.229  25.858  1.00  0.00     0.170 HD
ATOM     18  O   UNL A   1      30.187  26.258  26.584  1.00  0.00    -0.274 OA
BRANCH  16  19
ATOM     19  C   UNL A   1      31.118  23.322  24.853  1.00  0.00     0.111 A 
ATOM     20  C   UNL A   1      31.805  22.234  25.392  1.00  0.00     0.102 A 
ATOM     21  C   UNL A   1      32.216  21.299  24.346  1.00  0.00     0.012 A 
ATOM     22  S   UNL A   1      30.969  23.186  23.199  1.00  0.00    -0.122 S 
ATOM     23  C   UNL A   1      31.781  21.705  23.097  1.00  0.00     0.012 A 
ATOM     24  C   UNL A   1      31.920  21.068  21.750  1.00  0.00     0.057 C 
BRANCH  20  25
ATOM     25  C   UNL A   1      32.064  22.118  26.830  1.00  0.00     0.341 C 
ATOM     26  O   UNL A   1      31.297  22.550  27.680  1.00  0.00    -0.246 OA
BRANCH  25  27
ATOM     27  O   UNL A   1      33.246  21.503  27.112  1.00  0.00    -0.465 OA
ATOM     28  C   UNL A   1      34.287  22.355  27.581  1.00  0.00     0.282 C 
ENDBRANCH  25  27
ENDBRANCH  20  25
BRANCH  21  29
ATOM     29  C   UNL A   1      32.970  20.058  24.497  1.00  0.00    -0.016 A 
ATOM     30  C   UNL A   1      32.307  18.832  24.616  1.00  0.00     0.009 A 
ATOM     31  C   UNL A   1      34.370  20.090  24.536  1.00  0.00     0.009 A 
ATOM     32  C   UNL A   1      33.037  17.655  24.802  1.00  0.00     0.004 A 
ATOM     33  C   UNL A   1      35.098  18.910  24.703  1.00  0.00     0.004 A 
ATOM     34  C   UNL A   1      34.438  17.686  24.846  1.00  0.00    -0.051 A 
ATOM     35  C   UNL A   1      35.211  16.421  25.075  1.00  0.00     0.044 C 
ENDBRANCH  21  29
ENDBRANCH  16  19
ENDBRANCH   8  15
ENDBRANCH   4   7
ENDBRANCH   2   3
ENDBRANCH   1   2
BRANCH   1  36
ATOM     36  C   UNL A   1      36.631  23.373  24.019  1.00  0.00     0.023 C 
BRANCH  36  37
ATOM     37  C   UNL A   1      37.033  23.562  25.473  1.00  0.00     0.116 C 
BRANCH  37  38
ATOM     38  N   UNL A   1      38.006  22.579  25.944  1.00  0.00    -0.352 N 
ATOM     39  C   UNL A   1      39.181  22.797  26.622  1.00  0.00     0.251 C 
ATOM     40  H   UNL A   1      37.791  21.638  25.749  1.00  0.00     0.163 HD
ATOM     41  O   UNL A   1      39.946  21.872  26.866  1.00  0.00    -0.269 OA
BRANCH  39  42
ATOM     42  C   UNL A   1      39.511  24.180  27.009  1.00  0.00     0.039 A 
ATOM     43  C   UNL A   1      39.357  24.568  28.339  1.00  0.00     0.014 A 
ATOM     44  C   UNL A   1      40.087  25.040  26.070  1.00  0.00     0.014 A 
ATOM     45  C   UNL A   1      39.859  25.803  28.747  1.00  0.00     0.010 A 
ATOM     46  C   UNL A   1      40.675  26.219  26.500  1.00  0.00     0.010 A 
ATOM     47  C   UNL A   1      40.562  26.617  27.842  1.00  0.00    -0.014 A 
BRANCH  47  48
ATOM     48  C   UNL A   1      41.173  27.898  28.268  1.00  0.00     0.031 A 
ATOM     49  C   UNL A   1      42.662  28.080  28.161  1.00  0.00     0.074 A 
ATOM     50  C   UNL A   1      40.404  28.860  28.814  1.00  0.00     0.049 A 
ATOM     51  N   UNL A   1      43.400  29.090  28.542  1.00  0.00    -0.248 NA
ATOM     52  C   UNL A   1      43.429  26.963  27.583  1.00  0.00     0.031 C 
ATOM     53  C   UNL A   1      38.957  28.770  29.033  1.00  0.00     0.029 A 
ATOM     54  N   UNL A   1      40.732  30.104  29.291  1.00  0.00    -0.354 N 
ATOM     55  C   UNL A   1      44.712  28.722  28.268  1.00  0.00     0.074 A 
ATOM     56  C   UNL A   1      44.677  27.371  27.755  1.00  0.00     0.031 C 
ATOM     57  C   UNL A   1      38.520  29.922  29.569  1.00  0.00     0.029 A 
ATOM     58  C   UNL A   1      39.655  30.817  29.765  1.00  0.00     0.049 A 
ATOM     59  H   UNL A   1      41.652  30.453  29.293  1.00  0.00     0.167 HD
ATOM     60  C   UNL A   1      45.841  29.456  28.400  1.00  0.00     0.037 A 
ATOM     61  C   UNL A   1      39.594  32.054  30.295  1.00  0.00     0.037 A 
ATOM     62  C   UNL A   1      45.862  30.813  28.875  1.00  0.00     0.049 A 
ATOM     63  C   UNL A   1      40.860  32.861  30.406  1.00  0.00     0.074 A 
ATOM     64  C   UNL A   1      46.943  31.669  28.989  1.00  0.00     0.029 A 
ATOM     65  N   UNL A   1      44.746  31.516  29.307  1.00  0.00    -0.354 N 
ATOM     66  N   UNL A   1      42.085  32.523  30.080  1.00  0.00    -0.248 NA
ATOM     67  C   UNL A   1      40.735  34.222  30.945  1.00  0.00     0.031 C 
ATOM     68  C   UNL A   1      46.487  32.878  29.525  1.00  0.00     0.029 A 
ATOM     69  C   UNL A   1      45.115  32.790  29.701  1.00  0.00     0.049 A 
ATOM     70  H   UNL A   1      43.829  31.160  29.331  1.00  0.00     0.167 HD
ATOM     71  C   UNL A   1      42.872  33.639  30.347  1.00  0.00     0.074 A 
ATOM     72  C   UNL A   1      41.981  34.664  30.849  1.00  0.00     0.031 C 
ATOM     73  C   UNL A   1      44.209  33.801  30.188  1.00  0.00     0.037 A 
BRANCH  60  74
ATOM     74  C   UNL A   1      47.139  28.805  28.008  1.00  0.00     0.058 A 
ATOM     75  C   UNL A   1      47.599  28.821  26.681  1.00  0.00     0.135 A 
ATOM     76  C   UNL A   1      47.940  28.170  28.970  1.00  0.00     0.135 A 
ATOM     77  F   UNL A   1      46.863  29.397  25.716  1.00  0.00    -0.206 F 
ATOM     78  C   UNL A   1      48.788  28.202  26.316  1.00  0.00     0.059 A 
ATOM     79  C   UNL A   1      49.150  27.570  28.632  1.00  0.00     0.059 A 
ATOM     80  F   UNL A   1      47.547  28.123  30.253  1.00  0.00    -0.206 F 
ATOM     81  C   UNL A   1      49.556  27.576  27.298  1.00  0.00     0.060 A 
BRANCH  81  82
ATOM     82  S   UNL A   1      51.098  26.777  26.807  1.00  0.00     0.124 S 
ATOM     83  O   UNL A   1      52.088  27.732  27.295  1.00  0.00    -0.237 OA
ATOM     84  O   UNL A   1      51.035  25.508  27.526  1.00  0.00    -0.237 OA
ATOM     85  O   UNL A   1      50.982  26.678  25.356  1.00  0.00    -0.744 OA
ENDBRANCH  81  82
ENDBRANCH  60  74
BRANCH  61  86
ATOM     86  C   UNL A   1      38.286  32.619  30.721  1.00  0.00     0.058 A 
ATOM     87  C   UNL A   1      37.447  33.266  29.801  1.00  0.00     0.135 A 
ATOM     88  C   UNL A   1      37.843  32.516  32.049  1.00  0.00     0.135 A 
ATOM     89  F   UNL A   1      37.828  33.393  28.521  1.00  0.00    -0.206 F 
ATOM     90  C   UNL A   1      36.224  33.807  30.184  1.00  0.00     0.059 A 
ATOM     91  C   UNL A   1      36.613  33.029  32.451  1.00  0.00     0.059 A 
ATOM     92  F   UNL A   1      38.600  31.890  32.964  1.00  0.00    -0.206 F 
ATOM     93  C   UNL A   1      35.815  33.681  31.513  1.00  0.00     0.060 A 
BRANCH  93  94
ATOM     94  S   UNL A   1      34.204  34.345  31.990  1.00  0.00     0.124 S 
ATOM     95  O   UNL A   1      34.584  35.581  32.663  1.00  0.00    -0.237 OA
ATOM     96  O   UNL A   1      33.540  34.496  30.699  1.00  0.00    -0.237 OA
ATOM     97  O   UNL A   1      33.654  33.301  32.849  1.00  0.00    -0.744 OA
ENDBRANCH  93  94
ENDBRANCH  61  86
BRANCH  73  98
ATOM     98  C   UNL A   1      44.784  35.149  30.522  1.00  0.00     0.058 A 
ATOM     99  C   UNL A   1      44.849  36.179  29.571  1.00  0.00     0.135 A 
ATOM    100  C   UNL A   1      45.230  35.425  31.824  1.00  0.00     0.135 A 
ATOM    101  F   UNL A   1      44.439  35.963  28.311  1.00  0.00    -0.206 F 
ATOM    102  C   UNL A   1      45.364  37.430  29.893  1.00  0.00     0.059 A 
ATOM    103  C   UNL A   1      45.723  36.677  32.175  1.00  0.00     0.059 A 
ATOM    104  F   UNL A   1      45.177  34.477  32.773  1.00  0.00    -0.206 F 
ATOM    105  C   UNL A   1      45.800  37.669  31.198  1.00  0.00     0.060 A 
BRANCH 105 106
ATOM    106  S   UNL A   1      46.444  39.304  31.610  1.00  0.00     0.124 S 
ATOM    107  O   UNL A   1      45.394  40.172  31.091  1.00  0.00    -0.237 OA
ATOM    108  O   UNL A   1      46.553  39.240  33.064  1.00  0.00    -0.237 OA
ATOM    109  O   UNL A   1      47.715  39.358  30.895  1.00  0.00    -0.744 OA
ENDBRANCH 105 106
ENDBRANCH  73  98
ENDBRANCH  47  48
ENDBRANCH  39  42
ENDBRANCH  37  38
ENDBRANCH  36  37
ENDBRANCH   1  36
TORSDOF 19
ENDMDL
