MODEL 1
REMARK VINA RESULT:     -12.3      0.000      0.000
REMARK SMILES Cc1cc(F)cc(N[C@@](C)(C(=O)NCCCCNC(=O)c2ccc(-c3c4nc(c(-c5c(F)cc(S(=O)(=O)[O-])cc5F)c5ccc([nH]5)c(-c5c(F)cc(S(=O)(=O)[O-])cc5F)c5nc(c(-c6c(F)cc(S(=O)(=O)[O-])cc6F)c6ccc3[nH]6)C=C5)C=C4)cc2)c2ccc(O)cc2)c1
REMARK SMILES IDX 16 1 15 2 14 3 13 4 11 5 12 6 9 8 10 9 8 10 7 12 1 13 2 14
REMARK SMILES IDX 3 15 94 16 4 17 5 18 6 19 87 20 88 21 93 22 89 23 92 24
REMARK SMILES IDX 90 25 91 26 17 28 18 29 19 30 20 32 21 33 22 34 86 35 23 36
REMARK SMILES IDX 85 37 24 38 25 39 26 40 79 41 27 42 84 43 78 44 80 45 28 46
REMARK SMILES IDX 83 47 77 48 76 49 29 51 63 52 42 53 62 54 43 55 46 56 61 57
REMARK SMILES IDX 81 58 44 59 45 60 60 62 82 63 47 64 30 65 31 66 40 67 32 68
REMARK SMILES IDX 33 69 39 70 41 71 34 72 35 73 36 74 37 75 38 76 64 77 65 78
REMARK SMILES IDX 74 79 66 80 67 81 73 82 75 83 68 84 69 85 70 86 71 87 72 88
REMARK SMILES IDX 48 89 49 90 58 91 50 92 51 93 57 94 59 95 52 96 53 97 54 98
REMARK SMILES IDX 55 99 56 100
REMARK H PARENT 13 7 8 11 91 27 18 31 80 50 46 61
REMARK Flexibility Score: inf
ROOT
ATOM      1  C   UNL A   1      32.168  27.813  26.885  1.00  0.00     0.023 C 
ENDROOT
BRANCH   1   2
ATOM      2  C   UNL A   1      32.198  26.908  25.653  1.00  0.00     0.023 C 
BRANCH   2   3
ATOM      3  C   UNL A   1      31.041  25.918  25.540  1.00  0.00     0.116 C 
BRANCH   3   4
ATOM      4  N   UNL A   1      31.078  24.913  26.585  1.00  0.00    -0.354 N 
ATOM      5  C   UNL A   1      31.411  23.584  26.596  1.00  0.00     0.250 C 
ATOM      6  O   UNL A   1      31.138  23.011  27.658  1.00  0.00    -0.272 OA
ATOM      7  H   UNL A   1      30.809  25.257  27.468  1.00  0.00     0.163 HD
BRANCH   5   8
ATOM      8  C   UNL A   1      32.070  22.847  25.350  1.00  0.00     0.139 C 
ATOM      9  C   UNL A   1      31.428  23.344  24.031  1.00  0.00     0.051 C 
BRANCH   8  10
ATOM     10  N   UNL A   1      31.780  21.391  25.489  1.00  0.00    -0.368 N 
ATOM     11  H   UNL A   1      31.143  21.170  26.207  1.00  0.00     0.161 HD
BRANCH  10  12
ATOM     12  C   UNL A   1      32.251  20.295  24.785  1.00  0.00     0.038 A 
ATOM     13  C   UNL A   1      33.335  16.741  25.745  1.00  0.00     0.044 C 
ATOM     14  C   UNL A   1      32.933  17.926  24.919  1.00  0.00    -0.046 A 
ATOM     15  C   UNL A   1      32.769  17.801  23.542  1.00  0.00     0.042 A 
ATOM     16  C   UNL A   1      32.644  19.161  25.525  1.00  0.00     0.029 A 
ATOM     17  C   UNL A   1      32.438  18.921  22.795  1.00  0.00     0.125 A 
ATOM     18  F   UNL A   1      32.279  18.796  21.469  1.00  0.00    -0.207 F 
ATOM     19  C   UNL A   1      32.232  20.162  23.396  1.00  0.00     0.065 A 
ENDBRANCH  10  12
ENDBRANCH   8  10
BRANCH   8  20
ATOM     20  C   UNL A   1      33.581  23.158  25.129  1.00  0.00    -0.013 A 
ATOM     21  C   UNL A   1      34.115  23.264  23.826  1.00  0.00     0.010 A 
ATOM     22  C   UNL A   1      34.464  23.401  26.200  1.00  0.00     0.010 A 
ATOM     23  C   UNL A   1      35.487  23.426  23.612  1.00  0.00     0.046 A 
ATOM     24  C   UNL A   1      35.836  23.576  25.990  1.00  0.00     0.046 A 
ATOM     25  C   UNL A   1      36.339  23.549  24.697  1.00  0.00     0.115 A 
BRANCH  25  26
ATOM     26  O   UNL A   1      37.678  23.639  24.458  1.00  0.00    -0.508 OA
ATOM     27  H   UNL A   1      38.147  22.896  24.132  1.00  0.00     0.293 HD
ENDBRANCH  25  26
ENDBRANCH   8  20
ENDBRANCH   5   8
ENDBRANCH   3   4
ENDBRANCH   2   3
ENDBRANCH   1   2
BRANCH   1  28
ATOM     28  C   UNL A   1      33.517  28.371  27.333  1.00  0.00     0.116 C 
BRANCH  28  29
ATOM     29  N   UNL A   1      33.477  29.793  27.640  1.00  0.00    -0.352 N 
ATOM     30  C   UNL A   1      34.457  30.602  28.166  1.00  0.00     0.251 C 
ATOM     31  H   UNL A   1      32.623  30.242  27.442  1.00  0.00     0.163 HD
ATOM     32  O   UNL A   1      34.193  31.759  28.464  1.00  0.00    -0.269 OA
BRANCH  30  33
ATOM     33  C   UNL A   1      35.816  30.064  28.400  1.00  0.00     0.039 A 
ATOM     34  C   UNL A   1      36.737  30.078  27.348  1.00  0.00     0.014 A 
ATOM     35  C   UNL A   1      36.188  29.557  29.649  1.00  0.00     0.014 A 
ATOM     36  C   UNL A   1      38.051  29.655  27.570  1.00  0.00     0.010 A 
ATOM     37  C   UNL A   1      37.514  29.202  29.886  1.00  0.00     0.010 A 
ATOM     38  C   UNL A   1      38.462  29.252  28.851  1.00  0.00    -0.014 A 
BRANCH  38  39
ATOM     39  C   UNL A   1      39.878  28.897  29.134  1.00  0.00     0.031 A 
ATOM     40  C   UNL A   1      40.826  29.931  29.679  1.00  0.00     0.074 A 
ATOM     41  C   UNL A   1      40.331  27.665  28.817  1.00  0.00     0.049 A 
ATOM     42  N   UNL A   1      42.112  29.838  29.897  1.00  0.00    -0.248 NA
ATOM     43  C   UNL A   1      40.260  31.254  29.994  1.00  0.00     0.031 C 
ATOM     44  C   UNL A   1      39.529  26.593  28.223  1.00  0.00     0.029 A 
ATOM     45  N   UNL A   1      41.584  27.114  28.929  1.00  0.00    -0.354 N 
ATOM     46  C   UNL A   1      42.514  31.092  30.343  1.00  0.00     0.074 A 
ATOM     47  C   UNL A   1      41.342  31.940  30.335  1.00  0.00     0.031 C 
ATOM     48  C   UNL A   1      40.306  25.515  28.027  1.00  0.00     0.029 A 
ATOM     49  C   UNL A   1      41.668  25.827  28.449  1.00  0.00     0.049 A 
ATOM     50  H   UNL A   1      42.351  27.595  29.317  1.00  0.00     0.167 HD
ATOM     51  C   UNL A   1      43.746  31.494  30.736  1.00  0.00     0.037 A 
ATOM     52  C   UNL A   1      42.725  24.996  28.345  1.00  0.00     0.037 A 
ATOM     53  C   UNL A   1      44.897  30.631  30.795  1.00  0.00     0.049 A 
ATOM     54  C   UNL A   1      44.072  25.458  28.832  1.00  0.00     0.074 A 
ATOM     55  C   UNL A   1      46.161  30.920  31.280  1.00  0.00     0.029 A 
ATOM     56  N   UNL A   1      44.927  29.317  30.358  1.00  0.00    -0.354 N 
ATOM     57  N   UNL A   1      44.412  26.619  29.339  1.00  0.00    -0.248 NA
ATOM     58  C   UNL A   1      45.180  24.495  28.742  1.00  0.00     0.031 C 
ATOM     59  C   UNL A   1      46.968  29.794  31.096  1.00  0.00     0.029 A 
ATOM     60  C   UNL A   1      46.195  28.789  30.540  1.00  0.00     0.049 A 
ATOM     61  H   UNL A   1      44.162  28.831  29.974  1.00  0.00     0.167 HD
ATOM     62  C   UNL A   1      45.762  26.515  29.655  1.00  0.00     0.074 A 
ATOM     63  C   UNL A   1      46.175  25.175  29.295  1.00  0.00     0.031 C 
ATOM     64  C   UNL A   1      46.586  27.445  30.195  1.00  0.00     0.037 A 
BRANCH  51  65
ATOM     65  C   UNL A   1      43.927  32.928  31.150  1.00  0.00     0.058 A 
ATOM     66  C   UNL A   1      44.187  33.939  30.213  1.00  0.00     0.135 A 
ATOM     67  C   UNL A   1      43.749  33.306  32.491  1.00  0.00     0.135 A 
ATOM     68  F   UNL A   1      44.381  33.630  28.921  1.00  0.00    -0.206 F 
ATOM     69  C   UNL A   1      44.272  35.274  30.591  1.00  0.00     0.059 A 
ATOM     70  C   UNL A   1      43.806  34.638  32.888  1.00  0.00     0.059 A 
ATOM     71  F   UNL A   1      43.502  32.376  33.427  1.00  0.00    -0.206 F 
ATOM     72  C   UNL A   1      44.073  35.615  31.930  1.00  0.00     0.060 A 
BRANCH  72  73
ATOM     73  S   UNL A   1      44.140  37.359  32.396  1.00  0.00     0.124 S 
ATOM     74  O   UNL A   1      43.853  38.011  31.122  1.00  0.00    -0.237 OA
ATOM     75  O   UNL A   1      43.090  37.452  33.405  1.00  0.00    -0.237 OA
ATOM     76  O   UNL A   1      45.502  37.526  32.894  1.00  0.00    -0.744 OA
ENDBRANCH  72  73
ENDBRANCH  51  65
BRANCH  52  77
ATOM     77  C   UNL A   1      42.559  23.640  27.756  1.00  0.00     0.058 A 
ATOM     78  C   UNL A   1      42.378  22.513  28.572  1.00  0.00     0.135 A 
ATOM     79  C   UNL A   1      42.607  23.440  26.368  1.00  0.00     0.135 A 
ATOM     80  F   UNL A   1      42.329  22.653  29.906  1.00  0.00    -0.206 F 
ATOM     81  C   UNL A   1      42.285  21.232  28.037  1.00  0.00     0.059 A 
ATOM     82  C   UNL A   1      42.488  22.171  25.807  1.00  0.00     0.059 A 
ATOM     83  F   UNL A   1      42.758  24.486  25.542  1.00  0.00    -0.206 F 
ATOM     84  C   UNL A   1      42.348  21.071  26.653  1.00  0.00     0.060 A 
BRANCH  84  85
ATOM     85  S   UNL A   1      42.215  19.407  25.963  1.00  0.00     0.124 S 
ATOM     86  O   UNL A   1      42.759  18.598  27.048  1.00  0.00    -0.237 OA
ATOM     87  O   UNL A   1      40.779  19.283  25.731  1.00  0.00    -0.237 OA
ATOM     88  O   UNL A   1      43.034  19.479  24.757  1.00  0.00    -0.744 OA
ENDBRANCH  84  85
ENDBRANCH  52  77
BRANCH  64  89
ATOM     89  C   UNL A   1      48.006  27.039  30.474  1.00  0.00     0.058 A 
ATOM     90  C   UNL A   1      49.030  27.244  29.536  1.00  0.00     0.135 A 
ATOM     91  C   UNL A   1      48.354  26.492  31.719  1.00  0.00     0.135 A 
ATOM     92  F   UNL A   1      48.748  27.760  28.330  1.00  0.00    -0.206 F 
ATOM     93  C   UNL A   1      50.348  26.898  29.816  1.00  0.00     0.059 A 
ATOM     94  C   UNL A   1      49.670  26.163  32.029  1.00  0.00     0.059 A 
ATOM     95  F   UNL A   1      47.414  26.286  32.655  1.00  0.00    -0.206 F 
ATOM     96  C   UNL A   1      50.659  26.359  31.066  1.00  0.00     0.060 A 
BRANCH  96  97
ATOM     97  S   UNL A   1      52.379  25.949  31.430  1.00  0.00     0.124 S 
ATOM     98  O   UNL A   1      52.255  24.586  31.931  1.00  0.00    -0.237 OA
ATOM     99  O   UNL A   1      53.019  26.091  30.126  1.00  0.00    -0.237 OA
ATOM    100  O   UNL A   1      52.763  26.950  32.422  1.00  0.00    -0.744 OA
ENDBRANCH  96  97
ENDBRANCH  64  89
ENDBRANCH  38  39
ENDBRANCH  30  33
ENDBRANCH  28  29
ENDBRANCH   1  28
TORSDOF 18
ENDMDL
MODEL 2
REMARK VINA RESULT:     -12.0      0.663      8.118
REMARK SMILES Cc1cc(F)cc(N[C@@](C)(C(=O)NCCCCNC(=O)c2ccc(-c3c4nc(c(-c5c(F)cc(S(=O)(=O)[O-])cc5F)c5ccc([nH]5)c(-c5c(F)cc(S(=O)(=O)[O-])cc5F)c5nc(c(-c6c(F)cc(S(=O)(=O)[O-])cc6F)c6ccc3[nH]6)C=C5)C=C4)cc2)c2ccc(O)cc2)c1
REMARK SMILES IDX 16 1 15 2 14 3 13 4 11 5 12 6 9 8 10 9 8 10 7 12 1 13 2 14
REMARK SMILES IDX 3 15 94 16 4 17 5 18 6 19 87 20 88 21 93 22 89 23 92 24
REMARK SMILES IDX 90 25 91 26 17 28 18 29 19 30 20 32 21 33 22 34 86 35 23 36
REMARK SMILES IDX 85 37 24 38 25 39 26 40 79 41 27 42 84 43 78 44 80 45 28 46
REMARK SMILES IDX 83 47 77 48 76 49 29 51 63 52 42 53 62 54 43 55 46 56 61 57
REMARK SMILES IDX 81 58 44 59 45 60 60 62 82 63 47 64 30 65 31 66 40 67 32 68
REMARK SMILES IDX 33 69 39 70 41 71 34 72 35 73 36 74 37 75 38 76 64 77 65 78
REMARK SMILES IDX 74 79 66 80 67 81 73 82 75 83 68 84 69 85 70 86 71 87 72 88
REMARK SMILES IDX 48 89 49 90 58 91 50 92 51 93 57 94 59 95 52 96 53 97 54 98
REMARK SMILES IDX 55 99 56 100
REMARK H PARENT 13 7 8 11 91 27 18 31 80 50 46 61
REMARK Flexibility Score: inf
ROOT
ATOM      1  C   UNL A   1      32.657  27.611  26.778  1.00  0.00     0.023 C 
ENDROOT
BRANCH   1   2
ATOM      2  C   UNL A   1      32.675  26.412  25.828  1.00  0.00     0.023 C 
BRANCH   2   3
ATOM      3  C   UNL A   1      31.342  25.684  25.667  1.00  0.00     0.116 C 
BRANCH   3   4
ATOM      4  N   UNL A   1      31.191  24.605  26.624  1.00  0.00    -0.354 N 
ATOM      5  C   UNL A   1      31.400  23.253  26.553  1.00  0.00     0.250 C 
ATOM      6  O   UNL A   1      30.978  22.631  27.536  1.00  0.00    -0.272 OA
ATOM      7  H   UNL A   1      30.871  24.906  27.506  1.00  0.00     0.163 HD
BRANCH   5   8
ATOM      8  C   UNL A   1      32.106  22.552  25.313  1.00  0.00     0.139 C 
ATOM      9  C   UNL A   1      31.493  23.064  23.985  1.00  0.00     0.051 C 
BRANCH   8  10
ATOM     10  N   UNL A   1      31.835  21.089  25.415  1.00  0.00    -0.368 N 
ATOM     11  H   UNL A   1      31.190  20.842  26.117  1.00  0.00     0.161 HD
BRANCH  10  12
ATOM     12  C   UNL A   1      32.332  20.015  24.694  1.00  0.00     0.038 A 
ATOM     13  C   UNL A   1      33.612  16.516  25.615  1.00  0.00     0.044 C 
ATOM     14  C   UNL A   1      33.128  17.680  24.804  1.00  0.00    -0.046 A 
ATOM     15  C   UNL A   1      32.925  17.547  23.432  1.00  0.00     0.042 A 
ATOM     16  C   UNL A   1      32.802  18.901  25.420  1.00  0.00     0.029 A 
ATOM     17  C   UNL A   1      32.518  18.651  22.698  1.00  0.00     0.125 A 
ATOM     18  F   UNL A   1      32.320  18.517  21.378  1.00  0.00    -0.207 F 
ATOM     19  C   UNL A   1      32.274  19.881  23.307  1.00  0.00     0.065 A 
ENDBRANCH  10  12
ENDBRANCH   8  10
BRANCH   8  20
ATOM     20  C   UNL A   1      33.618  22.889  25.141  1.00  0.00    -0.013 A 
ATOM     21  C   UNL A   1      34.179  23.061  23.856  1.00  0.00     0.010 A 
ATOM     22  C   UNL A   1      34.473  23.094  26.240  1.00  0.00     0.010 A 
ATOM     23  C   UNL A   1      35.553  23.249  23.680  1.00  0.00     0.046 A 
ATOM     24  C   UNL A   1      35.847  23.294  26.070  1.00  0.00     0.046 A 
ATOM     25  C   UNL A   1      36.379  23.332  24.790  1.00  0.00     0.115 A 
BRANCH  25  26
ATOM     26  O   UNL A   1      37.722  23.448  24.585  1.00  0.00    -0.508 OA
ATOM     27  H   UNL A   1      38.143  22.926  23.931  1.00  0.00     0.293 HD
ENDBRANCH  25  26
ENDBRANCH   8  20
ENDBRANCH   5   8
ENDBRANCH   3   4
ENDBRANCH   2   3
ENDBRANCH   1   2
BRANCH   1  28
ATOM     28  C   UNL A   1      33.993  28.325  26.973  1.00  0.00     0.116 C 
BRANCH  28  29
ATOM     29  N   UNL A   1      33.854  29.655  27.546  1.00  0.00    -0.352 N 
ATOM     30  C   UNL A   1      34.778  30.416  28.224  1.00  0.00     0.251 C 
ATOM     31  H   UNL A   1      32.970  30.072  27.430  1.00  0.00     0.163 HD
ATOM     32  O   UNL A   1      34.435  31.473  28.736  1.00  0.00    -0.269 OA
BRANCH  30  33
ATOM     33  C   UNL A   1      36.173  29.940  28.362  1.00  0.00     0.039 A 
ATOM     34  C   UNL A   1      37.045  30.088  27.279  1.00  0.00     0.014 A 
ATOM     35  C   UNL A   1      36.625  29.360  29.550  1.00  0.00     0.014 A 
ATOM     36  C   UNL A   1      38.389  29.726  27.415  1.00  0.00     0.010 A 
ATOM     37  C   UNL A   1      37.978  29.063  29.706  1.00  0.00     0.010 A 
ATOM     38  C   UNL A   1      38.876  29.249  28.643  1.00  0.00    -0.014 A 
BRANCH  38  39
ATOM     39  C   UNL A   1      40.320  28.954  28.842  1.00  0.00     0.031 A 
ATOM     40  C   UNL A   1      40.880  27.611  28.455  1.00  0.00     0.074 A 
ATOM     41  C   UNL A   1      41.108  29.864  29.453  1.00  0.00     0.049 A 
ATOM     42  N   UNL A   1      42.085  27.136  28.640  1.00  0.00    -0.248 NA
ATOM     43  C   UNL A   1      39.960  26.667  27.800  1.00  0.00     0.031 C 
ATOM     44  C   UNL A   1      40.670  31.177  29.935  1.00  0.00     0.029 A 
ATOM     45  N   UNL A   1      42.436  29.816  29.795  1.00  0.00    -0.354 N 
ATOM     46  C   UNL A   1      42.059  25.834  28.155  1.00  0.00     0.074 A 
ATOM     47  C   UNL A   1      40.710  25.581  27.696  1.00  0.00     0.031 C 
ATOM     48  C   UNL A   1      41.710  31.809  30.504  1.00  0.00     0.029 A 
ATOM     49  C   UNL A   1      42.879  30.937  30.460  1.00  0.00     0.049 A 
ATOM     50  H   UNL A   1      43.019  29.051  29.583  1.00  0.00     0.167 HD
ATOM     51  C   UNL A   1      43.072  24.937  28.086  1.00  0.00     0.037 A 
ATOM     52  C   UNL A   1      44.085  31.225  30.987  1.00  0.00     0.037 A 
ATOM     53  C   UNL A   1      44.425  25.214  28.493  1.00  0.00     0.049 A 
ATOM     54  C   UNL A   1      45.203  30.225  30.856  1.00  0.00     0.074 A 
ATOM     55  C   UNL A   1      45.541  24.405  28.363  1.00  0.00     0.029 A 
ATOM     56  N   UNL A   1      44.847  26.383  29.105  1.00  0.00    -0.354 N 
ATOM     57  N   UNL A   1      45.182  29.033  30.308  1.00  0.00    -0.248 NA
ATOM     58  C   UNL A   1      46.511  30.609  31.405  1.00  0.00     0.031 C 
ATOM     59  C   UNL A   1      46.630  25.067  28.937  1.00  0.00     0.029 A 
ATOM     60  C   UNL A   1      46.201  26.308  29.382  1.00  0.00     0.049 A 
ATOM     61  H   UNL A   1      44.269  27.152  29.314  1.00  0.00     0.167 HD
ATOM     62  C   UNL A   1      46.476  28.540  30.420  1.00  0.00     0.074 A 
ATOM     63  C   UNL A   1      47.260  29.565  31.076  1.00  0.00     0.031 C 
ATOM     64  C   UNL A   1      46.973  27.345  30.016  1.00  0.00     0.037 A 
BRANCH  51  65
ATOM     65  C   UNL A   1      42.773  23.569  27.540  1.00  0.00     0.058 A 
ATOM     66  C   UNL A   1      42.905  23.275  26.175  1.00  0.00     0.135 A 
ATOM     67  C   UNL A   1      42.436  22.518  28.409  1.00  0.00     0.135 A 
ATOM     68  F   UNL A   1      43.209  24.246  25.299  1.00  0.00    -0.206 F 
ATOM     69  C   UNL A   1      42.706  21.987  25.687  1.00  0.00     0.059 A 
ATOM     70  C   UNL A   1      42.256  21.218  27.946  1.00  0.00     0.059 A 
ATOM     71  F   UNL A   1      42.294  22.748  29.723  1.00  0.00    -0.206 F 
ATOM     72  C   UNL A   1      42.389  20.963  26.582  1.00  0.00     0.060 A 
BRANCH  72  73
ATOM     73  S   UNL A   1      42.181  19.289  25.939  1.00  0.00     0.124 S 
ATOM     74  O   UNL A   1      42.675  18.486  27.053  1.00  0.00    -0.237 OA
ATOM     75  O   UNL A   1      40.743  19.224  25.700  1.00  0.00    -0.237 OA
ATOM     76  O   UNL A   1      43.014  19.279  24.740  1.00  0.00    -0.744 OA
ENDBRANCH  72  73
ENDBRANCH  51  65
BRANCH  52  77
ATOM     77  C   UNL A   1      44.308  32.516  31.692  1.00  0.00     0.058 A 
ATOM     78  C   UNL A   1      44.776  33.646  31.004  1.00  0.00     0.135 A 
ATOM     79  C   UNL A   1      44.084  32.639  33.072  1.00  0.00     0.135 A 
ATOM     80  F   UNL A   1      45.009  33.577  29.684  1.00  0.00    -0.206 F 
ATOM     81  C   UNL A   1      45.048  34.841  31.662  1.00  0.00     0.059 A 
ATOM     82  C   UNL A   1      44.323  33.832  33.748  1.00  0.00     0.059 A 
ATOM     83  F   UNL A   1      43.618  31.595  33.773  1.00  0.00    -0.206 F 
ATOM     84  C   UNL A   1      44.824  34.922  33.037  1.00  0.00     0.060 A 
BRANCH  84  85
ATOM     85  S   UNL A   1      45.168  36.479  33.884  1.00  0.00     0.124 S 
ATOM     86  O   UNL A   1      43.848  37.098  33.904  1.00  0.00    -0.237 OA
ATOM     87  O   UNL A   1      45.681  36.024  35.173  1.00  0.00    -0.237 OA
ATOM     88  O   UNL A   1      46.153  37.119  33.018  1.00  0.00    -0.744 OA
ENDBRANCH  84  85
ENDBRANCH  52  77
BRANCH  64  89
ATOM     89  C   UNL A   1      48.440  27.094  30.228  1.00  0.00     0.058 A 
ATOM     90  C   UNL A   1      49.401  27.500  29.289  1.00  0.00     0.135 A 
ATOM     91  C   UNL A   1      48.891  26.491  31.413  1.00  0.00     0.135 A 
ATOM     92  F   UNL A   1      49.021  28.076  28.139  1.00  0.00    -0.206 F 
ATOM     93  C   UNL A   1      50.759  27.295  29.510  1.00  0.00     0.059 A 
ATOM     94  C   UNL A   1      50.246  26.300  31.665  1.00  0.00     0.059 A 
ATOM     95  F   UNL A   1      48.013  26.095  32.348  1.00  0.00    -0.206 F 
ATOM     96  C   UNL A   1      51.173  26.696  30.701  1.00  0.00     0.060 A 
BRANCH  96  97
ATOM     97  S   UNL A   1      52.940  26.470  30.991  1.00  0.00     0.124 S 
ATOM     98  O   UNL A   1      52.953  25.242  31.777  1.00  0.00    -0.237 OA
ATOM     99  O   UNL A   1      53.469  26.362  29.635  1.00  0.00    -0.237 OA
ATOM    100  O   UNL A   1      53.322  27.681  31.712  1.00  0.00    -0.744 OA
ENDBRANCH  96  97
ENDBRANCH  64  89
ENDBRANCH  38  39
ENDBRANCH  30  33
ENDBRANCH  28  29
ENDBRANCH   1  28
TORSDOF 18
ENDMDL
MODEL 3
REMARK VINA RESULT:     -11.9      2.943      4.024
REMARK SMILES Cc1cc(F)cc(N[C@@](C)(C(=O)NCCCCNC(=O)c2ccc(-c3c4nc(c(-c5c(F)cc(S(=O)(=O)[O-])cc5F)c5ccc([nH]5)c(-c5c(F)cc(S(=O)(=O)[O-])cc5F)c5nc(c(-c6c(F)cc(S(=O)(=O)[O-])cc6F)c6ccc3[nH]6)C=C5)C=C4)cc2)c2ccc(O)cc2)c1
REMARK SMILES IDX 16 1 15 2 14 3 13 4 11 5 12 6 9 8 10 9 8 10 7 12 1 13 2 14
REMARK SMILES IDX 3 15 94 16 4 17 5 18 6 19 87 20 88 21 93 22 89 23 92 24
REMARK SMILES IDX 90 25 91 26 17 28 18 29 19 30 20 32 21 33 22 34 86 35 23 36
REMARK SMILES IDX 85 37 24 38 25 39 26 40 79 41 27 42 84 43 78 44 80 45 28 46
REMARK SMILES IDX 83 47 77 48 76 49 29 51 63 52 42 53 62 54 43 55 46 56 61 57
REMARK SMILES IDX 81 58 44 59 45 60 60 62 82 63 47 64 30 65 31 66 40 67 32 68
REMARK SMILES IDX 33 69 39 70 41 71 34 72 35 73 36 74 37 75 38 76 64 77 65 78
REMARK SMILES IDX 74 79 66 80 67 81 73 82 75 83 68 84 69 85 70 86 71 87 72 88
REMARK SMILES IDX 48 89 49 90 58 91 50 92 51 93 57 94 59 95 52 96 53 97 54 98
REMARK SMILES IDX 55 99 56 100
REMARK H PARENT 13 7 8 11 91 27 18 31 80 50 46 61
REMARK Flexibility Score: inf
ROOT
ATOM      1  C   UNL A   1      33.736  29.493  27.038  1.00  0.00     0.023 C 
ENDROOT
BRANCH   1   2
ATOM      2  C   UNL A   1      33.033  28.155  27.271  1.00  0.00     0.023 C 
BRANCH   2   3
ATOM      3  C   UNL A   1      31.550  28.123  26.908  1.00  0.00     0.116 C 
BRANCH   3   4
ATOM      4  N   UNL A   1      30.992  26.788  27.011  1.00  0.00    -0.354 N 
ATOM      5  C   UNL A   1      30.847  25.761  26.116  1.00  0.00     0.250 C 
ATOM      6  O   UNL A   1      30.148  24.830  26.535  1.00  0.00    -0.272 OA
ATOM      7  H   UNL A   1      30.646  26.577  27.909  1.00  0.00     0.163 HD
BRANCH   5   8
ATOM      8  C   UNL A   1      31.506  25.776  24.669  1.00  0.00     0.139 C 
ATOM      9  C   UNL A   1      30.916  24.639  23.798  1.00  0.00     0.051 C 
BRANCH   8  10
ATOM     10  N   UNL A   1      32.965  25.520  24.841  1.00  0.00    -0.368 N 
ATOM     11  H   UNL A   1      33.528  26.326  24.792  1.00  0.00     0.161 HD
BRANCH  10  12
ATOM     12  C   UNL A   1      33.666  24.345  25.057  1.00  0.00     0.038 A 
ATOM     13  C   UNL A   1      36.658  22.645  23.358  1.00  0.00     0.044 C 
ATOM     14  C   UNL A   1      35.590  22.963  24.360  1.00  0.00    -0.046 A 
ATOM     15  C   UNL A   1      35.531  22.273  25.569  1.00  0.00     0.042 A 
ATOM     16  C   UNL A   1      34.677  24.007  24.133  1.00  0.00     0.029 A 
ATOM     17  C   UNL A   1      34.509  22.556  26.461  1.00  0.00     0.125 A 
ATOM     18  F   UNL A   1      34.458  21.892  27.626  1.00  0.00    -0.207 F 
ATOM     19  C   UNL A   1      33.558  23.541  26.191  1.00  0.00     0.065 A 
ENDBRANCH  10  12
ENDBRANCH   8  10
BRANCH   8  20
ATOM     20  C   UNL A   1      31.197  27.047  23.821  1.00  0.00    -0.013 A 
ATOM     21  C   UNL A   1      29.866  27.464  23.601  1.00  0.00     0.010 A 
ATOM     22  C   UNL A   1      32.215  27.862  23.290  1.00  0.00     0.010 A 
ATOM     23  C   UNL A   1      29.568  28.532  22.749  1.00  0.00     0.046 A 
ATOM     24  C   UNL A   1      31.922  28.939  22.446  1.00  0.00     0.046 A 
ATOM     25  C   UNL A   1      30.600  29.240  22.154  1.00  0.00     0.115 A 
BRANCH  25  26
ATOM     26  O   UNL A   1      30.278  30.232  21.277  1.00  0.00    -0.508 OA
ATOM     27  H   UNL A   1      29.474  30.704  21.377  1.00  0.00     0.293 HD
ENDBRANCH  25  26
ENDBRANCH   8  20
ENDBRANCH   5   8
ENDBRANCH   3   4
ENDBRANCH   2   3
ENDBRANCH   1   2
BRANCH   1  28
ATOM     28  C   UNL A   1      35.144  29.615  27.615  1.00  0.00     0.116 C 
BRANCH  28  29
ATOM     29  N   UNL A   1      35.197  30.400  28.839  1.00  0.00    -0.352 N 
ATOM     30  C   UNL A   1      36.234  30.567  29.727  1.00  0.00     0.251 C 
ATOM     31  H   UNL A   1      34.369  30.883  29.064  1.00  0.00     0.163 HD
ATOM     32  O   UNL A   1      36.048  31.178  30.770  1.00  0.00    -0.269 OA
BRANCH  30  33
ATOM     33  C   UNL A   1      37.562  29.979  29.435  1.00  0.00     0.039 A 
ATOM     34  C   UNL A   1      37.994  29.920  28.107  1.00  0.00     0.014 A 
ATOM     35  C   UNL A   1      38.381  29.499  30.460  1.00  0.00     0.014 A 
ATOM     36  C   UNL A   1      39.279  29.450  27.816  1.00  0.00     0.010 A 
ATOM     37  C   UNL A   1      39.684  29.096  30.175  1.00  0.00     0.010 A 
ATOM     38  C   UNL A   1      40.150  29.072  28.851  1.00  0.00    -0.014 A 
BRANCH  38  39
ATOM     39  C   UNL A   1      41.553  28.667  28.573  1.00  0.00     0.031 A 
ATOM     40  C   UNL A   1      42.648  29.699  28.536  1.00  0.00     0.074 A 
ATOM     41  C   UNL A   1      41.827  27.380  28.267  1.00  0.00     0.049 A 
ATOM     42  N   UNL A   1      43.908  29.554  28.217  1.00  0.00    -0.248 NA
ATOM     43  C   UNL A   1      42.273  31.083  28.874  1.00  0.00     0.031 C 
ATOM     44  C   UNL A   1      40.843  26.296  28.205  1.00  0.00     0.029 A 
ATOM     45  N   UNL A   1      43.009  26.771  27.927  1.00  0.00    -0.354 N 
ATOM     46  C   UNL A   1      44.467  30.825  28.285  1.00  0.00     0.074 A 
ATOM     47  C   UNL A   1      43.402  31.736  28.645  1.00  0.00     0.031 C 
ATOM     48  C   UNL A   1      41.463  25.157  27.854  1.00  0.00     0.029 A 
ATOM     49  C   UNL A   1      42.879  25.433  27.633  1.00  0.00     0.049 A 
ATOM     50  H   UNL A   1      43.871  27.247  27.898  1.00  0.00     0.167 HD
ATOM     51  C   UNL A   1      45.754  31.194  28.080  1.00  0.00     0.037 A 
ATOM     52  C   UNL A   1      43.792  24.532  27.218  1.00  0.00     0.037 A 
ATOM     53  C   UNL A   1      46.820  30.276  27.777  1.00  0.00     0.049 A 
ATOM     54  C   UNL A   1      45.223  24.965  27.042  1.00  0.00     0.074 A 
ATOM     55  C   UNL A   1      48.173  30.542  27.657  1.00  0.00     0.029 A 
ATOM     56  N   UNL A   1      46.658  28.919  27.548  1.00  0.00    -0.354 N 
ATOM     57  N   UNL A   1      45.750  26.156  27.203  1.00  0.00    -0.248 NA
ATOM     58  C   UNL A   1      46.187  23.932  26.636  1.00  0.00     0.031 C 
ATOM     59  C   UNL A   1      48.824  29.355  27.311  1.00  0.00     0.029 A 
ATOM     60  C   UNL A   1      47.883  28.340  27.262  1.00  0.00     0.049 A 
ATOM     61  H   UNL A   1      45.799  28.439  27.581  1.00  0.00     0.167 HD
ATOM     62  C   UNL A   1      47.108  26.007  26.949  1.00  0.00     0.074 A 
ATOM     63  C   UNL A   1      47.326  24.611  26.634  1.00  0.00     0.031 C 
ATOM     64  C   UNL A   1      48.088  26.944  26.972  1.00  0.00     0.037 A 
BRANCH  51  65
ATOM     65  C   UNL A   1      46.099  32.654  28.186  1.00  0.00     0.058 A 
ATOM     66  C   UNL A   1      45.984  33.520  27.089  1.00  0.00     0.135 A 
ATOM     67  C   UNL A   1      46.463  33.208  29.425  1.00  0.00     0.135 A 
ATOM     68  F   UNL A   1      45.654  33.040  25.879  1.00  0.00    -0.206 F 
ATOM     69  C   UNL A   1      46.226  34.884  27.213  1.00  0.00     0.059 A 
ATOM     70  C   UNL A   1      46.686  34.573  29.577  1.00  0.00     0.059 A 
ATOM     71  F   UNL A   1      46.590  32.421  30.505  1.00  0.00    -0.206 F 
ATOM     72  C   UNL A   1      46.570  35.403  28.463  1.00  0.00     0.060 A 
BRANCH  72  73
ATOM     73  S   UNL A   1      46.834  37.182  28.616  1.00  0.00     0.124 S 
ATOM     74  O   UNL A   1      45.685  37.578  29.425  1.00  0.00    -0.237 OA
ATOM     75  O   UNL A   1      48.130  37.249  29.282  1.00  0.00    -0.237 OA
ATOM     76  O   UNL A   1      46.818  37.649  27.233  1.00  0.00    -0.744 OA
ENDBRANCH  72  73
ENDBRANCH  51  65
BRANCH  52  77
ATOM     77  C   UNL A   1      43.388  23.128  26.938  1.00  0.00     0.058 A 
ATOM     78  C   UNL A   1      43.056  22.248  27.979  1.00  0.00     0.135 A 
ATOM     79  C   UNL A   1      43.354  22.630  25.626  1.00  0.00     0.135 A 
ATOM     80  F   UNL A   1      43.078  22.676  29.251  1.00  0.00    -0.206 F 
ATOM     81  C   UNL A   1      42.738  20.915  27.735  1.00  0.00     0.059 A 
ATOM     82  C   UNL A   1      43.012  21.308  25.354  1.00  0.00     0.059 A 
ATOM     83  F   UNL A   1      43.643  23.435  24.593  1.00  0.00    -0.206 F 
ATOM     84  C   UNL A   1      42.725  20.453  26.418  1.00  0.00     0.060 A 
BRANCH  84  85
ATOM     85  S   UNL A   1      42.301  18.726  26.107  1.00  0.00     0.124 S 
ATOM     86  O   UNL A   1      40.884  18.829  25.775  1.00  0.00    -0.237 OA
ATOM     87  O   UNL A   1      43.192  18.382  25.003  1.00  0.00    -0.237 OA
ATOM     88  O   UNL A   1      42.607  18.073  27.376  1.00  0.00    -0.744 OA
ENDBRANCH  84  85
ENDBRANCH  52  77
BRANCH  64  89
ATOM     89  C   UNL A   1      49.493  26.487  26.695  1.00  0.00     0.058 A 
ATOM     90  C   UNL A   1      49.988  26.377  25.387  1.00  0.00     0.135 A 
ATOM     91  C   UNL A   1      50.370  26.213  27.757  1.00  0.00     0.135 A 
ATOM     92  F   UNL A   1      49.189  26.623  24.338  1.00  0.00    -0.206 F 
ATOM     93  C   UNL A   1      51.302  25.988  25.141  1.00  0.00     0.059 A 
ATOM     94  C   UNL A   1      51.694  25.848  27.533  1.00  0.00     0.059 A 
ATOM     95  F   UNL A   1      49.948  26.315  29.027  1.00  0.00    -0.206 F 
ATOM     96  C   UNL A   1      52.148  25.728  26.220  1.00  0.00     0.060 A 
BRANCH  96  97
ATOM     97  S   UNL A   1      53.859  25.260  25.888  1.00  0.00     0.124 S 
ATOM     98  O   UNL A   1      54.422  25.235  27.233  1.00  0.00    -0.237 OA
ATOM     99  O   UNL A   1      53.710  23.963  25.238  1.00  0.00    -0.237 OA
ATOM    100  O   UNL A   1      54.342  26.335  25.025  1.00  0.00    -0.744 OA
ENDBRANCH  96  97
ENDBRANCH  64  89
ENDBRANCH  38  39
ENDBRANCH  30  33
ENDBRANCH  28  29
ENDBRANCH   1  28
TORSDOF 18
ENDMDL
