MODEL 1
REMARK VINA RESULT:     -12.1      0.000      0.000
REMARK SMILES O=C(NCCCCNC(=O)c1ccc(-c2c3nc(c(-c4c(F)cc(S(=O)(=O)[O-])cc4F)c4ccc([nH]4)c(-c4c(F)cc(S(=O)(=O)[O-])cc4F)c4nc(c(-c5c(F)cc(S(=O)(=O)[O-])cc5F)c5ccc2[nH]5)C=C4)C=C3)cc1)C1=Cc2c(Cl)cc(Cl)cc2O[C@@H]1C(F)(F)F
REMARK SMILES IDX 6 1 5 2 4 3 3 4 1 5 2 6 77 8 78 9 88 10 79 11 87 12 80 13
REMARK SMILES IDX 86 14 81 15 82 16 85 17 83 18 84 19 89 20 90 21 91 22 92 23
REMARK SMILES IDX 7 24 8 25 9 26 10 28 11 29 12 30 76 31 13 32 75 33 14 34
REMARK SMILES IDX 15 35 16 36 69 37 17 38 74 39 68 40 70 41 18 42 73 43 67 44
REMARK SMILES IDX 66 45 19 47 53 48 32 49 52 50 33 51 36 52 51 53 71 54 34 55
REMARK SMILES IDX 35 56 50 58 72 59 37 60 20 61 21 62 30 63 22 64 23 65 29 66
REMARK SMILES IDX 31 67 24 68 25 69 26 70 27 71 28 72 54 73 55 74 64 75 56 76
REMARK SMILES IDX 57 77 63 78 65 79 58 80 59 81 60 82 61 83 62 84 38 85 39 86
REMARK SMILES IDX 48 87 40 88 41 89 47 90 49 91 42 92 43 93 44 94 45 95 46 96
REMARK H PARENT 3 7 8 27 70 46 36 57
REMARK Flexibility Score: inf
ROOT
ATOM      1  C   UNL A   1      33.859  27.975  26.319  1.00  0.00     0.023 C 
ENDROOT
BRANCH   1   2
ATOM      2  C   UNL A   1      33.521  26.515  26.020  1.00  0.00     0.023 C 
BRANCH   2   3
ATOM      3  C   UNL A   1      33.309  26.190  24.540  1.00  0.00     0.116 C 
BRANCH   3   4
ATOM      4  N   UNL A   1      33.654  27.282  23.631  1.00  0.00    -0.352 N 
ATOM      5  O   UNL A   1      33.411  29.298  22.625  1.00  0.00    -0.270 OA
ATOM      6  C   UNL A   1      32.893  28.342  23.191  1.00  0.00     0.251 C 
ATOM      7  H   UNL A   1      34.574  27.256  23.279  1.00  0.00     0.163 HD
BRANCH   6   8
ATOM      8  C   UNL A   1      31.460  28.379  23.564  1.00  0.00     0.067 C 
ATOM      9  C   UNL A   1      30.946  29.297  24.396  1.00  0.00     0.027 C 
ATOM     10  C   UNL A   1      30.537  27.518  22.761  1.00  0.00     0.314 C 
ATOM     11  C   UNL A   1      29.861  30.068  23.728  1.00  0.00     0.036 A 
ATOM     12  O   UNL A   1      29.603  28.320  22.006  1.00  0.00    -0.475 OA
ATOM     13  C   UNL A   1      29.627  31.425  24.038  1.00  0.00     0.053 A 
ATOM     14  C   UNL A   1      29.326  29.568  22.516  1.00  0.00     0.130 A 
ATOM     15  Cl  UNL A   1      30.333  32.193  25.422  1.00  0.00    -0.083 Cl
ATOM     16  C   UNL A   1      28.922  32.252  23.154  1.00  0.00     0.042 A 
ATOM     17  C   UNL A   1      28.603  30.390  21.650  1.00  0.00     0.067 A 
ATOM     18  C   UNL A   1      28.424  31.733  21.963  1.00  0.00     0.046 A 
ATOM     19  Cl  UNL A   1      27.646  32.771  20.835  1.00  0.00    -0.084 Cl
BRANCH  10  20
ATOM     20  C   UNL A   1      29.795  26.510  23.665  1.00  0.00     0.429 C 
ATOM     21  F   UNL A   1      30.097  25.234  23.330  1.00  0.00    -0.167 F 
ATOM     22  F   UNL A   1      30.121  26.662  24.970  1.00  0.00    -0.167 F 
ATOM     23  F   UNL A   1      28.447  26.632  23.578  1.00  0.00    -0.167 F 
ENDBRANCH  10  20
ENDBRANCH   6   8
ENDBRANCH   3   4
ENDBRANCH   2   3
ENDBRANCH   1   2
BRANCH   1  24
ATOM     24  C   UNL A   1      33.393  28.516  27.670  1.00  0.00     0.116 C 
BRANCH  24  25
ATOM     25  N   UNL A   1      33.446  29.966  27.795  1.00  0.00    -0.352 N 
ATOM     26  C   UNL A   1      34.535  30.763  28.079  1.00  0.00     0.251 C 
ATOM     27  H   UNL A   1      32.593  30.439  27.661  1.00  0.00     0.163 HD
ATOM     28  O   UNL A   1      34.391  31.976  28.216  1.00  0.00    -0.269 OA
BRANCH  26  29
ATOM     29  C   UNL A   1      35.866  30.142  28.268  1.00  0.00     0.039 A 
ATOM     30  C   UNL A   1      36.762  30.121  27.196  1.00  0.00     0.014 A 
ATOM     31  C   UNL A   1      36.253  29.648  29.516  1.00  0.00     0.014 A 
ATOM     32  C   UNL A   1      38.076  29.691  27.403  1.00  0.00     0.010 A 
ATOM     33  C   UNL A   1      37.583  29.304  29.740  1.00  0.00     0.010 A 
ATOM     34  C   UNL A   1      38.510  29.325  28.688  1.00  0.00    -0.014 A 
BRANCH  34  35
ATOM     35  C   UNL A   1      39.928  28.953  28.945  1.00  0.00     0.031 A 
ATOM     36  C   UNL A   1      40.876  29.965  29.533  1.00  0.00     0.074 A 
ATOM     37  C   UNL A   1      40.374  27.727  28.601  1.00  0.00     0.049 A 
ATOM     38  N   UNL A   1      42.157  29.854  29.776  1.00  0.00    -0.248 NA
ATOM     39  C   UNL A   1      40.318  31.287  29.860  1.00  0.00     0.031 C 
ATOM     40  C   UNL A   1      39.573  26.681  27.958  1.00  0.00     0.029 A 
ATOM     41  N   UNL A   1      41.614  27.153  28.737  1.00  0.00    -0.354 N 
ATOM     42  C   UNL A   1      42.554  31.087  30.279  1.00  0.00     0.074 A 
ATOM     43  C   UNL A   1      41.398  31.954  30.237  1.00  0.00     0.031 C 
ATOM     44  C   UNL A   1      40.335  25.589  27.779  1.00  0.00     0.029 A 
ATOM     45  C   UNL A   1      41.681  25.861  28.269  1.00  0.00     0.049 A 
ATOM     46  H   UNL A   1      42.383  27.623  29.133  1.00  0.00     0.167 HD
ATOM     47  C   UNL A   1      43.763  31.456  30.768  1.00  0.00     0.037 A 
ATOM     48  C   UNL A   1      42.712  24.992  28.246  1.00  0.00     0.037 A 
ATOM     49  C   UNL A   1      44.906  30.584  30.833  1.00  0.00     0.049 A 
ATOM     50  C   UNL A   1      44.032  25.412  28.837  1.00  0.00     0.074 A 
ATOM     51  C   UNL A   1      46.174  30.854  31.317  1.00  0.00     0.029 A 
ATOM     52  N   UNL A   1      44.912  29.260  30.418  1.00  0.00    -0.354 N 
ATOM     53  N   UNL A   1      44.377  26.573  29.343  1.00  0.00    -0.248 NA
ATOM     54  C   UNL A   1      45.095  24.398  28.877  1.00  0.00     0.031 C 
ATOM     55  C   UNL A   1      46.951  29.698  31.181  1.00  0.00     0.029 A 
ATOM     56  C   UNL A   1      46.155  28.697  30.648  1.00  0.00     0.049 A 
ATOM     57  H   UNL A   1      44.144  28.791  30.017  1.00  0.00     0.167 HD
ATOM     58  C   UNL A   1      45.684  26.417  29.792  1.00  0.00     0.074 A 
ATOM     59  C   UNL A   1      46.062  25.048  29.510  1.00  0.00     0.031 C 
ATOM     60  C   UNL A   1      46.501  27.325  30.383  1.00  0.00     0.037 A 
BRANCH  47  61
ATOM     61  C   UNL A   1      43.895  32.856  31.302  1.00  0.00     0.058 A 
ATOM     62  C   UNL A   1      43.616  33.148  32.648  1.00  0.00     0.135 A 
ATOM     63  C   UNL A   1      44.323  33.908  30.479  1.00  0.00     0.135 A 
ATOM     64  F   UNL A   1      43.183  32.183  33.474  1.00  0.00    -0.206 F 
ATOM     65  C   UNL A   1      43.730  34.439  33.152  1.00  0.00     0.059 A 
ATOM     66  C   UNL A   1      44.471  35.203  30.969  1.00  0.00     0.059 A 
ATOM     67  F   UNL A   1      44.600  33.686  29.185  1.00  0.00    -0.206 F 
ATOM     68  C   UNL A   1      44.159  35.461  32.304  1.00  0.00     0.060 A 
BRANCH  68  69
ATOM     69  S   UNL A   1      44.311  37.129  32.977  1.00  0.00     0.124 S 
ATOM     70  O   UNL A   1      43.421  37.058  34.132  1.00  0.00    -0.237 OA
ATOM     71  O   UNL A   1      45.736  37.216  33.279  1.00  0.00    -0.237 OA
ATOM     72  O   UNL A   1      43.852  37.979  31.883  1.00  0.00    -0.744 OA
ENDBRANCH  68  69
ENDBRANCH  47  61
BRANCH  48  73
ATOM     73  C   UNL A   1      42.536  23.628  27.677  1.00  0.00     0.058 A 
ATOM     74  C   UNL A   1      42.319  22.518  28.510  1.00  0.00     0.135 A 
ATOM     75  C   UNL A   1      42.605  23.402  26.295  1.00  0.00     0.135 A 
ATOM     76  F   UNL A   1      42.246  22.682  29.839  1.00  0.00    -0.206 F 
ATOM     77  C   UNL A   1      42.216  21.229  27.996  1.00  0.00     0.059 A 
ATOM     78  C   UNL A   1      42.479  22.125  25.755  1.00  0.00     0.059 A 
ATOM     79  F   UNL A   1      42.787  24.431  25.453  1.00  0.00    -0.206 F 
ATOM     80  C   UNL A   1      42.304  21.042  26.616  1.00  0.00     0.060 A 
BRANCH  80  81
ATOM     81  S   UNL A   1      42.158  19.369  25.953  1.00  0.00     0.124 S 
ATOM     82  O   UNL A   1      43.011  19.446  24.772  1.00  0.00    -0.237 OA
ATOM     83  O   UNL A   1      42.663  18.554  27.054  1.00  0.00    -0.237 OA
ATOM     84  O   UNL A   1      40.728  19.237  25.693  1.00  0.00    -0.744 OA
ENDBRANCH  80  81
ENDBRANCH  48  73
BRANCH  60  85
ATOM     85  C   UNL A   1      47.857  26.846  30.818  1.00  0.00     0.058 A 
ATOM     86  C   UNL A   1      48.061  26.227  32.060  1.00  0.00     0.135 A 
ATOM     87  C   UNL A   1      48.964  26.995  29.966  1.00  0.00     0.135 A 
ATOM     88  F   UNL A   1      47.036  26.063  32.910  1.00  0.00    -0.206 F 
ATOM     89  C   UNL A   1      49.326  25.809  32.462  1.00  0.00     0.059 A 
ATOM     90  C   UNL A   1      50.232  26.559  30.336  1.00  0.00     0.059 A 
ATOM     91  F   UNL A   1      48.818  27.568  28.761  1.00  0.00    -0.206 F 
ATOM     92  C   UNL A   1      50.406  25.986  31.595  1.00  0.00     0.060 A 
BRANCH  92  93
ATOM     93  S   UNL A   1      52.044  25.442  32.125  1.00  0.00     0.124 S 
ATOM     94  O   UNL A   1      51.836  24.007  32.291  1.00  0.00    -0.237 OA
ATOM     95  O   UNL A   1      52.886  25.833  30.999  1.00  0.00    -0.237 OA
ATOM     96  O   UNL A   1      52.267  26.191  33.357  1.00  0.00    -0.744 OA
ENDBRANCH  92  93
ENDBRANCH  60  85
ENDBRANCH  34  35
ENDBRANCH  26  29
ENDBRANCH  24  25
ENDBRANCH   1  24
TORSDOF 15
ENDMDL
MODEL 2
REMARK VINA RESULT:     -12.0      2.820      4.275
REMARK SMILES O=C(NCCCCNC(=O)c1ccc(-c2c3nc(c(-c4c(F)cc(S(=O)(=O)[O-])cc4F)c4ccc([nH]4)c(-c4c(F)cc(S(=O)(=O)[O-])cc4F)c4nc(c(-c5c(F)cc(S(=O)(=O)[O-])cc5F)c5ccc2[nH]5)C=C4)C=C3)cc1)C1=Cc2c(Cl)cc(Cl)cc2O[C@@H]1C(F)(F)F
REMARK SMILES IDX 6 1 5 2 4 3 3 4 1 5 2 6 77 8 78 9 88 10 79 11 87 12 80 13
REMARK SMILES IDX 86 14 81 15 82 16 85 17 83 18 84 19 89 20 90 21 91 22 92 23
REMARK SMILES IDX 7 24 8 25 9 26 10 28 11 29 12 30 76 31 13 32 75 33 14 34
REMARK SMILES IDX 15 35 16 36 69 37 17 38 74 39 68 40 70 41 18 42 73 43 67 44
REMARK SMILES IDX 66 45 19 47 53 48 32 49 52 50 33 51 36 52 51 53 71 54 34 55
REMARK SMILES IDX 35 56 50 58 72 59 37 60 20 61 21 62 30 63 22 64 23 65 29 66
REMARK SMILES IDX 31 67 24 68 25 69 26 70 27 71 28 72 54 73 55 74 64 75 56 76
REMARK SMILES IDX 57 77 63 78 65 79 58 80 59 81 60 82 61 83 62 84 38 85 39 86
REMARK SMILES IDX 48 87 40 88 41 89 47 90 49 91 42 92 43 93 44 94 45 95 46 96
REMARK H PARENT 3 7 8 27 70 46 36 57
REMARK Flexibility Score: inf
ROOT
ATOM      1  C   UNL A   1      32.385  28.298  26.037  1.00  0.00     0.023 C 
ENDROOT
BRANCH   1   2
ATOM      2  C   UNL A   1      31.318  27.469  26.750  1.00  0.00     0.023 C 
BRANCH   2   3
ATOM      3  C   UNL A   1      31.007  26.119  26.101  1.00  0.00     0.116 C 
BRANCH   3   4
ATOM      4  N   UNL A   1      31.184  24.971  26.990  1.00  0.00    -0.352 N 
ATOM      5  O   UNL A   1      32.185  23.102  27.789  1.00  0.00    -0.270 OA
ATOM      6  C   UNL A   1      31.967  23.848  26.841  1.00  0.00     0.251 C 
ATOM      7  H   UNL A   1      30.662  25.007  27.825  1.00  0.00     0.163 HD
BRANCH   6   8
ATOM      8  C   UNL A   1      32.676  23.653  25.556  1.00  0.00     0.067 C 
ATOM      9  C   UNL A   1      33.952  24.018  25.363  1.00  0.00     0.027 C 
ATOM     10  C   UNL A   1      32.003  22.775  24.548  1.00  0.00     0.314 C 
ATOM     11  C   UNL A   1      34.781  22.849  24.961  1.00  0.00     0.036 A 
ATOM     12  O   UNL A   1      32.772  21.575  24.310  1.00  0.00    -0.475 OA
ATOM     13  C   UNL A   1      36.139  22.750  25.334  1.00  0.00     0.053 A 
ATOM     14  C   UNL A   1      34.125  21.665  24.549  1.00  0.00     0.130 A 
ATOM     15  Cl  UNL A   1      37.023  24.094  25.980  1.00  0.00    -0.083 Cl
ATOM     16  C   UNL A   1      36.796  21.513  25.332  1.00  0.00     0.042 A 
ATOM     17  C   UNL A   1      34.791  20.438  24.524  1.00  0.00     0.067 A 
ATOM     18  C   UNL A   1      36.116  20.365  24.937  1.00  0.00     0.046 A 
ATOM     19  Cl  UNL A   1      36.892  18.834  25.029  1.00  0.00    -0.084 Cl
BRANCH  10  20
ATOM     20  C   UNL A   1      31.749  23.539  23.231  1.00  0.00     0.429 C 
ATOM     21  F   UNL A   1      32.156  24.826  23.324  1.00  0.00    -0.167 F 
ATOM     22  F   UNL A   1      32.415  22.990  22.188  1.00  0.00    -0.167 F 
ATOM     23  F   UNL A   1      30.436  23.564  22.893  1.00  0.00    -0.167 F 
ENDBRANCH  10  20
ENDBRANCH   6   8
ENDBRANCH   3   4
ENDBRANCH   2   3
ENDBRANCH   1   2
BRANCH   1  24
ATOM     24  C   UNL A   1      33.607  28.691  26.865  1.00  0.00     0.116 C 
BRANCH  24  25
ATOM     25  N   UNL A   1      33.526  30.006  27.485  1.00  0.00    -0.352 N 
ATOM     26  C   UNL A   1      34.501  30.687  28.182  1.00  0.00     0.251 C 
ATOM     27  H   UNL A   1      32.662  30.469  27.394  1.00  0.00     0.163 HD
ATOM     28  O   UNL A   1      34.243  31.771  28.702  1.00  0.00    -0.269 OA
BRANCH  26  29
ATOM     29  C   UNL A   1      35.842  30.081  28.344  1.00  0.00     0.039 A 
ATOM     30  C   UNL A   1      36.743  30.134  27.277  1.00  0.00     0.014 A 
ATOM     31  C   UNL A   1      36.233  29.527  29.565  1.00  0.00     0.014 A 
ATOM     32  C   UNL A   1      38.063  29.718  27.466  1.00  0.00     0.010 A 
ATOM     33  C   UNL A   1      37.569  29.196  29.777  1.00  0.00     0.010 A 
ATOM     34  C   UNL A   1      38.500  29.290  28.732  1.00  0.00    -0.014 A 
BRANCH  34  35
ATOM     35  C   UNL A   1      39.923  28.931  28.975  1.00  0.00     0.031 A 
ATOM     36  C   UNL A   1      40.868  29.950  29.555  1.00  0.00     0.074 A 
ATOM     37  C   UNL A   1      40.376  27.709  28.626  1.00  0.00     0.049 A 
ATOM     38  N   UNL A   1      42.151  29.851  29.785  1.00  0.00    -0.248 NA
ATOM     39  C   UNL A   1      40.301  31.267  29.888  1.00  0.00     0.031 C 
ATOM     40  C   UNL A   1      39.579  26.656  27.990  1.00  0.00     0.029 A 
ATOM     41  N   UNL A   1      41.622  27.145  28.751  1.00  0.00    -0.354 N 
ATOM     42  C   UNL A   1      42.543  31.086  30.285  1.00  0.00     0.074 A 
ATOM     43  C   UNL A   1      41.379  31.943  30.255  1.00  0.00     0.031 C 
ATOM     44  C   UNL A   1      40.347  25.571  27.803  1.00  0.00     0.029 A 
ATOM     45  C   UNL A   1      41.696  25.854  28.281  1.00  0.00     0.049 A 
ATOM     46  H   UNL A   1      42.391  27.621  29.139  1.00  0.00     0.167 HD
ATOM     47  C   UNL A   1      43.753  31.466  30.763  1.00  0.00     0.037 A 
ATOM     48  C   UNL A   1      42.734  24.994  28.247  1.00  0.00     0.037 A 
ATOM     49  C   UNL A   1      44.904  30.603  30.817  1.00  0.00     0.049 A 
ATOM     50  C   UNL A   1      44.056  25.425  28.826  1.00  0.00     0.074 A 
ATOM     51  C   UNL A   1      46.174  30.884  31.289  1.00  0.00     0.029 A 
ATOM     52  N   UNL A   1      44.917  29.280  30.401  1.00  0.00    -0.354 N 
ATOM     53  N   UNL A   1      44.396  26.588  29.329  1.00  0.00    -0.248 NA
ATOM     54  C   UNL A   1      45.128  24.420  28.856  1.00  0.00     0.031 C 
ATOM     55  C   UNL A   1      46.959  29.735  31.145  1.00  0.00     0.029 A 
ATOM     56  C   UNL A   1      46.167  28.727  30.619  1.00  0.00     0.049 A 
ATOM     57  H   UNL A   1      44.150  28.804  30.008  1.00  0.00     0.167 HD
ATOM     58  C   UNL A   1      45.708  26.444  29.766  1.00  0.00     0.074 A 
ATOM     59  C   UNL A   1      46.095  25.078  29.480  1.00  0.00     0.031 C 
ATOM     60  C   UNL A   1      46.523  27.358  30.350  1.00  0.00     0.037 A 
BRANCH  47  61
ATOM     61  C   UNL A   1      43.878  32.866  31.297  1.00  0.00     0.058 A 
ATOM     62  C   UNL A   1      43.645  33.149  32.653  1.00  0.00     0.135 A 
ATOM     63  C   UNL A   1      44.254  33.929  30.462  1.00  0.00     0.135 A 
ATOM     64  F   UNL A   1      43.262  32.173  33.492  1.00  0.00    -0.206 F 
ATOM     65  C   UNL A   1      43.752  34.441  33.157  1.00  0.00     0.059 A 
ATOM     66  C   UNL A   1      44.395  35.225  30.951  1.00  0.00     0.059 A 
ATOM     67  F   UNL A   1      44.486  33.715  29.157  1.00  0.00    -0.206 F 
ATOM     68  C   UNL A   1      44.129  35.473  32.297  1.00  0.00     0.060 A 
BRANCH  68  69
ATOM     69  S   UNL A   1      44.274  37.142  32.970  1.00  0.00     0.124 S 
ATOM     70  O   UNL A   1      44.295  37.945  31.751  1.00  0.00    -0.237 OA
ATOM     71  O   UNL A   1      43.069  37.257  33.784  1.00  0.00    -0.237 OA
ATOM     72  O   UNL A   1      45.528  37.099  33.714  1.00  0.00    -0.744 OA
ENDBRANCH  68  69
ENDBRANCH  47  61
BRANCH  48  73
ATOM     73  C   UNL A   1      42.565  23.629  27.680  1.00  0.00     0.058 A 
ATOM     74  C   UNL A   1      42.359  22.518  28.513  1.00  0.00     0.135 A 
ATOM     75  C   UNL A   1      42.629  23.403  26.297  1.00  0.00     0.135 A 
ATOM     76  F   UNL A   1      42.291  22.681  29.843  1.00  0.00    -0.206 F 
ATOM     77  C   UNL A   1      42.262  21.228  28.000  1.00  0.00     0.059 A 
ATOM     78  C   UNL A   1      42.509  22.126  25.757  1.00  0.00     0.059 A 
ATOM     79  F   UNL A   1      42.801  24.433  25.454  1.00  0.00    -0.206 F 
ATOM     80  C   UNL A   1      42.345  21.042  26.619  1.00  0.00     0.060 A 
BRANCH  80  81
ATOM     81  S   UNL A   1      42.207  19.367  25.957  1.00  0.00     0.124 S 
ATOM     82  O   UNL A   1      40.772  19.264  25.718  1.00  0.00    -0.237 OA
ATOM     83  O   UNL A   1      43.049  19.434  24.767  1.00  0.00    -0.237 OA
ATOM     84  O   UNL A   1      42.730  18.537  27.038  1.00  0.00    -0.744 OA
ENDBRANCH  80  81
ENDBRANCH  48  73
BRANCH  60  85
ATOM     85  C   UNL A   1      47.887  26.891  30.771  1.00  0.00     0.058 A 
ATOM     86  C   UNL A   1      49.012  27.048  29.949  1.00  0.00     0.135 A 
ATOM     87  C   UNL A   1      48.068  26.291  32.029  1.00  0.00     0.135 A 
ATOM     88  F   UNL A   1      48.890  27.613  28.738  1.00  0.00    -0.206 F 
ATOM     89  C   UNL A   1      50.266  26.589  30.340  1.00  0.00     0.059 A 
ATOM     90  C   UNL A   1      49.318  25.850  32.452  1.00  0.00     0.059 A 
ATOM     91  F   UNL A   1      47.026  26.131  32.859  1.00  0.00    -0.206 F 
ATOM     92  C   UNL A   1      50.407  25.986  31.592  1.00  0.00     0.060 A 
BRANCH  92  93
ATOM     93  S   UNL A   1      52.037  25.392  32.092  1.00  0.00     0.124 S 
ATOM     94  O   UNL A   1      51.813  23.953  32.170  1.00  0.00    -0.237 OA
ATOM     95  O   UNL A   1      52.887  25.843  30.994  1.00  0.00    -0.237 OA
ATOM     96  O   UNL A   1      52.264  26.064  33.368  1.00  0.00    -0.744 OA
ENDBRANCH  92  93
ENDBRANCH  60  85
ENDBRANCH  34  35
ENDBRANCH  26  29
ENDBRANCH  24  25
ENDBRANCH   1  24
TORSDOF 15
ENDMDL
MODEL 3
REMARK VINA RESULT:     -12.0      1.785      2.818
REMARK SMILES O=C(NCCCCNC(=O)c1ccc(-c2c3nc(c(-c4c(F)cc(S(=O)(=O)[O-])cc4F)c4ccc([nH]4)c(-c4c(F)cc(S(=O)(=O)[O-])cc4F)c4nc(c(-c5c(F)cc(S(=O)(=O)[O-])cc5F)c5ccc2[nH]5)C=C4)C=C3)cc1)C1=Cc2c(Cl)cc(Cl)cc2O[C@@H]1C(F)(F)F
REMARK SMILES IDX 6 1 5 2 4 3 3 4 1 5 2 6 77 8 78 9 88 10 79 11 87 12 80 13
REMARK SMILES IDX 86 14 81 15 82 16 85 17 83 18 84 19 89 20 90 21 91 22 92 23
REMARK SMILES IDX 7 24 8 25 9 26 10 28 11 29 12 30 76 31 13 32 75 33 14 34
REMARK SMILES IDX 15 35 16 36 69 37 17 38 74 39 68 40 70 41 18 42 73 43 67 44
REMARK SMILES IDX 66 45 19 47 53 48 32 49 52 50 33 51 36 52 51 53 71 54 34 55
REMARK SMILES IDX 35 56 50 58 72 59 37 60 20 61 21 62 30 63 22 64 23 65 29 66
REMARK SMILES IDX 31 67 24 68 25 69 26 70 27 71 28 72 54 73 55 74 64 75 56 76
REMARK SMILES IDX 57 77 63 78 65 79 58 80 59 81 60 82 61 83 62 84 38 85 39 86
REMARK SMILES IDX 48 87 40 88 41 89 47 90 49 91 42 92 43 93 44 94 45 95 46 96
REMARK H PARENT 3 7 8 27 70 46 36 57
REMARK Flexibility Score: inf
ROOT
ATOM      1  C   UNL A   1      33.983  28.568  25.711  1.00  0.00     0.023 C 
ENDROOT
BRANCH   1   2
ATOM      2  C   UNL A   1      33.250  29.447  24.698  1.00  0.00     0.023 C 
BRANCH   2   3
ATOM      3  C   UNL A   1      33.211  28.896  23.272  1.00  0.00     0.116 C 
BRANCH   3   4
ATOM      4  N   UNL A   1      32.088  29.381  22.472  1.00  0.00    -0.352 N 
ATOM      5  O   UNL A   1      29.952  29.441  21.717  1.00  0.00    -0.270 OA
ATOM      6  C   UNL A   1      30.871  28.794  22.204  1.00  0.00     0.251 C 
ATOM      7  H   UNL A   1      32.221  30.267  22.060  1.00  0.00     0.163 HD
BRANCH   6   8
ATOM      8  C   UNL A   1      30.645  27.407  22.672  1.00  0.00     0.067 C 
ATOM      9  C   UNL A   1      31.076  26.330  21.999  1.00  0.00     0.027 C 
ATOM     10  C   UNL A   1      30.152  27.247  24.076  1.00  0.00     0.314 C 
ATOM     11  C   UNL A   1      31.982  25.506  22.845  1.00  0.00     0.036 A 
ATOM     12  O   UNL A   1      31.135  26.580  24.898  1.00  0.00    -0.475 OA
ATOM     13  C   UNL A   1      33.053  24.778  22.282  1.00  0.00     0.053 A 
ATOM     14  C   UNL A   1      32.019  25.756  24.238  1.00  0.00     0.130 A 
ATOM     15  Cl  UNL A   1      33.196  24.515  20.574  1.00  0.00    -0.083 Cl
ATOM     16  C   UNL A   1      34.129  24.356  23.072  1.00  0.00     0.042 A 
ATOM     17  C   UNL A   1      33.081  25.312  25.026  1.00  0.00     0.067 A 
ATOM     18  C   UNL A   1      34.142  24.634  24.436  1.00  0.00     0.046 A 
ATOM     19  Cl  UNL A   1      35.508  24.203  25.386  1.00  0.00    -0.084 Cl
BRANCH  10  20
ATOM     20  C   UNL A   1      28.805  26.495  24.106  1.00  0.00     0.429 C 
ATOM     21  F   UNL A   1      28.809  25.443  23.254  1.00  0.00    -0.167 F 
ATOM     22  F   UNL A   1      28.524  26.002  25.336  1.00  0.00    -0.167 F 
ATOM     23  F   UNL A   1      27.762  27.286  23.750  1.00  0.00    -0.167 F 
ENDBRANCH  10  20
ENDBRANCH   6   8
ENDBRANCH   3   4
ENDBRANCH   2   3
ENDBRANCH   1   2
BRANCH   1  24
ATOM     24  C   UNL A   1      33.518  28.673  27.163  1.00  0.00     0.116 C 
BRANCH  24  25
ATOM     25  N   UNL A   1      33.475  30.029  27.692  1.00  0.00    -0.352 N 
ATOM     26  C   UNL A   1      34.487  30.748  28.291  1.00  0.00     0.251 C 
ATOM     27  H   UNL A   1      32.609  30.492  27.613  1.00  0.00     0.163 HD
ATOM     28  O   UNL A   1      34.260  31.868  28.746  1.00  0.00    -0.269 OA
BRANCH  26  29
ATOM     29  C   UNL A   1      35.831  30.144  28.428  1.00  0.00     0.039 A 
ATOM     30  C   UNL A   1      36.728  30.237  27.360  1.00  0.00     0.014 A 
ATOM     31  C   UNL A   1      36.230  29.552  29.629  1.00  0.00     0.014 A 
ATOM     32  C   UNL A   1      38.051  29.821  27.531  1.00  0.00     0.010 A 
ATOM     33  C   UNL A   1      37.568  29.221  29.824  1.00  0.00     0.010 A 
ATOM     34  C   UNL A   1      38.494  29.354  28.780  1.00  0.00    -0.014 A 
BRANCH  34  35
ATOM     35  C   UNL A   1      39.920  28.994  29.006  1.00  0.00     0.031 A 
ATOM     36  C   UNL A   1      40.873  30.013  29.573  1.00  0.00     0.074 A 
ATOM     37  C   UNL A   1      40.369  27.771  28.652  1.00  0.00     0.049 A 
ATOM     38  N   UNL A   1      42.159  29.913  29.788  1.00  0.00    -0.248 NA
ATOM     39  C   UNL A   1      40.311  31.330  29.913  1.00  0.00     0.031 C 
ATOM     40  C   UNL A   1      39.563  26.719  28.026  1.00  0.00     0.029 A 
ATOM     41  N   UNL A   1      41.616  27.207  28.761  1.00  0.00    -0.354 N 
ATOM     42  C   UNL A   1      42.557  31.148  30.283  1.00  0.00     0.074 A 
ATOM     43  C   UNL A   1      41.394  32.006  30.267  1.00  0.00     0.031 C 
ATOM     44  C   UNL A   1      40.329  25.633  27.830  1.00  0.00     0.029 A 
ATOM     45  C   UNL A   1      41.683  25.915  28.291  1.00  0.00     0.049 A 
ATOM     46  H   UNL A   1      42.389  27.683  29.140  1.00  0.00     0.167 HD
ATOM     47  C   UNL A   1      43.773  31.527  30.746  1.00  0.00     0.037 A 
ATOM     48  C   UNL A   1      42.720  25.055  28.245  1.00  0.00     0.037 A 
ATOM     49  C   UNL A   1      44.924  30.664  30.786  1.00  0.00     0.049 A 
ATOM     50  C   UNL A   1      44.049  25.485  28.808  1.00  0.00     0.074 A 
ATOM     51  C   UNL A   1      46.200  30.944  31.242  1.00  0.00     0.029 A 
ATOM     52  N   UNL A   1      44.932  29.340  30.371  1.00  0.00    -0.354 N 
ATOM     53  N   UNL A   1      44.396  26.649  29.306  1.00  0.00    -0.248 NA
ATOM     54  C   UNL A   1      45.120  24.480  28.825  1.00  0.00     0.031 C 
ATOM     55  C   UNL A   1      46.983  29.795  31.090  1.00  0.00     0.029 A 
ATOM     56  C   UNL A   1      46.184  28.787  30.573  1.00  0.00     0.049 A 
ATOM     57  H   UNL A   1      44.160  28.865  29.987  1.00  0.00     0.167 HD
ATOM     58  C   UNL A   1      45.713  26.504  29.727  1.00  0.00     0.074 A 
ATOM     59  C   UNL A   1      46.096  25.137  29.437  1.00  0.00     0.031 C 
ATOM     60  C   UNL A   1      46.536  27.418  30.300  1.00  0.00     0.037 A 
BRANCH  47  61
ATOM     61  C   UNL A   1      43.905  32.928  31.278  1.00  0.00     0.058 A 
ATOM     62  C   UNL A   1      43.689  33.211  32.637  1.00  0.00     0.135 A 
ATOM     63  C   UNL A   1      44.272  33.990  30.438  1.00  0.00     0.135 A 
ATOM     64  F   UNL A   1      43.315  32.236  33.480  1.00  0.00    -0.206 F 
ATOM     65  C   UNL A   1      43.803  34.503  33.139  1.00  0.00     0.059 A 
ATOM     66  C   UNL A   1      44.420  35.286  30.924  1.00  0.00     0.059 A 
ATOM     67  F   UNL A   1      44.489  33.776  29.131  1.00  0.00    -0.206 F 
ATOM     68  C   UNL A   1      44.170  35.535  32.274  1.00  0.00     0.060 A 
BRANCH  68  69
ATOM     69  S   UNL A   1      44.324  37.204  32.944  1.00  0.00     0.124 S 
ATOM     70  O   UNL A   1      45.501  37.066  33.798  1.00  0.00    -0.237 OA
ATOM     71  O   UNL A   1      44.506  38.009  31.741  1.00  0.00    -0.237 OA
ATOM     72  O   UNL A   1      43.061  37.405  33.645  1.00  0.00    -0.744 OA
ENDBRANCH  68  69
ENDBRANCH  47  61
BRANCH  48  73
ATOM     73  C   UNL A   1      42.543  23.690  27.680  1.00  0.00     0.058 A 
ATOM     74  C   UNL A   1      42.329  22.582  28.516  1.00  0.00     0.135 A 
ATOM     75  C   UNL A   1      42.607  23.461  26.298  1.00  0.00     0.135 A 
ATOM     76  F   UNL A   1      42.260  22.748  29.845  1.00  0.00    -0.206 F 
ATOM     77  C   UNL A   1      42.225  21.292  28.005  1.00  0.00     0.059 A 
ATOM     78  C   UNL A   1      42.481  22.183  25.761  1.00  0.00     0.059 A 
ATOM     79  F   UNL A   1      42.787  24.488  25.454  1.00  0.00    -0.206 F 
ATOM     80  C   UNL A   1      42.309  21.102  26.625  1.00  0.00     0.060 A 
BRANCH  80  81
ATOM     81  S   UNL A   1      42.161  19.427  25.966  1.00  0.00     0.124 S 
ATOM     82  O   UNL A   1      42.674  18.630  27.075  1.00  0.00    -0.237 OA
ATOM     83  O   UNL A   1      40.728  19.319  25.712  1.00  0.00    -0.237 OA
ATOM     84  O   UNL A   1      43.000  19.463  24.772  1.00  0.00    -0.744 OA
ENDBRANCH  80  81
ENDBRANCH  48  73
BRANCH  60  85
ATOM     85  C   UNL A   1      47.904  26.950  30.706  1.00  0.00     0.058 A 
ATOM     86  C   UNL A   1      48.145  26.354  31.953  1.00  0.00     0.135 A 
ATOM     87  C   UNL A   1      48.986  27.086  29.821  1.00  0.00     0.135 A 
ATOM     88  F   UNL A   1      47.144  26.203  32.834  1.00  0.00    -0.206 F 
ATOM     89  C   UNL A   1      49.422  25.946  32.327  1.00  0.00     0.059 A 
ATOM     90  C   UNL A   1      50.266  26.660  30.164  1.00  0.00     0.059 A 
ATOM     91  F   UNL A   1      48.806  27.636  28.611  1.00  0.00    -0.206 F 
ATOM     92  C   UNL A   1      50.476  26.110  31.427  1.00  0.00     0.060 A 
BRANCH  92  93
ATOM     93  S   UNL A   1      52.130  25.579  31.920  1.00  0.00     0.124 S 
ATOM     94  O   UNL A   1      52.384  26.441  33.070  1.00  0.00    -0.237 OA
ATOM     95  O   UNL A   1      51.930  24.164  32.221  1.00  0.00    -0.237 OA
ATOM     96  O   UNL A   1      52.940  25.853  30.738  1.00  0.00    -0.744 OA
ENDBRANCH  92  93
ENDBRANCH  60  85
ENDBRANCH  34  35
ENDBRANCH  26  29
ENDBRANCH  24  25
ENDBRANCH   1  24
TORSDOF 15
ENDMDL
