MODEL 1
REMARK VINA RESULT:     -13.5      0.000      0.000
REMARK SMILES O=C(NCCCCNC(=O)[C@@H]1CCCC[C@H]1C(=O)Nc1sc2c(c1C(=O)NC1CCCC1)CCC2)c1ccc(-c2c3nc(c(-c4c(F)cc(S(=O)(=O)[O-])cc4F)c4ccc([nH]4)c(-c4c(F)cc(S(=O)(=O)[O-])cc4F)c4nc(c(-c5c(F)cc(S(=O)(=O)[O-])cc5F)c5ccc2[nH]5)C=C4)C=C3)cc1
REMARK SMILES IDX 6 1 5 2 4 3 3 4 1 5 2 6 36 8 37 9 101 10 38 11 100 12 39 13
REMARK SMILES IDX 40 14 41 15 94 16 42 17 99 18 93 19 95 20 43 21 98 22 92 23
REMARK SMILES IDX 91 24 44 26 78 27 57 28 77 29 58 30 61 31 76 32 96 33 59 34
REMARK SMILES IDX 60 35 75 37 97 38 62 39 45 40 46 41 55 42 47 43 48 44 54 45
REMARK SMILES IDX 56 46 49 47 50 48 51 49 52 50 53 51 79 52 80 53 89 54 81 55
REMARK SMILES IDX 82 56 88 57 90 58 83 59 84 60 85 61 86 62 87 63 63 64 64 65
REMARK SMILES IDX 73 66 65 67 66 68 72 69 74 70 67 71 68 72 69 73 70 74 71 75
REMARK SMILES IDX 7 76 8 77 9 78 10 80 11 81 12 82 16 83 13 84 15 85 14 86
REMARK SMILES IDX 17 87 18 88 19 89 20 91 21 92 24 93 22 94 23 95 35 96 33 97
REMARK SMILES IDX 34 98 25 99 26 100 27 101 28 103 29 104 32 105 30 106 31 107
REMARK H PARENT 3 7 95 25 61 36 8 79 19 90 27 102
REMARK Flexibility Score: inf
ROOT
ATOM      1  C   UNL A   1      33.993  27.694  26.497  1.00  0.00     0.023 C 
ENDROOT
BRANCH   1   2
ATOM      2  C   UNL A   1      32.937  28.785  26.713  1.00  0.00     0.023 C 
BRANCH   2   3
ATOM      3  C   UNL A   1      33.333  30.166  26.180  1.00  0.00     0.116 C 
BRANCH   3   4
ATOM      4  N   UNL A   1      33.248  31.230  27.160  1.00  0.00    -0.352 N 
ATOM      5  O   UNL A   1      33.733  32.773  28.665  1.00  0.00    -0.269 OA
ATOM      6  C   UNL A   1      34.139  31.794  28.034  1.00  0.00     0.251 C 
ATOM      7  H   UNL A   1      32.352  31.637  27.209  1.00  0.00     0.163 HD
BRANCH   6   8
ATOM      8  C   UNL A   1      35.504  31.269  28.304  1.00  0.00     0.039 A 
ATOM      9  C   UNL A   1      35.847  29.919  28.372  1.00  0.00     0.014 A 
ATOM     10  C   UNL A   1      36.508  32.230  28.526  1.00  0.00     0.014 A 
ATOM     11  C   UNL A   1      37.122  29.529  28.752  1.00  0.00     0.010 A 
ATOM     12  C   UNL A   1      37.798  31.848  28.874  1.00  0.00     0.010 A 
ATOM     13  C   UNL A   1      38.091  30.493  29.015  1.00  0.00    -0.014 A 
BRANCH  13  14
ATOM     14  C   UNL A   1      39.453  30.019  29.233  1.00  0.00     0.031 A 
ATOM     15  C   UNL A   1      39.856  29.992  30.668  1.00  0.00     0.074 A 
ATOM     16  C   UNL A   1      40.226  29.516  28.254  1.00  0.00     0.049 A 
ATOM     17  N   UNL A   1      40.816  30.634  31.250  1.00  0.00    -0.248 NA
ATOM     18  C   UNL A   1      38.979  29.262  31.599  1.00  0.00     0.031 C 
ATOM     19  C   UNL A   1      39.830  29.231  26.875  1.00  0.00     0.029 A 
ATOM     20  N   UNL A   1      41.498  29.030  28.320  1.00  0.00    -0.354 N 
ATOM     21  C   UNL A   1      40.808  30.200  32.576  1.00  0.00     0.074 A 
ATOM     22  C   UNL A   1      39.552  29.530  32.771  1.00  0.00     0.031 C 
ATOM     23  C   UNL A   1      40.747  28.414  26.314  1.00  0.00     0.029 A 
ATOM     24  C   UNL A   1      41.839  28.208  27.253  1.00  0.00     0.049 A 
ATOM     25  H   UNL A   1      42.117  29.241  29.055  1.00  0.00     0.167 HD
ATOM     26  C   UNL A   1      41.946  30.180  33.323  1.00  0.00     0.037 A 
ATOM     27  C   UNL A   1      42.887  27.347  27.189  1.00  0.00     0.037 A 
ATOM     28  C   UNL A   1      42.941  31.073  32.780  1.00  0.00     0.049 A 
ATOM     29  C   UNL A   1      43.877  27.771  28.214  1.00  0.00     0.074 A 
ATOM     30  C   UNL A   1      42.991  32.421  32.484  1.00  0.00     0.029 A 
ATOM     31  N   UNL A   1      44.022  30.515  32.141  1.00  0.00    -0.354 N 
ATOM     32  N   UNL A   1      44.562  28.879  28.159  1.00  0.00    -0.248 NA
ATOM     33  C   UNL A   1      43.810  27.149  29.529  1.00  0.00     0.031 C 
ATOM     34  C   UNL A   1      43.806  32.519  31.317  1.00  0.00     0.029 A 
ATOM     35  C   UNL A   1      44.244  31.234  30.998  1.00  0.00     0.049 A 
ATOM     36  H   UNL A   1      44.542  29.738  32.450  1.00  0.00     0.167 HD
ATOM     37  C   UNL A   1      44.637  29.315  29.474  1.00  0.00     0.074 A 
ATOM     38  C   UNL A   1      44.259  28.159  30.278  1.00  0.00     0.031 C 
ATOM     39  C   UNL A   1      44.723  30.646  29.768  1.00  0.00     0.037 A 
BRANCH  26  40
ATOM     40  C   UNL A   1      42.320  29.034  34.254  1.00  0.00     0.058 A 
ATOM     41  C   UNL A   1      42.307  27.718  33.743  1.00  0.00     0.135 A 
ATOM     42  C   UNL A   1      42.351  29.129  35.665  1.00  0.00     0.135 A 
ATOM     43  F   UNL A   1      42.315  27.497  32.419  1.00  0.00    -0.206 F 
ATOM     44  C   UNL A   1      42.171  26.596  34.563  1.00  0.00     0.059 A 
ATOM     45  C   UNL A   1      42.271  28.022  36.500  1.00  0.00     0.059 A 
ATOM     46  F   UNL A   1      42.369  30.295  36.317  1.00  0.00    -0.206 F 
ATOM     47  C   UNL A   1      42.118  26.766  35.942  1.00  0.00     0.060 A 
BRANCH  47  48
ATOM     48  S   UNL A   1      41.776  25.352  37.000  1.00  0.00     0.124 S 
ATOM     49  O   UNL A   1      41.536  24.309  36.009  1.00  0.00    -0.237 OA
ATOM     50  O   UNL A   1      43.012  25.241  37.765  1.00  0.00    -0.237 OA
ATOM     51  O   UNL A   1      40.608  25.782  37.763  1.00  0.00    -0.744 OA
ENDBRANCH  47  48
ENDBRANCH  26  40
BRANCH  27  52
ATOM     52  C   UNL A   1      42.934  26.010  26.537  1.00  0.00     0.058 A 
ATOM     53  C   UNL A   1      43.814  25.749  25.469  1.00  0.00     0.135 A 
ATOM     54  C   UNL A   1      42.316  24.882  27.114  1.00  0.00     0.135 A 
ATOM     55  F   UNL A   1      44.467  26.757  24.871  1.00  0.00    -0.206 F 
ATOM     56  C   UNL A   1      44.096  24.448  25.032  1.00  0.00     0.059 A 
ATOM     57  C   UNL A   1      42.566  23.580  26.684  1.00  0.00     0.059 A 
ATOM     58  F   UNL A   1      41.514  24.997  28.182  1.00  0.00    -0.206 F 
ATOM     59  C   UNL A   1      43.479  23.367  25.660  1.00  0.00     0.060 A 
BRANCH  59  60
ATOM     60  S   UNL A   1      43.960  21.680  25.222  1.00  0.00     0.124 S 
ATOM     61  O   UNL A   1      42.805  20.911  25.673  1.00  0.00    -0.237 OA
ATOM     62  O   UNL A   1      44.142  21.774  23.779  1.00  0.00    -0.237 OA
ATOM     63  O   UNL A   1      45.186  21.468  25.989  1.00  0.00    -0.744 OA
ENDBRANCH  59  60
ENDBRANCH  27  52
BRANCH  39  64
ATOM     64  C   UNL A   1      45.124  31.596  28.673  1.00  0.00     0.058 A 
ATOM     65  C   UNL A   1      44.267  32.051  27.656  1.00  0.00     0.135 A 
ATOM     66  C   UNL A   1      46.402  32.170  28.741  1.00  0.00     0.135 A 
ATOM     67  F   UNL A   1      42.994  31.637  27.588  1.00  0.00    -0.206 F 
ATOM     68  C   UNL A   1      44.685  32.993  26.716  1.00  0.00     0.059 A 
ATOM     69  C   UNL A   1      46.829  33.137  27.837  1.00  0.00     0.059 A 
ATOM     70  F   UNL A   1      47.245  31.825  29.730  1.00  0.00    -0.206 F 
ATOM     71  C   UNL A   1      45.968  33.531  26.814  1.00  0.00     0.060 A 
BRANCH  71  72
ATOM     72  S   UNL A   1      46.486  34.803  25.643  1.00  0.00     0.124 S 
ATOM     73  O   UNL A   1      45.568  34.580  24.526  1.00  0.00    -0.237 OA
ATOM     74  O   UNL A   1      46.266  36.037  26.400  1.00  0.00    -0.237 OA
ATOM     75  O   UNL A   1      47.878  34.484  25.380  1.00  0.00    -0.744 OA
ENDBRANCH  71  72
ENDBRANCH  39  64
ENDBRANCH  13  14
ENDBRANCH   6   8
ENDBRANCH   3   4
ENDBRANCH   2   3
ENDBRANCH   1   2
BRANCH   1  76
ATOM     76  C   UNL A   1      33.719  26.817  25.278  1.00  0.00     0.116 C 
BRANCH  76  77
ATOM     77  N   UNL A   1      34.039  27.527  24.062  1.00  0.00    -0.356 N 
ATOM     78  C   UNL A   1      33.429  27.595  22.852  1.00  0.00     0.223 C 
ATOM     79  H   UNL A   1      34.859  28.067  24.122  1.00  0.00     0.163 HD
ATOM     80  O   UNL A   1      34.112  28.102  21.958  1.00  0.00    -0.275 OA
BRANCH  78  81
ATOM     81  C   UNL A   1      31.959  27.195  22.619  1.00  0.00     0.091 C 
ATOM     82  C   UNL A   1      30.923  27.975  23.442  1.00  0.00     0.014 C 
ATOM     83  C   UNL A   1      31.814  25.662  22.802  1.00  0.00     0.091 C 
ATOM     84  C   UNL A   1      29.513  27.414  23.297  1.00  0.00     0.001 C 
ATOM     85  C   UNL A   1      30.376  25.129  22.870  1.00  0.00     0.014 C 
ATOM     86  C   UNL A   1      29.471  25.972  23.753  1.00  0.00     0.001 C 
BRANCH  83  87
ATOM     87  C   UNL A   1      32.629  24.808  21.816  1.00  0.00     0.228 C 
ATOM     88  O   UNL A   1      32.873  25.264  20.688  1.00  0.00    -0.274 OA
ATOM     89  N   UNL A   1      33.237  23.621  22.114  1.00  0.00    -0.317 N 
ATOM     90  H   UNL A   1      33.472  23.050  21.347  1.00  0.00     0.170 HD
BRANCH  89  91
ATOM     91  C   UNL A   1      33.560  23.128  23.357  1.00  0.00     0.108 A 
ATOM     92  S   UNL A   1      34.899  23.964  24.028  1.00  0.00    -0.122 S 
ATOM     93  C   UNL A   1      33.211  21.963  24.064  1.00  0.00     0.078 A 
ATOM     94  C   UNL A   1      34.765  23.049  25.408  1.00  0.00     0.011 A 
ATOM     95  C   UNL A   1      33.777  22.091  25.379  1.00  0.00    -0.019 A 
ATOM     96  C   UNL A   1      35.603  23.068  26.628  1.00  0.00     0.047 C 
ATOM     97  C   UNL A   1      33.781  21.387  26.689  1.00  0.00     0.038 C 
ATOM     98  C   UNL A   1      34.711  22.260  27.588  1.00  0.00     0.010 C 
BRANCH  93  99
ATOM     99  C   UNL A   1      32.567  20.867  23.324  1.00  0.00     0.254 C 
ATOM    100  O   UNL A   1      31.904  21.137  22.316  1.00  0.00    -0.269 OA
ATOM    101  N   UNL A   1      32.436  19.558  23.697  1.00  0.00    -0.349 N 
ATOM    102  H   UNL A   1      31.500  19.272  23.593  1.00  0.00     0.164 HD
BRANCH 101 103
ATOM    103  C   UNL A   1      33.237  18.456  24.199  1.00  0.00     0.082 C 
ATOM    104  C   UNL A   1      32.587  17.816  25.419  1.00  0.00     0.025 C 
ATOM    105  C   UNL A   1      33.700  17.348  23.277  1.00  0.00     0.025 C 
ATOM    106  C   UNL A   1      33.098  16.392  25.454  1.00  0.00     0.002 C 
ATOM    107  C   UNL A   1      33.408  16.035  24.009  1.00  0.00     0.002 C 
ENDBRANCH 101 103
ENDBRANCH  93  99
ENDBRANCH  89  91
ENDBRANCH  83  87
ENDBRANCH  78  81
ENDBRANCH  76  77
ENDBRANCH   1  76
TORSDOF 18
ENDMDL
MODEL 2
REMARK VINA RESULT:     -13.1      2.928      9.390
REMARK SMILES O=C(NCCCCNC(=O)[C@@H]1CCCC[C@H]1C(=O)Nc1sc2c(c1C(=O)NC1CCCC1)CCC2)c1ccc(-c2c3nc(c(-c4c(F)cc(S(=O)(=O)[O-])cc4F)c4ccc([nH]4)c(-c4c(F)cc(S(=O)(=O)[O-])cc4F)c4nc(c(-c5c(F)cc(S(=O)(=O)[O-])cc5F)c5ccc2[nH]5)C=C4)C=C3)cc1
REMARK SMILES IDX 6 1 5 2 4 3 3 4 1 5 2 6 36 8 37 9 101 10 38 11 100 12 39 13
REMARK SMILES IDX 40 14 41 15 94 16 42 17 99 18 93 19 95 20 43 21 98 22 92 23
REMARK SMILES IDX 91 24 44 26 78 27 57 28 77 29 58 30 61 31 76 32 96 33 59 34
REMARK SMILES IDX 60 35 75 37 97 38 62 39 45 40 46 41 55 42 47 43 48 44 54 45
REMARK SMILES IDX 56 46 49 47 50 48 51 49 52 50 53 51 79 52 80 53 89 54 81 55
REMARK SMILES IDX 82 56 88 57 90 58 83 59 84 60 85 61 86 62 87 63 63 64 64 65
REMARK SMILES IDX 73 66 65 67 66 68 72 69 74 70 67 71 68 72 69 73 70 74 71 75
REMARK SMILES IDX 7 76 8 77 9 78 10 80 11 81 12 82 16 83 13 84 15 85 14 86
REMARK SMILES IDX 17 87 18 88 19 89 20 91 21 92 24 93 22 94 23 95 35 96 33 97
REMARK SMILES IDX 34 98 25 99 26 100 27 101 28 103 29 104 32 105 30 106 31 107
REMARK H PARENT 3 7 95 25 61 36 8 79 19 90 27 102
REMARK Flexibility Score: inf
ROOT
ATOM      1  C   UNL A   1      35.498  24.036  24.984  1.00  0.00     0.023 C 
ENDROOT
BRANCH   1   2
ATOM      2  C   UNL A   1      36.346  22.850  25.462  1.00  0.00     0.023 C 
BRANCH   2   3
ATOM      3  C   UNL A   1      37.604  22.592  24.626  1.00  0.00     0.116 C 
BRANCH   3   4
ATOM      4  N   UNL A   1      38.566  21.708  25.254  1.00  0.00    -0.352 N 
ATOM      5  O   UNL A   1      40.072  20.832  26.612  1.00  0.00    -0.269 OA
ATOM      6  C   UNL A   1      39.473  21.855  26.269  1.00  0.00     0.251 C 
ATOM      7  H   UNL A   1      38.569  20.804  24.864  1.00  0.00     0.163 HD
BRANCH   6   8
ATOM      8  C   UNL A   1      39.813  23.149  26.918  1.00  0.00     0.039 A 
ATOM      9  C   UNL A   1      39.015  24.293  26.894  1.00  0.00     0.014 A 
ATOM     10  C   UNL A   1      41.051  23.206  27.585  1.00  0.00     0.014 A 
ATOM     11  C   UNL A   1      39.474  25.489  27.424  1.00  0.00     0.010 A 
ATOM     12  C   UNL A   1      41.504  24.392  28.150  1.00  0.00     0.010 A 
ATOM     13  C   UNL A   1      40.723  25.540  28.039  1.00  0.00    -0.014 A 
BRANCH  13  14
ATOM     14  C   UNL A   1      41.069  26.776  28.730  1.00  0.00     0.031 A 
ATOM     15  C   UNL A   1      42.216  27.505  28.119  1.00  0.00     0.074 A 
ATOM     16  C   UNL A   1      40.337  27.291  29.735  1.00  0.00     0.049 A 
ATOM     17  N   UNL A   1      43.359  27.804  28.648  1.00  0.00    -0.248 NA
ATOM     18  C   UNL A   1      42.129  27.813  26.681  1.00  0.00     0.031 C 
ATOM     19  C   UNL A   1      39.042  26.811  30.219  1.00  0.00     0.029 A 
ATOM     20  N   UNL A   1      40.535  28.432  30.454  1.00  0.00    -0.354 N 
ATOM     21  C   UNL A   1      44.037  28.546  27.681  1.00  0.00     0.074 A 
ATOM     22  C   UNL A   1      43.328  28.343  26.449  1.00  0.00     0.031 C 
ATOM     23  C   UNL A   1      38.468  27.777  30.968  1.00  0.00     0.029 A 
ATOM     24  C   UNL A   1      39.396  28.890  31.104  1.00  0.00     0.049 A 
ATOM     25  H   UNL A   1      41.405  28.889  30.508  1.00  0.00     0.167 HD
ATOM     26  C   UNL A   1      44.958  29.489  28.028  1.00  0.00     0.037 A 
ATOM     27  C   UNL A   1      39.196  30.128  31.624  1.00  0.00     0.037 A 
ATOM     28  C   UNL A   1      45.462  29.259  29.360  1.00  0.00     0.049 A 
ATOM     29  C   UNL A   1      40.532  30.748  31.830  1.00  0.00     0.074 A 
ATOM     30  C   UNL A   1      46.087  28.208  30.004  1.00  0.00     0.029 A 
ATOM     31  N   UNL A   1      45.047  30.108  30.357  1.00  0.00    -0.354 N 
ATOM     32  N   UNL A   1      41.406  30.333  32.704  1.00  0.00    -0.248 NA
ATOM     33  C   UNL A   1      41.068  31.588  30.769  1.00  0.00     0.031 C 
ATOM     34  C   UNL A   1      45.601  28.249  31.345  1.00  0.00     0.029 A 
ATOM     35  C   UNL A   1      44.748  29.346  31.453  1.00  0.00     0.049 A 
ATOM     36  H   UNL A   1      44.979  31.089  30.293  1.00  0.00     0.167 HD
ATOM     37  C   UNL A   1      42.634  30.487  32.078  1.00  0.00     0.074 A 
ATOM     38  C   UNL A   1      42.373  31.365  30.943  1.00  0.00     0.031 C 
ATOM     39  C   UNL A   1      43.682  29.664  32.376  1.00  0.00     0.037 A 
BRANCH  26  40
ATOM     40  C   UNL A   1      45.057  30.852  27.356  1.00  0.00     0.058 A 
ATOM     41  C   UNL A   1      46.304  31.257  26.832  1.00  0.00     0.135 A 
ATOM     42  C   UNL A   1      44.105  31.887  27.506  1.00  0.00     0.135 A 
ATOM     43  F   UNL A   1      47.278  30.359  26.608  1.00  0.00    -0.206 F 
ATOM     44  C   UNL A   1      46.632  32.598  26.629  1.00  0.00     0.059 A 
ATOM     45  C   UNL A   1      44.394  33.223  27.258  1.00  0.00     0.059 A 
ATOM     46  F   UNL A   1      42.875  31.682  27.984  1.00  0.00    -0.206 F 
ATOM     47  C   UNL A   1      45.677  33.576  26.881  1.00  0.00     0.060 A 
BRANCH  47  48
ATOM     48  S   UNL A   1      46.136  35.313  26.786  1.00  0.00     0.124 S 
ATOM     49  O   UNL A   1      46.865  35.344  25.524  1.00  0.00    -0.237 OA
ATOM     50  O   UNL A   1      44.834  35.970  26.793  1.00  0.00    -0.237 OA
ATOM     51  O   UNL A   1      46.940  35.511  27.988  1.00  0.00    -0.744 OA
ENDBRANCH  47  48
ENDBRANCH  26  40
BRANCH  27  52
ATOM     52  C   UNL A   1      37.936  30.920  31.643  1.00  0.00     0.058 A 
ATOM     53  C   UNL A   1      37.236  31.151  32.842  1.00  0.00     0.135 A 
ATOM     54  C   UNL A   1      37.530  31.693  30.535  1.00  0.00     0.135 A 
ATOM     55  F   UNL A   1      37.565  30.478  33.956  1.00  0.00    -0.206 F 
ATOM     56  C   UNL A   1      36.229  32.120  32.947  1.00  0.00     0.059 A 
ATOM     57  C   UNL A   1      36.519  32.649  30.611  1.00  0.00     0.059 A 
ATOM     58  F   UNL A   1      38.168  31.614  29.359  1.00  0.00    -0.206 F 
ATOM     59  C   UNL A   1      35.890  32.877  31.827  1.00  0.00     0.060 A 
BRANCH  59  60
ATOM     60  S   UNL A   1      34.716  34.243  31.989  1.00  0.00     0.124 S 
ATOM     61  O   UNL A   1      34.273  34.424  30.611  1.00  0.00    -0.237 OA
ATOM     62  O   UNL A   1      33.729  33.696  32.912  1.00  0.00    -0.237 OA
ATOM     63  O   UNL A   1      35.532  35.329  32.527  1.00  0.00    -0.744 OA
ENDBRANCH  59  60
ENDBRANCH  27  52
BRANCH  39  64
ATOM     64  C   UNL A   1      43.619  28.856  33.643  1.00  0.00     0.058 A 
ATOM     65  C   UNL A   1      43.984  29.331  34.914  1.00  0.00     0.135 A 
ATOM     66  C   UNL A   1      43.036  27.581  33.577  1.00  0.00     0.135 A 
ATOM     67  F   UNL A   1      44.444  30.580  35.080  1.00  0.00    -0.206 F 
ATOM     68  C   UNL A   1      43.826  28.551  36.059  1.00  0.00     0.059 A 
ATOM     69  C   UNL A   1      42.836  26.799  34.709  1.00  0.00     0.059 A 
ATOM     70  F   UNL A   1      42.606  27.097  32.399  1.00  0.00    -0.206 F 
ATOM     71  C   UNL A   1      43.250  27.285  35.947  1.00  0.00     0.060 A 
BRANCH  71  72
ATOM     72  S   UNL A   1      42.979  26.302  37.437  1.00  0.00     0.124 S 
ATOM     73  O   UNL A   1      41.547  26.489  37.668  1.00  0.00    -0.237 OA
ATOM     74  O   UNL A   1      43.376  24.960  37.004  1.00  0.00    -0.237 OA
ATOM     75  O   UNL A   1      43.856  26.914  38.420  1.00  0.00    -0.744 OA
ENDBRANCH  71  72
ENDBRANCH  39  64
ENDBRANCH  13  14
ENDBRANCH   6   8
ENDBRANCH   3   4
ENDBRANCH   2   3
ENDBRANCH   1   2
BRANCH   1  76
ATOM     76  C   UNL A   1      34.448  24.480  25.999  1.00  0.00     0.116 C 
BRANCH  76  77
ATOM     77  N   UNL A   1      34.215  23.440  26.974  1.00  0.00    -0.356 N 
ATOM     78  C   UNL A   1      33.264  22.479  27.080  1.00  0.00     0.223 C 
ATOM     79  H   UNL A   1      34.876  23.426  27.704  1.00  0.00     0.163 HD
ATOM     80  O   UNL A   1      33.222  21.915  28.176  1.00  0.00    -0.275 OA
BRANCH  78  81
ATOM     81  C   UNL A   1      32.382  22.024  25.901  1.00  0.00     0.091 C 
ATOM     82  C   UNL A   1      33.083  21.150  24.849  1.00  0.00     0.014 C 
ATOM     83  C   UNL A   1      31.701  23.264  25.267  1.00  0.00     0.091 C 
ATOM     84  C   UNL A   1      32.209  20.883  23.629  1.00  0.00     0.001 C 
ATOM     85  C   UNL A   1      31.001  23.029  23.920  1.00  0.00     0.014 C 
ATOM     86  C   UNL A   1      31.825  22.186  22.962  1.00  0.00     0.001 C 
BRANCH  83  87
ATOM     87  C   UNL A   1      30.760  24.040  26.203  1.00  0.00     0.228 C 
ATOM     88  O   UNL A   1      30.330  23.478  27.223  1.00  0.00    -0.274 OA
ATOM     89  N   UNL A   1      30.446  25.365  26.088  1.00  0.00    -0.317 N 
ATOM     90  H   UNL A   1      29.633  25.661  26.559  1.00  0.00     0.170 HD
BRANCH  89  91
ATOM     91  C   UNL A   1      31.130  26.337  25.393  1.00  0.00     0.108 A 
ATOM     92  S   UNL A   1      32.441  26.950  26.313  1.00  0.00    -0.122 S 
ATOM     93  C   UNL A   1      30.848  27.091  24.240  1.00  0.00     0.078 A 
ATOM     94  C   UNL A   1      32.865  27.926  25.037  1.00  0.00     0.011 A 
ATOM     95  C   UNL A   1      32.029  27.855  23.946  1.00  0.00    -0.019 A 
ATOM     96  C   UNL A   1      33.964  28.913  24.938  1.00  0.00     0.047 C 
ATOM     97  C   UNL A   1      32.563  28.766  22.899  1.00  0.00     0.038 C 
ATOM     98  C   UNL A   1      33.981  29.157  23.418  1.00  0.00     0.010 C 
BRANCH  93  99
ATOM     99  C   UNL A   1      29.468  27.095  23.732  1.00  0.00     0.254 C 
ATOM    100  O   UNL A   1      28.755  26.105  23.935  1.00  0.00    -0.269 OA
ATOM    101  N   UNL A   1      28.884  27.991  22.880  1.00  0.00    -0.349 N 
ATOM    102  H   UNL A   1      28.432  27.512  22.148  1.00  0.00     0.164 HD
BRANCH 101 103
ATOM    103  C   UNL A   1      28.719  29.423  22.710  1.00  0.00     0.082 C 
ATOM    104  C   UNL A   1      27.324  29.869  23.131  1.00  0.00     0.025 C 
ATOM    105  C   UNL A   1      29.721  30.396  23.295  1.00  0.00     0.025 C 
ATOM    106  C   UNL A   1      27.461  31.325  23.522  1.00  0.00     0.002 C 
ATOM    107  C   UNL A   1      28.900  31.487  23.989  1.00  0.00     0.002 C 
ENDBRANCH 101 103
ENDBRANCH  93  99
ENDBRANCH  89  91
ENDBRANCH  83  87
ENDBRANCH  78  81
ENDBRANCH  76  77
ENDBRANCH   1  76
TORSDOF 18
ENDMDL
MODEL 3
REMARK VINA RESULT:     -13.1      1.337      2.125
REMARK SMILES O=C(NCCCCNC(=O)[C@@H]1CCCC[C@H]1C(=O)Nc1sc2c(c1C(=O)NC1CCCC1)CCC2)c1ccc(-c2c3nc(c(-c4c(F)cc(S(=O)(=O)[O-])cc4F)c4ccc([nH]4)c(-c4c(F)cc(S(=O)(=O)[O-])cc4F)c4nc(c(-c5c(F)cc(S(=O)(=O)[O-])cc5F)c5ccc2[nH]5)C=C4)C=C3)cc1
REMARK SMILES IDX 6 1 5 2 4 3 3 4 1 5 2 6 36 8 37 9 101 10 38 11 100 12 39 13
REMARK SMILES IDX 40 14 41 15 94 16 42 17 99 18 93 19 95 20 43 21 98 22 92 23
REMARK SMILES IDX 91 24 44 26 78 27 57 28 77 29 58 30 61 31 76 32 96 33 59 34
REMARK SMILES IDX 60 35 75 37 97 38 62 39 45 40 46 41 55 42 47 43 48 44 54 45
REMARK SMILES IDX 56 46 49 47 50 48 51 49 52 50 53 51 79 52 80 53 89 54 81 55
REMARK SMILES IDX 82 56 88 57 90 58 83 59 84 60 85 61 86 62 87 63 63 64 64 65
REMARK SMILES IDX 73 66 65 67 66 68 72 69 74 70 67 71 68 72 69 73 70 74 71 75
REMARK SMILES IDX 7 76 8 77 9 78 10 80 11 81 12 82 16 83 13 84 15 85 14 86
REMARK SMILES IDX 17 87 18 88 19 89 20 91 21 92 24 93 22 94 23 95 35 96 33 97
REMARK SMILES IDX 34 98 25 99 26 100 27 101 28 103 29 104 32 105 30 106 31 107
REMARK H PARENT 3 7 95 25 61 36 8 79 19 90 27 102
REMARK Flexibility Score: inf
ROOT
ATOM      1  C   UNL A   1      34.120  28.415  22.807  1.00  0.00     0.023 C 
ENDROOT
BRANCH   1   2
ATOM      2  C   UNL A   1      33.595  29.313  23.934  1.00  0.00     0.023 C 
BRANCH   2   3
ATOM      3  C   UNL A   1      34.288  29.105  25.285  1.00  0.00     0.116 C 
BRANCH   3   4
ATOM      4  N   UNL A   1      33.807  29.974  26.342  1.00  0.00    -0.352 N 
ATOM      5  O   UNL A   1      33.681  31.372  28.047  1.00  0.00    -0.269 OA
ATOM      6  C   UNL A   1      34.404  30.616  27.392  1.00  0.00     0.251 C 
ATOM      7  H   UNL A   1      32.837  30.136  26.293  1.00  0.00     0.163 HD
BRANCH   6   8
ATOM      8  C   UNL A   1      35.816  30.414  27.815  1.00  0.00     0.039 A 
ATOM      9  C   UNL A   1      36.676  31.422  28.252  1.00  0.00     0.014 A 
ATOM     10  C   UNL A   1      36.307  29.098  27.738  1.00  0.00     0.014 A 
ATOM     11  C   UNL A   1      38.012  31.154  28.506  1.00  0.00     0.010 A 
ATOM     12  C   UNL A   1      37.637  28.813  28.025  1.00  0.00     0.010 A 
ATOM     13  C   UNL A   1      38.493  29.853  28.380  1.00  0.00    -0.014 A 
BRANCH  13  14
ATOM     14  C   UNL A   1      39.857  29.607  28.833  1.00  0.00     0.031 A 
ATOM     15  C   UNL A   1      40.018  29.671  30.313  1.00  0.00     0.074 A 
ATOM     16  C   UNL A   1      40.849  29.215  28.013  1.00  0.00     0.049 A 
ATOM     17  N   UNL A   1      40.759  30.470  31.011  1.00  0.00    -0.248 NA
ATOM     18  C   UNL A   1      39.123  28.828  31.125  1.00  0.00     0.031 C 
ATOM     19  C   UNL A   1      40.733  28.845  26.602  1.00  0.00     0.029 A 
ATOM     20  N   UNL A   1      42.152  28.939  28.302  1.00  0.00    -0.354 N 
ATOM     21  C   UNL A   1      40.600  30.065  32.337  1.00  0.00     0.074 A 
ATOM     22  C   UNL A   1      39.448  29.207  32.360  1.00  0.00     0.031 C 
ATOM     23  C   UNL A   1      41.845  28.174  26.231  1.00  0.00     0.029 A 
ATOM     24  C   UNL A   1      42.787  28.163  27.340  1.00  0.00     0.049 A 
ATOM     25  H   UNL A   1      42.602  29.261  29.115  1.00  0.00     0.167 HD
ATOM     26  C   UNL A   1      41.590  30.241  33.256  1.00  0.00     0.037 A 
ATOM     27  C   UNL A   1      43.951  27.479  27.483  1.00  0.00     0.037 A 
ATOM     28  C   UNL A   1      42.511  31.271  32.839  1.00  0.00     0.049 A 
ATOM     29  C   UNL A   1      44.682  28.075  28.632  1.00  0.00     0.074 A 
ATOM     30  C   UNL A   1      42.399  32.604  32.494  1.00  0.00     0.029 A 
ATOM     31  N   UNL A   1      43.754  30.881  32.405  1.00  0.00    -0.354 N 
ATOM     32  N   UNL A   1      45.187  29.276  28.637  1.00  0.00    -0.248 NA
ATOM     33  C   UNL A   1      44.496  27.475  29.946  1.00  0.00     0.031 C 
ATOM     34  C   UNL A   1      43.370  32.808  31.469  1.00  0.00     0.029 A 
ATOM     35  C   UNL A   1      44.048  31.604  31.282  1.00  0.00     0.049 A 
ATOM     36  H   UNL A   1      44.330  30.203  32.828  1.00  0.00     0.167 HD
ATOM     37  C   UNL A   1      44.977  29.744  29.926  1.00  0.00     0.074 A 
ATOM     38  C   UNL A   1      44.655  28.558  30.711  1.00  0.00     0.031 C 
ATOM     39  C   UNL A   1      44.807  31.077  30.171  1.00  0.00     0.037 A 
BRANCH  26  40
ATOM     40  C   UNL A   1      41.978  29.188  34.285  1.00  0.00     0.058 A 
ATOM     41  C   UNL A   1      42.200  27.864  33.845  1.00  0.00     0.135 A 
ATOM     42  C   UNL A   1      41.809  29.335  35.681  1.00  0.00     0.135 A 
ATOM     43  F   UNL A   1      42.412  27.601  32.545  1.00  0.00    -0.206 F 
ATOM     44  C   UNL A   1      42.098  26.764  34.698  1.00  0.00     0.059 A 
ATOM     45  C   UNL A   1      41.759  28.256  36.556  1.00  0.00     0.059 A 
ATOM     46  F   UNL A   1      41.592  30.515  36.269  1.00  0.00    -0.206 F 
ATOM     47  C   UNL A   1      41.841  26.973  36.047  1.00  0.00     0.060 A 
BRANCH  47  48
ATOM     48  S   UNL A   1      41.542  25.563  37.125  1.00  0.00     0.124 S 
ATOM     49  O   UNL A   1      41.520  24.470  36.160  1.00  0.00    -0.237 OA
ATOM     50  O   UNL A   1      42.697  25.612  38.014  1.00  0.00    -0.237 OA
ATOM     51  O   UNL A   1      40.262  25.886  37.747  1.00  0.00    -0.744 OA
ENDBRANCH  47  48
ENDBRANCH  26  40
BRANCH  27  52
ATOM     52  C   UNL A   1      44.311  26.154  26.907  1.00  0.00     0.058 A 
ATOM     53  C   UNL A   1      43.735  24.966  27.393  1.00  0.00     0.135 A 
ATOM     54  C   UNL A   1      45.020  26.042  25.692  1.00  0.00     0.135 A 
ATOM     55  F   UNL A   1      43.022  24.977  28.530  1.00  0.00    -0.206 F 
ATOM     56  C   UNL A   1      43.819  23.753  26.696  1.00  0.00     0.059 A 
ATOM     57  C   UNL A   1      45.132  24.843  24.991  1.00  0.00     0.059 A 
ATOM     58  F   UNL A   1      45.551  27.117  25.094  1.00  0.00    -0.206 F 
ATOM     59  C   UNL A   1      44.506  23.707  25.484  1.00  0.00     0.060 A 
BRANCH  59  60
ATOM     60  S   UNL A   1      44.478  22.195  24.493  1.00  0.00     0.124 S 
ATOM     61  O   UNL A   1      43.225  21.579  24.919  1.00  0.00    -0.237 OA
ATOM     62  O   UNL A   1      44.504  22.716  23.132  1.00  0.00    -0.237 OA
ATOM     63  O   UNL A   1      45.690  21.493  24.912  1.00  0.00    -0.744 OA
ENDBRANCH  59  60
ENDBRANCH  27  52
BRANCH  39  64
ATOM     64  C   UNL A   1      45.231  32.057  29.112  1.00  0.00     0.058 A 
ATOM     65  C   UNL A   1      46.518  32.609  29.001  1.00  0.00     0.135 A 
ATOM     66  C   UNL A   1      44.318  32.346  28.087  1.00  0.00     0.135 A 
ATOM     67  F   UNL A   1      47.483  32.294  29.878  1.00  0.00    -0.206 F 
ATOM     68  C   UNL A   1      46.863  33.454  27.947  1.00  0.00     0.059 A 
ATOM     69  C   UNL A   1      44.650  33.157  27.007  1.00  0.00     0.059 A 
ATOM     70  F   UNL A   1      43.091  31.796  28.101  1.00  0.00    -0.206 F 
ATOM     71  C   UNL A   1      45.922  33.723  26.953  1.00  0.00     0.060 A 
BRANCH  71  72
ATOM     72  S   UNL A   1      46.388  34.758  25.550  1.00  0.00     0.124 S 
ATOM     73  O   UNL A   1      46.189  36.105  26.086  1.00  0.00    -0.237 OA
ATOM     74  O   UNL A   1      47.781  34.372  25.322  1.00  0.00    -0.237 OA
ATOM     75  O   UNL A   1      45.461  34.360  24.504  1.00  0.00    -0.744 OA
ENDBRANCH  71  72
ENDBRANCH  39  64
ENDBRANCH  13  14
ENDBRANCH   6   8
ENDBRANCH   3   4
ENDBRANCH   2   3
ENDBRANCH   1   2
BRANCH   1  76
ATOM     76  C   UNL A   1      33.171  27.273  22.448  1.00  0.00     0.116 C 
BRANCH  76  77
ATOM     77  N   UNL A   1      31.838  27.778  22.218  1.00  0.00    -0.356 N 
ATOM     78  C   UNL A   1      30.666  27.610  22.880  1.00  0.00     0.223 C 
ATOM     79  H   UNL A   1      31.765  28.357  21.425  1.00  0.00     0.163 HD
ATOM     80  O   UNL A   1      29.667  27.987  22.262  1.00  0.00    -0.275 OA
BRANCH  78  81
ATOM     81  C   UNL A   1      30.578  27.111  24.335  1.00  0.00     0.091 C 
ATOM     82  C   UNL A   1      31.026  28.115  25.408  1.00  0.00     0.014 C 
ATOM     83  C   UNL A   1      31.327  25.758  24.454  1.00  0.00     0.091 C 
ATOM     84  C   UNL A   1      31.081  27.502  26.802  1.00  0.00     0.001 C 
ATOM     85  C   UNL A   1      31.569  25.251  25.884  1.00  0.00     0.014 C 
ATOM     86  C   UNL A   1      32.049  26.340  26.827  1.00  0.00     0.001 C 
BRANCH  83  87
ATOM     87  C   UNL A   1      30.754  24.618  23.598  1.00  0.00     0.228 C 
ATOM     88  O   UNL A   1      29.783  24.851  22.860  1.00  0.00    -0.274 OA
ATOM     89  N   UNL A   1      31.304  23.374  23.467  1.00  0.00    -0.317 N 
ATOM     90  H   UNL A   1      30.704  22.667  23.133  1.00  0.00     0.170 HD
BRANCH  89  91
ATOM     91  C   UNL A   1      32.596  22.990  23.744  1.00  0.00     0.108 A 
ATOM     92  S   UNL A   1      33.682  23.549  22.541  1.00  0.00    -0.122 S 
ATOM     93  C   UNL A   1      33.167  22.056  24.629  1.00  0.00     0.078 A 
ATOM     94  C   UNL A   1      34.948  22.894  23.394  1.00  0.00     0.011 A 
ATOM     95  C   UNL A   1      34.591  22.217  24.538  1.00  0.00    -0.019 A 
ATOM     96  C   UNL A   1      36.389  22.870  23.058  1.00  0.00     0.047 C 
ATOM     97  C   UNL A   1      35.835  21.720  25.184  1.00  0.00     0.038 C 
ATOM     98  C   UNL A   1      36.982  22.448  24.415  1.00  0.00     0.010 C 
BRANCH  93  99
ATOM     99  C   UNL A   1      32.282  21.065  25.259  1.00  0.00     0.254 C 
ATOM    100  O   UNL A   1      31.292  21.462  25.885  1.00  0.00    -0.269 OA
ATOM    101  N   UNL A   1      32.492  19.723  25.416  1.00  0.00    -0.349 N 
ATOM    102  H   UNL A   1      32.326  19.464  26.351  1.00  0.00     0.164 HD
BRANCH 101 103
ATOM    103  C   UNL A   1      32.885  18.558  24.643  1.00  0.00     0.082 C 
ATOM    104  C   UNL A   1      34.401  18.454  24.539  1.00  0.00     0.025 C 
ATOM    105  C   UNL A   1      32.341  17.185  24.975  1.00  0.00     0.025 C 
ATOM    106  C   UNL A   1      34.696  16.986  24.319  1.00  0.00     0.002 C 
ATOM    107  C   UNL A   1      33.544  16.237  24.970  1.00  0.00     0.002 C 
ENDBRANCH 101 103
ENDBRANCH  93  99
ENDBRANCH  89  91
ENDBRANCH  83  87
ENDBRANCH  78  81
ENDBRANCH  76  77
ENDBRANCH   1  76
TORSDOF 18
ENDMDL
