MODEL 1
REMARK VINA RESULT:     -10.9      0.000      0.000
REMARK SMILES C[C@H](CNS(=O)(=O)c1ccc(C(=O)NCCCCNC(=O)c2ccc(-c3c4nc(c(-c5c(F)cc(S(=O)(=O)[O-])cc5F)c5ccc([nH]5)c(-c5c(F)cc(S(=O)(=O)[O-])cc5F)c5nc(c(-c6c(F)cc(S(=O)(=O)[O-])cc6F)c6ccc3[nH]6)C=C5)C=C4)cc2)cc1F)[NH+](C)C
REMARK SMILES IDX 15 1 14 2 12 3 13 4 11 6 8 7 9 8 89 9 10 10 88 11 90 12 5 13
REMARK SMILES IDX 6 14 7 15 4 16 3 18 2 19 1 20 91 21 92 22 93 23 16 25 17 26
REMARK SMILES IDX 18 27 19 28 20 29 21 31 22 32 23 33 87 34 24 35 86 36 25 37
REMARK SMILES IDX 26 38 27 39 80 40 28 41 85 42 79 43 81 44 29 45 84 46 78 47
REMARK SMILES IDX 77 48 30 50 64 51 43 52 63 53 44 54 47 55 62 56 82 57 45 58
REMARK SMILES IDX 46 59 61 61 83 62 48 63 31 64 32 65 41 66 33 67 34 68 40 69
REMARK SMILES IDX 42 70 35 71 36 72 37 73 38 74 39 75 65 76 66 77 75 78 67 79
REMARK SMILES IDX 68 80 74 81 76 82 69 83 70 84 71 85 72 86 73 87 49 88 50 89
REMARK SMILES IDX 59 90 51 91 52 92 58 93 60 94 53 95 54 96 55 97 56 98 57 99
REMARK H PARENT 14 5 4 17 91 24 19 30 81 49 47 60
REMARK Flexibility Score: inf
ROOT
ATOM      1  C   UNL A   1      39.107  21.433  26.033  1.00  0.00     0.116 C 
ENDROOT
BRANCH   1   2
ATOM      2  N   UNL A   1      38.715  22.823  26.143  1.00  0.00    -0.352 N 
ATOM      3  C   UNL A   1      37.524  23.491  26.033  1.00  0.00     0.251 C 
ATOM      4  O   UNL A   1      37.560  24.707  26.237  1.00  0.00    -0.269 OA
ATOM      5  H   UNL A   1      39.472  23.420  26.343  1.00  0.00     0.163 HD
BRANCH   3   6
ATOM      6  C   UNL A   1      36.206  22.875  25.678  1.00  0.00     0.042 A 
ATOM      7  C   UNL A   1      33.780  21.753  24.747  1.00  0.00     0.118 A 
ATOM      8  C   UNL A   1      34.473  22.670  23.955  1.00  0.00     0.026 A 
ATOM      9  C   UNL A   1      34.275  21.433  25.999  1.00  0.00     0.144 A 
ATOM     10  C   UNL A   1      35.665  23.232  24.426  1.00  0.00     0.015 A 
ATOM     11  C   UNL A   1      35.486  21.966  26.452  1.00  0.00     0.054 A 
ATOM     12  F   UNL A   1      33.636  20.591  26.821  1.00  0.00    -0.205 F 
BRANCH   7  13
ATOM     13  S   UNL A   1      32.364  20.966  24.057  1.00  0.00     0.243 S 
ATOM     14  O   UNL A   1      31.953  21.748  22.908  1.00  0.00    -0.207 OA
ATOM     15  O   UNL A   1      31.455  20.704  25.147  1.00  0.00    -0.207 OA
BRANCH  13  16
ATOM     16  N   UNL A   1      32.837  19.471  23.485  1.00  0.00    -0.205 NA
ATOM     17  H   UNL A   1      32.141  19.186  22.795  1.00  0.00     0.141 HD
BRANCH  16  18
ATOM     18  C   UNL A   1      33.000  18.342  24.412  1.00  0.00     0.163 C 
BRANCH  18  19
ATOM     19  C   UNL A   1      34.327  17.555  24.174  1.00  0.00     0.195 C 
ATOM     20  C   UNL A   1      35.583  18.324  24.622  1.00  0.00     0.076 C 
BRANCH  19  21
ATOM     21  N   UNL A   1      34.251  16.158  24.667  1.00  0.00    -0.337 N 
ATOM     22  C   UNL A   1      35.456  15.748  25.387  1.00  0.00     0.332 C 
ATOM     23  C   UNL A   1      33.055  15.843  25.441  1.00  0.00     0.332 C 
ATOM     24  H   UNL A   1      34.182  15.607  23.812  1.00  0.00     0.347 HD
ENDBRANCH  19  21
ENDBRANCH  18  19
ENDBRANCH  16  18
ENDBRANCH  13  16
ENDBRANCH   7  13
ENDBRANCH   3   6
ENDBRANCH   1   2
BRANCH   1  25
ATOM     25  C   UNL A   1      40.602  21.239  26.303  1.00  0.00     0.023 C 
BRANCH  25  26
ATOM     26  C   UNL A   1      41.074  21.788  27.656  1.00  0.00     0.023 C 
BRANCH  26  27
ATOM     27  C   UNL A   1      41.960  23.029  27.567  1.00  0.00     0.116 C 
BRANCH  27  28
ATOM     28  N   UNL A   1      41.771  23.785  26.338  1.00  0.00    -0.352 N 
ATOM     29  C   UNL A   1      41.499  25.129  26.216  1.00  0.00     0.251 C 
ATOM     30  H   UNL A   1      41.848  23.278  25.498  1.00  0.00     0.163 HD
ATOM     31  O   UNL A   1      41.251  25.620  25.121  1.00  0.00    -0.269 OA
BRANCH  29  32
ATOM     32  C   UNL A   1      41.454  25.957  27.439  1.00  0.00     0.039 A 
ATOM     33  C   UNL A   1      42.514  26.827  27.704  1.00  0.00     0.014 A 
ATOM     34  C   UNL A   1      40.339  25.917  28.278  1.00  0.00     0.014 A 
ATOM     35  C   UNL A   1      42.419  27.721  28.772  1.00  0.00     0.010 A 
ATOM     36  C   UNL A   1      40.225  26.841  29.312  1.00  0.00     0.010 A 
ATOM     37  C   UNL A   1      41.257  27.762  29.557  1.00  0.00    -0.014 A 
BRANCH  37  38
ATOM     38  C   UNL A   1      41.076  28.768  30.633  1.00  0.00     0.031 A 
ATOM     39  C   UNL A   1      41.924  28.699  31.869  1.00  0.00     0.074 A 
ATOM     40  C   UNL A   1      40.086  29.678  30.538  1.00  0.00     0.049 A 
ATOM     41  N   UNL A   1      41.805  29.361  32.989  1.00  0.00    -0.248 NA
ATOM     42  C   UNL A   1      43.039  27.738  31.851  1.00  0.00     0.031 C 
ATOM     43  C   UNL A   1      39.183  29.832  29.395  1.00  0.00     0.029 A 
ATOM     44  N   UNL A   1      39.663  30.635  31.425  1.00  0.00    -0.354 N 
ATOM     45  C   UNL A   1      42.808  28.880  33.820  1.00  0.00     0.074 A 
ATOM     46  C   UNL A   1      43.512  27.852  33.084  1.00  0.00     0.031 C 
ATOM     47  C   UNL A   1      38.322  30.831  29.646  1.00  0.00     0.029 A 
ATOM     48  C   UNL A   1      38.582  31.361  30.982  1.00  0.00     0.049 A 
ATOM     49  H   UNL A   1      40.093  30.788  32.298  1.00  0.00     0.167 HD
ATOM     50  C   UNL A   1      43.119  29.269  35.079  1.00  0.00     0.037 A 
ATOM     51  C   UNL A   1      37.871  32.330  31.589  1.00  0.00     0.037 A 
ATOM     52  C   UNL A   1      42.439  30.316  35.791  1.00  0.00     0.049 A 
ATOM     53  C   UNL A   1      38.239  32.752  32.983  1.00  0.00     0.074 A 
ATOM     54  C   UNL A   1      42.702  30.805  37.060  1.00  0.00     0.029 A 
ATOM     55  N   UNL A   1      41.370  31.046  35.294  1.00  0.00    -0.354 N 
ATOM     56  N   UNL A   1      39.192  32.288  33.755  1.00  0.00    -0.248 NA
ATOM     57  C   UNL A   1      37.435  33.819  33.595  1.00  0.00     0.031 C 
ATOM     58  C   UNL A   1      41.780  31.819  37.336  1.00  0.00     0.029 A 
ATOM     59  C   UNL A   1      40.961  31.981  36.229  1.00  0.00     0.049 A 
ATOM     60  H   UNL A   1      40.962  30.919  34.407  1.00  0.00     0.167 HD
ATOM     61  C   UNL A   1      39.116  33.019  34.934  1.00  0.00     0.074 A 
ATOM     62  C   UNL A   1      38.025  33.958  34.776  1.00  0.00     0.031 C 
ATOM     63  C   UNL A   1      39.883  32.919  36.047  1.00  0.00     0.037 A 
BRANCH  50  64
ATOM     64  C   UNL A   1      44.250  28.560  35.764  1.00  0.00     0.058 A 
ATOM     65  C   UNL A   1      44.002  27.463  36.603  1.00  0.00     0.135 A 
ATOM     66  C   UNL A   1      45.578  28.988  35.616  1.00  0.00     0.135 A 
ATOM     67  F   UNL A   1      42.750  27.009  36.772  1.00  0.00    -0.206 F 
ATOM     68  C   UNL A   1      45.032  26.816  37.277  1.00  0.00     0.059 A 
ATOM     69  C   UNL A   1      46.627  28.342  36.262  1.00  0.00     0.059 A 
ATOM     70  F   UNL A   1      45.869  30.017  34.803  1.00  0.00    -0.206 F 
ATOM     71  C   UNL A   1      46.343  27.264  37.100  1.00  0.00     0.060 A 
BRANCH  71  72
ATOM     72  S   UNL A   1      47.681  26.379  37.929  1.00  0.00     0.124 S 
ATOM     73  O   UNL A   1      47.253  24.993  37.795  1.00  0.00    -0.237 OA
ATOM     74  O   UNL A   1      48.846  26.768  37.139  1.00  0.00    -0.237 OA
ATOM     75  O   UNL A   1      47.649  26.923  39.285  1.00  0.00    -0.744 OA
ENDBRANCH  71  72
ENDBRANCH  50  64
BRANCH  51  76
ATOM     76  C   UNL A   1      36.750  32.981  30.864  1.00  0.00     0.058 A 
ATOM     77  C   UNL A   1      36.981  33.924  29.852  1.00  0.00     0.135 A 
ATOM     78  C   UNL A   1      35.420  32.701  31.208  1.00  0.00     0.135 A 
ATOM     79  F   UNL A   1      38.238  34.232  29.493  1.00  0.00    -0.206 F 
ATOM     80  C   UNL A   1      35.933  34.585  29.221  1.00  0.00     0.059 A 
ATOM     81  C   UNL A   1      34.353  33.337  30.581  1.00  0.00     0.059 A 
ATOM     82  F   UNL A   1      35.152  31.797  32.164  1.00  0.00    -0.206 F 
ATOM     83  C   UNL A   1      34.621  34.291  29.600  1.00  0.00     0.060 A 
BRANCH  83  84
ATOM     84  S   UNL A   1      33.271  35.177  28.792  1.00  0.00     0.124 S 
ATOM     85  O   UNL A   1      32.476  35.602  29.940  1.00  0.00    -0.237 OA
ATOM     86  O   UNL A   1      33.979  36.238  28.083  1.00  0.00    -0.237 OA
ATOM     87  O   UNL A   1      32.660  34.159  27.945  1.00  0.00    -0.744 OA
ENDBRANCH  83  84
ENDBRANCH  51  76
BRANCH  63  88
ATOM     88  C   UNL A   1      39.600  33.860  37.180  1.00  0.00     0.058 A 
ATOM     89  C   UNL A   1      40.311  35.063  37.296  1.00  0.00     0.135 A 
ATOM     90  C   UNL A   1      38.717  33.512  38.212  1.00  0.00     0.135 A 
ATOM     91  F   UNL A   1      41.169  35.437  36.332  1.00  0.00    -0.206 F 
ATOM     92  C   UNL A   1      40.181  35.878  38.414  1.00  0.00     0.059 A 
ATOM     93  C   UNL A   1      38.557  34.320  39.334  1.00  0.00     0.059 A 
ATOM     94  F   UNL A   1      38.006  32.375  38.138  1.00  0.00    -0.206 F 
ATOM     95  C   UNL A   1      39.312  35.489  39.436  1.00  0.00     0.060 A 
BRANCH  95  96
ATOM     96  S   UNL A   1      39.180  36.538  40.899  1.00  0.00     0.124 S 
ATOM     97  O   UNL A   1      40.580  36.704  41.274  1.00  0.00    -0.237 OA
ATOM     98  O   UNL A   1      38.519  37.727  40.371  1.00  0.00    -0.237 OA
ATOM     99  O   UNL A   1      38.375  35.738  41.817  1.00  0.00    -0.744 OA
ENDBRANCH  95  96
ENDBRANCH  63  88
ENDBRANCH  37  38
ENDBRANCH  29  32
ENDBRANCH  27  28
ENDBRANCH  26  27
ENDBRANCH  25  26
ENDBRANCH   1  25
TORSDOF 19
ENDMDL
MODEL 2
REMARK VINA RESULT:     -10.9      5.535     12.930
REMARK SMILES C[C@H](CNS(=O)(=O)c1ccc(C(=O)NCCCCNC(=O)c2ccc(-c3c4nc(c(-c5c(F)cc(S(=O)(=O)[O-])cc5F)c5ccc([nH]5)c(-c5c(F)cc(S(=O)(=O)[O-])cc5F)c5nc(c(-c6c(F)cc(S(=O)(=O)[O-])cc6F)c6ccc3[nH]6)C=C5)C=C4)cc2)cc1F)[NH+](C)C
REMARK SMILES IDX 15 1 14 2 12 3 13 4 11 6 8 7 9 8 89 9 10 10 88 11 90 12 5 13
REMARK SMILES IDX 6 14 7 15 4 16 3 18 2 19 1 20 91 21 92 22 93 23 16 25 17 26
REMARK SMILES IDX 18 27 19 28 20 29 21 31 22 32 23 33 87 34 24 35 86 36 25 37
REMARK SMILES IDX 26 38 27 39 80 40 28 41 85 42 79 43 81 44 29 45 84 46 78 47
REMARK SMILES IDX 77 48 30 50 64 51 43 52 63 53 44 54 47 55 62 56 82 57 45 58
REMARK SMILES IDX 46 59 61 61 83 62 48 63 31 64 32 65 41 66 33 67 34 68 40 69
REMARK SMILES IDX 42 70 35 71 36 72 37 73 38 74 39 75 65 76 66 77 75 78 67 79
REMARK SMILES IDX 68 80 74 81 76 82 69 83 70 84 71 85 72 86 73 87 49 88 50 89
REMARK SMILES IDX 59 90 51 91 52 92 58 93 60 94 53 95 54 96 55 97 56 98 57 99
REMARK H PARENT 14 5 4 17 91 24 19 30 81 49 47 60
REMARK Flexibility Score: inf
ROOT
ATOM      1  C   UNL A   1      33.094  34.921  29.278  1.00  0.00     0.116 C 
ENDROOT
BRANCH   1   2
ATOM      2  N   UNL A   1      32.854  35.484  30.591  1.00  0.00    -0.352 N 
ATOM      3  C   UNL A   1      33.432  35.318  31.821  1.00  0.00     0.251 C 
ATOM      4  O   UNL A   1      32.982  36.015  32.734  1.00  0.00    -0.269 OA
ATOM      5  H   UNL A   1      32.112  36.131  30.600  1.00  0.00     0.163 HD
BRANCH   3   6
ATOM      6  C   UNL A   1      34.540  34.363  32.145  1.00  0.00     0.042 A 
ATOM      7  C   UNL A   1      36.740  32.755  32.909  1.00  0.00     0.118 A 
ATOM      8  C   UNL A   1      36.850  34.146  32.939  1.00  0.00     0.026 A 
ATOM      9  C   UNL A   1      35.561  32.180  32.468  1.00  0.00     0.144 A 
ATOM     10  C   UNL A   1      35.763  34.936  32.547  1.00  0.00     0.015 A 
ATOM     11  C   UNL A   1      34.463  32.971  32.113  1.00  0.00     0.054 A 
ATOM     12  F   UNL A   1      35.407  30.854  32.378  1.00  0.00    -0.205 F 
BRANCH   7  13
ATOM     13  S   UNL A   1      38.079  31.804  33.545  1.00  0.00     0.243 S 
ATOM     14  O   UNL A   1      39.238  32.672  33.595  1.00  0.00    -0.207 OA
ATOM     15  O   UNL A   1      38.103  30.565  32.805  1.00  0.00    -0.207 OA
BRANCH  13  16
ATOM     16  N   UNL A   1      37.711  31.391  35.120  1.00  0.00    -0.205 NA
ATOM     17  H   UNL A   1      36.919  31.970  35.399  1.00  0.00     0.141 HD
BRANCH  16  18
ATOM     18  C   UNL A   1      38.725  31.523  36.175  1.00  0.00     0.163 C 
BRANCH  18  19
ATOM     19  C   UNL A   1      38.568  32.840  36.999  1.00  0.00     0.195 C 
ATOM     20  C   UNL A   1      37.128  33.382  37.016  1.00  0.00     0.076 C 
BRANCH  19  21
ATOM     21  N   UNL A   1      39.210  32.750  38.333  1.00  0.00    -0.337 N 
ATOM     22  C   UNL A   1      40.670  32.796  38.260  1.00  0.00     0.332 C 
ATOM     23  C   UNL A   1      38.713  33.702  39.321  1.00  0.00     0.332 C 
ATOM     24  H   UNL A   1      38.932  31.829  38.671  1.00  0.00     0.347 HD
ENDBRANCH  19  21
ENDBRANCH  18  19
ENDBRANCH  16  18
ENDBRANCH  13  16
ENDBRANCH   7  13
ENDBRANCH   3   6
ENDBRANCH   1   2
BRANCH   1  25
ATOM     25  C   UNL A   1      34.477  35.295  28.739  1.00  0.00     0.023 C 
BRANCH  25  26
ATOM     26  C   UNL A   1      35.183  34.164  27.979  1.00  0.00     0.023 C 
BRANCH  26  27
ATOM     27  C   UNL A   1      35.254  32.837  28.731  1.00  0.00     0.116 C 
BRANCH  27  28
ATOM     28  N   UNL A   1      34.247  31.877  28.303  1.00  0.00    -0.352 N 
ATOM     29  C   UNL A   1      34.431  30.543  28.017  1.00  0.00     0.251 C 
ATOM     30  H   UNL A   1      33.330  32.221  28.207  1.00  0.00     0.163 HD
ATOM     31  O   UNL A   1      33.517  29.871  27.556  1.00  0.00    -0.269 OA
BRANCH  29  32
ATOM     32  C   UNL A   1      35.770  29.953  28.222  1.00  0.00     0.039 A 
ATOM     33  C   UNL A   1      36.693  29.990  27.174  1.00  0.00     0.014 A 
ATOM     34  C   UNL A   1      36.126  29.427  29.466  1.00  0.00     0.014 A 
ATOM     35  C   UNL A   1      38.006  29.573  27.399  1.00  0.00     0.010 A 
ATOM     36  C   UNL A   1      37.446  29.056  29.701  1.00  0.00     0.010 A 
ATOM     37  C   UNL A   1      38.401  29.142  28.675  1.00  0.00    -0.014 A 
BRANCH  37  38
ATOM     38  C   UNL A   1      39.810  28.791  28.979  1.00  0.00     0.031 A 
ATOM     39  C   UNL A   1      40.728  29.828  29.557  1.00  0.00     0.074 A 
ATOM     40  C   UNL A   1      40.284  27.575  28.643  1.00  0.00     0.049 A 
ATOM     41  N   UNL A   1      42.024  29.781  29.725  1.00  0.00    -0.248 NA
ATOM     42  C   UNL A   1      40.110  31.095  29.979  1.00  0.00     0.031 C 
ATOM     43  C   UNL A   1      39.494  26.490  28.056  1.00  0.00     0.029 A 
ATOM     44  N   UNL A   1      41.549  27.052  28.732  1.00  0.00    -0.354 N 
ATOM     45  C   UNL A   1      42.382  31.018  30.245  1.00  0.00     0.074 A 
ATOM     46  C   UNL A   1      41.171  31.804  30.341  1.00  0.00     0.031 C 
ATOM     47  C   UNL A   1      40.290  25.428  27.850  1.00  0.00     0.029 A 
ATOM     48  C   UNL A   1      41.652  25.769  28.249  1.00  0.00     0.049 A 
ATOM     49  H   UNL A   1      42.313  27.549  29.107  1.00  0.00     0.167 HD
ATOM     50  C   UNL A   1      43.608  31.454  30.616  1.00  0.00     0.037 A 
ATOM     51  C   UNL A   1      42.726  24.964  28.124  1.00  0.00     0.037 A 
ATOM     52  C   UNL A   1      44.802  30.655  30.551  1.00  0.00     0.049 A 
ATOM     53  C   UNL A   1      44.076  25.466  28.551  1.00  0.00     0.074 A 
ATOM     54  C   UNL A   1      46.087  30.997  30.935  1.00  0.00     0.029 A 
ATOM     55  N   UNL A   1      44.857  29.350  30.084  1.00  0.00    -0.354 N 
ATOM     56  N   UNL A   1      44.398  26.638  29.042  1.00  0.00    -0.248 NA
ATOM     57  C   UNL A   1      45.212  24.544  28.401  1.00  0.00     0.031 C 
ATOM     58  C   UNL A   1      46.923  29.904  30.684  1.00  0.00     0.029 A 
ATOM     59  C   UNL A   1      46.153  28.873  30.169  1.00  0.00     0.049 A 
ATOM     60  H   UNL A   1      44.087  28.839  29.743  1.00  0.00     0.167 HD
ATOM     61  C   UNL A   1      45.766  26.589  29.279  1.00  0.00     0.074 A 
ATOM     62  C   UNL A   1      46.214  25.271  28.878  1.00  0.00     0.031 C 
ATOM     63  C   UNL A   1      46.576  27.551  29.782  1.00  0.00     0.037 A 
BRANCH  50  64
ATOM     64  C   UNL A   1      43.718  32.858  31.132  1.00  0.00     0.058 A 
ATOM     65  C   UNL A   1      43.632  33.123  32.507  1.00  0.00     0.135 A 
ATOM     66  C   UNL A   1      43.874  33.947  30.260  1.00  0.00     0.135 A 
ATOM     67  F   UNL A   1      43.491  32.115  33.384  1.00  0.00    -0.206 F 
ATOM     68  C   UNL A   1      43.695  34.421  33.002  1.00  0.00     0.059 A 
ATOM     69  C   UNL A   1      43.961  35.252  30.735  1.00  0.00     0.059 A 
ATOM     70  F   UNL A   1      43.987  33.742  28.938  1.00  0.00    -0.206 F 
ATOM     71  C   UNL A   1      43.859  35.480  32.107  1.00  0.00     0.060 A 
BRANCH  71  72
ATOM     72  S   UNL A   1      44.001  37.156  32.763  1.00  0.00     0.124 S 
ATOM     73  O   UNL A   1      45.329  37.132  33.363  1.00  0.00    -0.237 OA
ATOM     74  O   UNL A   1      43.857  37.973  31.561  1.00  0.00    -0.237 OA
ATOM     75  O   UNL A   1      42.883  37.243  33.701  1.00  0.00    -0.744 OA
ENDBRANCH  71  72
ENDBRANCH  50  64
BRANCH  51  76
ATOM     76  C   UNL A   1      42.554  23.590  27.589  1.00  0.00     0.058 A 
ATOM     77  C   UNL A   1      42.398  22.486  28.440  1.00  0.00     0.135 A 
ATOM     78  C   UNL A   1      42.591  23.353  26.208  1.00  0.00     0.135 A 
ATOM     79  F   UNL A   1      42.366  22.661  29.771  1.00  0.00    -0.206 F 
ATOM     80  C   UNL A   1      42.308  21.191  27.942  1.00  0.00     0.059 A 
ATOM     81  C   UNL A   1      42.486  22.069  25.683  1.00  0.00     0.059 A 
ATOM     82  F   UNL A   1      42.728  24.381  25.356  1.00  0.00    -0.206 F 
ATOM     83  C   UNL A   1      42.363  20.991  26.561  1.00  0.00     0.060 A 
BRANCH  83  84
ATOM     84  S   UNL A   1      42.271  19.302  25.929  1.00  0.00     0.124 S 
ATOM     85  O   UNL A   1      40.838  19.158  25.697  1.00  0.00    -0.237 OA
ATOM     86  O   UNL A   1      43.104  19.374  24.733  1.00  0.00    -0.237 OA
ATOM     87  O   UNL A   1      42.815  18.505  27.022  1.00  0.00    -0.744 OA
ENDBRANCH  83  84
ENDBRANCH  51  76
BRANCH  63  88
ATOM     88  C   UNL A   1      48.029  27.222  29.961  1.00  0.00     0.058 A 
ATOM     89  C   UNL A   1      48.479  26.628  31.149  1.00  0.00     0.135 A 
ATOM     90  C   UNL A   1      48.985  27.605  29.009  1.00  0.00     0.135 A 
ATOM     91  F   UNL A   1      47.600  26.246  32.089  1.00  0.00    -0.206 F 
ATOM     92  C   UNL A   1      49.834  26.454  31.404  1.00  0.00     0.059 A 
ATOM     93  C   UNL A   1      50.346  27.426  29.236  1.00  0.00     0.059 A 
ATOM     94  F   UNL A   1      48.599  28.166  27.852  1.00  0.00    -0.206 F 
ATOM     95  C   UNL A   1      50.761  26.871  30.447  1.00  0.00     0.060 A 
BRANCH  95  96
ATOM     96  S   UNL A   1      52.519  26.673  30.807  1.00  0.00     0.124 S 
ATOM     97  O   UNL A   1      52.888  28.018  31.235  1.00  0.00    -0.237 OA
ATOM     98  O   UNL A   1      52.510  25.654  31.852  1.00  0.00    -0.237 OA
ATOM     99  O   UNL A   1      53.080  26.244  29.530  1.00  0.00    -0.744 OA
ENDBRANCH  95  96
ENDBRANCH  63  88
ENDBRANCH  37  38
ENDBRANCH  29  32
ENDBRANCH  27  28
ENDBRANCH  26  27
ENDBRANCH  25  26
ENDBRANCH   1  25
TORSDOF 19
ENDMDL
MODEL 3
REMARK VINA RESULT:     -10.8      6.784     11.616
REMARK SMILES C[C@H](CNS(=O)(=O)c1ccc(C(=O)NCCCCNC(=O)c2ccc(-c3c4nc(c(-c5c(F)cc(S(=O)(=O)[O-])cc5F)c5ccc([nH]5)c(-c5c(F)cc(S(=O)(=O)[O-])cc5F)c5nc(c(-c6c(F)cc(S(=O)(=O)[O-])cc6F)c6ccc3[nH]6)C=C5)C=C4)cc2)cc1F)[NH+](C)C
REMARK SMILES IDX 15 1 14 2 12 3 13 4 11 6 8 7 9 8 89 9 10 10 88 11 90 12 5 13
REMARK SMILES IDX 6 14 7 15 4 16 3 18 2 19 1 20 91 21 92 22 93 23 16 25 17 26
REMARK SMILES IDX 18 27 19 28 20 29 21 31 22 32 23 33 87 34 24 35 86 36 25 37
REMARK SMILES IDX 26 38 27 39 80 40 28 41 85 42 79 43 81 44 29 45 84 46 78 47
REMARK SMILES IDX 77 48 30 50 64 51 43 52 63 53 44 54 47 55 62 56 82 57 45 58
REMARK SMILES IDX 46 59 61 61 83 62 48 63 31 64 32 65 41 66 33 67 34 68 40 69
REMARK SMILES IDX 42 70 35 71 36 72 37 73 38 74 39 75 65 76 66 77 75 78 67 79
REMARK SMILES IDX 68 80 74 81 76 82 69 83 70 84 71 85 72 86 73 87 49 88 50 89
REMARK SMILES IDX 59 90 51 91 52 92 58 93 60 94 53 95 54 96 55 97 56 98 57 99
REMARK H PARENT 14 5 4 17 91 24 19 30 81 49 47 60
REMARK Flexibility Score: inf
ROOT
ATOM      1  C   UNL A   1      37.970  23.660  26.140  1.00  0.00     0.116 C 
ENDROOT
BRANCH   1   2
ATOM      2  N   UNL A   1      36.855  22.740  26.234  1.00  0.00    -0.352 N 
ATOM      3  C   UNL A   1      35.579  22.732  25.735  1.00  0.00     0.251 C 
ATOM      4  O   UNL A   1      34.900  21.735  25.993  1.00  0.00    -0.269 OA
ATOM      5  H   UNL A   1      37.059  21.945  26.777  1.00  0.00     0.163 HD
BRANCH   3   6
ATOM      6  C   UNL A   1      34.950  23.824  24.927  1.00  0.00     0.042 A 
ATOM      7  C   UNL A   1      33.652  25.694  23.245  1.00  0.00     0.118 A 
ATOM      8  C   UNL A   1      33.954  24.418  22.766  1.00  0.00     0.026 A 
ATOM      9  C   UNL A   1      34.028  26.039  24.531  1.00  0.00     0.144 A 
ATOM     10  C   UNL A   1      34.607  23.502  23.598  1.00  0.00     0.015 A 
ATOM     11  C   UNL A   1      34.647  25.110  25.373  1.00  0.00     0.054 A 
ATOM     12  F   UNL A   1      33.803  27.259  25.034  1.00  0.00    -0.205 F 
BRANCH   7  13
ATOM     13  S   UNL A   1      32.704  26.762  22.215  1.00  0.00     0.243 S 
ATOM     14  O   UNL A   1      31.847  25.926  21.399  1.00  0.00    -0.207 OA
ATOM     15  O   UNL A   1      33.627  27.697  21.616  1.00  0.00    -0.207 OA
BRANCH  13  16
ATOM     16  N   UNL A   1      31.706  27.670  23.198  1.00  0.00    -0.205 NA
ATOM     17  H   UNL A   1      31.306  27.029  23.883  1.00  0.00     0.141 HD
BRANCH  16  18
ATOM     18  C   UNL A   1      30.586  28.425  22.620  1.00  0.00     0.163 C 
BRANCH  18  19
ATOM     19  C   UNL A   1      30.061  29.547  23.571  1.00  0.00     0.195 C 
ATOM     20  C   UNL A   1      31.027  29.873  24.723  1.00  0.00     0.076 C 
BRANCH  19  21
ATOM     21  N   UNL A   1      29.566  30.731  22.827  1.00  0.00    -0.337 N 
ATOM     22  C   UNL A   1      29.159  30.407  21.460  1.00  0.00     0.332 C 
ATOM     23  C   UNL A   1      28.526  31.495  23.507  1.00  0.00     0.332 C 
ATOM     24  H   UNL A   1      30.380  31.344  22.785  1.00  0.00     0.347 HD
ENDBRANCH  19  21
ENDBRANCH  18  19
ENDBRANCH  16  18
ENDBRANCH  13  16
ENDBRANCH   7  13
ENDBRANCH   3   6
ENDBRANCH   1   2
BRANCH   1  25
ATOM     25  C   UNL A   1      39.294  22.993  26.526  1.00  0.00     0.023 C 
BRANCH  25  26
ATOM     26  C   UNL A   1      39.518  21.619  25.880  1.00  0.00     0.023 C 
BRANCH  26  27
ATOM     27  C   UNL A   1      40.026  20.540  26.835  1.00  0.00     0.116 C 
BRANCH  27  28
ATOM     28  N   UNL A   1      40.850  19.534  26.182  1.00  0.00    -0.352 N 
ATOM     29  C   UNL A   1      42.162  19.657  25.783  1.00  0.00     0.251 C 
ATOM     30  H   UNL A   1      40.420  18.666  26.006  1.00  0.00     0.163 HD
ATOM     31  O   UNL A   1      42.706  18.767  25.141  1.00  0.00    -0.269 OA
BRANCH  29  32
ATOM     32  C   UNL A   1      42.884  20.907  26.096  1.00  0.00     0.039 A 
ATOM     33  C   UNL A   1      43.267  21.746  25.047  1.00  0.00     0.014 A 
ATOM     34  C   UNL A   1      43.117  21.275  27.423  1.00  0.00     0.014 A 
ATOM     35  C   UNL A   1      43.815  22.998  25.333  1.00  0.00     0.010 A 
ATOM     36  C   UNL A   1      43.618  22.541  27.706  1.00  0.00     0.010 A 
ATOM     37  C   UNL A   1      43.956  23.420  26.664  1.00  0.00    -0.014 A 
BRANCH  37  38
ATOM     38  C   UNL A   1      44.435  24.782  27.005  1.00  0.00     0.031 A 
ATOM     39  C   UNL A   1      43.456  25.823  27.465  1.00  0.00     0.074 A 
ATOM     40  C   UNL A   1      45.728  25.106  26.806  1.00  0.00     0.049 A 
ATOM     41  N   UNL A   1      43.637  27.106  27.637  1.00  0.00    -0.248 NA
ATOM     42  C   UNL A   1      42.086  25.363  27.744  1.00  0.00     0.031 C 
ATOM     43  C   UNL A   1      46.770  24.187  26.342  1.00  0.00     0.029 A 
ATOM     44  N   UNL A   1      46.383  26.302  26.952  1.00  0.00    -0.354 N 
ATOM     45  C   UNL A   1      42.401  27.613  28.017  1.00  0.00     0.074 A 
ATOM     46  C   UNL A   1      41.472  26.504  28.026  1.00  0.00     0.031 C 
ATOM     47  C   UNL A   1      47.934  24.850  26.255  1.00  0.00     0.029 A 
ATOM     48  C   UNL A   1      47.715  26.248  26.613  1.00  0.00     0.049 A 
ATOM     49  H   UNL A   1      45.941  27.124  27.269  1.00  0.00     0.167 HD
ATOM     50  C   UNL A   1      42.075  28.887  28.337  1.00  0.00     0.037 A 
ATOM     51  C   UNL A   1      48.649  27.218  26.578  1.00  0.00     0.037 A 
ATOM     52  C   UNL A   1      43.011  29.978  28.361  1.00  0.00     0.049 A 
ATOM     53  C   UNL A   1      48.266  28.624  26.947  1.00  0.00     0.074 A 
ATOM     54  C   UNL A   1      42.782  31.300  28.705  1.00  0.00     0.029 A 
ATOM     55  N   UNL A   1      44.356  29.874  28.041  1.00  0.00    -0.354 N 
ATOM     56  N   UNL A   1      47.093  29.087  27.306  1.00  0.00    -0.248 NA
ATOM     57  C   UNL A   1      49.326  29.641  26.899  1.00  0.00     0.031 C 
ATOM     58  C   UNL A   1      43.986  31.998  28.576  1.00  0.00     0.029 A 
ATOM     59  C   UNL A   1      44.971  31.106  28.178  1.00  0.00     0.049 A 
ATOM     60  H   UNL A   1      44.807  29.045  27.759  1.00  0.00     0.167 HD
ATOM     61  C   UNL A   1      47.276  30.443  27.546  1.00  0.00     0.074 A 
ATOM     62  C   UNL A   1      48.674  30.728  27.293  1.00  0.00     0.031 C 
ATOM     63  C   UNL A   1      46.367  31.367  27.939  1.00  0.00     0.037 A 
BRANCH  50  64
ATOM     64  C   UNL A   1      40.645  29.167  28.695  1.00  0.00     0.058 A 
ATOM     65  C   UNL A   1      39.684  29.369  27.692  1.00  0.00     0.135 A 
ATOM     66  C   UNL A   1      40.232  29.270  30.032  1.00  0.00     0.135 A 
ATOM     67  F   UNL A   1      40.026  29.274  26.397  1.00  0.00    -0.206 F 
ATOM     68  C   UNL A   1      38.362  29.667  28.002  1.00  0.00     0.059 A 
ATOM     69  C   UNL A   1      38.910  29.545  30.366  1.00  0.00     0.059 A 
ATOM     70  F   UNL A   1      41.109  29.060  31.027  1.00  0.00    -0.206 F 
ATOM     71  C   UNL A   1      37.984  29.753  29.344  1.00  0.00     0.060 A 
BRANCH  71  72
ATOM     72  S   UNL A   1      36.252  30.080  29.738  1.00  0.00     0.124 S 
ATOM     73  O   UNL A   1      35.570  29.517  28.580  1.00  0.00    -0.237 OA
ATOM     74  O   UNL A   1      36.079  29.357  30.996  1.00  0.00    -0.237 OA
ATOM     75  O   UNL A   1      36.206  31.536  29.855  1.00  0.00    -0.744 OA
ENDBRANCH  71  72
ENDBRANCH  50  64
BRANCH  51  76
ATOM     76  C   UNL A   1      50.044  26.880  26.198  1.00  0.00     0.058 A 
ATOM     77  C   UNL A   1      50.479  26.954  24.867  1.00  0.00     0.135 A 
ATOM     78  C   UNL A   1      50.956  26.430  27.162  1.00  0.00     0.135 A 
ATOM     79  F   UNL A   1      49.639  27.371  23.906  1.00  0.00    -0.206 F 
ATOM     80  C   UNL A   1      51.764  26.570  24.500  1.00  0.00     0.059 A 
ATOM     81  C   UNL A   1      52.253  26.056  26.824  1.00  0.00     0.059 A 
ATOM     82  F   UNL A   1      50.587  26.354  28.450  1.00  0.00    -0.206 F 
ATOM     83  C   UNL A   1      52.642  26.113  25.485  1.00  0.00     0.060 A 
BRANCH  83  84
ATOM     84  S   UNL A   1      54.299  25.593  24.990  1.00  0.00     0.124 S 
ATOM     85  O   UNL A   1      55.114  26.177  26.051  1.00  0.00    -0.237 OA
ATOM     86  O   UNL A   1      54.183  24.138  25.007  1.00  0.00    -0.237 OA
ATOM     87  O   UNL A   1      54.459  26.192  23.671  1.00  0.00    -0.744 OA
ENDBRANCH  83  84
ENDBRANCH  51  76
BRANCH  63  88
ATOM     88  C   UNL A   1      46.843  32.773  28.154  1.00  0.00     0.058 A 
ATOM     89  C   UNL A   1      47.315  33.177  29.411  1.00  0.00     0.135 A 
ATOM     90  C   UNL A   1      46.718  33.745  27.151  1.00  0.00     0.135 A 
ATOM     91  F   UNL A   1      47.450  32.281  30.403  1.00  0.00    -0.206 F 
ATOM     92  C   UNL A   1      47.616  34.507  29.680  1.00  0.00     0.059 A 
ATOM     93  C   UNL A   1      47.029  35.080  27.391  1.00  0.00     0.059 A 
ATOM     94  F   UNL A   1      46.283  33.401  25.928  1.00  0.00    -0.206 F 
ATOM     95  C   UNL A   1      47.455  35.454  28.666  1.00  0.00     0.060 A 
BRANCH  95  96
ATOM     96  S   UNL A   1      47.815  37.184  29.039  1.00  0.00     0.124 S 
ATOM     97  O   UNL A   1      46.476  37.729  29.240  1.00  0.00    -0.237 OA
ATOM     98  O   UNL A   1      48.644  37.078  30.236  1.00  0.00    -0.237 OA
ATOM     99  O   UNL A   1      48.510  37.650  27.843  1.00  0.00    -0.744 OA
ENDBRANCH  95  96
ENDBRANCH  63  88
ENDBRANCH  37  38
ENDBRANCH  29  32
ENDBRANCH  27  28
ENDBRANCH  26  27
ENDBRANCH  25  26
ENDBRANCH   1  25
TORSDOF 19
ENDMDL
