MODEL 1
REMARK VINA RESULT:     -13.1      0.000      0.000
REMARK SMILES Cn1cc(/C=C2\SC(=S)N(c3cccc(C(=O)NCCCCNC(=O)c4ccc(-c5c6nc(c(-c7c(F)cc(S(=O)(=O)[O-])cc7F)c7ccc([nH]7)c(-c7c(F)cc(S(=O)(=O)[O-])cc7F)c7nc(c(-c8c(F)cc(S(=O)(=O)[O-])cc8F)c8ccc5[nH]8)C=C7)C=C6)cc4)c3)C2=O)c2ccccc21
REMARK SMILES IDX 21 1 20 2 19 3 18 4 16 5 17 6 15 8 11 9 12 10 92 11 13 12
REMARK SMILES IDX 14 13 10 14 5 15 6 16 7 17 93 18 8 19 94 20 9 21 4 22 1 23
REMARK SMILES IDX 2 24 3 25 100 26 95 27 99 28 96 29 98 30 97 31 22 32 23 33
REMARK SMILES IDX 24 34 25 36 26 37 27 38 91 39 28 40 90 41 29 42 30 43 31 44
REMARK SMILES IDX 84 45 32 46 89 47 83 48 85 49 33 50 88 51 82 52 81 53 34 55
REMARK SMILES IDX 68 56 47 57 67 58 48 59 51 60 66 61 86 62 49 63 50 64 65 66
REMARK SMILES IDX 87 67 52 68 35 69 36 70 45 71 37 72 38 73 44 74 46 75 39 76
REMARK SMILES IDX 40 77 41 78 42 79 43 80 69 81 70 82 79 83 71 84 72 85 78 86
REMARK SMILES IDX 80 87 73 88 74 89 75 90 76 91 77 92 53 93 54 94 63 95 55 96
REMARK SMILES IDX 56 97 62 98 64 99 57 100 58 101 59 102 60 103 61 104
REMARK H PARENT 18 7 23 35 85 54 51 65
REMARK Flexibility Score: inf
ROOT
ATOM      1  C   UNL A   1      38.101  20.505  25.052  1.00  0.00     0.023 C 
ENDROOT
BRANCH   1   2
ATOM      2  C   UNL A   1      37.174  21.710  24.965  1.00  0.00     0.023 C 
BRANCH   2   3
ATOM      3  C   UNL A   1      35.876  21.635  25.758  1.00  0.00     0.116 C 
BRANCH   3   4
ATOM      4  N   UNL A   1      35.206  20.345  25.726  1.00  0.00    -0.352 N 
ATOM      5  C   UNL A   1      34.117  19.906  25.001  1.00  0.00     0.251 C 
ATOM      6  O   UNL A   1      33.728  18.749  25.147  1.00  0.00    -0.269 OA
ATOM      7  H   UNL A   1      35.596  19.668  26.324  1.00  0.00     0.163 HD
BRANCH   5   8
ATOM      8  C   UNL A   1      33.352  20.815  24.107  1.00  0.00     0.041 A 
ATOM      9  C   UNL A   1      32.293  22.961  23.680  1.00  0.00     0.051 A 
ATOM     10  C   UNL A   1      31.562  22.368  22.642  1.00  0.00     0.027 A 
ATOM     11  C   UNL A   1      33.263  22.191  24.335  1.00  0.00     0.040 A 
ATOM     12  C   UNL A   1      31.768  21.032  22.293  1.00  0.00     0.003 A 
ATOM     13  C   UNL A   1      32.641  20.248  23.044  1.00  0.00     0.014 A 
BRANCH   9  14
ATOM     14  N   UNL A   1      31.929  24.245  24.202  1.00  0.00    -0.261 N 
ATOM     15  C   UNL A   1      31.741  27.800  23.486  1.00  0.00     0.031 C 
ATOM     16  C   UNL A   1      31.624  26.590  24.057  1.00  0.00     0.081 C 
ATOM     17  S   UNL A   1      30.687  26.153  25.425  1.00  0.00    -0.054 SA
ATOM     18  C   UNL A   1      32.290  25.389  23.486  1.00  0.00     0.270 C 
ATOM     19  C   UNL A   1      31.120  24.451  25.311  1.00  0.00     0.152 C 
ATOM     20  O   UNL A   1      33.006  25.461  22.492  1.00  0.00    -0.268 OA
ATOM     21  S   UNL A   1      30.640  23.379  26.504  1.00  0.00    -0.051 S 
BRANCH  15  22
ATOM     22  C   UNL A   1      31.164  29.023  23.942  1.00  0.00     0.001 A 
ATOM     23  C   UNL A   1      31.017  31.878  26.152  1.00  0.00     0.149 C 
ATOM     24  N   UNL A   1      30.845  30.867  25.133  1.00  0.00    -0.350 N 
ATOM     25  C   UNL A   1      31.672  29.793  24.964  1.00  0.00     0.094 A 
ATOM     26  C   UNL A   1      29.825  30.840  24.205  1.00  0.00     0.048 A 
ATOM     27  C   UNL A   1      30.011  29.689  23.428  1.00  0.00     0.007 A 
ATOM     28  C   UNL A   1      28.754  31.722  23.991  1.00  0.00     0.027 A 
ATOM     29  C   UNL A   1      29.087  29.419  22.395  1.00  0.00     0.011 A 
ATOM     30  C   UNL A   1      27.854  31.429  22.964  1.00  0.00     0.002 A 
ATOM     31  C   UNL A   1      28.016  30.295  22.175  1.00  0.00     0.001 A 
ENDBRANCH  15  22
ENDBRANCH   9  14
ENDBRANCH   5   8
ENDBRANCH   3   4
ENDBRANCH   2   3
ENDBRANCH   1   2
BRANCH   1  32
ATOM     32  C   UNL A   1      39.335  20.663  25.930  1.00  0.00     0.116 C 
BRANCH  32  33
ATOM     33  N   UNL A   1      40.218  19.506  25.933  1.00  0.00    -0.352 N 
ATOM     34  C   UNL A   1      41.580  19.434  26.143  1.00  0.00     0.251 C 
ATOM     35  H   UNL A   1      39.776  18.644  25.758  1.00  0.00     0.163 HD
ATOM     36  O   UNL A   1      42.154  18.361  26.048  1.00  0.00    -0.269 OA
BRANCH  34  37
ATOM     37  C   UNL A   1      42.348  20.669  26.431  1.00  0.00     0.039 A 
ATOM     38  C   UNL A   1      42.882  21.390  25.359  1.00  0.00     0.014 A 
ATOM     39  C   UNL A   1      42.504  21.135  27.737  1.00  0.00     0.014 A 
ATOM     40  C   UNL A   1      43.484  22.630  25.590  1.00  0.00     0.010 A 
ATOM     41  C   UNL A   1      43.030  22.405  27.957  1.00  0.00     0.010 A 
ATOM     42  C   UNL A   1      43.515  23.171  26.886  1.00  0.00    -0.014 A 
BRANCH  42  43
ATOM     43  C   UNL A   1      44.023  24.544  27.141  1.00  0.00     0.031 A 
ATOM     44  C   UNL A   1      43.081  25.633  27.572  1.00  0.00     0.074 A 
ATOM     45  C   UNL A   1      45.315  24.833  26.887  1.00  0.00     0.049 A 
ATOM     46  N   UNL A   1      43.315  26.907  27.746  1.00  0.00    -0.248 NA
ATOM     47  C   UNL A   1      41.681  25.242  27.802  1.00  0.00     0.031 C 
ATOM     48  C   UNL A   1      46.314  23.883  26.393  1.00  0.00     0.029 A 
ATOM     49  N   UNL A   1      46.006  26.015  26.988  1.00  0.00    -0.354 N 
ATOM     50  C   UNL A   1      42.092  27.475  28.080  1.00  0.00     0.074 A 
ATOM     51  C   UNL A   1      41.109  26.413  28.036  1.00  0.00     0.031 C 
ATOM     52  C   UNL A   1      47.488  24.517  26.240  1.00  0.00     0.029 A 
ATOM     53  C   UNL A   1      47.321  25.922  26.597  1.00  0.00     0.049 A 
ATOM     54  H   UNL A   1      45.598  26.851  27.311  1.00  0.00     0.167 HD
ATOM     55  C   UNL A   1      41.815  28.758  28.415  1.00  0.00     0.037 A 
ATOM     56  C   UNL A   1      48.282  26.862  26.524  1.00  0.00     0.037 A 
ATOM     57  C   UNL A   1      42.801  29.804  28.488  1.00  0.00     0.049 A 
ATOM     58  C   UNL A   1      47.968  28.270  26.945  1.00  0.00     0.074 A 
ATOM     59  C   UNL A   1      42.636  31.118  28.892  1.00  0.00     0.029 A 
ATOM     60  N   UNL A   1      44.138  29.656  28.146  1.00  0.00    -0.354 N 
ATOM     61  N   UNL A   1      46.822  28.773  27.338  1.00  0.00    -0.248 NA
ATOM     62  C   UNL A   1      49.075  29.235  26.929  1.00  0.00     0.031 C 
ATOM     63  C   UNL A   1      43.867  31.772  28.764  1.00  0.00     0.029 A 
ATOM     64  C   UNL A   1      44.807  30.857  28.317  1.00  0.00     0.049 A 
ATOM     65  H   UNL A   1      44.550  28.820  27.830  1.00  0.00     0.167 HD
ATOM     66  C   UNL A   1      47.073  30.109  27.629  1.00  0.00     0.074 A 
ATOM     67  C   UNL A   1      48.483  30.333  27.381  1.00  0.00     0.031 C 
ATOM     68  C   UNL A   1      46.212  31.063  28.062  1.00  0.00     0.037 A 
BRANCH  55  69
ATOM     69  C   UNL A   1      40.382  29.089  28.730  1.00  0.00     0.058 A 
ATOM     70  C   UNL A   1      39.448  29.357  27.716  1.00  0.00     0.135 A 
ATOM     71  C   UNL A   1      39.939  29.156  30.061  1.00  0.00     0.135 A 
ATOM     72  F   UNL A   1      39.822  29.319  26.427  1.00  0.00    -0.206 F 
ATOM     73  C   UNL A   1      38.142  29.730  28.010  1.00  0.00     0.059 A 
ATOM     74  C   UNL A   1      38.628  29.501  30.377  1.00  0.00     0.059 A 
ATOM     75  F   UNL A   1      40.788  28.904  31.070  1.00  0.00    -0.206 F 
ATOM     76  C   UNL A   1      37.744  29.811  29.345  1.00  0.00     0.060 A 
BRANCH  76  77
ATOM     77  S   UNL A   1      36.057  30.336  29.716  1.00  0.00     0.124 S 
ATOM     78  O   UNL A   1      35.881  29.808  31.065  1.00  0.00    -0.237 OA
ATOM     79  O   UNL A   1      36.148  31.789  29.613  1.00  0.00    -0.237 OA
ATOM     80  O   UNL A   1      35.264  29.686  28.677  1.00  0.00    -0.744 OA
ENDBRANCH  76  77
ENDBRANCH  55  69
BRANCH  56  81
ATOM     81  C   UNL A   1      49.639  26.484  26.053  1.00  0.00     0.058 A 
ATOM     82  C   UNL A   1      50.110  26.899  24.800  1.00  0.00     0.135 A 
ATOM     83  C   UNL A   1      50.514  25.752  26.872  1.00  0.00     0.135 A 
ATOM     84  F   UNL A   1      49.308  27.596  23.980  1.00  0.00    -0.206 F 
ATOM     85  C   UNL A   1      51.401  26.605  24.373  1.00  0.00     0.059 A 
ATOM     86  C   UNL A   1      51.816  25.461  26.474  1.00  0.00     0.059 A 
ATOM     87  F   UNL A   1      50.115  25.347  28.088  1.00  0.00    -0.206 F 
ATOM     88  C   UNL A   1      52.250  25.891  25.221  1.00  0.00     0.060 A 
BRANCH  88  89
ATOM     89  S   UNL A   1      53.951  25.592  24.695  1.00  0.00     0.124 S 
ATOM     90  O   UNL A   1      54.687  26.537  25.526  1.00  0.00    -0.237 OA
ATOM     91  O   UNL A   1      54.130  24.180  25.021  1.00  0.00    -0.237 OA
ATOM     92  O   UNL A   1      53.918  25.895  23.268  1.00  0.00    -0.744 OA
ENDBRANCH  88  89
ENDBRANCH  56  81
BRANCH  68  93
ATOM     93  C   UNL A   1      46.772  32.435  28.314  1.00  0.00     0.058 A 
ATOM     94  C   UNL A   1      47.315  32.789  29.558  1.00  0.00     0.135 A 
ATOM     95  C   UNL A   1      46.816  33.386  27.282  1.00  0.00     0.135 A 
ATOM     96  F   UNL A   1      47.291  31.918  30.579  1.00  0.00    -0.206 F 
ATOM     97  C   UNL A   1      47.868  34.047  29.776  1.00  0.00     0.059 A 
ATOM     98  C   UNL A   1      47.384  34.642  27.471  1.00  0.00     0.059 A 
ATOM     99  F   UNL A   1      46.317  33.093  26.070  1.00  0.00    -0.206 F 
ATOM    100  C   UNL A   1      47.898  34.967  28.726  1.00  0.00     0.060 A 
BRANCH 100 101
ATOM    101  S   UNL A   1      48.653  36.583  29.008  1.00  0.00     0.124 S 
ATOM    102  O   UNL A   1      47.837  37.440  28.155  1.00  0.00    -0.237 OA
ATOM    103  O   UNL A   1      48.477  36.767  30.446  1.00  0.00    -0.237 OA
ATOM    104  O   UNL A   1      50.033  36.392  28.572  1.00  0.00    -0.744 OA
ENDBRANCH 100 101
ENDBRANCH  68  93
ENDBRANCH  42  43
ENDBRANCH  34  37
ENDBRANCH  32  33
ENDBRANCH   1  32
TORSDOF 16
ENDMDL
MODEL 2
REMARK VINA RESULT:     -13.0      2.139      9.038
REMARK SMILES Cn1cc(/C=C2\SC(=S)N(c3cccc(C(=O)NCCCCNC(=O)c4ccc(-c5c6nc(c(-c7c(F)cc(S(=O)(=O)[O-])cc7F)c7ccc([nH]7)c(-c7c(F)cc(S(=O)(=O)[O-])cc7F)c7nc(c(-c8c(F)cc(S(=O)(=O)[O-])cc8F)c8ccc5[nH]8)C=C7)C=C6)cc4)c3)C2=O)c2ccccc21
REMARK SMILES IDX 21 1 20 2 19 3 18 4 16 5 17 6 15 8 11 9 12 10 92 11 13 12
REMARK SMILES IDX 14 13 10 14 5 15 6 16 7 17 93 18 8 19 94 20 9 21 4 22 1 23
REMARK SMILES IDX 2 24 3 25 100 26 95 27 99 28 96 29 98 30 97 31 22 32 23 33
REMARK SMILES IDX 24 34 25 36 26 37 27 38 91 39 28 40 90 41 29 42 30 43 31 44
REMARK SMILES IDX 84 45 32 46 89 47 83 48 85 49 33 50 88 51 82 52 81 53 34 55
REMARK SMILES IDX 68 56 47 57 67 58 48 59 51 60 66 61 86 62 49 63 50 64 65 66
REMARK SMILES IDX 87 67 52 68 35 69 36 70 45 71 37 72 38 73 44 74 46 75 39 76
REMARK SMILES IDX 40 77 41 78 42 79 43 80 69 81 70 82 79 83 71 84 72 85 78 86
REMARK SMILES IDX 80 87 73 88 74 89 75 90 76 91 77 92 53 93 54 94 63 95 55 96
REMARK SMILES IDX 56 97 62 98 64 99 57 100 58 101 59 102 60 103 61 104
REMARK H PARENT 18 7 23 35 85 54 51 65
REMARK Flexibility Score: inf
ROOT
ATOM      1  C   UNL A   1      34.710  29.816  27.113  1.00  0.00     0.023 C 
ENDROOT
BRANCH   1   2
ATOM      2  C   UNL A   1      33.301  30.349  26.891  1.00  0.00     0.023 C 
BRANCH   2   3
ATOM      3  C   UNL A   1      32.327  29.429  26.166  1.00  0.00     0.116 C 
BRANCH   3   4
ATOM      4  N   UNL A   1      31.698  30.002  24.987  1.00  0.00    -0.352 N 
ATOM      5  C   UNL A   1      30.784  29.473  24.099  1.00  0.00     0.251 C 
ATOM      6  O   UNL A   1      30.390  30.164  23.161  1.00  0.00    -0.269 OA
ATOM      7  H   UNL A   1      31.971  30.926  24.787  1.00  0.00     0.163 HD
BRANCH   5   8
ATOM      8  C   UNL A   1      30.319  28.064  24.198  1.00  0.00     0.041 A 
ATOM      9  C   UNL A   1      30.779  25.710  24.592  1.00  0.00     0.051 A 
ATOM     10  C   UNL A   1      29.569  25.391  23.960  1.00  0.00     0.027 A 
ATOM     11  C   UNL A   1      31.088  27.061  24.795  1.00  0.00     0.040 A 
ATOM     12  C   UNL A   1      28.709  26.396  23.511  1.00  0.00     0.003 A 
ATOM     13  C   UNL A   1      29.097  27.730  23.603  1.00  0.00     0.014 A 
BRANCH   9  14
ATOM     14  N   UNL A   1      31.770  24.705  24.841  1.00  0.00    -0.261 N 
ATOM     15  C   UNL A   1      35.179  23.659  24.156  1.00  0.00     0.031 C 
ATOM     16  C   UNL A   1      33.934  23.761  24.650  1.00  0.00     0.081 C 
ATOM     17  S   UNL A   1      33.260  22.936  25.994  1.00  0.00    -0.054 SA
ATOM     18  C   UNL A   1      32.947  24.721  24.089  1.00  0.00     0.270 C 
ATOM     19  C   UNL A   1      31.718  23.776  25.872  1.00  0.00     0.152 C 
ATOM     20  O   UNL A   1      33.216  25.432  23.126  1.00  0.00    -0.268 OA
ATOM     21  S   UNL A   1      30.438  23.332  26.853  1.00  0.00    -0.051 S 
BRANCH  15  22
ATOM     22  C   UNL A   1      36.208  22.773  24.598  1.00  0.00     0.001 A 
ATOM     23  C   UNL A   1      37.783  19.528  24.805  1.00  0.00     0.149 C 
ATOM     24  N   UNL A   1      37.389  20.917  24.880  1.00  0.00    -0.350 N 
ATOM     25  C   UNL A   1      36.295  21.444  24.251  1.00  0.00     0.094 A 
ATOM     26  C   UNL A   1      38.047  21.893  25.598  1.00  0.00     0.048 A 
ATOM     27  C   UNL A   1      37.329  23.082  25.426  1.00  0.00     0.007 A 
ATOM     28  C   UNL A   1      39.206  21.826  26.390  1.00  0.00     0.027 A 
ATOM     29  C   UNL A   1      37.795  24.249  26.071  1.00  0.00     0.011 A 
ATOM     30  C   UNL A   1      39.643  22.995  27.017  1.00  0.00     0.002 A 
ATOM     31  C   UNL A   1      38.951  24.191  26.861  1.00  0.00     0.001 A 
ENDBRANCH  15  22
ENDBRANCH   9  14
ENDBRANCH   5   8
ENDBRANCH   3   4
ENDBRANCH   2   3
ENDBRANCH   1   2
BRANCH   1  32
ATOM     32  C   UNL A   1      35.593  30.613  28.063  1.00  0.00     0.116 C 
BRANCH  32  33
ATOM     33  N   UNL A   1      35.551  30.155  29.444  1.00  0.00    -0.352 N 
ATOM     34  C   UNL A   1      36.574  29.730  30.266  1.00  0.00     0.251 C 
ATOM     35  H   UNL A   1      34.655  30.148  29.854  1.00  0.00     0.163 HD
ATOM     36  O   UNL A   1      36.323  29.328  31.391  1.00  0.00    -0.269 OA
BRANCH  34  37
ATOM     37  C   UNL A   1      37.967  29.713  29.761  1.00  0.00     0.039 A 
ATOM     38  C   UNL A   1      39.013  29.653  30.686  1.00  0.00     0.014 A 
ATOM     39  C   UNL A   1      38.240  29.714  28.392  1.00  0.00     0.014 A 
ATOM     40  C   UNL A   1      40.327  29.491  30.235  1.00  0.00     0.010 A 
ATOM     41  C   UNL A   1      39.536  29.472  27.948  1.00  0.00     0.010 A 
ATOM     42  C   UNL A   1      40.592  29.346  28.864  1.00  0.00    -0.014 A 
BRANCH  42  43
ATOM     43  C   UNL A   1      41.957  29.034  28.366  1.00  0.00     0.031 A 
ATOM     44  C   UNL A   1      42.309  27.636  27.943  1.00  0.00     0.074 A 
ATOM     45  C   UNL A   1      42.908  29.990  28.391  1.00  0.00     0.049 A 
ATOM     46  N   UNL A   1      43.467  27.150  27.578  1.00  0.00    -0.248 NA
ATOM     47  C   UNL A   1      41.223  26.644  27.971  1.00  0.00     0.031 C 
ATOM     48  C   UNL A   1      42.713  31.367  28.851  1.00  0.00     0.029 A 
ATOM     49  N   UNL A   1      44.235  29.943  28.042  1.00  0.00    -0.354 N 
ATOM     50  C   UNL A   1      43.256  25.794  27.357  1.00  0.00     0.074 A 
ATOM     51  C   UNL A   1      41.869  25.527  27.677  1.00  0.00     0.031 C 
ATOM     52  C   UNL A   1      43.874  32.033  28.749  1.00  0.00     0.029 A 
ATOM     53  C   UNL A   1      44.902  31.128  28.247  1.00  0.00     0.049 A 
ATOM     54  H   UNL A   1      44.668  29.137  27.680  1.00  0.00     0.167 HD
ATOM     55  C   UNL A   1      44.129  24.861  26.906  1.00  0.00     0.037 A 
ATOM     56  C   UNL A   1      46.197  31.449  28.060  1.00  0.00     0.037 A 
ATOM     57  C   UNL A   1      45.498  25.138  26.559  1.00  0.00     0.049 A 
ATOM     58  C   UNL A   1      47.140  30.413  27.514  1.00  0.00     0.074 A 
ATOM     59  C   UNL A   1      46.442  24.280  26.022  1.00  0.00     0.029 A 
ATOM     60  N   UNL A   1      46.121  26.368  26.719  1.00  0.00    -0.354 N 
ATOM     61  N   UNL A   1      46.903  29.154  27.233  1.00  0.00    -0.248 NA
ATOM     62  C   UNL A   1      48.519  30.841  27.248  1.00  0.00     0.031 C 
ATOM     63  C   UNL A   1      47.644  24.984  25.886  1.00  0.00     0.029 A 
ATOM     64  C   UNL A   1      47.440  26.289  26.303  1.00  0.00     0.049 A 
ATOM     65  H   UNL A   1      45.688  27.178  27.075  1.00  0.00     0.167 HD
ATOM     66  C   UNL A   1      48.099  28.643  26.742  1.00  0.00     0.074 A 
ATOM     67  C   UNL A   1      49.054  29.733  26.753  1.00  0.00     0.031 C 
ATOM     68  C   UNL A   1      48.379  27.384  26.322  1.00  0.00     0.037 A 
BRANCH  55  69
ATOM     69  C   UNL A   1      43.615  23.455  26.764  1.00  0.00     0.058 A 
ATOM     70  C   UNL A   1      43.382  22.640  27.884  1.00  0.00     0.135 A 
ATOM     71  C   UNL A   1      43.368  22.909  25.494  1.00  0.00     0.135 A 
ATOM     72  F   UNL A   1      43.613  23.108  29.121  1.00  0.00    -0.206 F 
ATOM     73  C   UNL A   1      42.973  21.318  27.749  1.00  0.00     0.059 A 
ATOM     74  C   UNL A   1      42.932  21.596  25.337  1.00  0.00     0.059 A 
ATOM     75  F   UNL A   1      43.569  23.645  24.390  1.00  0.00    -0.206 F 
ATOM     76  C   UNL A   1      42.762  20.801  26.470  1.00  0.00     0.060 A 
BRANCH  76  77
ATOM     77  S   UNL A   1      42.271  19.072  26.305  1.00  0.00     0.124 S 
ATOM     78  O   UNL A   1      43.293  18.567  25.394  1.00  0.00    -0.237 OA
ATOM     79  O   UNL A   1      42.354  18.587  27.679  1.00  0.00    -0.237 OA
ATOM     80  O   UNL A   1      40.922  19.154  25.753  1.00  0.00    -0.744 OA
ENDBRANCH  76  77
ENDBRANCH  55  69
BRANCH  56  81
ATOM     81  C   UNL A   1      46.661  32.825  28.372  1.00  0.00     0.058 A 
ATOM     82  C   UNL A   1      47.199  33.137  29.628  1.00  0.00     0.135 A 
ATOM     83  C   UNL A   1      46.632  33.838  27.400  1.00  0.00     0.135 A 
ATOM     84  F   UNL A   1      47.242  32.203  30.590  1.00  0.00    -0.206 F 
ATOM     85  C   UNL A   1      47.694  34.406  29.913  1.00  0.00     0.059 A 
ATOM     86  C   UNL A   1      47.138  35.110  27.656  1.00  0.00     0.059 A 
ATOM     87  F   UNL A   1      46.142  33.583  26.177  1.00  0.00    -0.206 F 
ATOM     88  C   UNL A   1      47.666  35.384  28.917  1.00  0.00     0.060 A 
BRANCH  88  89
ATOM     89  S   UNL A   1      48.392  37.000  29.267  1.00  0.00     0.124 S 
ATOM     90  O   UNL A   1      47.650  37.860  28.354  1.00  0.00    -0.237 OA
ATOM     91  O   UNL A   1      48.096  37.169  30.687  1.00  0.00    -0.237 OA
ATOM     92  O   UNL A   1      49.804  36.807  28.951  1.00  0.00    -0.744 OA
ENDBRANCH  88  89
ENDBRANCH  56  81
BRANCH  68  93
ATOM     93  C   UNL A   1      49.771  27.118  25.821  1.00  0.00     0.058 A 
ATOM     94  C   UNL A   1      50.811  26.768  26.695  1.00  0.00     0.135 A 
ATOM     95  C   UNL A   1      50.053  27.161  24.446  1.00  0.00     0.135 A 
ATOM     96  F   UNL A   1      50.595  26.721  28.019  1.00  0.00    -0.206 F 
ATOM     97  C   UNL A   1      52.089  26.485  26.224  1.00  0.00     0.059 A 
ATOM     98  C   UNL A   1      51.318  26.860  23.952  1.00  0.00     0.059 A 
ATOM     99  F   UNL A   1      49.089  27.483  23.568  1.00  0.00    -0.206 F 
ATOM    100  C   UNL A   1      52.333  26.534  24.851  1.00  0.00     0.060 A 
BRANCH 100 101
ATOM    101  S   UNL A   1      53.986  26.127  24.246  1.00  0.00     0.124 S 
ATOM    102  O   UNL A   1      53.842  26.372  22.815  1.00  0.00    -0.237 OA
ATOM    103  O   UNL A   1      54.828  27.076  24.970  1.00  0.00    -0.237 OA
ATOM    104  O   UNL A   1      54.153  24.729  24.632  1.00  0.00    -0.744 OA
ENDBRANCH 100 101
ENDBRANCH  68  93
ENDBRANCH  42  43
ENDBRANCH  34  37
ENDBRANCH  32  33
ENDBRANCH   1  32
TORSDOF 16
ENDMDL
MODEL 3
REMARK VINA RESULT:     -12.8      3.205      9.033
REMARK SMILES Cn1cc(/C=C2\SC(=S)N(c3cccc(C(=O)NCCCCNC(=O)c4ccc(-c5c6nc(c(-c7c(F)cc(S(=O)(=O)[O-])cc7F)c7ccc([nH]7)c(-c7c(F)cc(S(=O)(=O)[O-])cc7F)c7nc(c(-c8c(F)cc(S(=O)(=O)[O-])cc8F)c8ccc5[nH]8)C=C7)C=C6)cc4)c3)C2=O)c2ccccc21
REMARK SMILES IDX 21 1 20 2 19 3 18 4 16 5 17 6 15 8 11 9 12 10 92 11 13 12
REMARK SMILES IDX 14 13 10 14 5 15 6 16 7 17 93 18 8 19 94 20 9 21 4 22 1 23
REMARK SMILES IDX 2 24 3 25 100 26 95 27 99 28 96 29 98 30 97 31 22 32 23 33
REMARK SMILES IDX 24 34 25 36 26 37 27 38 91 39 28 40 90 41 29 42 30 43 31 44
REMARK SMILES IDX 84 45 32 46 89 47 83 48 85 49 33 50 88 51 82 52 81 53 34 55
REMARK SMILES IDX 68 56 47 57 67 58 48 59 51 60 66 61 86 62 49 63 50 64 65 66
REMARK SMILES IDX 87 67 52 68 35 69 36 70 45 71 37 72 38 73 44 74 46 75 39 76
REMARK SMILES IDX 40 77 41 78 42 79 43 80 69 81 70 82 79 83 71 84 72 85 78 86
REMARK SMILES IDX 80 87 73 88 74 89 75 90 76 91 77 92 53 93 54 94 63 95 55 96
REMARK SMILES IDX 56 97 62 98 64 99 57 100 58 101 59 102 60 103 61 104
REMARK H PARENT 18 7 23 35 85 54 51 65
REMARK Flexibility Score: inf
ROOT
ATOM      1  C   UNL A   1      33.022  29.662  25.446  1.00  0.00     0.023 C 
ENDROOT
BRANCH   1   2
ATOM      2  C   UNL A   1      31.514  29.608  25.652  1.00  0.00     0.023 C 
BRANCH   2   3
ATOM      3  C   UNL A   1      30.694  30.714  25.002  1.00  0.00     0.116 C 
BRANCH   3   4
ATOM      4  N   UNL A   1      30.548  30.609  23.559  1.00  0.00    -0.352 N 
ATOM      5  C   UNL A   1      30.168  29.550  22.761  1.00  0.00     0.251 C 
ATOM      6  O   UNL A   1      30.117  29.708  21.542  1.00  0.00    -0.269 OA
ATOM      7  H   UNL A   1      30.755  31.436  23.067  1.00  0.00     0.163 HD
BRANCH   5   8
ATOM      8  C   UNL A   1      29.893  28.202  23.324  1.00  0.00     0.041 A 
ATOM      9  C   UNL A   1      30.626  25.948  23.864  1.00  0.00     0.051 A 
ATOM     10  C   UNL A   1      29.282  25.560  23.964  1.00  0.00     0.027 A 
ATOM     11  C   UNL A   1      30.912  27.301  23.645  1.00  0.00     0.040 A 
ATOM     12  C   UNL A   1      28.254  26.493  23.814  1.00  0.00     0.003 A 
ATOM     13  C   UNL A   1      28.558  27.807  23.465  1.00  0.00     0.014 A 
BRANCH   9  14
ATOM     14  N   UNL A   1      31.672  24.973  23.779  1.00  0.00    -0.261 N 
ATOM     15  C   UNL A   1      33.157  22.061  25.361  1.00  0.00     0.031 C 
ATOM     16  C   UNL A   1      32.850  23.050  24.506  1.00  0.00     0.081 C 
ATOM     17  S   UNL A   1      33.373  23.244  22.885  1.00  0.00    -0.054 SA
ATOM     18  C   UNL A   1      31.898  24.132  24.872  1.00  0.00     0.270 C 
ATOM     19  C   UNL A   1      32.411  24.697  22.636  1.00  0.00     0.152 C 
ATOM     20  O   UNL A   1      31.385  24.189  25.985  1.00  0.00    -0.268 OA
ATOM     21  S   UNL A   1      32.556  25.571  21.216  1.00  0.00    -0.051 S 
BRANCH  15  22
ATOM     22  C   UNL A   1      34.059  20.979  25.133  1.00  0.00     0.001 A 
ATOM     23  C   UNL A   1      37.370  19.554  24.884  1.00  0.00     0.149 C 
ATOM     24  N   UNL A   1      35.955  19.845  24.932  1.00  0.00    -0.350 N 
ATOM     25  C   UNL A   1      35.428  21.066  25.248  1.00  0.00     0.094 A 
ATOM     26  C   UNL A   1      34.949  18.944  24.656  1.00  0.00     0.048 A 
ATOM     27  C   UNL A   1      33.736  19.631  24.790  1.00  0.00     0.007 A 
ATOM     28  C   UNL A   1      35.004  17.588  24.292  1.00  0.00     0.027 A 
ATOM     29  C   UNL A   1      32.535  18.928  24.553  1.00  0.00     0.011 A 
ATOM     30  C   UNL A   1      33.801  16.918  24.063  1.00  0.00     0.002 A 
ATOM     31  C   UNL A   1      32.582  17.575  24.191  1.00  0.00     0.001 A 
ENDBRANCH  15  22
ENDBRANCH   9  14
ENDBRANCH   5   8
ENDBRANCH   3   4
ENDBRANCH   2   3
ENDBRANCH   1   2
BRANCH   1  32
ATOM     32  C   UNL A   1      33.881  29.519  26.695  1.00  0.00     0.116 C 
BRANCH  32  33
ATOM     33  N   UNL A   1      33.746  30.616  27.642  1.00  0.00    -0.352 N 
ATOM     34  C   UNL A   1      34.638  31.087  28.583  1.00  0.00     0.251 C 
ATOM     35  H   UNL A   1      32.886  31.094  27.605  1.00  0.00     0.163 HD
ATOM     36  O   UNL A   1      34.312  31.995  29.330  1.00  0.00    -0.269 OA
BRANCH  34  37
ATOM     37  C   UNL A   1      35.972  30.452  28.717  1.00  0.00     0.039 A 
ATOM     38  C   UNL A   1      36.847  30.498  27.628  1.00  0.00     0.014 A 
ATOM     39  C   UNL A   1      36.372  29.857  29.915  1.00  0.00     0.014 A 
ATOM     40  C   UNL A   1      38.158  30.037  27.774  1.00  0.00     0.010 A 
ATOM     41  C   UNL A   1      37.700  29.474  30.083  1.00  0.00     0.010 A 
ATOM     42  C   UNL A   1      38.610  29.570  29.019  1.00  0.00    -0.014 A 
BRANCH  42  43
ATOM     43  C   UNL A   1      40.033  29.204  29.241  1.00  0.00     0.031 A 
ATOM     44  C   UNL A   1      41.014  30.234  29.729  1.00  0.00     0.074 A 
ATOM     45  C   UNL A   1      40.462  27.971  28.906  1.00  0.00     0.049 A 
ATOM     46  N   UNL A   1      42.308  30.133  29.886  1.00  0.00    -0.248 NA
ATOM     47  C   UNL A   1      40.470  31.564  30.046  1.00  0.00     0.031 C 
ATOM     48  C   UNL A   1      39.626  26.905  28.350  1.00  0.00     0.029 A 
ATOM     49  N   UNL A   1      41.715  27.412  28.962  1.00  0.00    -0.354 N 
ATOM     50  C   UNL A   1      42.738  31.389  30.296  1.00  0.00     0.074 A 
ATOM     51  C   UNL A   1      41.572  32.247  30.315  1.00  0.00     0.031 C 
ATOM     52  C   UNL A   1      40.386  25.822  28.124  1.00  0.00     0.029 A 
ATOM     53  C   UNL A   1      41.766  26.122  28.489  1.00  0.00     0.049 A 
ATOM     54  H   UNL A   1      42.503  27.890  29.309  1.00  0.00     0.167 HD
ATOM     55  C   UNL A   1      43.984  31.787  30.647  1.00  0.00     0.037 A 
ATOM     56  C   UNL A   1      42.808  25.278  28.354  1.00  0.00     0.037 A 
ATOM     57  C   UNL A   1      45.135  30.921  30.657  1.00  0.00     0.049 A 
ATOM     58  C   UNL A   1      44.175  25.722  28.794  1.00  0.00     0.074 A 
ATOM     59  C   UNL A   1      46.425  31.207  31.069  1.00  0.00     0.029 A 
ATOM     60  N   UNL A   1      45.134  29.600  30.232  1.00  0.00    -0.354 N 
ATOM     61  N   UNL A   1      44.550  26.890  29.257  1.00  0.00    -0.248 NA
ATOM     62  C   UNL A   1      45.257  24.732  28.706  1.00  0.00     0.031 C 
ATOM     63  C   UNL A   1      47.211  30.067  30.863  1.00  0.00     0.029 A 
ATOM     64  C   UNL A   1      46.403  29.060  30.359  1.00  0.00     0.049 A 
ATOM     65  H   UNL A   1      44.346  29.117  29.891  1.00  0.00     0.167 HD
ATOM     66  C   UNL A   1      45.908  26.772  29.530  1.00  0.00     0.074 A 
ATOM     67  C   UNL A   1      46.285  25.414  29.194  1.00  0.00     0.031 C 
ATOM     68  C   UNL A   1      46.764  27.706  30.016  1.00  0.00     0.037 A 
BRANCH  55  69
ATOM     69  C   UNL A   1      44.156  33.225  31.051  1.00  0.00     0.058 A 
ATOM     70  C   UNL A   1      44.494  34.217  30.116  1.00  0.00     0.135 A 
ATOM     71  C   UNL A   1      43.998  33.615  32.391  1.00  0.00     0.135 A 
ATOM     72  F   UNL A   1      44.669  33.896  28.824  1.00  0.00    -0.206 F 
ATOM     73  C   UNL A   1      44.719  35.533  30.502  1.00  0.00     0.059 A 
ATOM     74  C   UNL A   1      44.193  34.933  32.794  1.00  0.00     0.059 A 
ATOM     75  F   UNL A   1      43.671  32.709  33.326  1.00  0.00    -0.206 F 
ATOM     76  C   UNL A   1      44.578  35.880  31.846  1.00  0.00     0.060 A 
BRANCH  76  77
ATOM     77  S   UNL A   1      44.914  37.583  32.342  1.00  0.00     0.124 S 
ATOM     78  O   UNL A   1      43.942  38.314  31.535  1.00  0.00    -0.237 OA
ATOM     79  O   UNL A   1      44.650  37.553  33.776  1.00  0.00    -0.237 OA
ATOM     80  O   UNL A   1      46.312  37.775  31.969  1.00  0.00    -0.744 OA
ENDBRANCH  76  77
ENDBRANCH  55  69
BRANCH  56  81
ATOM     81  C   UNL A   1      42.579  23.919  27.800  1.00  0.00     0.058 A 
ATOM     82  C   UNL A   1      42.540  23.703  26.416  1.00  0.00     0.135 A 
ATOM     83  C   UNL A   1      42.458  22.802  28.642  1.00  0.00     0.135 A 
ATOM     84  F   UNL A   1      42.646  24.740  25.571  1.00  0.00    -0.206 F 
ATOM     85  C   UNL A   1      42.388  22.427  25.882  1.00  0.00     0.059 A 
ATOM     86  C   UNL A   1      42.324  21.514  28.132  1.00  0.00     0.059 A 
ATOM     87  F   UNL A   1      42.507  22.956  29.974  1.00  0.00    -0.206 F 
ATOM     88  C   UNL A   1      42.289  21.337  26.749  1.00  0.00     0.060 A 
BRANCH  88  89
ATOM     89  S   UNL A   1      42.184  19.676  26.047  1.00  0.00     0.124 S 
ATOM     90  O   UNL A   1      42.544  18.849  27.192  1.00  0.00    -0.237 OA
ATOM     91  O   UNL A   1      40.788  19.609  25.625  1.00  0.00    -0.237 OA
ATOM     92  O   UNL A   1      43.156  19.711  24.960  1.00  0.00    -0.744 OA
ENDBRANCH  88  89
ENDBRANCH  56  81
BRANCH  68  93
ATOM     93  C   UNL A   1      48.191  27.288  30.230  1.00  0.00     0.058 A 
ATOM     94  C   UNL A   1      49.164  27.462  29.234  1.00  0.00     0.135 A 
ATOM     95  C   UNL A   1      48.600  26.758  31.464  1.00  0.00     0.135 A 
ATOM     96  F   UNL A   1      48.822  27.957  28.035  1.00  0.00    -0.206 F 
ATOM     97  C   UNL A   1      50.492  27.109  29.449  1.00  0.00     0.059 A 
ATOM     98  C   UNL A   1      49.927  26.419  31.709  1.00  0.00     0.059 A 
ATOM     99  F   UNL A   1      47.708  26.580  32.453  1.00  0.00    -0.206 F 
ATOM    100  C   UNL A   1      50.865  26.589  30.690  1.00  0.00     0.060 A 
BRANCH 100 101
ATOM    101  S   UNL A   1      52.598  26.170  30.972  1.00  0.00     0.124 S 
ATOM    102  O   UNL A   1      53.079  25.979  29.608  1.00  0.00    -0.237 OA
ATOM    103  O   UNL A   1      53.101  27.355  31.661  1.00  0.00    -0.237 OA
ATOM    104  O   UNL A   1      52.526  24.962  31.789  1.00  0.00    -0.744 OA
ENDBRANCH 100 101
ENDBRANCH  68  93
ENDBRANCH  42  43
ENDBRANCH  34  37
ENDBRANCH  32  33
ENDBRANCH   1  32
TORSDOF 16
ENDMDL
