MODEL 1
REMARK VINA RESULT:     -13.1      0.000      0.000
REMARK SMILES O=C1C[C@H](C(=O)NCCCCNC(=O)c2ccc(-c3c4nc(c(-c5c(F)cc(S(=O)(=O)[O-])cc5F)c5ccc([nH]5)c(-c5c(F)cc(S(=O)(=O)[O-])cc5F)c5nc(c(-c6c(F)cc(S(=O)(=O)[O-])cc6F)c6ccc3[nH]6)C=C5)C=C4)cc2)c2c(nc(Nc3ccc(Oc4ccccc4)cc3)[nH]c2=O)N1
REMARK SMILES IDX 9 1 8 2 7 3 5 4 6 5 4 7 1 8 2 9 3 10 102 11 82 12 81 14
REMARK SMILES IDX 83 15 100 16 84 17 99 18 101 19 85 21 86 23 87 24 98 25
REMARK SMILES IDX 88 26 97 27 89 28 90 29 91 30 92 31 96 32 93 33 95 34 94 35
REMARK SMILES IDX 10 36 11 37 12 38 13 39 14 41 15 42 16 43 80 44 17 45 79 46
REMARK SMILES IDX 18 47 19 48 20 49 73 50 21 51 78 52 72 53 74 54 22 55 77 56
REMARK SMILES IDX 71 57 70 58 23 60 57 61 36 62 56 63 37 64 40 65 55 66 75 67
REMARK SMILES IDX 38 68 39 69 54 71 76 72 41 73 24 74 25 75 34 76 26 77 27 78
REMARK SMILES IDX 33 79 35 80 28 81 29 82 30 83 31 84 32 85 58 86 59 87 68 88
REMARK SMILES IDX 60 89 61 90 67 91 69 92 62 93 63 94 64 95 65 96 66 97 42 98
REMARK SMILES IDX 43 99 52 100 44 101 45 102 51 103 53 104 46 105 47 106
REMARK SMILES IDX 48 107 49 108 50 109
REMARK H PARENT 7 6 102 13 99 20 85 22 12 40 74 59 40 70
REMARK Flexibility Score: inf
ROOT
ATOM      1  C   UNL A   1      33.921  31.263  27.749  1.00  0.00     0.023 C 
ENDROOT
BRANCH   1   2
ATOM      2  C   UNL A   1      32.809  30.717  26.859  1.00  0.00     0.116 C 
BRANCH   2   3
ATOM      3  N   UNL A   1      33.334  30.162  25.626  1.00  0.00    -0.356 N 
ATOM      4  C   UNL A   1      32.752  29.363  24.686  1.00  0.00     0.228 C 
ATOM      5  O   UNL A   1      33.468  28.916  23.787  1.00  0.00    -0.274 OA
ATOM      6  H   UNL A   1      34.270  30.402  25.435  1.00  0.00     0.163 HD
BRANCH   4   7
ATOM      7  C   UNL A   1      31.274  28.977  24.762  1.00  0.00     0.127 C 
ATOM      8  O   UNL A   1      28.678  29.003  22.114  1.00  0.00    -0.275 OA
ATOM      9  C   UNL A   1      29.488  28.603  22.947  1.00  0.00     0.226 C 
ATOM     10  C   UNL A   1      30.545  29.514  23.523  1.00  0.00     0.119 C 
ATOM     11  N   UNL A   1      29.506  27.298  23.331  1.00  0.00    -0.310 N 
ATOM     12  C   UNL A   1      30.287  26.747  24.295  1.00  0.00     0.146 A 
ATOM     13  H   UNL A   1      28.891  26.690  22.860  1.00  0.00     0.171 HD
ATOM     14  C   UNL A   1      31.109  27.512  25.015  1.00  0.00     0.073 A 
ATOM     15  N   UNL A   1      30.133  25.408  24.432  1.00  0.00    -0.196 NA
ATOM     16  C   UNL A   1      31.861  26.825  26.081  1.00  0.00     0.258 A 
ATOM     17  C   UNL A   1      30.824  24.789  25.341  1.00  0.00     0.209 A 
ATOM     18  N   UNL A   1      31.681  25.474  26.155  1.00  0.00    -0.292 N 
ATOM     19  O   UNL A   1      32.592  27.415  26.866  1.00  0.00    -0.269 OA
ATOM     20  H   UNL A   1      32.193  24.970  26.828  1.00  0.00     0.173 HD
BRANCH  17  21
ATOM     21  N   UNL A   1      30.718  23.440  25.565  1.00  0.00    -0.326 N 
ATOM     22  H   UNL A   1      29.897  23.094  25.982  1.00  0.00     0.170 HD
BRANCH  21  23
ATOM     23  C   UNL A   1      31.736  22.534  25.226  1.00  0.00     0.041 A 
ATOM     24  C   UNL A   1      32.570  22.008  26.216  1.00  0.00     0.030 A 
ATOM     25  C   UNL A   1      31.836  22.034  23.922  1.00  0.00     0.030 A 
ATOM     26  C   UNL A   1      33.476  20.985  25.909  1.00  0.00     0.049 A 
ATOM     27  C   UNL A   1      32.747  21.025  23.611  1.00  0.00     0.049 A 
ATOM     28  C   UNL A   1      33.571  20.493  24.605  1.00  0.00     0.127 A 
BRANCH  28  29
ATOM     29  O   UNL A   1      34.471  19.462  24.415  1.00  0.00    -0.457 OA
BRANCH  29  30
ATOM     30  C   UNL A   1      34.019  18.191  24.674  1.00  0.00     0.127 A 
ATOM     31  C   UNL A   1      34.941  17.146  24.722  1.00  0.00     0.047 A 
ATOM     32  C   UNL A   1      32.662  17.959  24.899  1.00  0.00     0.047 A 
ATOM     33  C   UNL A   1      34.507  15.865  25.064  1.00  0.00     0.004 A 
ATOM     34  C   UNL A   1      32.233  16.680  25.247  1.00  0.00     0.004 A 
ATOM     35  C   UNL A   1      33.156  15.636  25.338  1.00  0.00     0.000 A 
ENDBRANCH  29  30
ENDBRANCH  28  29
ENDBRANCH  21  23
ENDBRANCH  17  21
ENDBRANCH   4   7
ENDBRANCH   2   3
ENDBRANCH   1   2
BRANCH   1  36
ATOM     36  C   UNL A   1      35.265  30.558  27.581  1.00  0.00     0.023 C 
BRANCH  36  37
ATOM     37  C   UNL A   1      35.699  29.727  28.781  1.00  0.00     0.116 C 
BRANCH  37  38
ATOM     38  N   UNL A   1      35.604  30.463  30.034  1.00  0.00    -0.352 N 
ATOM     39  C   UNL A   1      36.614  30.773  30.913  1.00  0.00     0.251 C 
ATOM     40  H   UNL A   1      34.705  30.778  30.284  1.00  0.00     0.163 HD
ATOM     41  O   UNL A   1      36.368  31.271  32.006  1.00  0.00    -0.269 OA
BRANCH  39  42
ATOM     42  C   UNL A   1      38.001  30.467  30.518  1.00  0.00     0.039 A 
ATOM     43  C   UNL A   1      38.827  29.779  31.409  1.00  0.00     0.014 A 
ATOM     44  C   UNL A   1      38.443  30.792  29.233  1.00  0.00     0.014 A 
ATOM     45  C   UNL A   1      40.088  29.362  30.984  1.00  0.00     0.010 A 
ATOM     46  C   UNL A   1      39.672  30.318  28.791  1.00  0.00     0.010 A 
ATOM     47  C   UNL A   1      40.507  29.606  29.666  1.00  0.00    -0.014 A 
BRANCH  47  48
ATOM     48  C   UNL A   1      41.840  29.165  29.194  1.00  0.00     0.031 A 
ATOM     49  C   UNL A   1      42.980  30.142  29.197  1.00  0.00     0.074 A 
ATOM     50  C   UNL A   1      42.015  27.910  28.737  1.00  0.00     0.049 A 
ATOM     51  N   UNL A   1      44.215  29.971  28.805  1.00  0.00    -0.248 NA
ATOM     52  C   UNL A   1      42.688  31.498  29.694  1.00  0.00     0.031 C 
ATOM     53  C   UNL A   1      40.975  26.882  28.668  1.00  0.00     0.029 A 
ATOM     54  N   UNL A   1      43.133  27.286  28.245  1.00  0.00    -0.354 N 
ATOM     55  C   UNL A   1      44.848  31.188  29.021  1.00  0.00     0.074 A 
ATOM     56  C   UNL A   1      43.846  32.111  29.504  1.00  0.00     0.031 C 
ATOM     57  C   UNL A   1      41.512  25.747  28.191  1.00  0.00     0.029 A 
ATOM     58  C   UNL A   1      42.924  25.974  27.890  1.00  0.00     0.049 A 
ATOM     59  H   UNL A   1      44.005  27.735  28.154  1.00  0.00     0.167 HD
ATOM     60  C   UNL A   1      46.157  31.498  28.865  1.00  0.00     0.037 A 
ATOM     61  C   UNL A   1      43.777  25.061  27.386  1.00  0.00     0.037 A 
ATOM     62  C   UNL A   1      47.148  30.575  28.381  1.00  0.00     0.049 A 
ATOM     63  C   UNL A   1      45.214  25.449  27.155  1.00  0.00     0.074 A 
ATOM     64  C   UNL A   1      48.502  30.787  28.197  1.00  0.00     0.029 A 
ATOM     65  N   UNL A   1      46.891  29.266  28.001  1.00  0.00    -0.354 N 
ATOM     66  N   UNL A   1      45.808  26.592  27.402  1.00  0.00    -0.248 NA
ATOM     67  C   UNL A   1      46.096  24.424  26.581  1.00  0.00     0.031 C 
ATOM     68  C   UNL A   1      49.056  29.620  27.663  1.00  0.00     0.029 A 
ATOM     69  C   UNL A   1      48.058  28.663  27.563  1.00  0.00     0.049 A 
ATOM     70  H   UNL A   1      46.009  28.829  28.038  1.00  0.00     0.167 HD
ATOM     71  C   UNL A   1      47.140  26.417  27.041  1.00  0.00     0.074 A 
ATOM     72  C   UNL A   1      47.265  25.053  26.566  1.00  0.00     0.031 C 
ATOM     73  C   UNL A   1      48.166  27.301  27.100  1.00  0.00     0.037 A 
BRANCH  60  74
ATOM     74  C   UNL A   1      46.585  32.889  29.239  1.00  0.00     0.058 A 
ATOM     75  C   UNL A   1      46.999  33.199  30.546  1.00  0.00     0.135 A 
ATOM     76  C   UNL A   1      46.610  33.917  28.283  1.00  0.00     0.135 A 
ATOM     77  F   UNL A   1      46.976  32.259  31.503  1.00  0.00    -0.206 F 
ATOM     78  C   UNL A   1      47.395  34.484  30.897  1.00  0.00     0.059 A 
ATOM     79  C   UNL A   1      47.032  35.204  28.606  1.00  0.00     0.059 A 
ATOM     80  F   UNL A   1      46.221  33.678  27.022  1.00  0.00    -0.206 F 
ATOM     81  C   UNL A   1      47.410  35.480  29.919  1.00  0.00     0.060 A 
BRANCH  81  82
ATOM     82  S   UNL A   1      47.930  37.141  30.398  1.00  0.00     0.124 S 
ATOM     83  O   UNL A   1      48.526  37.628  29.158  1.00  0.00    -0.237 OA
ATOM     84  O   UNL A   1      46.666  37.762  30.780  1.00  0.00    -0.237 OA
ATOM     85  O   UNL A   1      48.865  36.903  31.492  1.00  0.00    -0.744 OA
ENDBRANCH  81  82
ENDBRANCH  60  74
BRANCH  61  86
ATOM     86  C   UNL A   1      43.305  23.677  27.112  1.00  0.00     0.058 A 
ATOM     87  C   UNL A   1      43.006  23.270  25.803  1.00  0.00     0.135 A 
ATOM     88  C   UNL A   1      43.166  22.729  28.138  1.00  0.00     0.135 A 
ATOM     89  F   UNL A   1      43.113  24.142  24.789  1.00  0.00    -0.206 F 
ATOM     90  C   UNL A   1      42.584  21.975  25.520  1.00  0.00     0.059 A 
ATOM     91  C   UNL A   1      42.768  21.421  27.876  1.00  0.00     0.059 A 
ATOM     92  F   UNL A   1      43.449  23.064  29.406  1.00  0.00    -0.206 F 
ATOM     93  C   UNL A   1      42.476  21.055  26.563  1.00  0.00     0.060 A 
BRANCH  93  94
ATOM     94  S   UNL A   1      41.988  19.360  26.169  1.00  0.00     0.124 S 
ATOM     95  O   UNL A   1      42.349  18.657  27.394  1.00  0.00    -0.237 OA
ATOM     96  O   UNL A   1      40.558  19.509  25.915  1.00  0.00    -0.237 OA
ATOM     97  O   UNL A   1      42.797  19.042  24.996  1.00  0.00    -0.744 OA
ENDBRANCH  93  94
ENDBRANCH  61  86
BRANCH  73  98
ATOM     98  C   UNL A   1      49.525  26.828  26.664  1.00  0.00     0.058 A 
ATOM     99  C   UNL A   1      50.398  26.178  27.551  1.00  0.00     0.135 A 
ATOM    100  C   UNL A   1      49.923  26.946  25.322  1.00  0.00     0.135 A 
ATOM    101  F   UNL A   1      50.068  26.044  28.846  1.00  0.00    -0.206 F 
ATOM    102  C   UNL A   1      51.621  25.671  27.125  1.00  0.00     0.059 A 
ATOM    103  C   UNL A   1      51.128  26.420  24.867  1.00  0.00     0.059 A 
ATOM    104  F   UNL A   1      49.122  27.549  24.429  1.00  0.00    -0.206 F 
ATOM    105  C   UNL A   1      51.974  25.788  25.779  1.00  0.00     0.060 A 
BRANCH 105 106
ATOM    106  S   UNL A   1      53.539  25.075  25.234  1.00  0.00     0.124 S 
ATOM    107  O   UNL A   1      53.222  23.651  25.208  1.00  0.00    -0.237 OA
ATOM    108  O   UNL A   1      53.730  25.707  23.932  1.00  0.00    -0.237 OA
ATOM    109  O   UNL A   1      54.482  25.487  26.270  1.00  0.00    -0.744 OA
ENDBRANCH 105 106
ENDBRANCH  73  98
ENDBRANCH  47  48
ENDBRANCH  39  42
ENDBRANCH  37  38
ENDBRANCH  36  37
ENDBRANCH   1  36
TORSDOF 18
ENDMDL
MODEL 2
REMARK VINA RESULT:     -12.8      0.706      7.816
REMARK SMILES O=C1C[C@H](C(=O)NCCCCNC(=O)c2ccc(-c3c4nc(c(-c5c(F)cc(S(=O)(=O)[O-])cc5F)c5ccc([nH]5)c(-c5c(F)cc(S(=O)(=O)[O-])cc5F)c5nc(c(-c6c(F)cc(S(=O)(=O)[O-])cc6F)c6ccc3[nH]6)C=C5)C=C4)cc2)c2c(nc(Nc3ccc(Oc4ccccc4)cc3)[nH]c2=O)N1
REMARK SMILES IDX 9 1 8 2 7 3 5 4 6 5 4 7 1 8 2 9 3 10 102 11 82 12 81 14
REMARK SMILES IDX 83 15 100 16 84 17 99 18 101 19 85 21 86 23 87 24 98 25
REMARK SMILES IDX 88 26 97 27 89 28 90 29 91 30 92 31 96 32 93 33 95 34 94 35
REMARK SMILES IDX 10 36 11 37 12 38 13 39 14 41 15 42 16 43 80 44 17 45 79 46
REMARK SMILES IDX 18 47 19 48 20 49 73 50 21 51 78 52 72 53 74 54 22 55 77 56
REMARK SMILES IDX 71 57 70 58 23 60 57 61 36 62 56 63 37 64 40 65 55 66 75 67
REMARK SMILES IDX 38 68 39 69 54 71 76 72 41 73 24 74 25 75 34 76 26 77 27 78
REMARK SMILES IDX 33 79 35 80 28 81 29 82 30 83 31 84 32 85 58 86 59 87 68 88
REMARK SMILES IDX 60 89 61 90 67 91 69 92 62 93 63 94 64 95 65 96 66 97 42 98
REMARK SMILES IDX 43 99 52 100 44 101 45 102 51 103 53 104 46 105 47 106
REMARK SMILES IDX 48 107 49 108 50 109
REMARK H PARENT 7 6 102 13 99 20 85 22 12 40 74 59 40 70
REMARK Flexibility Score: inf
ROOT
ATOM      1  C   UNL A   1      33.657  30.630  27.960  1.00  0.00     0.023 C 
ENDROOT
BRANCH   1   2
ATOM      2  C   UNL A   1      32.685  30.777  26.794  1.00  0.00     0.116 C 
BRANCH   2   3
ATOM      3  N   UNL A   1      33.230  30.225  25.568  1.00  0.00    -0.356 N 
ATOM      4  C   UNL A   1      32.658  29.447  24.607  1.00  0.00     0.228 C 
ATOM      5  O   UNL A   1      33.388  28.997  23.721  1.00  0.00    -0.274 OA
ATOM      6  H   UNL A   1      34.174  30.452  25.403  1.00  0.00     0.163 HD
BRANCH   4   7
ATOM      7  C   UNL A   1      31.172  29.086  24.642  1.00  0.00     0.127 C 
ATOM      8  O   UNL A   1      28.624  29.264  21.953  1.00  0.00    -0.275 OA
ATOM      9  C   UNL A   1      29.412  28.817  22.784  1.00  0.00     0.226 C 
ATOM     10  C   UNL A   1      30.475  29.685  23.414  1.00  0.00     0.119 C 
ATOM     11  N   UNL A   1      29.400  27.497  23.116  1.00  0.00    -0.310 N 
ATOM     12  C   UNL A   1      30.154  26.894  24.070  1.00  0.00     0.146 A 
ATOM     13  H   UNL A   1      28.782  26.920  22.611  1.00  0.00     0.171 HD
ATOM     14  C   UNL A   1      30.977  27.615  24.833  1.00  0.00     0.073 A 
ATOM     15  N   UNL A   1      29.974  25.554  24.151  1.00  0.00    -0.196 NA
ATOM     16  C   UNL A   1      31.697  26.872  25.883  1.00  0.00     0.258 A 
ATOM     17  C   UNL A   1      30.637  24.887  25.045  1.00  0.00     0.209 A 
ATOM     18  N   UNL A   1      31.492  25.524  25.901  1.00  0.00    -0.292 N 
ATOM     19  O   UNL A   1      32.425  27.417  26.703  1.00  0.00    -0.269 OA
ATOM     20  H   UNL A   1      31.983  24.984  26.561  1.00  0.00     0.173 HD
BRANCH  17  21
ATOM     21  N   UNL A   1      30.503  23.533  25.214  1.00  0.00    -0.326 N 
ATOM     22  H   UNL A   1      29.616  23.170  25.437  1.00  0.00     0.170 HD
BRANCH  21  23
ATOM     23  C   UNL A   1      31.582  22.643  25.083  1.00  0.00     0.041 A 
ATOM     24  C   UNL A   1      32.339  22.284  26.202  1.00  0.00     0.030 A 
ATOM     25  C   UNL A   1      31.823  21.993  23.868  1.00  0.00     0.030 A 
ATOM     26  C   UNL A   1      33.308  21.277  26.108  1.00  0.00     0.049 A 
ATOM     27  C   UNL A   1      32.797  20.999  23.768  1.00  0.00     0.049 A 
ATOM     28  C   UNL A   1      33.543  20.634  24.890  1.00  0.00     0.127 A 
BRANCH  28  29
ATOM     29  O   UNL A   1      34.495  19.633  24.912  1.00  0.00    -0.457 OA
BRANCH  29  30
ATOM     30  C   UNL A   1      34.037  18.341  24.822  1.00  0.00     0.127 A 
ATOM     31  C   UNL A   1      33.039  17.919  25.700  1.00  0.00     0.047 A 
ATOM     32  C   UNL A   1      34.555  17.476  23.858  1.00  0.00     0.047 A 
ATOM     33  C   UNL A   1      32.509  16.636  25.567  1.00  0.00     0.004 A 
ATOM     34  C   UNL A   1      34.019  16.198  23.724  1.00  0.00     0.004 A 
ATOM     35  C   UNL A   1      32.990  15.782  24.571  1.00  0.00     0.000 A 
ENDBRANCH  29  30
ENDBRANCH  28  29
ENDBRANCH  21  23
ENDBRANCH  17  21
ENDBRANCH   4   7
ENDBRANCH   2   3
ENDBRANCH   1   2
BRANCH   1  36
ATOM     36  C   UNL A   1      35.123  30.526  27.548  1.00  0.00     0.023 C 
BRANCH  36  37
ATOM     37  C   UNL A   1      36.094  31.256  28.467  1.00  0.00     0.116 C 
BRANCH  37  38
ATOM     38  N   UNL A   1      35.873  30.944  29.873  1.00  0.00    -0.352 N 
ATOM     39  C   UNL A   1      36.673  30.208  30.713  1.00  0.00     0.251 C 
ATOM     40  H   UNL A   1      35.047  31.305  30.271  1.00  0.00     0.163 HD
ATOM     41  O   UNL A   1      36.292  29.899  31.836  1.00  0.00    -0.269 OA
BRANCH  39  42
ATOM     42  C   UNL A   1      37.994  29.777  30.219  1.00  0.00     0.039 A 
ATOM     43  C   UNL A   1      38.246  29.793  28.847  1.00  0.00     0.014 A 
ATOM     44  C   UNL A   1      38.998  29.440  31.132  1.00  0.00     0.014 A 
ATOM     45  C   UNL A   1      39.536  29.526  28.389  1.00  0.00     0.010 A 
ATOM     46  C   UNL A   1      40.295  29.240  30.678  1.00  0.00     0.010 A 
ATOM     47  C   UNL A   1      40.573  29.274  29.303  1.00  0.00    -0.014 A 
BRANCH  47  48
ATOM     48  C   UNL A   1      41.951  28.994  28.836  1.00  0.00     0.031 A 
ATOM     49  C   UNL A   1      42.310  27.603  28.399  1.00  0.00     0.074 A 
ATOM     50  C   UNL A   1      42.878  29.972  28.838  1.00  0.00     0.049 A 
ATOM     51  N   UNL A   1      43.458  27.140  27.982  1.00  0.00    -0.248 NA
ATOM     52  C   UNL A   1      41.237  26.595  28.453  1.00  0.00     0.031 C 
ATOM     53  C   UNL A   1      42.648  31.354  29.262  1.00  0.00     0.029 A 
ATOM     54  N   UNL A   1      44.199  29.951  28.471  1.00  0.00    -0.354 N 
ATOM     55  C   UNL A   1      43.243  25.795  27.710  1.00  0.00     0.074 A 
ATOM     56  C   UNL A   1      41.878  25.498  28.083  1.00  0.00     0.031 C 
ATOM     57  C   UNL A   1      43.782  32.056  29.101  1.00  0.00     0.029 A 
ATOM     58  C   UNL A   1      44.827  31.168  28.595  1.00  0.00     0.049 A 
ATOM     59  H   UNL A   1      44.656  29.141  28.148  1.00  0.00     0.167 HD
ATOM     60  C   UNL A   1      44.096  24.897  27.164  1.00  0.00     0.037 A 
ATOM     61  C   UNL A   1      46.098  31.525  28.325  1.00  0.00     0.037 A 
ATOM     62  C   UNL A   1      45.453  25.199  26.798  1.00  0.00     0.049 A 
ATOM     63  C   UNL A   1      47.050  30.491  27.783  1.00  0.00     0.074 A 
ATOM     64  C   UNL A   1      46.396  24.364  26.228  1.00  0.00     0.029 A 
ATOM     65  N   UNL A   1      46.063  26.434  26.969  1.00  0.00    -0.354 N 
ATOM     66  N   UNL A   1      46.821  29.232  27.493  1.00  0.00    -0.248 NA
ATOM     67  C   UNL A   1      48.430  30.925  27.529  1.00  0.00     0.031 C 
ATOM     68  C   UNL A   1      47.589  25.080  26.097  1.00  0.00     0.029 A 
ATOM     69  C   UNL A   1      47.376  26.377  26.536  1.00  0.00     0.049 A 
ATOM     70  H   UNL A   1      45.626  27.233  27.344  1.00  0.00     0.167 HD
ATOM     71  C   UNL A   1      48.019  28.731  26.995  1.00  0.00     0.074 A 
ATOM     72  C   UNL A   1      48.968  29.825  27.016  1.00  0.00     0.031 C 
ATOM     73  C   UNL A   1      48.306  27.480  26.558  1.00  0.00     0.037 A 
BRANCH  60  74
ATOM     74  C   UNL A   1      43.573  23.510  26.918  1.00  0.00     0.058 A 
ATOM     75  C   UNL A   1      43.374  22.606  27.975  1.00  0.00     0.135 A 
ATOM     76  C   UNL A   1      43.241  23.084  25.621  1.00  0.00     0.135 A 
ATOM     77  F   UNL A   1      43.693  22.954  29.231  1.00  0.00    -0.206 F 
ATOM     78  C   UNL A   1      42.893  21.322  27.752  1.00  0.00     0.059 A 
ATOM     79  C   UNL A   1      42.729  21.812  25.379  1.00  0.00     0.059 A 
ATOM     80  F   UNL A   1      43.416  23.905  24.574  1.00  0.00    -0.206 F 
ATOM     81  C   UNL A   1      42.571  20.934  26.451  1.00  0.00     0.060 A 
BRANCH  81  82
ATOM     82  S   UNL A   1      41.945  19.262  26.185  1.00  0.00     0.124 S 
ATOM     83  O   UNL A   1      40.528  19.516  25.943  1.00  0.00    -0.237 OA
ATOM     84  O   UNL A   1      42.717  18.823  25.028  1.00  0.00    -0.237 OA
ATOM     85  O   UNL A   1      42.254  18.580  27.438  1.00  0.00    -0.744 OA
ENDBRANCH  81  82
ENDBRANCH  60  74
BRANCH  61  86
ATOM     86  C   UNL A   1      46.529  32.936  28.518  1.00  0.00     0.058 A 
ATOM     87  C   UNL A   1      46.351  33.883  27.499  1.00  0.00     0.135 A 
ATOM     88  C   UNL A   1      47.101  33.373  29.723  1.00  0.00     0.135 A 
ATOM     89  F   UNL A   1      45.818  33.512  26.325  1.00  0.00    -0.206 F 
ATOM     90  C   UNL A   1      46.727  35.212  27.664  1.00  0.00     0.059 A 
ATOM     91  C   UNL A   1      47.463  34.703  29.921  1.00  0.00     0.059 A 
ATOM     92  F   UNL A   1      47.283  32.510  30.734  1.00  0.00    -0.206 F 
ATOM     93  C   UNL A   1      47.275  35.614  28.883  1.00  0.00     0.060 A 
BRANCH  93  94
ATOM     94  S   UNL A   1      47.698  37.357  29.103  1.00  0.00     0.124 S 
ATOM     95  O   UNL A   1      46.404  38.001  28.914  1.00  0.00    -0.237 OA
ATOM     96  O   UNL A   1      48.226  37.370  30.464  1.00  0.00    -0.237 OA
ATOM     97  O   UNL A   1      48.683  37.599  28.053  1.00  0.00    -0.744 OA
ENDBRANCH  93  94
ENDBRANCH  61  86
BRANCH  73  98
ATOM     98  C   UNL A   1      49.694  27.220  26.041  1.00  0.00     0.058 A 
ATOM     99  C   UNL A   1      50.740  26.839  26.897  1.00  0.00     0.135 A 
ATOM    100  C   UNL A   1      49.959  27.262  24.662  1.00  0.00     0.135 A 
ATOM    101  F   UNL A   1      50.541  26.789  28.224  1.00  0.00    -0.206 F 
ATOM    102  C   UNL A   1      52.002  26.522  26.406  1.00  0.00     0.059 A 
ATOM    103  C   UNL A   1      51.205  26.919  24.146  1.00  0.00     0.059 A 
ATOM    104  F   UNL A   1      48.992  27.608  23.797  1.00  0.00    -0.206 F 
ATOM    105  C   UNL A   1      52.222  26.555  25.027  1.00  0.00     0.060 A 
BRANCH 105 106
ATOM    106  S   UNL A   1      53.849  26.085  24.405  1.00  0.00     0.124 S 
ATOM    107  O   UNL A   1      53.711  26.360  22.978  1.00  0.00    -0.237 OA
ATOM    108  O   UNL A   1      54.733  26.982  25.142  1.00  0.00    -0.237 OA
ATOM    109  O   UNL A   1      53.957  24.673  24.762  1.00  0.00    -0.744 OA
ENDBRANCH 105 106
ENDBRANCH  73  98
ENDBRANCH  47  48
ENDBRANCH  39  42
ENDBRANCH  37  38
ENDBRANCH  36  37
ENDBRANCH   1  36
TORSDOF 18
ENDMDL
MODEL 3
REMARK VINA RESULT:     -12.5      6.013     12.529
REMARK SMILES O=C1C[C@H](C(=O)NCCCCNC(=O)c2ccc(-c3c4nc(c(-c5c(F)cc(S(=O)(=O)[O-])cc5F)c5ccc([nH]5)c(-c5c(F)cc(S(=O)(=O)[O-])cc5F)c5nc(c(-c6c(F)cc(S(=O)(=O)[O-])cc6F)c6ccc3[nH]6)C=C5)C=C4)cc2)c2c(nc(Nc3ccc(Oc4ccccc4)cc3)[nH]c2=O)N1
REMARK SMILES IDX 9 1 8 2 7 3 5 4 6 5 4 7 1 8 2 9 3 10 102 11 82 12 81 14
REMARK SMILES IDX 83 15 100 16 84 17 99 18 101 19 85 21 86 23 87 24 98 25
REMARK SMILES IDX 88 26 97 27 89 28 90 29 91 30 92 31 96 32 93 33 95 34 94 35
REMARK SMILES IDX 10 36 11 37 12 38 13 39 14 41 15 42 16 43 80 44 17 45 79 46
REMARK SMILES IDX 18 47 19 48 20 49 73 50 21 51 78 52 72 53 74 54 22 55 77 56
REMARK SMILES IDX 71 57 70 58 23 60 57 61 36 62 56 63 37 64 40 65 55 66 75 67
REMARK SMILES IDX 38 68 39 69 54 71 76 72 41 73 24 74 25 75 34 76 26 77 27 78
REMARK SMILES IDX 33 79 35 80 28 81 29 82 30 83 31 84 32 85 58 86 59 87 68 88
REMARK SMILES IDX 60 89 61 90 67 91 69 92 62 93 63 94 64 95 65 96 66 97 42 98
REMARK SMILES IDX 43 99 52 100 44 101 45 102 51 103 53 104 46 105 47 106
REMARK SMILES IDX 48 107 49 108 50 109
REMARK H PARENT 7 6 102 13 99 20 85 22 12 40 74 59 40 70
REMARK Flexibility Score: inf
ROOT
ATOM      1  C   UNL A   1      44.699  23.620  28.090  1.00  0.00     0.023 C 
ENDROOT
BRANCH   1   2
ATOM      2  C   UNL A   1      44.570  22.204  27.539  1.00  0.00     0.116 C 
BRANCH   2   3
ATOM      3  N   UNL A   1      45.511  21.960  26.462  1.00  0.00    -0.356 N 
ATOM      4  C   UNL A   1      45.466  21.087  25.416  1.00  0.00     0.228 C 
ATOM      5  O   UNL A   1      46.470  20.984  24.708  1.00  0.00    -0.274 OA
ATOM      6  H   UNL A   1      46.321  22.520  26.491  1.00  0.00     0.163 HD
BRANCH   4   7
ATOM      7  C   UNL A   1      44.239  20.213  25.150  1.00  0.00     0.127 C 
ATOM      8  O   UNL A   1      43.133  17.101  26.838  1.00  0.00    -0.275 OA
ATOM      9  C   UNL A   1      43.179  18.271  26.466  1.00  0.00     0.226 C 
ATOM     10  C   UNL A   1      44.424  18.856  25.842  1.00  0.00     0.119 C 
ATOM     11  N   UNL A   1      42.125  19.109  26.669  1.00  0.00    -0.310 N 
ATOM     12  C   UNL A   1      42.013  20.391  26.237  1.00  0.00     0.146 A 
ATOM     13  H   UNL A   1      41.367  18.748  27.183  1.00  0.00     0.171 HD
ATOM     14  C   UNL A   1      42.974  20.937  25.489  1.00  0.00     0.073 A 
ATOM     15  N   UNL A   1      40.873  21.008  26.629  1.00  0.00    -0.196 NA
ATOM     16  C   UNL A   1      42.722  22.310  25.017  1.00  0.00     0.258 A 
ATOM     17  C   UNL A   1      40.664  22.232  26.251  1.00  0.00     0.209 A 
ATOM     18  N   UNL A   1      41.568  22.885  25.462  1.00  0.00    -0.292 N 
ATOM     19  O   UNL A   1      43.481  22.903  24.262  1.00  0.00    -0.269 OA
ATOM     20  H   UNL A   1      41.379  23.816  25.202  1.00  0.00     0.173 HD
BRANCH  17  21
ATOM     21  N   UNL A   1      39.530  22.929  26.582  1.00  0.00    -0.326 N 
ATOM     22  H   UNL A   1      39.588  23.620  27.281  1.00  0.00     0.170 HD
BRANCH  21  23
ATOM     23  C   UNL A   1      38.289  22.695  25.967  1.00  0.00     0.041 A 
ATOM     24  C   UNL A   1      38.040  21.479  25.324  1.00  0.00     0.030 A 
ATOM     25  C   UNL A   1      37.240  23.610  26.112  1.00  0.00     0.030 A 
ATOM     26  C   UNL A   1      36.757  21.178  24.851  1.00  0.00     0.049 A 
ATOM     27  C   UNL A   1      35.964  23.318  25.630  1.00  0.00     0.049 A 
ATOM     28  C   UNL A   1      35.716  22.097  24.999  1.00  0.00     0.127 A 
BRANCH  28  29
ATOM     29  O   UNL A   1      34.481  21.690  24.530  1.00  0.00    -0.457 OA
BRANCH  29  30
ATOM     30  C   UNL A   1      33.690  22.653  23.954  1.00  0.00     0.127 A 
ATOM     31  C   UNL A   1      32.624  23.175  24.686  1.00  0.00     0.047 A 
ATOM     32  C   UNL A   1      33.962  23.108  22.663  1.00  0.00     0.047 A 
ATOM     33  C   UNL A   1      31.863  24.210  24.143  1.00  0.00     0.004 A 
ATOM     34  C   UNL A   1      33.204  24.146  22.127  1.00  0.00     0.004 A 
ATOM     35  C   UNL A   1      32.161  24.703  22.871  1.00  0.00     0.000 A 
ENDBRANCH  29  30
ENDBRANCH  28  29
ENDBRANCH  21  23
ENDBRANCH  17  21
ENDBRANCH   4   7
ENDBRANCH   2   3
ENDBRANCH   1   2
BRANCH   1  36
ATOM     36  C   UNL A   1      45.764  24.470  27.399  1.00  0.00     0.023 C 
BRANCH  36  37
ATOM     37  C   UNL A   1      45.263  25.805  26.867  1.00  0.00     0.116 C 
BRANCH  37  38
ATOM     38  N   UNL A   1      44.295  25.650  25.789  1.00  0.00    -0.352 N 
ATOM     39  C   UNL A   1      42.981  26.050  25.766  1.00  0.00     0.251 C 
ATOM     40  H   UNL A   1      44.623  25.201  24.976  1.00  0.00     0.163 HD
ATOM     41  O   UNL A   1      42.238  25.721  24.848  1.00  0.00    -0.269 OA
BRANCH  39  42
ATOM     42  C   UNL A   1      42.479  26.863  26.889  1.00  0.00     0.039 A 
ATOM     43  C   UNL A   1      41.754  26.243  27.908  1.00  0.00     0.014 A 
ATOM     44  C   UNL A   1      42.806  28.220  26.962  1.00  0.00     0.014 A 
ATOM     45  C   UNL A   1      41.405  26.980  29.040  1.00  0.00     0.010 A 
ATOM     46  C   UNL A   1      42.515  28.933  28.118  1.00  0.00     0.010 A 
ATOM     47  C   UNL A   1      41.806  28.320  29.163  1.00  0.00    -0.014 A 
BRANCH  47  48
ATOM     48  C   UNL A   1      41.450  29.118  30.360  1.00  0.00     0.031 A 
ATOM     49  C   UNL A   1      42.282  28.988  31.602  1.00  0.00     0.074 A 
ATOM     50  C   UNL A   1      40.371  29.923  30.339  1.00  0.00     0.049 A 
ATOM     51  N   UNL A   1      42.131  29.572  32.762  1.00  0.00    -0.248 NA
ATOM     52  C   UNL A   1      43.429  28.066  31.537  1.00  0.00     0.031 C 
ATOM     53  C   UNL A   1      39.477  30.112  29.195  1.00  0.00     0.029 A 
ATOM     54  N   UNL A   1      39.843  30.735  31.311  1.00  0.00    -0.354 N 
ATOM     55  C   UNL A   1      43.169  29.101  33.556  1.00  0.00     0.074 A 
ATOM     56  C   UNL A   1      43.895  28.126  32.775  1.00  0.00     0.031 C 
ATOM     57  C   UNL A   1      38.530  31.007  29.521  1.00  0.00     0.029 A 
ATOM     58  C   UNL A   1      38.729  31.431  30.906  1.00  0.00     0.049 A 
ATOM     59  H   UNL A   1      40.227  30.813  32.214  1.00  0.00     0.167 HD
ATOM     60  C   UNL A   1      43.508  29.476  34.812  1.00  0.00     0.037 A 
ATOM     61  C   UNL A   1      37.961  32.313  31.575  1.00  0.00     0.037 A 
ATOM     62  C   UNL A   1      42.778  30.446  35.584  1.00  0.00     0.049 A 
ATOM     63  C   UNL A   1      38.316  32.664  32.996  1.00  0.00     0.074 A 
ATOM     64  C   UNL A   1      43.044  30.904  36.861  1.00  0.00     0.029 A 
ATOM     65  N   UNL A   1      41.636  31.105  35.151  1.00  0.00    -0.354 N 
ATOM     66  N   UNL A   1      39.324  32.241  33.721  1.00  0.00    -0.248 NA
ATOM     67  C   UNL A   1      37.433  33.611  33.689  1.00  0.00     0.031 C 
ATOM     68  C   UNL A   1      42.038  31.805  37.218  1.00  0.00     0.029 A 
ATOM     69  C   UNL A   1      41.173  31.950  36.145  1.00  0.00     0.049 A 
ATOM     70  H   UNL A   1      41.216  30.988  34.268  1.00  0.00     0.167 HD
ATOM     71  C   UNL A   1      39.214  32.892  34.946  1.00  0.00     0.074 A 
ATOM     72  C   UNL A   1      38.045  33.744  34.859  1.00  0.00     0.031 C 
ATOM     73  C   UNL A   1      40.009  32.797  36.039  1.00  0.00     0.037 A 
BRANCH  60  74
ATOM     74  C   UNL A   1      44.730  28.844  35.415  1.00  0.00     0.058 A 
ATOM     75  C   UNL A   1      46.002  29.420  35.258  1.00  0.00     0.135 A 
ATOM     76  C   UNL A   1      44.632  27.669  36.178  1.00  0.00     0.135 A 
ATOM     77  F   UNL A   1      46.156  30.531  34.522  1.00  0.00    -0.206 F 
ATOM     78  C   UNL A   1      47.136  28.838  35.812  1.00  0.00     0.059 A 
ATOM     79  C   UNL A   1      45.750  27.086  36.767  1.00  0.00     0.059 A 
ATOM     80  F   UNL A   1      43.442  27.075  36.355  1.00  0.00    -0.206 F 
ATOM     81  C   UNL A   1      47.000  27.672  36.566  1.00  0.00     0.060 A 
BRANCH  81  82
ATOM     82  S   UNL A   1      48.486  26.935  37.279  1.00  0.00     0.124 S 
ATOM     83  O   UNL A   1      48.215  25.510  37.112  1.00  0.00    -0.237 OA
ATOM     84  O   UNL A   1      49.539  27.483  36.431  1.00  0.00    -0.237 OA
ATOM     85  O   UNL A   1      48.478  27.417  38.656  1.00  0.00    -0.744 OA
ENDBRANCH  81  82
ENDBRANCH  60  74
BRANCH  61  86
ATOM     86  C   UNL A   1      36.810  32.963  30.891  1.00  0.00     0.058 A 
ATOM     87  C   UNL A   1      35.492  32.624  31.233  1.00  0.00     0.135 A 
ATOM     88  C   UNL A   1      36.997  33.947  29.908  1.00  0.00     0.135 A 
ATOM     89  F   UNL A   1      35.261  31.682  32.160  1.00  0.00    -0.206 F 
ATOM     90  C   UNL A   1      34.400  33.234  30.623  1.00  0.00     0.059 A 
ATOM     91  C   UNL A   1      35.921  34.588  29.300  1.00  0.00     0.059 A 
ATOM     92  F   UNL A   1      38.237  34.315  29.552  1.00  0.00    -0.206 F 
ATOM     93  C   UNL A   1      34.626  34.221  29.663  1.00  0.00     0.060 A 
BRANCH  93  94
ATOM     94  S   UNL A   1      33.197  35.048  28.927  1.00  0.00     0.124 S 
ATOM     95  O   UNL A   1      32.731  34.043  27.979  1.00  0.00    -0.237 OA
ATOM     96  O   UNL A   1      32.345  35.273  30.092  1.00  0.00    -0.237 OA
ATOM     97  O   UNL A   1      33.773  36.254  28.338  1.00  0.00    -0.744 OA
ENDBRANCH  93  94
ENDBRANCH  61  86
BRANCH  73  98
ATOM     98  C   UNL A   1      39.667  33.647  37.231  1.00  0.00     0.058 A 
ATOM     99  C   UNL A   1      38.776  33.203  38.221  1.00  0.00     0.135 A 
ATOM    100  C   UNL A   1      40.308  34.881  37.432  1.00  0.00     0.135 A 
ATOM    101  F   UNL A   1      38.133  32.034  38.075  1.00  0.00    -0.206 F 
ATOM    102  C   UNL A   1      38.523  33.958  39.362  1.00  0.00     0.059 A 
ATOM    103  C   UNL A   1      40.093  35.639  38.580  1.00  0.00     0.059 A 
ATOM    104  F   UNL A   1      41.178  35.348  36.522  1.00  0.00    -0.206 F 
ATOM    105  C   UNL A   1      39.194  35.170  39.537  1.00  0.00     0.060 A 
BRANCH 105 106
ATOM    106  S   UNL A   1      38.896  36.108  41.050  1.00  0.00     0.124 S 
ATOM    107  O   UNL A   1      40.182  35.991  41.729  1.00  0.00    -0.237 OA
ATOM    108  O   UNL A   1      38.569  37.433  40.533  1.00  0.00    -0.237 OA
ATOM    109  O   UNL A   1      37.788  35.396  41.681  1.00  0.00    -0.744 OA
ENDBRANCH 105 106
ENDBRANCH  73  98
ENDBRANCH  47  48
ENDBRANCH  39  42
ENDBRANCH  37  38
ENDBRANCH  36  37
ENDBRANCH   1  36
TORSDOF 18
ENDMDL
