MODEL 1
REMARK VINA RESULT:     -13.7      0.000      0.000
REMARK SMILES O=C(NCCCCNC(=O)[C@H](CO)NC(=O)[C@H](Cc1c[nH]c2ccccc12)NC(=O)[C@H](Cc1ccc(O)cc1)NC(=O)c1ccc(F)cc1)c1ccc(-c2c3nc(c(-c4c(F)cc(S(=O)(=O)[O-])cc4F)c4ccc([nH]4)c(-c4c(F)cc(S(=O)(=O)[O-])cc4F)c4nc(c(-c5c(F)cc(S(=O)(=O)[O-])cc5F)c5ccc2[nH]5)C=C4)C=C3)cc1
REMARK SMILES IDX 8 1 9 2 10 3 7 5 6 6 5 7 4 8 3 9 1 10 2 11 50 13 51 14
REMARK SMILES IDX 115 15 52 16 114 17 53 18 54 19 55 20 108 21 56 22 113 23
REMARK SMILES IDX 107 24 109 25 57 26 112 27 106 28 105 29 58 31 92 32 71 33
REMARK SMILES IDX 91 34 72 35 75 36 90 37 110 38 73 39 74 40 89 42 111 43
REMARK SMILES IDX 76 44 59 45 60 46 69 47 61 48 62 49 68 50 70 51 63 52 64 53
REMARK SMILES IDX 65 54 66 55 67 56 93 57 94 58 103 59 95 60 96 61 102 62
REMARK SMILES IDX 104 63 97 64 98 65 99 66 100 67 101 68 77 69 78 70 87 71
REMARK SMILES IDX 79 72 80 73 86 74 88 75 81 76 82 77 83 78 84 79 85 80 11 81
REMARK SMILES IDX 14 82 15 83 16 85 17 86 28 87 29 88 30 90 31 91 40 92 41 93
REMARK SMILES IDX 42 95 43 96 44 97 49 98 45 99 48 100 46 101 47 102 32 103
REMARK SMILES IDX 33 104 34 105 39 106 35 107 38 108 36 109 37 110 18 112
REMARK SMILES IDX 19 113 20 114 27 115 21 116 22 117 26 118 23 120 25 121
REMARK SMILES IDX 24 122 12 123 13 124
REMARK H PARENT 8 4 3 12 109 30 75 41 14 84 28 89 40 94 37 111 21 119 13 125
REMARK Flexibility Score: inf
ROOT
ATOM      1  N   UNL A   1      38.449  22.690  25.716  1.00  0.00    -0.354 N 
ATOM      2  C   UNL A   1      37.188  22.845  25.285  1.00  0.00     0.244 C 
ATOM      3  O   UNL A   1      37.203  22.245  24.176  1.00  0.00    -0.273 OA
ATOM      4  H   UNL A   1      38.839  22.037  25.091  1.00  0.00     0.163 HD
ENDROOT
BRANCH   1   5
ATOM      5  C   UNL A   1      39.539  22.997  26.643  1.00  0.00     0.116 C 
BRANCH   5   6
ATOM      6  C   UNL A   1      40.586  21.875  26.717  1.00  0.00     0.023 C 
BRANCH   6   7
ATOM      7  C   UNL A   1      41.828  22.164  27.569  1.00  0.00     0.023 C 
BRANCH   7   8
ATOM      8  C   UNL A   1      42.387  23.581  27.588  1.00  0.00     0.116 C 
BRANCH   8   9
ATOM      9  N   UNL A   1      42.658  24.182  26.287  1.00  0.00    -0.352 N 
ATOM     10  O   UNL A   1      42.810  25.898  24.789  1.00  0.00    -0.269 OA
ATOM     11  C   UNL A   1      42.507  25.501  25.906  1.00  0.00     0.251 C 
ATOM     12  H   UNL A   1      42.992  23.570  25.591  1.00  0.00     0.163 HD
BRANCH  11  13
ATOM     13  C   UNL A   1      41.888  26.412  26.884  1.00  0.00     0.039 A 
ATOM     14  C   UNL A   1      42.415  27.694  27.036  1.00  0.00     0.014 A 
ATOM     15  C   UNL A   1      40.969  25.892  27.797  1.00  0.00     0.014 A 
ATOM     16  C   UNL A   1      42.205  28.358  28.234  1.00  0.00     0.010 A 
ATOM     17  C   UNL A   1      40.652  26.632  28.936  1.00  0.00     0.010 A 
ATOM     18  C   UNL A   1      41.307  27.846  29.189  1.00  0.00    -0.014 A 
BRANCH  18  19
ATOM     19  C   UNL A   1      41.008  28.640  30.408  1.00  0.00     0.031 A 
ATOM     20  C   UNL A   1      39.879  29.633  30.456  1.00  0.00     0.074 A 
ATOM     21  C   UNL A   1      41.795  28.449  31.485  1.00  0.00     0.049 A 
ATOM     22  N   UNL A   1      39.551  30.456  31.419  1.00  0.00    -0.248 NA
ATOM     23  C   UNL A   1      39.009  29.728  29.271  1.00  0.00     0.031 C 
ATOM     24  C   UNL A   1      42.917  27.507  31.546  1.00  0.00     0.029 A 
ATOM     25  N   UNL A   1      41.777  29.021  32.730  1.00  0.00    -0.354 N 
ATOM     26  C   UNL A   1      38.470  31.193  30.949  1.00  0.00     0.074 A 
ATOM     27  C   UNL A   1      38.198  30.724  29.607  1.00  0.00     0.031 C 
ATOM     28  C   UNL A   1      43.446  27.529  32.773  1.00  0.00     0.029 A 
ATOM     29  C   UNL A   1      42.779  28.563  33.550  1.00  0.00     0.049 A 
ATOM     30  H   UNL A   1      41.114  29.692  33.007  1.00  0.00     0.167 HD
ATOM     31  C   UNL A   1      37.780  32.171  31.586  1.00  0.00     0.037 A 
ATOM     32  C   UNL A   1      43.165  28.960  34.776  1.00  0.00     0.037 A 
ATOM     33  C   UNL A   1      38.064  32.604  32.932  1.00  0.00     0.049 A 
ATOM     34  C   UNL A   1      42.414  30.068  35.442  1.00  0.00     0.074 A 
ATOM     35  C   UNL A   1      37.391  33.548  33.690  1.00  0.00     0.029 A 
ATOM     36  N   UNL A   1      39.109  32.136  33.718  1.00  0.00    -0.354 N 
ATOM     37  N   UNL A   1      41.380  30.738  34.993  1.00  0.00    -0.248 NA
ATOM     38  C   UNL A   1      42.879  30.484  36.768  1.00  0.00     0.031 C 
ATOM     39  C   UNL A   1      38.072  33.703  34.901  1.00  0.00     0.029 A 
ATOM     40  C   UNL A   1      39.126  32.802  34.934  1.00  0.00     0.049 A 
ATOM     41  H   UNL A   1      39.746  31.435  33.451  1.00  0.00     0.167 HD
ATOM     42  C   UNL A   1      41.062  31.653  35.987  1.00  0.00     0.074 A 
ATOM     43  C   UNL A   1      42.006  31.437  37.066  1.00  0.00     0.031 C 
ATOM     44  C   UNL A   1      40.075  32.581  36.001  1.00  0.00     0.037 A 
BRANCH  31  45
ATOM     45  C   UNL A   1      36.675  32.875  30.837  1.00  0.00     0.058 A 
ATOM     46  C   UNL A   1      36.984  33.863  29.886  1.00  0.00     0.135 A 
ATOM     47  C   UNL A   1      35.317  32.630  31.096  1.00  0.00     0.135 A 
ATOM     48  F   UNL A   1      38.263  34.146  29.596  1.00  0.00    -0.206 F 
ATOM     49  C   UNL A   1      35.992  34.584  29.227  1.00  0.00     0.059 A 
ATOM     50  C   UNL A   1      34.306  33.318  30.427  1.00  0.00     0.059 A 
ATOM     51  F   UNL A   1      34.957  31.690  31.986  1.00  0.00    -0.206 F 
ATOM     52  C   UNL A   1      34.655  34.301  29.500  1.00  0.00     0.060 A 
BRANCH  52  53
ATOM     53  S   UNL A   1      33.380  35.201  28.589  1.00  0.00     0.124 S 
ATOM     54  O   UNL A   1      32.718  34.129  27.854  1.00  0.00    -0.237 OA
ATOM     55  O   UNL A   1      32.606  35.807  29.668  1.00  0.00    -0.237 OA
ATOM     56  O   UNL A   1      34.147  36.142  27.777  1.00  0.00    -0.744 OA
ENDBRANCH  52  53
ENDBRANCH  31  45
BRANCH  32  57
ATOM     57  C   UNL A   1      44.331  28.288  35.404  1.00  0.00     0.058 A 
ATOM     58  C   UNL A   1      44.152  27.216  36.297  1.00  0.00     0.135 A 
ATOM     59  C   UNL A   1      45.625  28.798  35.241  1.00  0.00     0.135 A 
ATOM     60  F   UNL A   1      42.926  26.710  36.505  1.00  0.00    -0.206 F 
ATOM     61  C   UNL A   1      45.206  26.712  37.047  1.00  0.00     0.059 A 
ATOM     62  C   UNL A   1      46.702  28.289  35.959  1.00  0.00     0.059 A 
ATOM     63  F   UNL A   1      45.841  29.818  34.399  1.00  0.00    -0.206 F 
ATOM     64  C   UNL A   1      46.476  27.264  36.880  1.00  0.00     0.060 A 
BRANCH  64  65
ATOM     65  S   UNL A   1      47.818  26.643  37.914  1.00  0.00     0.124 S 
ATOM     66  O   UNL A   1      47.090  26.197  39.099  1.00  0.00    -0.237 OA
ATOM     67  O   UNL A   1      48.381  25.587  37.080  1.00  0.00    -0.237 OA
ATOM     68  O   UNL A   1      48.668  27.813  38.105  1.00  0.00    -0.744 OA
ENDBRANCH  64  65
ENDBRANCH  32  57
BRANCH  44  69
ATOM     69  C   UNL A   1      39.942  33.438  37.228  1.00  0.00     0.058 A 
ATOM     70  C   UNL A   1      40.774  34.556  37.402  1.00  0.00     0.135 A 
ATOM     71  C   UNL A   1      39.074  33.095  38.274  1.00  0.00     0.135 A 
ATOM     72  F   UNL A   1      41.623  34.927  36.430  1.00  0.00    -0.206 F 
ATOM     73  C   UNL A   1      40.777  35.279  38.587  1.00  0.00     0.059 A 
ATOM     74  C   UNL A   1      39.038  33.823  39.459  1.00  0.00     0.059 A 
ATOM     75  F   UNL A   1      38.245  32.046  38.147  1.00  0.00    -0.206 F 
ATOM     76  C   UNL A   1      39.913  34.900  39.615  1.00  0.00     0.060 A 
BRANCH  76  77
ATOM     77  S   UNL A   1      39.956  35.834  41.158  1.00  0.00     0.124 S 
ATOM     78  O   UNL A   1      40.611  34.891  42.059  1.00  0.00    -0.237 OA
ATOM     79  O   UNL A   1      40.742  37.005  40.785  1.00  0.00    -0.237 OA
ATOM     80  O   UNL A   1      38.548  36.094  41.438  1.00  0.00    -0.744 OA
ENDBRANCH  76  77
ENDBRANCH  44  69
ENDBRANCH  18  19
ENDBRANCH  11  13
ENDBRANCH   8   9
ENDBRANCH   7   8
ENDBRANCH   6   7
ENDBRANCH   5   6
ENDBRANCH   1   5
BRANCH   2  81
ATOM     81  C   UNL A   1      35.574  23.405  26.036  1.00  0.00     0.197 C 
BRANCH  81  82
ATOM     82  N   UNL A   1      34.864  24.265  24.760  1.00  0.00    -0.340 N 
ATOM     83  C   UNL A   1      33.721  23.940  24.015  1.00  0.00     0.243 C 
ATOM     84  H   UNL A   1      35.313  25.105  24.509  1.00  0.00     0.164 HD
ATOM     85  O   UNL A   1      33.677  24.170  22.802  1.00  0.00    -0.273 OA
BRANCH  83  86
ATOM     86  C   UNL A   1      32.576  23.181  24.722  1.00  0.00     0.175 C 
BRANCH  86  87
ATOM     87  N   UNL A   1      31.921  24.057  25.727  1.00  0.00    -0.342 N 
ATOM     88  C   UNL A   1      31.148  25.175  25.722  1.00  0.00     0.243 C 
ATOM     89  H   UNL A   1      32.095  23.743  26.644  1.00  0.00     0.164 HD
ATOM     90  O   UNL A   1      30.473  25.352  26.749  1.00  0.00    -0.273 OA
BRANCH  88  91
ATOM     91  C   UNL A   1      31.002  26.209  24.576  1.00  0.00     0.176 C 
BRANCH  91  92
ATOM     92  N   UNL A   1      32.238  26.503  23.838  1.00  0.00    -0.340 N 
ATOM     93  C   UNL A   1      33.247  27.406  24.068  1.00  0.00     0.251 C 
ATOM     94  H   UNL A   1      32.366  25.952  23.032  1.00  0.00     0.164 HD
ATOM     95  O   UNL A   1      34.196  27.431  23.285  1.00  0.00    -0.269 OA
BRANCH  93  96
ATOM     96  C   UNL A   1      33.205  28.389  25.181  1.00  0.00     0.040 A 
ATOM     97  C   UNL A   1      32.380  29.521  25.175  1.00  0.00     0.017 A 
ATOM     98  C   UNL A   1      34.001  28.129  26.308  1.00  0.00     0.017 A 
ATOM     99  C   UNL A   1      32.463  30.457  26.208  1.00  0.00     0.040 A 
ATOM    100  C   UNL A   1      34.050  29.046  27.363  1.00  0.00     0.040 A 
ATOM    101  C   UNL A   1      33.305  30.216  27.286  1.00  0.00     0.123 A 
ATOM    102  F   UNL A   1      33.381  31.117  28.274  1.00  0.00    -0.207 F 
ENDBRANCH  93  96
ENDBRANCH  91  92
BRANCH  91 103
ATOM    103  C   UNL A   1      29.723  26.045  23.716  1.00  0.00     0.070 C 
BRANCH 103 104
ATOM    104  C   UNL A   1      29.050  27.337  23.374  1.00  0.00    -0.045 A 
ATOM    105  C   UNL A   1      29.740  28.473  22.909  1.00  0.00     0.007 A 
ATOM    106  C   UNL A   1      27.699  27.423  23.608  1.00  0.00     0.007 A 
ATOM    107  C   UNL A   1      29.091  29.709  22.760  1.00  0.00     0.046 A 
ATOM    108  C   UNL A   1      27.087  28.650  23.468  1.00  0.00     0.046 A 
ATOM    109  C   UNL A   1      27.754  29.794  23.075  1.00  0.00     0.115 A 
BRANCH 109 110
ATOM    110  O   UNL A   1      27.069  30.970  23.133  1.00  0.00    -0.508 OA
ATOM    111  H   UNL A   1      26.207  31.029  22.769  1.00  0.00     0.293 HD
ENDBRANCH 109 110
ENDBRANCH 103 104
ENDBRANCH  91 103
ENDBRANCH  88  91
ENDBRANCH  86  87
BRANCH  86 112
ATOM    112  C   UNL A   1      31.598  22.793  23.600  1.00  0.00     0.072 C 
BRANCH 112 113
ATOM    113  C   UNL A   1      32.040  21.496  22.998  1.00  0.00    -0.020 A 
ATOM    114  C   UNL A   1      31.786  20.940  21.319  1.00  0.00     0.087 A 
ATOM    115  C   UNL A   1      32.583  19.927  24.067  1.00  0.00     0.003 A 
ATOM    116  N   UNL A   1      32.150  19.123  21.282  1.00  0.00    -0.361 N 
ATOM    117  C   UNL A   1      32.479  18.510  22.998  1.00  0.00     0.046 A 
ATOM    118  C   UNL A   1      32.918  19.671  25.408  1.00  0.00     0.010 A 
ATOM    119  H   UNL A   1      32.166  18.566  20.470  1.00  0.00     0.166 HD
ATOM    120  C   UNL A   1      32.541  17.238  23.562  1.00  0.00     0.026 A 
ATOM    121  C   UNL A   1      32.965  18.320  25.807  1.00  0.00     0.001 A 
ATOM    122  C   UNL A   1      32.758  17.194  24.955  1.00  0.00     0.002 A 
ENDBRANCH 112 113
ENDBRANCH  86 112
ENDBRANCH  83  86
ENDBRANCH  81  82
BRANCH  81 123
ATOM    123  C   UNL A   1      34.385  22.284  27.620  1.00  0.00     0.191 C 
BRANCH 123 124
ATOM    124  O   UNL A   1      32.927  22.576  28.162  1.00  0.00    -0.394 OA
ATOM    125  H   UNL A   1      32.358  21.812  27.987  1.00  0.00     0.210 HD
ENDBRANCH 123 124
ENDBRANCH  81 123
ENDBRANCH   2  81
TORSDOF 27
ENDMDL
MODEL 2
REMARK VINA RESULT:     -13.0      0.927      7.503
REMARK SMILES O=C(NCCCCNC(=O)[C@H](CO)NC(=O)[C@H](Cc1c[nH]c2ccccc12)NC(=O)[C@H](Cc1ccc(O)cc1)NC(=O)c1ccc(F)cc1)c1ccc(-c2c3nc(c(-c4c(F)cc(S(=O)(=O)[O-])cc4F)c4ccc([nH]4)c(-c4c(F)cc(S(=O)(=O)[O-])cc4F)c4nc(c(-c5c(F)cc(S(=O)(=O)[O-])cc5F)c5ccc2[nH]5)C=C4)C=C3)cc1
REMARK SMILES IDX 8 1 9 2 10 3 7 5 6 6 5 7 4 8 3 9 1 10 2 11 50 13 51 14
REMARK SMILES IDX 115 15 52 16 114 17 53 18 54 19 55 20 108 21 56 22 113 23
REMARK SMILES IDX 107 24 109 25 57 26 112 27 106 28 105 29 58 31 92 32 71 33
REMARK SMILES IDX 91 34 72 35 75 36 90 37 110 38 73 39 74 40 89 42 111 43
REMARK SMILES IDX 76 44 59 45 60 46 69 47 61 48 62 49 68 50 70 51 63 52 64 53
REMARK SMILES IDX 65 54 66 55 67 56 93 57 94 58 103 59 95 60 96 61 102 62
REMARK SMILES IDX 104 63 97 64 98 65 99 66 100 67 101 68 77 69 78 70 87 71
REMARK SMILES IDX 79 72 80 73 86 74 88 75 81 76 82 77 83 78 84 79 85 80 11 81
REMARK SMILES IDX 14 82 15 83 16 85 17 86 28 87 29 88 30 90 31 91 40 92 41 93
REMARK SMILES IDX 42 95 43 96 44 97 49 98 45 99 48 100 46 101 47 102 32 103
REMARK SMILES IDX 33 104 34 105 39 106 35 107 38 108 36 109 37 110 18 112
REMARK SMILES IDX 19 113 20 114 27 115 21 116 22 117 26 118 23 120 25 121
REMARK SMILES IDX 24 122 12 123 13 124
REMARK H PARENT 8 4 3 12 109 30 75 41 14 84 28 89 40 94 37 111 21 119 13 125
REMARK Flexibility Score: inf
ROOT
ATOM      1  N   UNL A   1      38.476  22.534  25.638  1.00  0.00    -0.354 N 
ATOM      2  C   UNL A   1      37.234  22.801  25.209  1.00  0.00     0.244 C 
ATOM      3  O   UNL A   1      37.202  22.227  24.087  1.00  0.00    -0.273 OA
ATOM      4  H   UNL A   1      38.813  21.865  24.998  1.00  0.00     0.163 HD
ENDROOT
BRANCH   1   5
ATOM      5  C   UNL A   1      39.586  22.730  26.571  1.00  0.00     0.116 C 
BRANCH   5   6
ATOM      6  C   UNL A   1      40.419  21.455  26.775  1.00  0.00     0.023 C 
BRANCH   6   7
ATOM      7  C   UNL A   1      41.632  21.581  27.706  1.00  0.00     0.023 C 
BRANCH   7   8
ATOM      8  C   UNL A   1      42.445  22.869  27.673  1.00  0.00     0.116 C 
BRANCH   8   9
ATOM      9  N   UNL A   1      42.849  23.341  26.353  1.00  0.00    -0.352 N 
ATOM     10  O   UNL A   1      43.333  24.919  24.776  1.00  0.00    -0.269 OA
ATOM     11  C   UNL A   1      42.939  24.643  25.901  1.00  0.00     0.251 C 
ATOM     12  H   UNL A   1      43.087  22.643  25.700  1.00  0.00     0.163 HD
BRANCH  11  13
ATOM     13  C   UNL A   1      42.465  25.700  26.811  1.00  0.00     0.039 A 
ATOM     14  C   UNL A   1      43.009  26.979  26.697  1.00  0.00     0.014 A 
ATOM     15  C   UNL A   1      41.685  25.338  27.911  1.00  0.00     0.014 A 
ATOM     16  C   UNL A   1      42.971  27.815  27.801  1.00  0.00     0.010 A 
ATOM     17  C   UNL A   1      41.532  26.243  28.961  1.00  0.00     0.010 A 
ATOM     18  C   UNL A   1      42.218  27.468  28.938  1.00  0.00    -0.014 A 
BRANCH  18  19
ATOM     19  C   UNL A   1      42.094  28.437  30.056  1.00  0.00     0.031 A 
ATOM     20  C   UNL A   1      43.044  28.432  31.223  1.00  0.00     0.074 A 
ATOM     21  C   UNL A   1      41.086  29.328  30.000  1.00  0.00     0.049 A 
ATOM     22  N   UNL A   1      43.010  29.161  32.309  1.00  0.00    -0.248 NA
ATOM     23  C   UNL A   1      44.172  27.486  31.177  1.00  0.00     0.031 C 
ATOM     24  C   UNL A   1      40.108  29.419  28.911  1.00  0.00     0.029 A 
ATOM     25  N   UNL A   1      40.713  30.326  30.862  1.00  0.00    -0.354 N 
ATOM     26  C   UNL A   1      44.078  28.739  33.093  1.00  0.00     0.074 A 
ATOM     27  C   UNL A   1      44.742  27.682  32.359  1.00  0.00     0.031 C 
ATOM     28  C   UNL A   1      39.282  30.444  29.143  1.00  0.00     0.029 A 
ATOM     29  C   UNL A   1      39.596  31.009  30.447  1.00  0.00     0.049 A 
ATOM     30  H   UNL A   1      41.195  30.530  31.694  1.00  0.00     0.167 HD
ATOM     31  C   UNL A   1      44.457  29.194  34.313  1.00  0.00     0.037 A 
ATOM     32  C   UNL A   1      38.862  31.954  31.062  1.00  0.00     0.037 A 
ATOM     33  C   UNL A   1      43.785  30.263  35.012  1.00  0.00     0.049 A 
ATOM     34  C   UNL A   1      39.276  32.412  32.423  1.00  0.00     0.074 A 
ATOM     35  C   UNL A   1      44.120  30.837  36.226  1.00  0.00     0.029 A 
ATOM     36  N   UNL A   1      42.637  30.909  34.570  1.00  0.00    -0.354 N 
ATOM     37  N   UNL A   1      40.301  32.019  33.140  1.00  0.00    -0.248 NA
ATOM     38  C   UNL A   1      38.438  33.428  33.067  1.00  0.00     0.031 C 
ATOM     39  C   UNL A   1      43.137  31.776  36.552  1.00  0.00     0.029 A 
ATOM     40  C   UNL A   1      42.228  31.845  35.508  1.00  0.00     0.049 A 
ATOM     41  H   UNL A   1      42.181  30.728  33.717  1.00  0.00     0.167 HD
ATOM     42  C   UNL A   1      40.240  32.748  34.320  1.00  0.00     0.074 A 
ATOM     43  C   UNL A   1      39.083  33.615  34.211  1.00  0.00     0.031 C 
ATOM     44  C   UNL A   1      41.070  32.701  35.390  1.00  0.00     0.037 A 
BRANCH  31  45
ATOM     45  C   UNL A   1      45.624  28.527  34.998  1.00  0.00     0.058 A 
ATOM     46  C   UNL A   1      45.407  27.441  35.864  1.00  0.00     0.135 A 
ATOM     47  C   UNL A   1      46.942  28.991  34.860  1.00  0.00     0.135 A 
ATOM     48  F   UNL A   1      44.170  26.954  36.042  1.00  0.00    -0.206 F 
ATOM     49  C   UNL A   1      46.450  26.845  36.570  1.00  0.00     0.059 A 
ATOM     50  C   UNL A   1      48.005  28.391  35.532  1.00  0.00     0.059 A 
ATOM     51  F   UNL A   1      47.215  30.018  34.038  1.00  0.00    -0.206 F 
ATOM     52  C   UNL A   1      47.747  27.324  36.394  1.00  0.00     0.060 A 
BRANCH  52  53
ATOM     53  S   UNL A   1      49.096  26.499  37.267  1.00  0.00     0.124 S 
ATOM     54  O   UNL A   1      49.956  26.076  36.168  1.00  0.00    -0.237 OA
ATOM     55  O   UNL A   1      49.617  27.573  38.108  1.00  0.00    -0.237 OA
ATOM     56  O   UNL A   1      48.421  25.423  37.989  1.00  0.00    -0.744 OA
ENDBRANCH  52  53
ENDBRANCH  31  45
BRANCH  32  57
ATOM     57  C   UNL A   1      37.664  32.486  30.365  1.00  0.00     0.058 A 
ATOM     58  C   UNL A   1      37.752  33.627  29.546  1.00  0.00     0.135 A 
ATOM     59  C   UNL A   1      36.392  31.959  30.620  1.00  0.00     0.135 A 
ATOM     60  F   UNL A   1      38.947  34.184  29.293  1.00  0.00    -0.206 F 
ATOM     61  C   UNL A   1      36.617  34.257  29.054  1.00  0.00     0.059 A 
ATOM     62  C   UNL A   1      35.242  32.555  30.113  1.00  0.00     0.059 A 
ATOM     63  F   UNL A   1      36.262  30.871  31.394  1.00  0.00    -0.206 F 
ATOM     64  C   UNL A   1      35.365  33.720  29.354  1.00  0.00     0.060 A 
BRANCH  64  65
ATOM     65  S   UNL A   1      33.900  34.592  28.763  1.00  0.00     0.124 S 
ATOM     66  O   UNL A   1      34.466  35.880  28.370  1.00  0.00    -0.237 OA
ATOM     67  O   UNL A   1      33.454  33.734  27.670  1.00  0.00    -0.237 OA
ATOM     68  O   UNL A   1      33.029  34.622  29.933  1.00  0.00    -0.744 OA
ENDBRANCH  64  65
ENDBRANCH  32  57
BRANCH  44  69
ATOM     69  C   UNL A   1      40.777  33.623  36.539  1.00  0.00     0.058 A 
ATOM     70  C   UNL A   1      39.890  33.228  37.553  1.00  0.00     0.135 A 
ATOM     71  C   UNL A   1      41.285  34.930  36.582  1.00  0.00     0.135 A 
ATOM     72  F   UNL A   1      39.376  31.988  37.559  1.00  0.00    -0.206 F 
ATOM     73  C   UNL A   1      39.486  34.110  38.547  1.00  0.00     0.059 A 
ATOM     74  C   UNL A   1      40.918  35.821  37.585  1.00  0.00     0.059 A 
ATOM     75  F   UNL A   1      42.152  35.348  35.645  1.00  0.00    -0.206 F 
ATOM     76  C   UNL A   1      39.998  35.408  38.550  1.00  0.00     0.060 A 
BRANCH  76  77
ATOM     77  S   UNL A   1      39.436  36.547  39.831  1.00  0.00     0.124 S 
ATOM     78  O   UNL A   1      40.697  36.960  40.438  1.00  0.00    -0.237 OA
ATOM     79  O   UNL A   1      38.744  37.567  39.051  1.00  0.00    -0.237 OA
ATOM     80  O   UNL A   1      38.577  35.718  40.671  1.00  0.00    -0.744 OA
ENDBRANCH  76  77
ENDBRANCH  44  69
ENDBRANCH  18  19
ENDBRANCH  11  13
ENDBRANCH   8   9
ENDBRANCH   7   8
ENDBRANCH   6   7
ENDBRANCH   5   6
ENDBRANCH   1   5
BRANCH   2  81
ATOM     81  C   UNL A   1      35.668  23.475  25.971  1.00  0.00     0.197 C 
BRANCH  81  82
ATOM     82  N   UNL A   1      34.951  24.280  24.665  1.00  0.00    -0.340 N 
ATOM     83  C   UNL A   1      33.842  23.891  23.898  1.00  0.00     0.243 C 
ATOM     84  H   UNL A   1      35.367  25.136  24.410  1.00  0.00     0.164 HD
ATOM     85  O   UNL A   1      33.817  24.099  22.681  1.00  0.00    -0.273 OA
BRANCH  83  86
ATOM     86  C   UNL A   1      32.717  23.091  24.592  1.00  0.00     0.175 C 
BRANCH  86  87
ATOM     87  N   UNL A   1      32.045  23.930  25.616  1.00  0.00    -0.342 N 
ATOM     88  C   UNL A   1      31.249  25.032  25.637  1.00  0.00     0.243 C 
ATOM     89  H   UNL A   1      32.224  23.598  26.526  1.00  0.00     0.164 HD
ATOM     90  O   UNL A   1      30.571  25.171  26.668  1.00  0.00    -0.273 OA
BRANCH  88  91
ATOM     91  C   UNL A   1      31.083  26.089  24.516  1.00  0.00     0.176 C 
BRANCH  91  92
ATOM     92  N   UNL A   1      32.309  26.412  23.774  1.00  0.00    -0.340 N 
ATOM     93  C   UNL A   1      33.302  27.332  24.007  1.00  0.00     0.251 C 
ATOM     94  H   UNL A   1      32.443  25.871  22.963  1.00  0.00     0.164 HD
ATOM     95  O   UNL A   1      34.246  27.382  23.220  1.00  0.00    -0.269 OA
BRANCH  93  96
ATOM     96  C   UNL A   1      33.247  28.304  25.129  1.00  0.00     0.040 A 
ATOM     97  C   UNL A   1      32.503  29.489  25.082  1.00  0.00     0.017 A 
ATOM     98  C   UNL A   1      33.942  27.980  26.304  1.00  0.00     0.017 A 
ATOM     99  C   UNL A   1      32.575  30.407  26.132  1.00  0.00     0.040 A 
ATOM    100  C   UNL A   1      33.978  28.881  27.373  1.00  0.00     0.040 A 
ATOM    101  C   UNL A   1      33.321  30.099  27.262  1.00  0.00     0.123 A 
ATOM    102  F   UNL A   1      33.387  30.983  28.266  1.00  0.00    -0.207 F 
ENDBRANCH  93  96
ENDBRANCH  91  92
BRANCH  91 103
ATOM    103  C   UNL A   1      29.798  25.930  23.662  1.00  0.00     0.070 C 
BRANCH 103 104
ATOM    104  C   UNL A   1      29.066  27.213  23.420  1.00  0.00    -0.045 A 
ATOM    105  C   UNL A   1      27.698  27.392  23.699  1.00  0.00     0.007 A 
ATOM    106  C   UNL A   1      29.767  28.232  22.822  1.00  0.00     0.007 A 
ATOM    107  C   UNL A   1      27.020  28.555  23.303  1.00  0.00     0.046 A 
ATOM    108  C   UNL A   1      29.077  29.359  22.429  1.00  0.00     0.046 A 
ATOM    109  C   UNL A   1      27.722  29.531  22.633  1.00  0.00     0.115 A 
BRANCH 109 110
ATOM    110  O   UNL A   1      27.133  30.616  22.055  1.00  0.00    -0.508 OA
ATOM    111  H   UNL A   1      27.084  30.679  21.120  1.00  0.00     0.293 HD
ENDBRANCH 109 110
ENDBRANCH 103 104
ENDBRANCH  91 103
ENDBRANCH  88  91
ENDBRANCH  86  87
BRANCH  86 112
ATOM    112  C   UNL A   1      31.745  22.705  23.463  1.00  0.00     0.072 C 
BRANCH 112 113
ATOM    113  C   UNL A   1      32.133  21.362  22.928  1.00  0.00    -0.020 A 
ATOM    114  C   UNL A   1      31.854  20.733  21.278  1.00  0.00     0.087 A 
ATOM    115  C   UNL A   1      32.615  19.827  24.073  1.00  0.00     0.003 A 
ATOM    116  N   UNL A   1      32.144  18.903  21.332  1.00  0.00    -0.361 N 
ATOM    117  C   UNL A   1      32.450  18.364  23.077  1.00  0.00     0.046 A 
ATOM    118  C   UNL A   1      32.941  19.626  25.426  1.00  0.00     0.010 A 
ATOM    119  H   UNL A   1      32.135  18.306  20.549  1.00  0.00     0.166 HD
ATOM    120  C   UNL A   1      32.462  17.121  23.704  1.00  0.00     0.026 A 
ATOM    121  C   UNL A   1      32.934  18.295  25.892  1.00  0.00     0.001 A 
ATOM    122  C   UNL A   1      32.679  17.138  25.098  1.00  0.00     0.002 A 
ENDBRANCH 112 113
ENDBRANCH  86 112
ENDBRANCH  83  86
ENDBRANCH  81  82
BRANCH  81 123
ATOM    123  C   UNL A   1      34.490  22.507  27.661  1.00  0.00     0.191 C 
BRANCH 123 124
ATOM    124  O   UNL A   1      32.938  22.208  27.747  1.00  0.00    -0.394 OA
ATOM    125  H   UNL A   1      32.561  22.201  26.854  1.00  0.00     0.210 HD
ENDBRANCH 123 124
ENDBRANCH  81 123
ENDBRANCH   2  81
TORSDOF 27
ENDMDL
MODEL 3
REMARK VINA RESULT:     -12.5      3.691      4.969
REMARK SMILES O=C(NCCCCNC(=O)[C@H](CO)NC(=O)[C@H](Cc1c[nH]c2ccccc12)NC(=O)[C@H](Cc1ccc(O)cc1)NC(=O)c1ccc(F)cc1)c1ccc(-c2c3nc(c(-c4c(F)cc(S(=O)(=O)[O-])cc4F)c4ccc([nH]4)c(-c4c(F)cc(S(=O)(=O)[O-])cc4F)c4nc(c(-c5c(F)cc(S(=O)(=O)[O-])cc5F)c5ccc2[nH]5)C=C4)C=C3)cc1
REMARK SMILES IDX 8 1 9 2 10 3 7 5 6 6 5 7 4 8 3 9 1 10 2 11 50 13 51 14
REMARK SMILES IDX 115 15 52 16 114 17 53 18 54 19 55 20 108 21 56 22 113 23
REMARK SMILES IDX 107 24 109 25 57 26 112 27 106 28 105 29 58 31 92 32 71 33
REMARK SMILES IDX 91 34 72 35 75 36 90 37 110 38 73 39 74 40 89 42 111 43
REMARK SMILES IDX 76 44 59 45 60 46 69 47 61 48 62 49 68 50 70 51 63 52 64 53
REMARK SMILES IDX 65 54 66 55 67 56 93 57 94 58 103 59 95 60 96 61 102 62
REMARK SMILES IDX 104 63 97 64 98 65 99 66 100 67 101 68 77 69 78 70 87 71
REMARK SMILES IDX 79 72 80 73 86 74 88 75 81 76 82 77 83 78 84 79 85 80 11 81
REMARK SMILES IDX 14 82 15 83 16 85 17 86 28 87 29 88 30 90 31 91 40 92 41 93
REMARK SMILES IDX 42 95 43 96 44 97 49 98 45 99 48 100 46 101 47 102 32 103
REMARK SMILES IDX 33 104 34 105 39 106 35 107 38 108 36 109 37 110 18 112
REMARK SMILES IDX 19 113 20 114 27 115 21 116 22 117 26 118 23 120 25 121
REMARK SMILES IDX 24 122 12 123 13 124
REMARK H PARENT 8 4 3 12 109 30 75 41 14 84 28 89 40 94 37 111 21 119 13 125
REMARK Flexibility Score: inf
ROOT
ATOM      1  N   UNL A   1      38.397  22.038  25.450  1.00  0.00    -0.354 N 
ATOM      2  C   UNL A   1      37.217  22.567  25.094  1.00  0.00     0.244 C 
ATOM      3  O   UNL A   1      37.104  22.199  23.894  1.00  0.00    -0.273 OA
ATOM      4  H   UNL A   1      38.628  21.439  24.703  1.00  0.00     0.163 HD
ENDROOT
BRANCH   1   5
ATOM      5  C   UNL A   1      39.516  21.897  26.383  1.00  0.00     0.116 C 
BRANCH   5   6
ATOM      6  C   UNL A   1      40.060  20.461  26.441  1.00  0.00     0.023 C 
BRANCH   6   7
ATOM      7  C   UNL A   1      41.536  20.312  26.833  1.00  0.00     0.023 C 
BRANCH   7   8
ATOM      8  C   UNL A   1      42.450  21.524  26.708  1.00  0.00     0.116 C 
BRANCH   8   9
ATOM      9  N   UNL A   1      42.909  21.846  25.362  1.00  0.00    -0.352 N 
ATOM     10  O   UNL A   1      43.900  23.144  23.766  1.00  0.00    -0.269 OA
ATOM     11  C   UNL A   1      43.519  23.004  24.921  1.00  0.00     0.251 C 
ATOM     12  H   UNL A   1      42.764  21.151  24.679  1.00  0.00     0.163 HD
BRANCH  11  13
ATOM     13  C   UNL A   1      43.630  24.111  25.887  1.00  0.00     0.039 A 
ATOM     14  C   UNL A   1      44.895  24.492  26.332  1.00  0.00     0.014 A 
ATOM     15  C   UNL A   1      42.471  24.572  26.514  1.00  0.00     0.014 A 
ATOM     16  C   UNL A   1      45.000  25.138  27.552  1.00  0.00     0.010 A 
ATOM     17  C   UNL A   1      42.586  25.346  27.668  1.00  0.00     0.010 A 
ATOM     18  C   UNL A   1      43.850  25.591  28.226  1.00  0.00    -0.014 A 
BRANCH  18  19
ATOM     19  C   UNL A   1      43.999  26.388  29.470  1.00  0.00     0.031 A 
ATOM     20  C   UNL A   1      43.866  27.887  29.476  1.00  0.00     0.074 A 
ATOM     21  C   UNL A   1      44.269  25.722  30.609  1.00  0.00     0.049 A 
ATOM     22  N   UNL A   1      44.053  28.721  30.466  1.00  0.00    -0.248 NA
ATOM     23  C   UNL A   1      43.487  28.540  28.212  1.00  0.00     0.031 C 
ATOM     24  C   UNL A   1      44.416  24.267  30.713  1.00  0.00     0.029 A 
ATOM     25  N   UNL A   1      44.463  26.165  31.890  1.00  0.00    -0.354 N 
ATOM     26  C   UNL A   1      43.856  29.994  29.943  1.00  0.00     0.074 A 
ATOM     27  C   UNL A   1      43.541  29.825  28.541  1.00  0.00     0.031 C 
ATOM     28  C   UNL A   1      44.626  23.935  31.991  1.00  0.00     0.029 A 
ATOM     29  C   UNL A   1      44.742  25.154  32.776  1.00  0.00     0.049 A 
ATOM     30  H   UNL A   1      44.409  27.113  32.149  1.00  0.00     0.167 HD
ATOM     31  C   UNL A   1      43.939  31.188  30.582  1.00  0.00     0.037 A 
ATOM     32  C   UNL A   1      45.107  25.192  34.071  1.00  0.00     0.037 A 
ATOM     33  C   UNL A   1      44.238  31.324  31.987  1.00  0.00     0.049 A 
ATOM     34  C   UNL A   1      45.231  26.521  34.743  1.00  0.00     0.074 A 
ATOM     35  C   UNL A   1      44.292  32.481  32.744  1.00  0.00     0.029 A 
ATOM     36  N   UNL A   1      44.546  30.274  32.843  1.00  0.00    -0.354 N 
ATOM     37  N   UNL A   1      45.020  27.713  34.241  1.00  0.00    -0.248 NA
ATOM     38  C   UNL A   1      45.651  26.519  36.148  1.00  0.00     0.031 C 
ATOM     39  C   UNL A   1      44.703  32.140  34.036  1.00  0.00     0.029 A 
ATOM     40  C   UNL A   1      44.833  30.762  34.109  1.00  0.00     0.049 A 
ATOM     41  H   UNL A   1      44.560  29.323  32.589  1.00  0.00     0.167 HD
ATOM     42  C   UNL A   1      45.271  28.609  35.271  1.00  0.00     0.074 A 
ATOM     43  C   UNL A   1      45.636  27.816  36.429  1.00  0.00     0.031 C 
ATOM     44  C   UNL A   1      45.200  29.961  35.254  1.00  0.00     0.037 A 
BRANCH  31  45
ATOM     45  C   UNL A   1      43.744  32.449  29.777  1.00  0.00     0.058 A 
ATOM     46  C   UNL A   1      42.508  33.118  29.801  1.00  0.00     0.135 A 
ATOM     47  C   UNL A   1      44.742  32.963  28.933  1.00  0.00     0.135 A 
ATOM     48  F   UNL A   1      41.513  32.674  30.584  1.00  0.00    -0.206 F 
ATOM     49  C   UNL A   1      42.267  34.244  29.017  1.00  0.00     0.059 A 
ATOM     50  C   UNL A   1      44.533  34.106  28.162  1.00  0.00     0.059 A 
ATOM     51  F   UNL A   1      45.948  32.375  28.875  1.00  0.00    -0.206 F 
ATOM     52  C   UNL A   1      43.288  34.733  28.204  1.00  0.00     0.060 A 
BRANCH  52  53
ATOM     53  S   UNL A   1      42.979  36.231  27.242  1.00  0.00     0.124 S 
ATOM     54  O   UNL A   1      41.862  36.830  27.963  1.00  0.00    -0.237 OA
ATOM     55  O   UNL A   1      44.256  36.931  27.349  1.00  0.00    -0.237 OA
ATOM     56  O   UNL A   1      42.667  35.718  25.911  1.00  0.00    -0.744 OA
ENDBRANCH  52  53
ENDBRANCH  31  45
BRANCH  32  57
ATOM     57  C   UNL A   1      45.386  23.910  34.766  1.00  0.00     0.058 A 
ATOM     58  C   UNL A   1      46.705  23.454  34.940  1.00  0.00     0.135 A 
ATOM     59  C   UNL A   1      44.342  23.051  35.134  1.00  0.00     0.135 A 
ATOM     60  F   UNL A   1      47.739  24.231  34.579  1.00  0.00    -0.206 F 
ATOM     61  C   UNL A   1      46.977  22.173  35.400  1.00  0.00     0.059 A 
ATOM     62  C   UNL A   1      44.590  21.774  35.626  1.00  0.00     0.059 A 
ATOM     63  F   UNL A   1      43.068  23.445  34.987  1.00  0.00    -0.206 F 
ATOM     64  C   UNL A   1      45.911  21.335  35.729  1.00  0.00     0.060 A 
BRANCH  64  65
ATOM     65  S   UNL A   1      46.283  19.650  36.258  1.00  0.00     0.124 S 
ATOM     66  O   UNL A   1      45.726  18.869  35.157  1.00  0.00    -0.237 OA
ATOM     67  O   UNL A   1      47.739  19.675  36.347  1.00  0.00    -0.237 OA
ATOM     68  O   UNL A   1      45.578  19.532  37.529  1.00  0.00    -0.744 OA
ENDBRANCH  64  65
ENDBRANCH  32  57
BRANCH  44  69
ATOM     69  C   UNL A   1      45.510  30.690  36.531  1.00  0.00     0.058 A 
ATOM     70  C   UNL A   1      44.482  30.990  37.440  1.00  0.00     0.135 A 
ATOM     71  C   UNL A   1      46.794  31.183  36.805  1.00  0.00     0.135 A 
ATOM     72  F   UNL A   1      43.235  30.541  37.226  1.00  0.00    -0.206 F 
ATOM     73  C   UNL A   1      44.709  31.788  38.554  1.00  0.00     0.059 A 
ATOM     74  C   UNL A   1      47.051  31.959  37.930  1.00  0.00     0.059 A 
ATOM     75  F   UNL A   1      47.814  30.906  35.976  1.00  0.00    -0.206 F 
ATOM     76  C   UNL A   1      45.995  32.276  38.787  1.00  0.00     0.060 A 
BRANCH  76  77
ATOM     77  S   UNL A   1      46.262  33.337  40.221  1.00  0.00     0.124 S 
ATOM     78  O   UNL A   1      45.177  34.303  40.084  1.00  0.00    -0.237 OA
ATOM     79  O   UNL A   1      46.135  32.393  41.327  1.00  0.00    -0.237 OA
ATOM     80  O   UNL A   1      47.605  33.867  40.008  1.00  0.00    -0.744 OA
ENDBRANCH  76  77
ENDBRANCH  44  69
ENDBRANCH  18  19
ENDBRANCH  11  13
ENDBRANCH   8   9
ENDBRANCH   7   8
ENDBRANCH   6   7
ENDBRANCH   5   6
ENDBRANCH   1   5
BRANCH   2  81
ATOM     81  C   UNL A   1      35.774  23.345  25.986  1.00  0.00     0.197 C 
BRANCH  81  82
ATOM     82  N   UNL A   1      35.046  24.261  24.760  1.00  0.00    -0.340 N 
ATOM     83  C   UNL A   1      33.878  23.981  24.035  1.00  0.00     0.243 C 
ATOM     84  H   UNL A   1      35.504  25.101  24.526  1.00  0.00     0.164 HD
ATOM     85  O   UNL A   1      33.807  24.254  22.833  1.00  0.00    -0.273 OA
BRANCH  83  86
ATOM     86  C   UNL A   1      32.739  23.218  24.747  1.00  0.00     0.175 C 
BRANCH  86  87
ATOM     87  N   UNL A   1      32.094  24.087  25.764  1.00  0.00    -0.342 N 
ATOM     88  C   UNL A   1      31.297  25.188  25.774  1.00  0.00     0.243 C 
ATOM     89  H   UNL A   1      32.299  23.783  26.678  1.00  0.00     0.164 HD
ATOM     90  O   UNL A   1      30.648  25.358  26.818  1.00  0.00    -0.273 OA
BRANCH  88  91
ATOM     91  C   UNL A   1      31.099  26.211  24.626  1.00  0.00     0.176 C 
BRANCH  91  92
ATOM     92  N   UNL A   1      32.312  26.546  23.869  1.00  0.00    -0.340 N 
ATOM     93  C   UNL A   1      33.292  27.484  24.083  1.00  0.00     0.251 C 
ATOM     94  H   UNL A   1      32.447  25.999  23.063  1.00  0.00     0.164 HD
ATOM     95  O   UNL A   1      34.228  27.540  23.286  1.00  0.00    -0.269 OA
BRANCH  93  96
ATOM     96  C   UNL A   1      33.233  28.467  25.196  1.00  0.00     0.040 A 
ATOM     97  C   UNL A   1      32.249  29.458  25.292  1.00  0.00     0.017 A 
ATOM     98  C   UNL A   1      34.189  28.351  26.217  1.00  0.00     0.017 A 
ATOM     99  C   UNL A   1      32.309  30.412  26.309  1.00  0.00     0.040 A 
ATOM    100  C   UNL A   1      34.222  29.282  27.260  1.00  0.00     0.040 A 
ATOM    101  C   UNL A   1      33.302  30.322  27.277  1.00  0.00     0.123 A 
ATOM    102  F   UNL A   1      33.356  31.241  28.250  1.00  0.00    -0.207 F 
ENDBRANCH  93  96
ENDBRANCH  91  92
BRANCH  91 103
ATOM    103  C   UNL A   1      29.814  25.997  23.785  1.00  0.00     0.070 C 
BRANCH 103 104
ATOM    104  C   UNL A   1      29.038  27.251  23.530  1.00  0.00    -0.045 A 
ATOM    105  C   UNL A   1      27.649  27.360  23.730  1.00  0.00     0.007 A 
ATOM    106  C   UNL A   1      29.724  28.317  22.998  1.00  0.00     0.007 A 
ATOM    107  C   UNL A   1      26.941  28.501  23.322  1.00  0.00     0.046 A 
ATOM    108  C   UNL A   1      29.005  29.421  22.592  1.00  0.00     0.046 A 
ATOM    109  C   UNL A   1      27.634  29.526  22.719  1.00  0.00     0.115 A 
BRANCH 109 110
ATOM    110  O   UNL A   1      27.030  30.597  22.132  1.00  0.00    -0.508 OA
ATOM    111  H   UNL A   1      27.468  31.064  21.446  1.00  0.00     0.293 HD
ENDBRANCH 109 110
ENDBRANCH 103 104
ENDBRANCH  91 103
ENDBRANCH  88  91
ENDBRANCH  86  87
BRANCH  86 112
ATOM    112  C   UNL A   1      31.751  22.839  23.630  1.00  0.00     0.072 C 
BRANCH 112 113
ATOM    113  C   UNL A   1      32.128  21.499  23.083  1.00  0.00    -0.020 A 
ATOM    114  C   UNL A   1      31.852  20.890  21.425  1.00  0.00     0.087 A 
ATOM    115  C   UNL A   1      32.588  19.947  24.214  1.00  0.00     0.003 A 
ATOM    116  N   UNL A   1      32.123  19.057  21.461  1.00  0.00    -0.361 N 
ATOM    117  C   UNL A   1      32.415  18.496  23.201  1.00  0.00     0.046 A 
ATOM    118  C   UNL A   1      32.906  19.728  25.566  1.00  0.00     0.010 A 
ATOM    119  H   UNL A   1      32.113  18.468  20.672  1.00  0.00     0.166 HD
ATOM    120  C   UNL A   1      32.411  17.246  23.815  1.00  0.00     0.026 A 
ATOM    121  C   UNL A   1      32.884  18.393  26.018  1.00  0.00     0.001 A 
ATOM    122  C   UNL A   1      32.622  17.247  25.210  1.00  0.00     0.002 A 
ENDBRANCH 112 113
ENDBRANCH  86 112
ENDBRANCH  83  86
ENDBRANCH  81  82
BRANCH  81 123
ATOM    123  C   UNL A   1      34.629  22.420  27.722  1.00  0.00     0.191 C 
BRANCH 123 124
ATOM    124  O   UNL A   1      33.111  22.614  28.128  1.00  0.00    -0.394 OA
ATOM    125  H   UNL A   1      32.983  23.507  28.483  1.00  0.00     0.210 HD
ENDBRANCH 123 124
ENDBRANCH  81 123
ENDBRANCH   2  81
TORSDOF 27
ENDMDL
