MODEL 1
REMARK VINA RESULT:     -11.0      0.000      0.000
REMARK SMILES O=C(NCCCCNC(=O)c1ccc(N2CNC(c3ccccc3)=[NH+]C2=S)cc1)c1ccc(-c2c3nc(c(-c4c(F)cc(S(=O)(=O)[O-])cc4F)c4ccc([nH]4)c(-c4c(F)cc(S(=O)(=O)[O-])cc4F)c4nc(c(-c5c(F)cc(S(=O)(=O)[O-])cc5F)c5ccc2[nH]5)C=C4)C=C3)cc1
REMARK SMILES IDX 5 1 4 2 3 3 1 4 2 5 30 7 31 8 95 9 32 10 94 11 33 12 34 13
REMARK SMILES IDX 35 14 88 15 36 16 93 17 87 18 89 19 37 20 92 21 86 22 85 23
REMARK SMILES IDX 38 25 72 26 51 27 71 28 52 29 55 30 70 31 90 32 53 33 54 34
REMARK SMILES IDX 69 36 91 37 56 38 39 39 40 40 49 41 41 42 42 43 48 44 50 45
REMARK SMILES IDX 43 46 44 47 45 48 46 49 47 50 73 51 74 52 83 53 75 54 76 55
REMARK SMILES IDX 82 56 84 57 77 58 78 59 79 60 80 61 81 62 57 63 58 64 67 65
REMARK SMILES IDX 59 66 60 67 66 68 68 69 61 70 62 71 63 72 64 73 65 74 6 75
REMARK SMILES IDX 7 76 8 77 9 78 10 80 11 81 12 82 29 83 13 84 28 85 14 86
REMARK SMILES IDX 15 87 16 88 26 89 17 90 25 91 27 92 18 93 19 96 20 97 24 98
REMARK SMILES IDX 21 99 23 100 22 101
REMARK H PARENT 3 6 89 24 55 35 8 79 17 94 25 95
REMARK Flexibility Score: inf
ROOT
ATOM      1  C   UNL A   1      34.713  34.078  28.142  1.00  0.00     0.023 C 
ENDROOT
BRANCH   1   2
ATOM      2  C   UNL A   1      34.874  32.799  28.951  1.00  0.00     0.116 C 
BRANCH   2   3
ATOM      3  N   UNL A   1      34.089  31.694  28.423  1.00  0.00    -0.352 N 
ATOM      4  O   UNL A   1      33.730  29.682  27.474  1.00  0.00    -0.269 OA
ATOM      5  C   UNL A   1      34.511  30.444  28.038  1.00  0.00     0.251 C 
ATOM      6  H   UNL A   1      33.124  31.865  28.328  1.00  0.00     0.163 HD
BRANCH   5   7
ATOM      7  C   UNL A   1      35.910  30.027  28.288  1.00  0.00     0.039 A 
ATOM      8  C   UNL A   1      36.886  30.187  27.301  1.00  0.00     0.014 A 
ATOM      9  C   UNL A   1      36.251  29.486  29.531  1.00  0.00     0.014 A 
ATOM     10  C   UNL A   1      38.173  29.703  27.515  1.00  0.00     0.010 A 
ATOM     11  C   UNL A   1      37.564  29.071  29.772  1.00  0.00     0.010 A 
ATOM     12  C   UNL A   1      38.533  29.165  28.761  1.00  0.00    -0.014 A 
BRANCH  12  13
ATOM     13  C   UNL A   1      39.955  28.828  29.021  1.00  0.00     0.031 A 
ATOM     14  C   UNL A   1      40.538  27.504  28.613  1.00  0.00     0.074 A 
ATOM     15  C   UNL A   1      40.719  29.750  29.642  1.00  0.00     0.049 A 
ATOM     16  N   UNL A   1      41.758  27.061  28.781  1.00  0.00    -0.248 NA
ATOM     17  C   UNL A   1      39.644  26.550  27.939  1.00  0.00     0.031 C 
ATOM     18  C   UNL A   1      40.245  31.057  30.107  1.00  0.00     0.029 A 
ATOM     19  N   UNL A   1      42.046  29.738  29.987  1.00  0.00    -0.354 N 
ATOM     20  C   UNL A   1      41.777  25.775  28.255  1.00  0.00     0.074 A 
ATOM     21  C   UNL A   1      40.441  25.502  27.768  1.00  0.00     0.031 C 
ATOM     22  C   UNL A   1      41.269  31.728  30.655  1.00  0.00     0.029 A 
ATOM     23  C   UNL A   1      42.453  30.880  30.634  1.00  0.00     0.049 A 
ATOM     24  H   UNL A   1      42.647  28.984  29.790  1.00  0.00     0.167 HD
ATOM     25  C   UNL A   1      42.818  24.912  28.184  1.00  0.00     0.037 A 
ATOM     26  C   UNL A   1      43.640  31.200  31.184  1.00  0.00     0.037 A 
ATOM     27  C   UNL A   1      44.150  25.210  28.648  1.00  0.00     0.049 A 
ATOM     28  C   UNL A   1      44.767  30.213  31.103  1.00  0.00     0.074 A 
ATOM     29  C   UNL A   1      45.290  24.432  28.541  1.00  0.00     0.029 A 
ATOM     30  N   UNL A   1      44.520  26.368  29.315  1.00  0.00    -0.354 N 
ATOM     31  N   UNL A   1      44.784  29.030  30.535  1.00  0.00    -0.248 NA
ATOM     32  C   UNL A   1      46.032  30.593  31.744  1.00  0.00     0.031 C 
ATOM     33  C   UNL A   1      46.337  25.095  29.189  1.00  0.00     0.029 A 
ATOM     34  C   UNL A   1      45.860  26.307  29.662  1.00  0.00     0.049 A 
ATOM     35  H   UNL A   1      43.920  27.122  29.514  1.00  0.00     0.167 HD
ATOM     36  C   UNL A   1      46.060  28.526  30.749  1.00  0.00     0.074 A 
ATOM     37  C   UNL A   1      46.795  29.544  31.472  1.00  0.00     0.031 C 
ATOM     38  C   UNL A   1      46.573  27.325  30.390  1.00  0.00     0.037 A 
BRANCH  25  39
ATOM     39  C   UNL A   1      42.581  23.548  27.595  1.00  0.00     0.058 A 
ATOM     40  C   UNL A   1      42.690  23.311  26.217  1.00  0.00     0.135 A 
ATOM     41  C   UNL A   1      42.362  22.444  28.435  1.00  0.00     0.135 A 
ATOM     42  F   UNL A   1      42.887  24.332  25.369  1.00  0.00    -0.206 F 
ATOM     43  C   UNL A   1      42.593  22.025  25.692  1.00  0.00     0.059 A 
ATOM     44  C   UNL A   1      42.280  21.147  27.935  1.00  0.00     0.059 A 
ATOM     45  F   UNL A   1      42.250  22.617  29.762  1.00  0.00    -0.206 F 
ATOM     46  C   UNL A   1      42.397  20.948  26.560  1.00  0.00     0.060 A 
BRANCH  46  47
ATOM     47  S   UNL A   1      42.332  19.281  25.868  1.00  0.00     0.124 S 
ATOM     48  O   UNL A   1      40.900  19.109  25.654  1.00  0.00    -0.237 OA
ATOM     49  O   UNL A   1      43.141  19.414  24.660  1.00  0.00    -0.237 OA
ATOM     50  O   UNL A   1      42.914  18.453  26.919  1.00  0.00    -0.744 OA
ENDBRANCH  46  47
ENDBRANCH  25  39
BRANCH  26  51
ATOM     51  C   UNL A   1      43.803  32.493  31.898  1.00  0.00     0.058 A 
ATOM     52  C   UNL A   1      43.524  32.607  33.267  1.00  0.00     0.135 A 
ATOM     53  C   UNL A   1      44.242  33.641  31.220  1.00  0.00     0.135 A 
ATOM     54  F   UNL A   1      43.100  31.538  33.958  1.00  0.00    -0.206 F 
ATOM     55  C   UNL A   1      43.650  33.822  33.934  1.00  0.00     0.059 A 
ATOM     56  C   UNL A   1      44.403  34.858  31.870  1.00  0.00     0.059 A 
ATOM     57  F   UNL A   1      44.541  33.577  29.913  1.00  0.00    -0.206 F 
ATOM     58  C   UNL A   1      44.086  34.943  33.225  1.00  0.00     0.060 A 
BRANCH  58  59
ATOM     59  S   UNL A   1      44.268  36.511  34.099  1.00  0.00     0.124 S 
ATOM     60  O   UNL A   1      45.706  36.543  34.344  1.00  0.00    -0.237 OA
ATOM     61  O   UNL A   1      43.765  37.472  33.123  1.00  0.00    -0.237 OA
ATOM     62  O   UNL A   1      43.429  36.334  35.281  1.00  0.00    -0.744 OA
ENDBRANCH  58  59
ENDBRANCH  26  51
BRANCH  38  63
ATOM     63  C   UNL A   1      47.997  27.049  30.777  1.00  0.00     0.058 A 
ATOM     64  C   UNL A   1      48.309  26.329  31.941  1.00  0.00     0.135 A 
ATOM     65  C   UNL A   1      49.058  27.477  29.963  1.00  0.00     0.135 A 
ATOM     66  F   UNL A   1      47.330  25.910  32.759  1.00  0.00    -0.206 F 
ATOM     67  C   UNL A   1      49.625  26.058  32.295  1.00  0.00     0.059 A 
ATOM     68  C   UNL A   1      50.381  27.195  30.285  1.00  0.00     0.059 A 
ATOM     69  F   UNL A   1      48.811  28.164  28.836  1.00  0.00    -0.206 F 
ATOM     70  C   UNL A   1      50.656  26.494  31.459  1.00  0.00     0.060 A 
BRANCH  70  71
ATOM     71  S   UNL A   1      52.359  26.108  31.912  1.00  0.00     0.124 S 
ATOM     72  O   UNL A   1      52.756  27.320  32.620  1.00  0.00    -0.237 OA
ATOM     73  O   UNL A   1      52.203  24.915  32.737  1.00  0.00    -0.237 OA
ATOM     74  O   UNL A   1      53.012  25.892  30.624  1.00  0.00    -0.744 OA
ENDBRANCH  70  71
ENDBRANCH  38  63
ENDBRANCH  12  13
ENDBRANCH   5   7
ENDBRANCH   2   3
ENDBRANCH   1   2
BRANCH   1  75
ATOM     75  C   UNL A   1      34.197  35.286  28.922  1.00  0.00     0.023 C 
BRANCH  75  76
ATOM     76  C   UNL A   1      32.862  35.088  29.637  1.00  0.00     0.116 C 
BRANCH  76  77
ATOM     77  N   UNL A   1      32.567  36.150  30.589  1.00  0.00    -0.352 N 
ATOM     78  C   UNL A   1      32.999  36.305  31.881  1.00  0.00     0.251 C 
ATOM     79  H   UNL A   1      31.971  36.859  30.256  1.00  0.00     0.163 HD
ATOM     80  O   UNL A   1      32.555  37.205  32.588  1.00  0.00    -0.269 OA
BRANCH  78  81
ATOM     81  C   UNL A   1      33.990  35.367  32.439  1.00  0.00     0.040 A 
ATOM     82  C   UNL A   1      33.547  34.137  32.924  1.00  0.00     0.017 A 
ATOM     83  C   UNL A   1      35.348  35.699  32.487  1.00  0.00     0.017 A 
ATOM     84  C   UNL A   1      34.478  33.193  33.360  1.00  0.00     0.044 A 
ATOM     85  C   UNL A   1      36.275  34.754  32.929  1.00  0.00     0.044 A 
ATOM     86  C   UNL A   1      35.853  33.474  33.320  1.00  0.00     0.103 A 
BRANCH  86  87
ATOM     87  N   UNL A   1      36.803  32.470  33.669  1.00  0.00    -0.219 N 
ATOM     88  C   UNL A   1      36.820  31.267  32.875  1.00  0.00     0.405 C 
ATOM     89  C   UNL A   1      37.529  32.469  34.875  1.00  0.00     0.297 C 
ATOM     90  N   UNL A   1      38.127  30.690  32.909  1.00  0.00    -0.274 N 
ATOM     91  N   UNL A   1      38.527  31.538  35.035  1.00  0.00    -0.236 N 
ATOM     92  S   UNL A   1      37.224  33.505  36.188  1.00  0.00    -0.005 S 
ATOM     93  C   UNL A   1      38.832  30.736  34.071  1.00  0.00     0.229 C 
ATOM     94  H   UNL A   1      38.511  30.267  32.106  1.00  0.00     0.260 HD
ATOM     95  H   UNL A   1      39.011  31.483  35.891  1.00  0.00     0.268 HD
BRANCH  93  96
ATOM     96  C   UNL A   1      39.993  29.825  34.281  1.00  0.00     0.047 A 
ATOM     97  C   UNL A   1      40.646  29.831  35.519  1.00  0.00     0.015 A 
ATOM     98  C   UNL A   1      40.458  29.010  33.246  1.00  0.00     0.015 A 
ATOM     99  C   UNL A   1      41.762  29.020  35.724  1.00  0.00     0.001 A 
ATOM    100  C   UNL A   1      41.582  28.207  33.453  1.00  0.00     0.001 A 
ATOM    101  C   UNL A   1      42.231  28.212  34.689  1.00  0.00     0.000 A 
ENDBRANCH  93  96
ENDBRANCH  86  87
ENDBRANCH  78  81
ENDBRANCH  76  77
ENDBRANCH  75  76
ENDBRANCH   1  75
TORSDOF 16
ENDMDL
MODEL 2
REMARK VINA RESULT:     -10.9      4.268      7.216
REMARK SMILES O=C(NCCCCNC(=O)c1ccc(N2CNC(c3ccccc3)=[NH+]C2=S)cc1)c1ccc(-c2c3nc(c(-c4c(F)cc(S(=O)(=O)[O-])cc4F)c4ccc([nH]4)c(-c4c(F)cc(S(=O)(=O)[O-])cc4F)c4nc(c(-c5c(F)cc(S(=O)(=O)[O-])cc5F)c5ccc2[nH]5)C=C4)C=C3)cc1
REMARK SMILES IDX 5 1 4 2 3 3 1 4 2 5 30 7 31 8 95 9 32 10 94 11 33 12 34 13
REMARK SMILES IDX 35 14 88 15 36 16 93 17 87 18 89 19 37 20 92 21 86 22 85 23
REMARK SMILES IDX 38 25 72 26 51 27 71 28 52 29 55 30 70 31 90 32 53 33 54 34
REMARK SMILES IDX 69 36 91 37 56 38 39 39 40 40 49 41 41 42 42 43 48 44 50 45
REMARK SMILES IDX 43 46 44 47 45 48 46 49 47 50 73 51 74 52 83 53 75 54 76 55
REMARK SMILES IDX 82 56 84 57 77 58 78 59 79 60 80 61 81 62 57 63 58 64 67 65
REMARK SMILES IDX 59 66 60 67 66 68 68 69 61 70 62 71 63 72 64 73 65 74 6 75
REMARK SMILES IDX 7 76 8 77 9 78 10 80 11 81 12 82 29 83 13 84 28 85 14 86
REMARK SMILES IDX 15 87 16 88 26 89 17 90 25 91 27 92 18 93 19 96 20 97 24 98
REMARK SMILES IDX 21 99 23 100 22 101
REMARK H PARENT 3 6 89 24 55 35 8 79 17 94 25 95
REMARK Flexibility Score: inf
ROOT
ATOM      1  C   UNL A   1      33.719  28.109  25.698  1.00  0.00     0.023 C 
ENDROOT
BRANCH   1   2
ATOM      2  C   UNL A   1      33.797  28.332  27.202  1.00  0.00     0.116 C 
BRANCH   2   3
ATOM      3  N   UNL A   1      33.616  29.725  27.577  1.00  0.00    -0.352 N 
ATOM      4  O   UNL A   1      34.139  31.687  28.555  1.00  0.00    -0.269 OA
ATOM      5  C   UNL A   1      34.512  30.580  28.173  1.00  0.00     0.251 C 
ATOM      6  H   UNL A   1      32.731  30.108  27.378  1.00  0.00     0.163 HD
BRANCH   5   7
ATOM      7  C   UNL A   1      35.917  30.157  28.371  1.00  0.00     0.039 A 
ATOM      8  C   UNL A   1      36.836  30.231  27.321  1.00  0.00     0.014 A 
ATOM      9  C   UNL A   1      36.323  29.698  29.627  1.00  0.00     0.014 A 
ATOM     10  C   UNL A   1      38.127  29.741  27.494  1.00  0.00     0.010 A 
ATOM     11  C   UNL A   1      37.643  29.279  29.821  1.00  0.00     0.010 A 
ATOM     12  C   UNL A   1      38.552  29.285  28.752  1.00  0.00    -0.014 A 
BRANCH  12  13
ATOM     13  C   UNL A   1      39.982  28.943  28.953  1.00  0.00     0.031 A 
ATOM     14  C   UNL A   1      40.535  27.602  28.555  1.00  0.00     0.074 A 
ATOM     15  C   UNL A   1      40.782  29.874  29.510  1.00  0.00     0.049 A 
ATOM     16  N   UNL A   1      41.757  27.154  28.677  1.00  0.00    -0.248 NA
ATOM     17  C   UNL A   1      39.602  26.639  27.951  1.00  0.00     0.031 C 
ATOM     18  C   UNL A   1      40.342  31.198  29.961  1.00  0.00     0.029 A 
ATOM     19  N   UNL A   1      42.124  29.860  29.792  1.00  0.00    -0.354 N 
ATOM     20  C   UNL A   1      41.742  25.854  28.186  1.00  0.00     0.074 A 
ATOM     21  C   UNL A   1      40.382  25.579  27.772  1.00  0.00     0.031 C 
ATOM     22  C   UNL A   1      41.395  31.875  30.440  1.00  0.00     0.029 A 
ATOM     23  C   UNL A   1      42.571  31.015  30.387  1.00  0.00     0.049 A 
ATOM     24  H   UNL A   1      42.709  29.096  29.588  1.00  0.00     0.167 HD
ATOM     25  C   UNL A   1      42.771  24.979  28.090  1.00  0.00     0.037 A 
ATOM     26  C   UNL A   1      43.785  31.340  30.870  1.00  0.00     0.037 A 
ATOM     27  C   UNL A   1      44.127  25.278  28.481  1.00  0.00     0.049 A 
ATOM     28  C   UNL A   1      44.899  30.340  30.763  1.00  0.00     0.074 A 
ATOM     29  C   UNL A   1      45.254  24.487  28.342  1.00  0.00     0.029 A 
ATOM     30  N   UNL A   1      44.537  26.451  29.097  1.00  0.00    -0.354 N 
ATOM     31  N   UNL A   1      44.879  29.143  30.228  1.00  0.00    -0.248 NA
ATOM     32  C   UNL A   1      46.196  30.727  31.332  1.00  0.00     0.031 C 
ATOM     33  C   UNL A   1      46.336  25.158  28.920  1.00  0.00     0.029 A 
ATOM     34  C   UNL A   1      45.892  26.387  29.381  1.00  0.00     0.049 A 
ATOM     35  H   UNL A   1      43.953  27.215  29.304  1.00  0.00     0.167 HD
ATOM     36  C   UNL A   1      46.160  28.634  30.396  1.00  0.00     0.074 A 
ATOM     37  C   UNL A   1      46.937  29.664  31.053  1.00  0.00     0.031 C 
ATOM     38  C   UNL A   1      46.647  27.418  30.046  1.00  0.00     0.037 A 
BRANCH  25  39
ATOM     39  C   UNL A   1      42.496  23.602  27.551  1.00  0.00     0.058 A 
ATOM     40  C   UNL A   1      42.516  23.330  26.175  1.00  0.00     0.135 A 
ATOM     41  C   UNL A   1      42.329  22.519  28.431  1.00  0.00     0.135 A 
ATOM     42  F   UNL A   1      42.660  24.330  25.291  1.00  0.00    -0.206 F 
ATOM     43  C   UNL A   1      42.385  22.032  25.690  1.00  0.00     0.059 A 
ATOM     44  C   UNL A   1      42.214  21.211  27.969  1.00  0.00     0.059 A 
ATOM     45  F   UNL A   1      42.302  22.725  29.757  1.00  0.00    -0.206 F 
ATOM     46  C   UNL A   1      42.243  20.978  26.595  1.00  0.00     0.060 A 
BRANCH  46  47
ATOM     47  S   UNL A   1      42.133  19.294  25.950  1.00  0.00     0.124 S 
ATOM     48  O   UNL A   1      42.598  18.513  27.090  1.00  0.00    -0.237 OA
ATOM     49  O   UNL A   1      40.713  19.173  25.636  1.00  0.00    -0.237 OA
ATOM     50  O   UNL A   1      43.026  19.313  24.795  1.00  0.00    -0.744 OA
ENDBRANCH  46  47
ENDBRANCH  25  39
BRANCH  26  51
ATOM     51  C   UNL A   1      43.992  32.650  31.540  1.00  0.00     0.058 A 
ATOM     52  C   UNL A   1      43.740  32.816  32.909  1.00  0.00     0.135 A 
ATOM     53  C   UNL A   1      44.447  33.764  30.817  1.00  0.00     0.135 A 
ATOM     54  F   UNL A   1      43.300  31.780  33.640  1.00  0.00    -0.206 F 
ATOM     55  C   UNL A   1      43.906  34.048  33.534  1.00  0.00     0.059 A 
ATOM     56  C   UNL A   1      44.650  34.997  31.425  1.00  0.00     0.059 A 
ATOM     57  F   UNL A   1      44.723  33.651  29.508  1.00  0.00    -0.206 F 
ATOM     58  C   UNL A   1      44.358  35.133  32.782  1.00  0.00     0.060 A 
BRANCH  58  59
ATOM     59  S   UNL A   1      44.594  36.724  33.601  1.00  0.00     0.124 S 
ATOM     60  O   UNL A   1      45.489  36.359  34.694  1.00  0.00    -0.237 OA
ATOM     61  O   UNL A   1      45.180  37.537  32.541  1.00  0.00    -0.237 OA
ATOM     62  O   UNL A   1      43.239  37.102  33.993  1.00  0.00    -0.744 OA
ENDBRANCH  58  59
ENDBRANCH  26  51
BRANCH  38  63
ATOM     63  C   UNL A   1      48.085  27.140  30.372  1.00  0.00     0.058 A 
ATOM     64  C   UNL A   1      49.118  27.541  29.511  1.00  0.00     0.135 A 
ATOM     65  C   UNL A   1      48.438  26.498  31.570  1.00  0.00     0.135 A 
ATOM     66  F   UNL A   1      48.831  28.147  28.348  1.00  0.00    -0.206 F 
ATOM     67  C   UNL A   1      50.452  27.299  29.817  1.00  0.00     0.059 A 
ATOM     68  C   UNL A   1      49.767  26.268  31.908  1.00  0.00     0.059 A 
ATOM     69  F   UNL A   1      47.486  26.100  32.430  1.00  0.00    -0.206 F 
ATOM     70  C   UNL A   1      50.767  26.663  31.020  1.00  0.00     0.060 A 
BRANCH  70  71
ATOM     71  S   UNL A   1      52.504  26.383  31.421  1.00  0.00     0.124 S 
ATOM     72  O   UNL A   1      52.436  25.129  32.163  1.00  0.00    -0.237 OA
ATOM     73  O   UNL A   1      53.124  26.306  30.102  1.00  0.00    -0.237 OA
ATOM     74  O   UNL A   1      52.864  27.559  32.209  1.00  0.00    -0.744 OA
ENDBRANCH  70  71
ENDBRANCH  38  63
ENDBRANCH  12  13
ENDBRANCH   5   7
ENDBRANCH   2   3
ENDBRANCH   1   2
BRANCH   1  75
ATOM     75  C   UNL A   1      33.312  29.331  24.875  1.00  0.00     0.023 C 
BRANCH  75  76
ATOM     76  C   UNL A   1      32.757  29.035  23.484  1.00  0.00     0.116 C 
BRANCH  76  77
ATOM     77  N   UNL A   1      31.311  29.188  23.407  1.00  0.00    -0.352 N 
ATOM     78  C   UNL A   1      30.329  28.235  23.500  1.00  0.00     0.251 C 
ATOM     79  H   UNL A   1      30.992  30.109  23.270  1.00  0.00     0.163 HD
ATOM     80  O   UNL A   1      29.154  28.522  23.292  1.00  0.00    -0.269 OA
BRANCH  78  81
ATOM     81  C   UNL A   1      30.688  26.843  23.827  1.00  0.00     0.040 A 
ATOM     82  C   UNL A   1      30.938  25.954  22.781  1.00  0.00     0.017 A 
ATOM     83  C   UNL A   1      30.775  26.415  25.155  1.00  0.00     0.017 A 
ATOM     84  C   UNL A   1      31.381  24.662  23.068  1.00  0.00     0.044 A 
ATOM     85  C   UNL A   1      31.213  25.119  25.437  1.00  0.00     0.044 A 
ATOM     86  C   UNL A   1      31.569  24.249  24.396  1.00  0.00     0.103 A 
BRANCH  86  87
ATOM     87  N   UNL A   1      32.120  22.964  24.679  1.00  0.00    -0.219 N 
ATOM     88  C   UNL A   1      31.450  22.159  25.670  1.00  0.00     0.405 C 
ATOM     89  C   UNL A   1      33.396  22.551  24.252  1.00  0.00     0.297 C 
ATOM     90  N   UNL A   1      31.690  20.775  25.403  1.00  0.00    -0.274 N 
ATOM     91  N   UNL A   1      33.758  21.241  24.451  1.00  0.00    -0.236 N 
ATOM     92  S   UNL A   1      34.560  23.576  23.555  1.00  0.00    -0.005 S 
ATOM     93  C   UNL A   1      32.917  20.399  24.950  1.00  0.00     0.229 C 
ATOM     94  H   UNL A   1      30.981  20.106  25.543  1.00  0.00     0.260 HD
ATOM     95  H   UNL A   1      34.665  20.943  24.210  1.00  0.00     0.268 HD
BRANCH  93  96
ATOM     96  C   UNL A   1      33.345  18.975  25.038  1.00  0.00     0.047 A 
ATOM     97  C   UNL A   1      34.540  18.585  24.423  1.00  0.00     0.015 A 
ATOM     98  C   UNL A   1      32.545  18.027  25.682  1.00  0.00     0.015 A 
ATOM     99  C   UNL A   1      34.939  17.249  24.455  1.00  0.00     0.001 A 
ATOM    100  C   UNL A   1      32.944  16.688  25.702  1.00  0.00     0.001 A 
ATOM    101  C   UNL A   1      34.138  16.301  25.091  1.00  0.00     0.000 A 
ENDBRANCH  93  96
ENDBRANCH  86  87
ENDBRANCH  78  81
ENDBRANCH  76  77
ENDBRANCH  75  76
ENDBRANCH   1  75
TORSDOF 16
ENDMDL
MODEL 3
REMARK VINA RESULT:     -10.7      5.001     10.980
REMARK SMILES O=C(NCCCCNC(=O)c1ccc(N2CNC(c3ccccc3)=[NH+]C2=S)cc1)c1ccc(-c2c3nc(c(-c4c(F)cc(S(=O)(=O)[O-])cc4F)c4ccc([nH]4)c(-c4c(F)cc(S(=O)(=O)[O-])cc4F)c4nc(c(-c5c(F)cc(S(=O)(=O)[O-])cc5F)c5ccc2[nH]5)C=C4)C=C3)cc1
REMARK SMILES IDX 5 1 4 2 3 3 1 4 2 5 30 7 31 8 95 9 32 10 94 11 33 12 34 13
REMARK SMILES IDX 35 14 88 15 36 16 93 17 87 18 89 19 37 20 92 21 86 22 85 23
REMARK SMILES IDX 38 25 72 26 51 27 71 28 52 29 55 30 70 31 90 32 53 33 54 34
REMARK SMILES IDX 69 36 91 37 56 38 39 39 40 40 49 41 41 42 42 43 48 44 50 45
REMARK SMILES IDX 43 46 44 47 45 48 46 49 47 50 73 51 74 52 83 53 75 54 76 55
REMARK SMILES IDX 82 56 84 57 77 58 78 59 79 60 80 61 81 62 57 63 58 64 67 65
REMARK SMILES IDX 59 66 60 67 66 68 68 69 61 70 62 71 63 72 64 73 65 74 6 75
REMARK SMILES IDX 7 76 8 77 9 78 10 80 11 81 12 82 29 83 13 84 28 85 14 86
REMARK SMILES IDX 15 87 16 88 26 89 17 90 25 91 27 92 18 93 19 96 20 97 24 98
REMARK SMILES IDX 21 99 23 100 22 101
REMARK H PARENT 3 6 89 24 55 35 8 79 17 94 25 95
REMARK Flexibility Score: inf
ROOT
ATOM      1  C   UNL A   1      34.703  31.389  27.664  1.00  0.00     0.023 C 
ENDROOT
BRANCH   1   2
ATOM      2  C   UNL A   1      35.879  31.657  28.593  1.00  0.00     0.116 C 
BRANCH   2   3
ATOM      3  N   UNL A   1      35.668  31.143  29.936  1.00  0.00    -0.352 N 
ATOM      4  O   UNL A   1      36.096  29.893  31.762  1.00  0.00    -0.269 OA
ATOM      5  C   UNL A   1      36.501  30.361  30.700  1.00  0.00     0.251 C 
ATOM      6  H   UNL A   1      34.811  31.386  30.355  1.00  0.00     0.163 HD
BRANCH   5   7
ATOM      7  C   UNL A   1      37.875  30.069  30.233  1.00  0.00     0.039 A 
ATOM      8  C   UNL A   1      38.932  29.986  31.142  1.00  0.00     0.014 A 
ATOM      9  C   UNL A   1      38.104  29.861  28.870  1.00  0.00     0.014 A 
ATOM     10  C   UNL A   1      40.232  29.807  30.680  1.00  0.00     0.010 A 
ATOM     11  C   UNL A   1      39.400  29.603  28.414  1.00  0.00     0.010 A 
ATOM     12  C   UNL A   1      40.477  29.587  29.315  1.00  0.00    -0.014 A 
BRANCH  12  13
ATOM     13  C   UNL A   1      41.845  29.216  28.874  1.00  0.00     0.031 A 
ATOM     14  C   UNL A   1      42.951  30.232  28.800  1.00  0.00     0.074 A 
ATOM     15  C   UNL A   1      42.074  27.931  28.537  1.00  0.00     0.049 A 
ATOM     16  N   UNL A   1      44.193  30.062  28.425  1.00  0.00    -0.248 NA
ATOM     17  C   UNL A   1      42.627  31.614  29.186  1.00  0.00     0.031 C 
ATOM     18  C   UNL A   1      41.063  26.868  28.545  1.00  0.00     0.029 A 
ATOM     19  N   UNL A   1      43.217  27.295  28.127  1.00  0.00    -0.354 N 
ATOM     20  C   UNL A   1      44.795  31.312  28.509  1.00  0.00     0.074 A 
ATOM     21  C   UNL A   1      43.778  32.237  28.962  1.00  0.00     0.031 C 
ATOM     22  C   UNL A   1      41.635  25.712  28.181  1.00  0.00     0.029 A 
ATOM     23  C   UNL A   1      43.034  25.960  27.857  1.00  0.00     0.049 A 
ATOM     24  H   UNL A   1      44.084  27.751  28.035  1.00  0.00     0.167 HD
ATOM     25  C   UNL A   1      46.079  31.646  28.236  1.00  0.00     0.037 A 
ATOM     26  C   UNL A   1      43.886  25.039  27.368  1.00  0.00     0.037 A 
ATOM     27  C   UNL A   1      47.087  30.706  27.812  1.00  0.00     0.049 A 
ATOM     28  C   UNL A   1      45.296  25.448  27.059  1.00  0.00     0.074 A 
ATOM     29  C   UNL A   1      48.436  30.935  27.595  1.00  0.00     0.029 A 
ATOM     30  N   UNL A   1      46.860  29.368  27.531  1.00  0.00    -0.354 N 
ATOM     31  N   UNL A   1      45.865  26.620  27.216  1.00  0.00    -0.248 NA
ATOM     32  C   UNL A   1      46.180  24.418  26.499  1.00  0.00     0.031 C 
ATOM     33  C   UNL A   1      49.013  29.749  27.132  1.00  0.00     0.029 A 
ATOM     34  C   UNL A   1      48.034  28.769  27.103  1.00  0.00     0.049 A 
ATOM     35  H   UNL A   1      45.994  28.911  27.621  1.00  0.00     0.167 HD
ATOM     36  C   UNL A   1      47.172  26.467  26.774  1.00  0.00     0.074 A 
ATOM     37  C   UNL A   1      47.320  25.083  26.374  1.00  0.00     0.031 C 
ATOM     38  C   UNL A   1      48.160  27.392  26.698  1.00  0.00     0.037 A 
BRANCH  25  39
ATOM     39  C   UNL A   1      46.490  33.087  28.370  1.00  0.00     0.058 A 
ATOM     40  C   UNL A   1      47.055  33.586  29.552  1.00  0.00     0.135 A 
ATOM     41  C   UNL A   1      46.427  33.946  27.260  1.00  0.00     0.135 A 
ATOM     42  F   UNL A   1      47.129  32.812  30.646  1.00  0.00    -0.206 F 
ATOM     43  C   UNL A   1      47.548  34.886  29.629  1.00  0.00     0.059 A 
ATOM     44  C   UNL A   1      46.929  35.243  27.308  1.00  0.00     0.059 A 
ATOM     45  F   UNL A   1      45.894  33.518  26.105  1.00  0.00    -0.206 F 
ATOM     46  C   UNL A   1      47.489  35.705  28.498  1.00  0.00     0.060 A 
BRANCH  46  47
ATOM     47  S   UNL A   1      48.185  37.368  28.599  1.00  0.00     0.124 S 
ATOM     48  O   UNL A   1      48.973  37.429  27.372  1.00  0.00    -0.237 OA
ATOM     49  O   UNL A   1      46.990  38.205  28.626  1.00  0.00    -0.237 OA
ATOM     50  O   UNL A   1      48.955  37.341  29.838  1.00  0.00    -0.744 OA
ENDBRANCH  46  47
ENDBRANCH  25  39
BRANCH  26  51
ATOM     51  C   UNL A   1      43.412  23.657  27.097  1.00  0.00     0.058 A 
ATOM     52  C   UNL A   1      43.113  23.232  25.795  1.00  0.00     0.135 A 
ATOM     53  C   UNL A   1      43.247  22.734  28.142  1.00  0.00     0.135 A 
ATOM     54  F   UNL A   1      43.252  24.080  24.764  1.00  0.00    -0.206 F 
ATOM     55  C   UNL A   1      42.643  21.948  25.541  1.00  0.00     0.059 A 
ATOM     56  C   UNL A   1      42.807  21.437  27.910  1.00  0.00     0.059 A 
ATOM     57  F   UNL A   1      43.539  23.087  29.404  1.00  0.00    -0.206 F 
ATOM     58  C   UNL A   1      42.490  21.059  26.606  1.00  0.00     0.060 A 
BRANCH  58  59
ATOM     59  S   UNL A   1      41.900  19.387  26.269  1.00  0.00     0.124 S 
ATOM     60  O   UNL A   1      42.563  19.094  25.003  1.00  0.00    -0.237 OA
ATOM     61  O   UNL A   1      42.384  18.646  27.429  1.00  0.00    -0.237 OA
ATOM     62  O   UNL A   1      40.451  19.551  26.201  1.00  0.00    -0.744 OA
ENDBRANCH  58  59
ENDBRANCH  26  51
BRANCH  38  63
ATOM     63  C   UNL A   1      49.483  26.934  26.157  1.00  0.00     0.058 A 
ATOM     64  C   UNL A   1      49.789  27.041  24.792  1.00  0.00     0.135 A 
ATOM     65  C   UNL A   1      50.467  26.415  27.014  1.00  0.00     0.135 A 
ATOM     66  F   UNL A   1      48.875  27.520  23.931  1.00  0.00    -0.206 F 
ATOM     67  C   UNL A   1      51.018  26.633  24.289  1.00  0.00     0.059 A 
ATOM     68  C   UNL A   1      51.713  26.024  26.537  1.00  0.00     0.059 A 
ATOM     69  F   UNL A   1      50.225  26.297  28.329  1.00  0.00    -0.206 F 
ATOM     70  C   UNL A   1      51.976  26.126  25.171  1.00  0.00     0.060 A 
BRANCH  70  71
ATOM     71  S   UNL A   1      53.581  25.629  24.512  1.00  0.00     0.124 S 
ATOM     72  O   UNL A   1      54.495  26.307  25.424  1.00  0.00    -0.237 OA
ATOM     73  O   UNL A   1      53.532  24.175  24.628  1.00  0.00    -0.237 OA
ATOM     74  O   UNL A   1      53.561  26.144  23.146  1.00  0.00    -0.744 OA
ENDBRANCH  70  71
ENDBRANCH  38  63
ENDBRANCH  12  13
ENDBRANCH   5   7
ENDBRANCH   2   3
ENDBRANCH   1   2
BRANCH   1  75
ATOM     75  C   UNL A   1      34.494  29.925  27.280  1.00  0.00     0.023 C 
BRANCH  75  76
ATOM     76  C   UNL A   1      33.069  29.398  27.438  1.00  0.00     0.116 C 
BRANCH  76  77
ATOM     77  N   UNL A   1      32.193  29.799  26.347  1.00  0.00    -0.352 N 
ATOM     78  C   UNL A   1      31.677  29.045  25.323  1.00  0.00     0.251 C 
ATOM     79  H   UNL A   1      31.932  30.748  26.343  1.00  0.00     0.163 HD
ATOM     80  O   UNL A   1      31.046  29.572  24.412  1.00  0.00    -0.269 OA
BRANCH  78  81
ATOM     81  C   UNL A   1      31.904  27.589  25.300  1.00  0.00     0.040 A 
ATOM     82  C   UNL A   1      30.882  26.747  25.738  1.00  0.00     0.017 A 
ATOM     83  C   UNL A   1      33.117  27.056  24.853  1.00  0.00     0.017 A 
ATOM     84  C   UNL A   1      31.035  25.364  25.627  1.00  0.00     0.044 A 
ATOM     85  C   UNL A   1      33.268  25.672  24.749  1.00  0.00     0.044 A 
ATOM     86  C   UNL A   1      32.208  24.816  25.087  1.00  0.00     0.103 A 
BRANCH  86  87
ATOM     87  N   UNL A   1      32.317  23.409  24.881  1.00  0.00    -0.219 N 
ATOM     88  C   UNL A   1      31.724  22.865  23.685  1.00  0.00     0.405 C 
ATOM     89  C   UNL A   1      32.727  22.504  25.879  1.00  0.00     0.297 C 
ATOM     90  N   UNL A   1      32.413  21.669  23.311  1.00  0.00    -0.274 N 
ATOM     91  N   UNL A   1      32.942  21.195  25.524  1.00  0.00    -0.236 N 
ATOM     92  S   UNL A   1      32.921  22.899  27.521  1.00  0.00    -0.005 S 
ATOM     93  C   UNL A   1      32.840  20.827  24.291  1.00  0.00     0.229 C 
ATOM     94  H   UNL A   1      32.576  21.458  22.363  1.00  0.00     0.260 HD
ATOM     95  H   UNL A   1      33.176  20.533  26.215  1.00  0.00     0.268 HD
BRANCH  93  96
ATOM     96  C   UNL A   1      33.190  19.416  23.967  1.00  0.00     0.047 A 
ATOM     97  C   UNL A   1      34.288  18.824  24.603  1.00  0.00     0.015 A 
ATOM     98  C   UNL A   1      32.467  18.702  23.007  1.00  0.00     0.015 A 
ATOM     99  C   UNL A   1      34.662  17.519  24.283  1.00  0.00     0.001 A 
ATOM    100  C   UNL A   1      32.852  17.399  22.683  1.00  0.00     0.001 A 
ATOM    101  C   UNL A   1      33.945  16.809  23.321  1.00  0.00     0.000 A 
ENDBRANCH  93  96
ENDBRANCH  86  87
ENDBRANCH  78  81
ENDBRANCH  76  77
ENDBRANCH  75  76
ENDBRANCH   1  75
TORSDOF 16
ENDMDL
