MODEL 1
REMARK VINA RESULT:     -10.8      0.000      0.000
REMARK SMILES O=C(NCCCCNC(=O)c1cc([C@@H]2C=NN=C2c2ccc(F)cc2)c2c(ccc3ccccc32)n1)c1ccc(-c2c3nc(c(-c4c(F)cc(S(=O)(=O)[O-])cc4F)c4ccc([nH]4)c(-c4c(F)cc(S(=O)(=O)[O-])cc4F)c4nc(c(-c5c(F)cc(S(=O)(=O)[O-])cc5F)c5ccc2[nH]5)C=C4)C=C3)cc1
REMARK SMILES IDX 5 1 4 2 3 3 1 4 2 5 37 7 38 8 102 9 39 10 101 11 40 12 41 13
REMARK SMILES IDX 42 14 95 15 43 16 100 17 94 18 96 19 44 20 99 21 93 22 92 23
REMARK SMILES IDX 45 25 79 26 58 27 78 28 59 29 62 30 77 31 97 32 60 33 61 34
REMARK SMILES IDX 76 36 98 37 63 38 46 39 47 40 56 41 48 42 49 43 55 44 57 45
REMARK SMILES IDX 50 46 51 47 52 48 53 49 54 50 80 51 81 52 90 53 82 54 83 55
REMARK SMILES IDX 89 56 91 57 84 58 85 59 86 60 87 61 88 62 64 63 65 64 74 65
REMARK SMILES IDX 66 66 67 67 73 68 75 69 68 70 69 71 70 72 71 73 72 74 6 75
REMARK SMILES IDX 7 76 8 77 9 78 10 80 11 81 12 82 36 83 13 84 27 85 26 86
REMARK SMILES IDX 28 87 35 88 29 89 30 90 34 91 31 92 33 93 32 94 14 95 15 96
REMARK SMILES IDX 18 97 16 98 17 99 19 100 20 101 25 102 21 103 24 104 22 105
REMARK SMILES IDX 23 106
REMARK H PARENT 3 6 96 24 62 35 8 79
REMARK Flexibility Score: inf
ROOT
ATOM      1  C   UNL A   1      34.395  34.091  31.371  1.00  0.00     0.023 C 
ENDROOT
BRANCH   1   2
ATOM      2  C   UNL A   1      34.808  32.654  31.056  1.00  0.00     0.116 C 
BRANCH   2   3
ATOM      3  N   UNL A   1      34.605  32.238  29.684  1.00  0.00    -0.352 N 
ATOM      4  O   UNL A   1      34.665  31.078  27.807  1.00  0.00    -0.269 OA
ATOM      5  C   UNL A   1      35.263  31.380  28.844  1.00  0.00     0.251 C 
ATOM      6  H   UNL A   1      33.825  32.666  29.263  1.00  0.00     0.163 HD
BRANCH   5   7
ATOM      7  C   UNL A   1      36.649  30.881  29.051  1.00  0.00     0.039 A 
ATOM      8  C   UNL A   1      37.714  31.620  29.569  1.00  0.00     0.014 A 
ATOM      9  C   UNL A   1      36.883  29.553  28.649  1.00  0.00     0.014 A 
ATOM     10  C   UNL A   1      39.000  31.085  29.582  1.00  0.00     0.010 A 
ATOM     11  C   UNL A   1      38.160  29.009  28.673  1.00  0.00     0.010 A 
ATOM     12  C   UNL A   1      39.226  29.791  29.108  1.00  0.00    -0.014 A 
BRANCH  12  13
ATOM     13  C   UNL A   1      40.543  29.191  29.323  1.00  0.00     0.031 A 
ATOM     14  C   UNL A   1      40.843  28.982  30.770  1.00  0.00     0.074 A 
ATOM     15  C   UNL A   1      41.328  28.715  28.334  1.00  0.00     0.049 A 
ATOM     16  N   UNL A   1      41.756  29.553  31.486  1.00  0.00    -0.248 NA
ATOM     17  C   UNL A   1      39.893  28.174  31.559  1.00  0.00     0.031 C 
ATOM     18  C   UNL A   1      40.992  28.627  26.911  1.00  0.00     0.029 A 
ATOM     19  N   UNL A   1      42.549  28.105  28.391  1.00  0.00    -0.354 N 
ATOM     20  C   UNL A   1      41.661  28.964  32.746  1.00  0.00     0.074 A 
ATOM     21  C   UNL A   1      40.378  28.317  32.793  1.00  0.00     0.031 C 
ATOM     22  C   UNL A   1      41.864  27.798  26.294  1.00  0.00     0.029 A 
ATOM     23  C   UNL A   1      42.887  27.386  27.242  1.00  0.00     0.049 A 
ATOM     24  H   UNL A   1      43.142  28.166  29.175  1.00  0.00     0.167 HD
ATOM     25  C   UNL A   1      42.769  28.783  33.517  1.00  0.00     0.037 A 
ATOM     26  C   UNL A   1      43.888  26.474  27.101  1.00  0.00     0.037 A 
ATOM     27  C   UNL A   1      43.844  29.637  33.078  1.00  0.00     0.049 A 
ATOM     28  C   UNL A   1      44.859  26.726  28.194  1.00  0.00     0.074 A 
ATOM     29  C   UNL A   1      44.040  30.996  32.937  1.00  0.00     0.029 A 
ATOM     30  N   UNL A   1      44.841  29.030  32.358  1.00  0.00    -0.354 N 
ATOM     31  N   UNL A   1      45.594  27.800  28.286  1.00  0.00    -0.248 NA
ATOM     32  C   UNL A   1      44.719  25.960  29.421  1.00  0.00     0.031 C 
ATOM     33  C   UNL A   1      44.889  31.136  31.798  1.00  0.00     0.029 A 
ATOM     34  C   UNL A   1      45.217  29.859  31.340  1.00  0.00     0.049 A 
ATOM     35  H   UNL A   1      45.223  28.142  32.545  1.00  0.00     0.167 HD
ATOM     36  C   UNL A   1      45.623  28.086  29.642  1.00  0.00     0.074 A 
ATOM     37  C   UNL A   1      45.176  26.858  30.295  1.00  0.00     0.031 C 
ATOM     38  C   UNL A   1      45.726  29.377  30.075  1.00  0.00     0.037 A 
BRANCH  25  39
ATOM     39  C   UNL A   1      43.041  27.522  34.325  1.00  0.00     0.058 A 
ATOM     40  C   UNL A   1      43.410  26.278  33.763  1.00  0.00     0.135 A 
ATOM     41  C   UNL A   1      43.267  27.643  35.714  1.00  0.00     0.135 A 
ATOM     42  F   UNL A   1      43.321  26.016  32.455  1.00  0.00    -0.206 F 
ATOM     43  C   UNL A   1      43.989  25.257  34.503  1.00  0.00     0.059 A 
ATOM     44  C   UNL A   1      43.899  26.649  36.465  1.00  0.00     0.059 A 
ATOM     45  F   UNL A   1      42.959  28.780  36.359  1.00  0.00    -0.206 F 
ATOM     46  C   UNL A   1      44.264  25.461  35.845  1.00  0.00     0.060 A 
BRANCH  46  47
ATOM     47  S   UNL A   1      45.173  24.177  36.717  1.00  0.00     0.124 S 
ATOM     48  O   UNL A   1      44.703  24.371  38.085  1.00  0.00    -0.237 OA
ATOM     49  O   UNL A   1      44.702  22.970  36.045  1.00  0.00    -0.237 OA
ATOM     50  O   UNL A   1      46.568  24.528  36.473  1.00  0.00    -0.744 OA
ENDBRANCH  46  47
ENDBRANCH  25  39
BRANCH  26  51
ATOM     51  C   UNL A   1      43.899  25.195  26.328  1.00  0.00     0.058 A 
ATOM     52  C   UNL A   1      43.143  24.078  26.733  1.00  0.00     0.135 A 
ATOM     53  C   UNL A   1      44.888  24.940  25.351  1.00  0.00     0.135 A 
ATOM     54  F   UNL A   1      42.198  24.185  27.678  1.00  0.00    -0.206 F 
ATOM     55  C   UNL A   1      43.390  22.790  26.260  1.00  0.00     0.059 A 
ATOM     56  C   UNL A   1      45.161  23.653  24.868  1.00  0.00     0.059 A 
ATOM     57  F   UNL A   1      45.666  25.938  24.903  1.00  0.00    -0.206 F 
ATOM     58  C   UNL A   1      44.425  22.577  25.357  1.00  0.00     0.060 A 
BRANCH  58  59
ATOM     59  S   UNL A   1      44.830  20.869  24.924  1.00  0.00     0.124 S 
ATOM     60  O   UNL A   1      43.836  20.123  25.690  1.00  0.00    -0.237 OA
ATOM     61  O   UNL A   1      44.638  20.868  23.477  1.00  0.00    -0.237 OA
ATOM     62  O   UNL A   1      46.211  20.717  25.371  1.00  0.00    -0.744 OA
ENDBRANCH  58  59
ENDBRANCH  26  51
BRANCH  38  63
ATOM     63  C   UNL A   1      46.227  30.414  29.107  1.00  0.00     0.058 A 
ATOM     64  C   UNL A   1      47.596  30.720  29.148  1.00  0.00     0.135 A 
ATOM     65  C   UNL A   1      45.419  31.188  28.254  1.00  0.00     0.135 A 
ATOM     66  F   UNL A   1      48.411  30.052  29.981  1.00  0.00    -0.206 F 
ATOM     67  C   UNL A   1      48.146  31.740  28.384  1.00  0.00     0.059 A 
ATOM     68  C   UNL A   1      45.958  32.194  27.447  1.00  0.00     0.059 A 
ATOM     69  F   UNL A   1      44.088  31.026  28.227  1.00  0.00    -0.206 F 
ATOM     70  C   UNL A   1      47.322  32.469  27.529  1.00  0.00     0.060 A 
BRANCH  70  71
ATOM     71  S   UNL A   1      48.074  33.786  26.552  1.00  0.00     0.124 S 
ATOM     72  O   UNL A   1      47.012  34.100  25.599  1.00  0.00    -0.237 OA
ATOM     73  O   UNL A   1      48.336  34.809  27.560  1.00  0.00    -0.237 OA
ATOM     74  O   UNL A   1      49.261  33.161  25.976  1.00  0.00    -0.744 OA
ENDBRANCH  70  71
ENDBRANCH  38  63
ENDBRANCH  12  13
ENDBRANCH   5   7
ENDBRANCH   2   3
ENDBRANCH   1   2
BRANCH   1  75
ATOM     75  C   UNL A   1      33.894  34.335  32.793  1.00  0.00     0.023 C 
BRANCH  75  76
ATOM     76  C   UNL A   1      34.820  35.149  33.684  1.00  0.00     0.116 C 
BRANCH  76  77
ATOM     77  N   UNL A   1      35.146  34.488  34.941  1.00  0.00    -0.351 N 
ATOM     78  C   UNL A   1      36.283  33.787  35.290  1.00  0.00     0.269 C 
ATOM     79  H   UNL A   1      34.457  34.549  35.640  1.00  0.00     0.163 HD
ATOM     80  O   UNL A   1      36.348  33.241  36.394  1.00  0.00    -0.268 OA
BRANCH  78  81
ATOM     81  C   UNL A   1      37.442  33.746  34.356  1.00  0.00     0.129 A 
ATOM     82  C   UNL A   1      38.601  33.119  34.739  1.00  0.00     0.039 A 
ATOM     83  N   UNL A   1      37.306  34.313  33.154  1.00  0.00    -0.243 NA
ATOM     84  C   UNL A   1      39.748  33.154  33.912  1.00  0.00    -0.021 A 
ATOM     85  C   UNL A   1      38.348  34.299  32.317  1.00  0.00     0.072 A 
ATOM     86  C   UNL A   1      39.644  33.754  32.593  1.00  0.00     0.012 A 
ATOM     87  C   UNL A   1      38.055  34.865  31.097  1.00  0.00     0.029 A 
ATOM     88  C   UNL A   1      40.633  33.849  31.496  1.00  0.00    -0.009 A 
ATOM     89  C   UNL A   1      38.984  34.938  30.073  1.00  0.00     0.011 A 
ATOM     90  C   UNL A   1      40.264  34.442  30.255  1.00  0.00    -0.018 A 
ATOM     91  C   UNL A   1      41.969  33.388  31.523  1.00  0.00     0.009 A 
ATOM     92  C   UNL A   1      41.161  34.541  29.173  1.00  0.00     0.009 A 
ATOM     93  C   UNL A   1      42.866  33.488  30.452  1.00  0.00     0.001 A 
ATOM     94  C   UNL A   1      42.460  34.066  29.269  1.00  0.00     0.001 A 
BRANCH  84  95
ATOM     95  C   UNL A   1      40.914  32.469  34.585  1.00  0.00     0.115 C 
ATOM     96  C   UNL A   1      40.634  31.410  35.586  1.00  0.00     0.123 C 
ATOM     97  C   UNL A   1      41.947  33.235  35.345  1.00  0.00     0.083 C 
ATOM     98  N   UNL A   1      41.441  31.458  36.596  1.00  0.00    -0.162 NA
ATOM     99  N   UNL A   1      42.284  32.615  36.443  1.00  0.00    -0.154 NA
BRANCH  97 100
ATOM    100  C   UNL A   1      42.634  34.445  34.841  1.00  0.00    -0.001 A 
ATOM    101  C   UNL A   1      41.902  35.640  34.797  1.00  0.00     0.013 A 
ATOM    102  C   UNL A   1      43.974  34.451  34.435  1.00  0.00     0.013 A 
ATOM    103  C   UNL A   1      42.516  36.827  34.391  1.00  0.00     0.040 A 
ATOM    104  C   UNL A   1      44.587  35.639  34.032  1.00  0.00     0.040 A 
ATOM    105  C   UNL A   1      43.856  36.817  34.020  1.00  0.00     0.123 A 
ATOM    106  F   UNL A   1      44.448  37.957  33.643  1.00  0.00    -0.207 F 
ENDBRANCH  97 100
ENDBRANCH  84  95
ENDBRANCH  78  81
ENDBRANCH  76  77
ENDBRANCH  75  76
ENDBRANCH   1  75
TORSDOF 16
ENDMDL
MODEL 2
REMARK VINA RESULT:     -10.6      5.049     12.076
REMARK SMILES O=C(NCCCCNC(=O)c1cc([C@@H]2C=NN=C2c2ccc(F)cc2)c2c(ccc3ccccc32)n1)c1ccc(-c2c3nc(c(-c4c(F)cc(S(=O)(=O)[O-])cc4F)c4ccc([nH]4)c(-c4c(F)cc(S(=O)(=O)[O-])cc4F)c4nc(c(-c5c(F)cc(S(=O)(=O)[O-])cc5F)c5ccc2[nH]5)C=C4)C=C3)cc1
REMARK SMILES IDX 5 1 4 2 3 3 1 4 2 5 37 7 38 8 102 9 39 10 101 11 40 12 41 13
REMARK SMILES IDX 42 14 95 15 43 16 100 17 94 18 96 19 44 20 99 21 93 22 92 23
REMARK SMILES IDX 45 25 79 26 58 27 78 28 59 29 62 30 77 31 97 32 60 33 61 34
REMARK SMILES IDX 76 36 98 37 63 38 46 39 47 40 56 41 48 42 49 43 55 44 57 45
REMARK SMILES IDX 50 46 51 47 52 48 53 49 54 50 80 51 81 52 90 53 82 54 83 55
REMARK SMILES IDX 89 56 91 57 84 58 85 59 86 60 87 61 88 62 64 63 65 64 74 65
REMARK SMILES IDX 66 66 67 67 73 68 75 69 68 70 69 71 70 72 71 73 72 74 6 75
REMARK SMILES IDX 7 76 8 77 9 78 10 80 11 81 12 82 36 83 13 84 27 85 26 86
REMARK SMILES IDX 28 87 35 88 29 89 30 90 34 91 31 92 33 93 32 94 14 95 15 96
REMARK SMILES IDX 18 97 16 98 17 99 19 100 20 101 25 102 21 103 24 104 22 105
REMARK SMILES IDX 23 106
REMARK H PARENT 3 6 96 24 62 35 8 79
REMARK Flexibility Score: inf
ROOT
ATOM      1  C   UNL A   1      39.508  21.345  26.203  1.00  0.00     0.023 C 
ENDROOT
BRANCH   1   2
ATOM      2  C   UNL A   1      40.983  21.102  26.518  1.00  0.00     0.116 C 
BRANCH   2   3
ATOM      3  N   UNL A   1      41.914  21.531  25.495  1.00  0.00    -0.352 N 
ATOM      4  O   UNL A   1      43.568  22.554  24.452  1.00  0.00    -0.269 OA
ATOM      5  C   UNL A   1      42.712  22.632  25.337  1.00  0.00     0.251 C 
ATOM      6  H   UNL A   1      41.989  20.892  24.750  1.00  0.00     0.163 HD
BRANCH   5   7
ATOM      7  C   UNL A   1      42.553  23.912  26.079  1.00  0.00     0.039 A 
ATOM      8  C   UNL A   1      41.841  25.029  25.637  1.00  0.00     0.014 A 
ATOM      9  C   UNL A   1      43.217  23.984  27.317  1.00  0.00     0.014 A 
ATOM     10  C   UNL A   1      41.883  26.220  26.357  1.00  0.00     0.010 A 
ATOM     11  C   UNL A   1      43.251  25.164  28.048  1.00  0.00     0.010 A 
ATOM     12  C   UNL A   1      42.611  26.294  27.547  1.00  0.00    -0.014 A 
BRANCH  12  13
ATOM     13  C   UNL A   1      42.469  27.491  28.376  1.00  0.00     0.031 A 
ATOM     14  C   UNL A   1      43.580  28.464  28.166  1.00  0.00     0.074 A 
ATOM     15  C   UNL A   1      41.375  27.774  29.114  1.00  0.00     0.049 A 
ATOM     16  N   UNL A   1      44.487  28.834  29.010  1.00  0.00    -0.248 NA
ATOM     17  C   UNL A   1      43.821  28.945  26.792  1.00  0.00     0.031 C 
ATOM     18  C   UNL A   1      40.125  27.012  29.162  1.00  0.00     0.029 A 
ATOM     19  N   UNL A   1      41.093  28.858  29.897  1.00  0.00    -0.354 N 
ATOM     20  C   UNL A   1      45.239  29.801  28.345  1.00  0.00     0.074 A 
ATOM     21  C   UNL A   1      44.940  29.655  26.948  1.00  0.00     0.031 C 
ATOM     22  C   UNL A   1      39.157  27.769  29.727  1.00  0.00     0.029 A 
ATOM     23  C   UNL A   1      39.736  29.020  30.187  1.00  0.00     0.049 A 
ATOM     24  H   UNL A   1      41.787  29.472  30.230  1.00  0.00     0.167 HD
ATOM     25  C   UNL A   1      45.792  30.845  29.025  1.00  0.00     0.037 A 
ATOM     26  C   UNL A   1      39.127  30.124  30.703  1.00  0.00     0.037 A 
ATOM     27  C   UNL A   1      45.870  30.554  30.435  1.00  0.00     0.049 A 
ATOM     28  C   UNL A   1      40.183  30.931  31.364  1.00  0.00     0.074 A 
ATOM     29  C   UNL A   1      46.474  29.592  31.219  1.00  0.00     0.029 A 
ATOM     30  N   UNL A   1      44.934  31.164  31.229  1.00  0.00    -0.354 N 
ATOM     31  N   UNL A   1      40.830  30.555  32.432  1.00  0.00    -0.248 NA
ATOM     32  C   UNL A   1      40.813  31.990  30.593  1.00  0.00     0.031 C 
ATOM     33  C   UNL A   1      45.582  29.387  32.314  1.00  0.00     0.029 A 
ATOM     34  C   UNL A   1      44.512  30.273  32.176  1.00  0.00     0.049 A 
ATOM     35  H   UNL A   1      44.618  32.091  31.133  1.00  0.00     0.167 HD
ATOM     36  C   UNL A   1      42.129  30.988  32.221  1.00  0.00     0.074 A 
ATOM     37  C   UNL A   1      42.030  31.966  31.140  1.00  0.00     0.031 C 
ATOM     38  C   UNL A   1      43.183  30.295  32.745  1.00  0.00     0.037 A 
BRANCH  25  39
ATOM     39  C   UNL A   1      45.802  32.277  28.511  1.00  0.00     0.058 A 
ATOM     40  C   UNL A   1      44.641  33.032  28.228  1.00  0.00     0.135 A 
ATOM     41  C   UNL A   1      46.993  33.029  28.626  1.00  0.00     0.135 A 
ATOM     42  F   UNL A   1      43.422  32.490  28.147  1.00  0.00    -0.206 F 
ATOM     43  C   UNL A   1      44.649  34.415  28.107  1.00  0.00     0.059 A 
ATOM     44  C   UNL A   1      47.013  34.425  28.563  1.00  0.00     0.059 A 
ATOM     45  F   UNL A   1      48.160  32.422  28.897  1.00  0.00    -0.206 F 
ATOM     46  C   UNL A   1      45.831  35.108  28.311  1.00  0.00     0.060 A 
BRANCH  46  47
ATOM     47  S   UNL A   1      45.754  36.906  28.317  1.00  0.00     0.124 S 
ATOM     48  O   UNL A   1      44.740  37.153  27.298  1.00  0.00    -0.237 OA
ATOM     49  O   UNL A   1      45.357  37.182  29.693  1.00  0.00    -0.237 OA
ATOM     50  O   UNL A   1      47.113  37.301  27.964  1.00  0.00    -0.744 OA
ENDBRANCH  46  47
ENDBRANCH  25  39
BRANCH  26  51
ATOM     51  C   UNL A   1      37.791  30.707  30.373  1.00  0.00     0.058 A 
ATOM     52  C   UNL A   1      37.407  30.973  29.045  1.00  0.00     0.135 A 
ATOM     53  C   UNL A   1      36.987  31.302  31.371  1.00  0.00     0.135 A 
ATOM     54  F   UNL A   1      38.110  30.492  28.009  1.00  0.00    -0.206 F 
ATOM     55  C   UNL A   1      36.347  31.820  28.722  1.00  0.00     0.059 A 
ATOM     56  C   UNL A   1      35.923  32.165  31.072  1.00  0.00     0.059 A 
ATOM     57  F   UNL A   1      37.273  31.115  32.669  1.00  0.00    -0.206 F 
ATOM     58  C   UNL A   1      35.633  32.443  29.739  1.00  0.00     0.060 A 
BRANCH  58  59
ATOM     59  S   UNL A   1      34.399  33.679  29.269  1.00  0.00     0.124 S 
ATOM     60  O   UNL A   1      35.236  34.741  28.718  1.00  0.00    -0.237 OA
ATOM     61  O   UNL A   1      33.593  32.948  28.296  1.00  0.00    -0.237 OA
ATOM     62  O   UNL A   1      33.729  33.993  30.526  1.00  0.00    -0.744 OA
ENDBRANCH  58  59
ENDBRANCH  26  51
BRANCH  38  63
ATOM     63  C   UNL A   1      42.915  29.339  33.875  1.00  0.00     0.058 A 
ATOM     64  C   UNL A   1      42.577  28.021  33.532  1.00  0.00     0.135 A 
ATOM     65  C   UNL A   1      42.853  29.686  35.237  1.00  0.00     0.135 A 
ATOM     66  F   UNL A   1      42.566  27.641  32.244  1.00  0.00    -0.206 F 
ATOM     67  C   UNL A   1      42.196  27.086  34.486  1.00  0.00     0.059 A 
ATOM     68  C   UNL A   1      42.510  28.751  36.217  1.00  0.00     0.059 A 
ATOM     69  F   UNL A   1      43.067  30.948  35.639  1.00  0.00    -0.206 F 
ATOM     70  C   UNL A   1      42.173  27.456  35.829  1.00  0.00     0.060 A 
BRANCH  70  71
ATOM     71  S   UNL A   1      41.673  26.213  37.037  1.00  0.00     0.124 S 
ATOM     72  O   UNL A   1      42.728  26.329  38.042  1.00  0.00    -0.237 OA
ATOM     73  O   UNL A   1      40.358  26.693  37.450  1.00  0.00    -0.237 OA
ATOM     74  O   UNL A   1      41.672  24.967  36.278  1.00  0.00    -0.744 OA
ENDBRANCH  70  71
ENDBRANCH  38  63
ENDBRANCH  12  13
ENDBRANCH   5   7
ENDBRANCH   2   3
ENDBRANCH   1   2
BRANCH   1  75
ATOM     75  C   UNL A   1      38.970  22.721  26.593  1.00  0.00     0.023 C 
BRANCH  75  76
ATOM     76  C   UNL A   1      37.703  23.157  25.873  1.00  0.00     0.116 C 
BRANCH  76  77
ATOM     77  N   UNL A   1      37.727  22.889  24.441  1.00  0.00    -0.351 N 
ATOM     78  C   UNL A   1      36.681  22.861  23.540  1.00  0.00     0.269 C 
ATOM     79  H   UNL A   1      38.616  22.702  24.062  1.00  0.00     0.163 HD
ATOM     80  O   UNL A   1      36.897  22.551  22.366  1.00  0.00    -0.268 OA
BRANCH  78  81
ATOM     81  C   UNL A   1      35.316  23.260  23.979  1.00  0.00     0.129 A 
ATOM     82  C   UNL A   1      34.610  24.185  23.251  1.00  0.00     0.039 A 
ATOM     83  N   UNL A   1      34.810  22.681  25.073  1.00  0.00    -0.243 NA
ATOM     84  C   UNL A   1      33.356  24.654  23.704  1.00  0.00    -0.021 A 
ATOM     85  C   UNL A   1      33.592  23.048  25.487  1.00  0.00     0.072 A 
ATOM     86  C   UNL A   1      32.763  24.049  24.884  1.00  0.00     0.012 A 
ATOM     87  C   UNL A   1      33.171  22.337  26.587  1.00  0.00     0.029 A 
ATOM     88  C   UNL A   1      31.446  24.268  25.523  1.00  0.00    -0.009 A 
ATOM     89  C   UNL A   1      31.932  22.542  27.170  1.00  0.00     0.011 A 
ATOM     90  C   UNL A   1      31.068  23.494  26.657  1.00  0.00    -0.018 A 
ATOM     91  C   UNL A   1      30.456  25.193  25.118  1.00  0.00     0.009 A 
ATOM     92  C   UNL A   1      29.820  23.650  27.291  1.00  0.00     0.009 A 
ATOM     93  C   UNL A   1      29.216  25.355  25.747  1.00  0.00     0.001 A 
ATOM     94  C   UNL A   1      28.894  24.579  26.839  1.00  0.00     0.001 A 
BRANCH  84  95
ATOM     95  C   UNL A   1      32.820  25.723  22.779  1.00  0.00     0.115 C 
ATOM     96  C   UNL A   1      33.059  25.584  21.322  1.00  0.00     0.123 C 
ATOM     97  C   UNL A   1      33.191  27.161  22.938  1.00  0.00     0.083 C 
ATOM     98  N   UNL A   1      33.328  26.717  20.756  1.00  0.00    -0.162 NA
ATOM     99  N   UNL A   1      33.406  27.725  21.781  1.00  0.00    -0.154 NA
BRANCH  97 100
ATOM    100  C   UNL A   1      33.148  27.902  24.218  1.00  0.00    -0.001 A 
ATOM    101  C   UNL A   1      31.952  28.552  24.556  1.00  0.00     0.013 A 
ATOM    102  C   UNL A   1      34.229  27.959  25.106  1.00  0.00     0.013 A 
ATOM    103  C   UNL A   1      31.832  29.214  25.780  1.00  0.00     0.040 A 
ATOM    104  C   UNL A   1      34.106  28.617  26.331  1.00  0.00     0.040 A 
ATOM    105  C   UNL A   1      32.908  29.233  26.660  1.00  0.00     0.123 A 
ATOM    106  F   UNL A   1      32.789  29.856  27.839  1.00  0.00    -0.207 F 
ENDBRANCH  97 100
ENDBRANCH  84  95
ENDBRANCH  78  81
ENDBRANCH  76  77
ENDBRANCH  75  76
ENDBRANCH   1  75
TORSDOF 16
ENDMDL
MODEL 3
REMARK VINA RESULT:     -10.5      1.507      2.270
REMARK SMILES O=C(NCCCCNC(=O)c1cc([C@@H]2C=NN=C2c2ccc(F)cc2)c2c(ccc3ccccc32)n1)c1ccc(-c2c3nc(c(-c4c(F)cc(S(=O)(=O)[O-])cc4F)c4ccc([nH]4)c(-c4c(F)cc(S(=O)(=O)[O-])cc4F)c4nc(c(-c5c(F)cc(S(=O)(=O)[O-])cc5F)c5ccc2[nH]5)C=C4)C=C3)cc1
REMARK SMILES IDX 5 1 4 2 3 3 1 4 2 5 37 7 38 8 102 9 39 10 101 11 40 12 41 13
REMARK SMILES IDX 42 14 95 15 43 16 100 17 94 18 96 19 44 20 99 21 93 22 92 23
REMARK SMILES IDX 45 25 79 26 58 27 78 28 59 29 62 30 77 31 97 32 60 33 61 34
REMARK SMILES IDX 76 36 98 37 63 38 46 39 47 40 56 41 48 42 49 43 55 44 57 45
REMARK SMILES IDX 50 46 51 47 52 48 53 49 54 50 80 51 81 52 90 53 82 54 83 55
REMARK SMILES IDX 89 56 91 57 84 58 85 59 86 60 87 61 88 62 64 63 65 64 74 65
REMARK SMILES IDX 66 66 67 67 73 68 75 69 68 70 69 71 70 72 71 73 72 74 6 75
REMARK SMILES IDX 7 76 8 77 9 78 10 80 11 81 12 82 36 83 13 84 27 85 26 86
REMARK SMILES IDX 28 87 35 88 29 89 30 90 34 91 31 92 33 93 32 94 14 95 15 96
REMARK SMILES IDX 18 97 16 98 17 99 19 100 20 101 25 102 21 103 24 104 22 105
REMARK SMILES IDX 23 106
REMARK H PARENT 3 6 96 24 62 35 8 79
REMARK Flexibility Score: inf
ROOT
ATOM      1  C   UNL A   1      35.070  34.233  31.421  1.00  0.00     0.023 C 
ENDROOT
BRANCH   1   2
ATOM      2  C   UNL A   1      34.495  32.823  31.288  1.00  0.00     0.116 C 
BRANCH   2   3
ATOM      3  N   UNL A   1      34.218  32.393  29.933  1.00  0.00    -0.352 N 
ATOM      4  O   UNL A   1      34.201  31.230  28.058  1.00  0.00    -0.269 OA
ATOM      5  C   UNL A   1      34.854  31.563  29.050  1.00  0.00     0.251 C 
ATOM      6  H   UNL A   1      33.392  32.783  29.567  1.00  0.00     0.163 HD
BRANCH   5   7
ATOM      7  C   UNL A   1      36.273  31.128  29.162  1.00  0.00     0.039 A 
ATOM      8  C   UNL A   1      37.377  31.971  29.301  1.00  0.00     0.014 A 
ATOM      9  C   UNL A   1      36.491  29.740  29.084  1.00  0.00     0.014 A 
ATOM     10  C   UNL A   1      38.669  31.453  29.252  1.00  0.00     0.010 A 
ATOM     11  C   UNL A   1      37.776  29.215  29.049  1.00  0.00     0.010 A 
ATOM     12  C   UNL A   1      38.867  30.078  29.099  1.00  0.00    -0.014 A 
BRANCH  12  13
ATOM     13  C   UNL A   1      40.222  29.549  29.254  1.00  0.00     0.031 A 
ATOM     14  C   UNL A   1      40.607  29.385  30.686  1.00  0.00     0.074 A 
ATOM     15  C   UNL A   1      40.976  29.092  28.233  1.00  0.00     0.049 A 
ATOM     16  N   UNL A   1      41.526  30.015  31.342  1.00  0.00    -0.248 NA
ATOM     17  C   UNL A   1      39.742  28.548  31.539  1.00  0.00     0.031 C 
ATOM     18  C   UNL A   1      40.572  28.958  26.832  1.00  0.00     0.029 A 
ATOM     19  N   UNL A   1      42.228  28.543  28.236  1.00  0.00    -0.354 N 
ATOM     20  C   UNL A   1      41.527  29.449  32.616  1.00  0.00     0.074 A 
ATOM     21  C   UNL A   1      40.283  28.741  32.743  1.00  0.00     0.031 C 
ATOM     22  C   UNL A   1      41.451  28.159  26.184  1.00  0.00     0.029 A 
ATOM     23  C   UNL A   1      42.541  27.819  27.084  1.00  0.00     0.049 A 
ATOM     24  H   UNL A   1      42.857  28.650  28.987  1.00  0.00     0.167 HD
ATOM     25  C   UNL A   1      42.681  29.339  33.330  1.00  0.00     0.037 A 
ATOM     26  C   UNL A   1      43.578  26.954  26.907  1.00  0.00     0.037 A 
ATOM     27  C   UNL A   1      43.688  30.236  32.819  1.00  0.00     0.049 A 
ATOM     28  C   UNL A   1      44.591  27.277  27.942  1.00  0.00     0.074 A 
ATOM     29  C   UNL A   1      43.807  31.599  32.642  1.00  0.00     0.029 A 
ATOM     30  N   UNL A   1      44.675  29.663  32.058  1.00  0.00    -0.354 N 
ATOM     31  N   UNL A   1      45.275  28.387  27.975  1.00  0.00    -0.248 NA
ATOM     32  C   UNL A   1      44.555  26.530  29.189  1.00  0.00     0.031 C 
ATOM     33  C   UNL A   1      44.588  31.757  31.458  1.00  0.00     0.029 A 
ATOM     34  C   UNL A   1      44.955  30.489  31.006  1.00  0.00     0.049 A 
ATOM     35  H   UNL A   1      45.110  28.800  32.241  1.00  0.00     0.167 HD
ATOM     36  C   UNL A   1      45.360  28.702  29.321  1.00  0.00     0.074 A 
ATOM     37  C   UNL A   1      45.011  27.468  30.020  1.00  0.00     0.031 C 
ATOM     38  C   UNL A   1      45.420  30.006  29.725  1.00  0.00     0.037 A 
BRANCH  25  39
ATOM     39  C   UNL A   1      43.058  28.110  34.145  1.00  0.00     0.058 A 
ATOM     40  C   UNL A   1      43.413  26.860  33.587  1.00  0.00     0.135 A 
ATOM     41  C   UNL A   1      43.401  28.278  35.506  1.00  0.00     0.135 A 
ATOM     42  F   UNL A   1      43.218  26.556  32.300  1.00  0.00    -0.206 F 
ATOM     43  C   UNL A   1      44.083  25.876  34.301  1.00  0.00     0.059 A 
ATOM     44  C   UNL A   1      44.124  27.323  36.225  1.00  0.00     0.059 A 
ATOM     45  F   UNL A   1      43.118  29.425  36.144  1.00  0.00    -0.206 F 
ATOM     46  C   UNL A   1      44.467  26.128  35.608  1.00  0.00     0.060 A 
BRANCH  46  47
ATOM     47  S   UNL A   1      45.485  24.894  36.431  1.00  0.00     0.124 S 
ATOM     48  O   UNL A   1      44.663  24.574  37.594  1.00  0.00    -0.237 OA
ATOM     49  O   UNL A   1      45.578  23.855  35.411  1.00  0.00    -0.237 OA
ATOM     50  O   UNL A   1      46.723  25.612  36.712  1.00  0.00    -0.744 OA
ENDBRANCH  46  47
ENDBRANCH  25  39
BRANCH  26  51
ATOM     51  C   UNL A   1      43.614  25.661  26.157  1.00  0.00     0.058 A 
ATOM     52  C   UNL A   1      42.836  24.555  26.552  1.00  0.00     0.135 A 
ATOM     53  C   UNL A   1      44.639  25.384  25.225  1.00  0.00     0.135 A 
ATOM     54  F   UNL A   1      41.855  24.683  27.457  1.00  0.00    -0.206 F 
ATOM     55  C   UNL A   1      43.095  23.257  26.113  1.00  0.00     0.059 A 
ATOM     56  C   UNL A   1      44.924  24.087  24.776  1.00  0.00     0.059 A 
ATOM     57  F   UNL A   1      45.439  26.370  24.790  1.00  0.00    -0.206 F 
ATOM     58  C   UNL A   1      44.164  23.024  25.255  1.00  0.00     0.060 A 
BRANCH  58  59
ATOM     59  S   UNL A   1      44.577  21.306  24.869  1.00  0.00     0.124 S 
ATOM     60  O   UNL A   1      43.450  20.589  25.458  1.00  0.00    -0.237 OA
ATOM     61  O   UNL A   1      44.616  21.324  23.410  1.00  0.00    -0.237 OA
ATOM     62  O   UNL A   1      45.863  21.104  25.526  1.00  0.00    -0.744 OA
ENDBRANCH  58  59
ENDBRANCH  26  51
BRANCH  38  63
ATOM     63  C   UNL A   1      45.818  31.046  28.713  1.00  0.00     0.058 A 
ATOM     64  C   UNL A   1      47.158  31.463  28.715  1.00  0.00     0.135 A 
ATOM     65  C   UNL A   1      44.934  31.722  27.852  1.00  0.00     0.135 A 
ATOM     66  F   UNL A   1      48.040  30.892  29.552  1.00  0.00    -0.206 F 
ATOM     67  C   UNL A   1      47.609  32.497  27.906  1.00  0.00     0.059 A 
ATOM     68  C   UNL A   1      45.374  32.739  27.001  1.00  0.00     0.059 A 
ATOM     69  F   UNL A   1      43.620  31.451  27.858  1.00  0.00    -0.206 F 
ATOM     70  C   UNL A   1      46.712  33.126  27.045  1.00  0.00     0.060 A 
BRANCH  70  71
ATOM     71  S   UNL A   1      47.337  34.465  26.009  1.00  0.00     0.124 S 
ATOM     72  O   UNL A   1      46.319  34.537  24.963  1.00  0.00    -0.237 OA
ATOM     73  O   UNL A   1      47.362  35.590  26.939  1.00  0.00    -0.237 OA
ATOM     74  O   UNL A   1      48.645  33.989  25.572  1.00  0.00    -0.744 OA
ENDBRANCH  70  71
ENDBRANCH  38  63
ENDBRANCH  12  13
ENDBRANCH   5   7
ENDBRANCH   2   3
ENDBRANCH   1   2
BRANCH   1  75
ATOM     75  C   UNL A   1      35.605  34.597  32.805  1.00  0.00     0.023 C 
BRANCH  75  76
ATOM     76  C   UNL A   1      37.110  34.459  32.982  1.00  0.00     0.116 C 
BRANCH  76  77
ATOM     77  N   UNL A   1      37.502  33.252  33.697  1.00  0.00    -0.351 N 
ATOM     78  C   UNL A   1      38.751  32.675  33.815  1.00  0.00     0.269 C 
ATOM     79  H   UNL A   1      36.774  32.781  34.160  1.00  0.00     0.163 HD
ATOM     80  O   UNL A   1      38.873  31.605  34.418  1.00  0.00    -0.268 OA
BRANCH  78  81
ATOM     81  C   UNL A   1      39.945  33.374  33.265  1.00  0.00     0.129 A 
ATOM     82  C   UNL A   1      40.733  34.129  34.096  1.00  0.00     0.039 A 
ATOM     83  N   UNL A   1      40.221  33.225  31.966  1.00  0.00    -0.243 NA
ATOM     84  C   UNL A   1      41.811  34.884  33.579  1.00  0.00    -0.021 A 
ATOM     85  C   UNL A   1      41.279  33.866  31.459  1.00  0.00     0.072 A 
ATOM     86  C   UNL A   1      42.154  34.747  32.174  1.00  0.00     0.012 A 
ATOM     87  C   UNL A   1      41.481  33.583  30.127  1.00  0.00     0.029 A 
ATOM     88  C   UNL A   1      43.266  35.330  31.391  1.00  0.00    -0.009 A 
ATOM     89  C   UNL A   1      42.533  34.123  29.407  1.00  0.00     0.011 A 
ATOM     90  C   UNL A   1      43.424  34.991  30.017  1.00  0.00    -0.018 A 
ATOM     91  C   UNL A   1      44.256  36.221  31.867  1.00  0.00     0.009 A 
ATOM     92  C   UNL A   1      44.475  35.503  29.232  1.00  0.00     0.009 A 
ATOM     93  C   UNL A   1      45.301  36.736  31.089  1.00  0.00     0.001 A 
ATOM     94  C   UNL A   1      45.413  36.374  29.765  1.00  0.00     0.001 A 
BRANCH  84  95
ATOM     95  C   UNL A   1      42.471  35.692  34.672  1.00  0.00     0.115 C 
ATOM     96  C   UNL A   1      42.372  37.171  34.619  1.00  0.00     0.123 C 
ATOM     97  C   UNL A   1      43.930  35.571  34.970  1.00  0.00     0.083 C 
ATOM     98  N   UNL A   1      43.470  37.754  34.978  1.00  0.00    -0.162 NA
ATOM     99  N   UNL A   1      44.464  36.737  35.209  1.00  0.00    -0.154 NA
BRANCH  97 100
ATOM    100  C   UNL A   1      44.646  34.287  35.150  1.00  0.00    -0.001 A 
ATOM    101  C   UNL A   1      45.847  34.108  34.451  1.00  0.00     0.013 A 
ATOM    102  C   UNL A   1      44.190  33.270  35.998  1.00  0.00     0.013 A 
ATOM    103  C   UNL A   1      46.598  32.944  34.630  1.00  0.00     0.040 A 
ATOM    104  C   UNL A   1      44.944  32.109  36.179  1.00  0.00     0.040 A 
ATOM    105  C   UNL A   1      46.143  31.959  35.499  1.00  0.00     0.123 A 
ATOM    106  F   UNL A   1      46.870  30.848  35.681  1.00  0.00    -0.207 F 
ENDBRANCH  97 100
ENDBRANCH  84  95
ENDBRANCH  78  81
ENDBRANCH  76  77
ENDBRANCH  75  76
ENDBRANCH   1  75
TORSDOF 16
ENDMDL
