MODEL 1
REMARK VINA RESULT:     -12.8      0.000      0.000
REMARK SMILES CCN(CC)c1ccc([C@@H]2c3[nH]c4ccccc4c3C[C@@H](C(=O)NCCCCNC(=O)c3ccc(-c4c5nc(c(-c6c(F)cc(S(=O)(=O)[O-])cc6F)c6ccc([nH]6)c(-c6c(F)cc(S(=O)(=O)[O-])cc6F)c6nc(c(-c7c(F)cc(S(=O)(=O)[O-])cc7F)c7ccc4[nH]7)C=C6)C=C5)cc3)N2C(C)=O)cc1
REMARK SMILES IDX 26 1 25 2 24 3 22 4 23 5 21 7 10 8 11 9 98 10 12 11 19 12
REMARK SMILES IDX 13 13 18 15 20 16 14 17 17 18 15 19 16 20 9 21 6 22 7 23
REMARK SMILES IDX 103 24 8 25 102 26 3 27 2 28 1 29 4 30 5 31 99 32 100 33
REMARK SMILES IDX 101 34 27 35 28 36 29 37 30 38 31 40 32 41 33 42 97 43 34 44
REMARK SMILES IDX 96 45 35 46 36 47 37 48 90 49 38 50 95 51 89 52 91 53 39 54
REMARK SMILES IDX 94 55 88 56 87 57 40 59 74 60 53 61 73 62 54 63 57 64 72 65
REMARK SMILES IDX 92 66 55 67 56 68 71 70 93 71 58 72 41 73 42 74 51 75 43 76
REMARK SMILES IDX 44 77 50 78 52 79 45 80 46 81 47 82 48 83 49 84 75 85 76 86
REMARK SMILES IDX 85 87 77 88 78 89 84 90 86 91 79 92 80 93 81 94 82 95 83 96
REMARK SMILES IDX 59 97 60 98 69 99 61 100 62 101 68 102 70 103 63 104 64 105
REMARK SMILES IDX 65 106 66 107 67 108
REMARK H PARENT 24 6 12 14 29 39 91 58 57 69
REMARK Flexibility Score: inf
ROOT
ATOM      1  C   UNL A   1      39.530  22.714  26.983  1.00  0.00     0.023 C 
ENDROOT
BRANCH   1   2
ATOM      2  C   UNL A   1      38.643  22.354  25.778  1.00  0.00     0.116 C 
BRANCH   2   3
ATOM      3  N   UNL A   1      37.556  23.328  25.466  1.00  0.00    -0.354 N 
ATOM      4  C   UNL A   1      36.252  23.598  25.805  1.00  0.00     0.243 C 
ATOM      5  O   UNL A   1      35.818  24.661  25.330  1.00  0.00    -0.273 OA
ATOM      6  H   UNL A   1      37.875  23.988  24.809  1.00  0.00     0.163 HD
BRANCH   4   7
ATOM      7  C   UNL A   1      35.214  22.647  26.534  1.00  0.00     0.179 C 
ATOM      8  C   UNL A   1      33.438  23.454  25.060  1.00  0.00     0.163 C 
ATOM      9  C   UNL A   1      33.478  22.052  24.464  1.00  0.00     0.047 A 
ATOM     10  N   UNL A   1      33.783  23.140  26.442  1.00  0.00    -0.318 N 
ATOM     11  N   UNL A   1      32.762  21.543  23.420  1.00  0.00    -0.356 N 
ATOM     12  C   UNL A   1      34.305  21.022  24.925  1.00  0.00    -0.014 A 
ATOM     13  C   UNL A   1      32.882  20.171  23.413  1.00  0.00     0.046 A 
ATOM     14  H   UNL A   1      32.241  22.072  22.773  1.00  0.00     0.166 HD
ATOM     15  C   UNL A   1      33.890  19.828  24.311  1.00  0.00     0.003 A 
ATOM     16  C   UNL A   1      35.306  21.206  26.021  1.00  0.00     0.073 C 
ATOM     17  C   UNL A   1      32.172  19.219  22.687  1.00  0.00     0.026 A 
ATOM     18  C   UNL A   1      34.244  18.481  24.481  1.00  0.00     0.010 A 
ATOM     19  C   UNL A   1      32.492  17.879  22.920  1.00  0.00     0.002 A 
ATOM     20  C   UNL A   1      33.517  17.513  23.793  1.00  0.00     0.001 A 
BRANCH   8  21
ATOM     21  C   UNL A   1      32.306  24.418  24.801  1.00  0.00    -0.019 A 
ATOM     22  C   UNL A   1      30.529  26.532  24.064  1.00  0.00     0.037 A 
ATOM     23  C   UNL A   1      30.646  25.357  23.324  1.00  0.00     0.026 A 
ATOM     24  C   UNL A   1      31.213  26.547  25.285  1.00  0.00     0.026 A 
ATOM     25  C   UNL A   1      31.478  24.312  23.697  1.00  0.00     0.008 A 
ATOM     26  C   UNL A   1      32.099  25.518  25.649  1.00  0.00     0.008 A 
BRANCH  22  27
ATOM     27  N   UNL A   1      29.792  27.613  23.599  1.00  0.00    -0.372 N 
BRANCH  27  28
ATOM     28  C   UNL A   1      28.324  27.507  23.554  1.00  0.00     0.113 C 
ATOM     29  C   UNL A   1      27.662  28.715  22.909  1.00  0.00     0.027 C 
ENDBRANCH  27  28
BRANCH  27  30
ATOM     30  C   UNL A   1      30.373  28.966  23.540  1.00  0.00     0.113 C 
ATOM     31  C   UNL A   1      31.596  29.090  22.632  1.00  0.00     0.027 C 
ENDBRANCH  27  30
ENDBRANCH  22  27
ENDBRANCH   8  21
BRANCH  10  32
ATOM     32  C   UNL A   1      32.697  22.643  27.188  1.00  0.00     0.220 C 
ATOM     33  C   UNL A   1      31.392  22.288  26.528  1.00  0.00     0.114 C 
ATOM     34  O   UNL A   1      32.713  22.534  28.419  1.00  0.00    -0.275 OA
ENDBRANCH  10  32
ENDBRANCH   4   7
ENDBRANCH   2   3
ENDBRANCH   1   2
BRANCH   1  35
ATOM     35  C   UNL A   1      40.961  22.187  27.085  1.00  0.00     0.023 C 
BRANCH  35  36
ATOM     36  C   UNL A   1      42.096  23.180  26.848  1.00  0.00     0.116 C 
BRANCH  36  37
ATOM     37  N   UNL A   1      41.886  24.189  25.810  1.00  0.00    -0.352 N 
ATOM     38  C   UNL A   1      41.735  25.563  25.942  1.00  0.00     0.251 C 
ATOM     39  H   UNL A   1      41.847  23.847  24.888  1.00  0.00     0.163 HD
ATOM     40  O   UNL A   1      41.590  26.264  24.940  1.00  0.00    -0.269 OA
BRANCH  38  41
ATOM     41  C   UNL A   1      41.678  26.195  27.288  1.00  0.00     0.039 A 
ATOM     42  C   UNL A   1      42.696  27.070  27.684  1.00  0.00     0.014 A 
ATOM     43  C   UNL A   1      40.591  25.990  28.136  1.00  0.00     0.014 A 
ATOM     44  C   UNL A   1      42.551  27.827  28.854  1.00  0.00     0.010 A 
ATOM     45  C   UNL A   1      40.384  26.839  29.218  1.00  0.00     0.010 A 
ATOM     46  C   UNL A   1      41.359  27.772  29.596  1.00  0.00    -0.014 A 
BRANCH  46  47
ATOM     47  C   UNL A   1      41.111  28.680  30.754  1.00  0.00     0.031 A 
ATOM     48  C   UNL A   1      41.950  28.575  32.005  1.00  0.00     0.074 A 
ATOM     49  C   UNL A   1      40.080  29.551  30.715  1.00  0.00     0.049 A 
ATOM     50  N   UNL A   1      41.867  29.260  33.118  1.00  0.00    -0.248 NA
ATOM     51  C   UNL A   1      42.993  27.535  32.029  1.00  0.00     0.031 C 
ATOM     52  C   UNL A   1      39.123  29.685  29.612  1.00  0.00     0.029 A 
ATOM     53  N   UNL A   1      39.661  30.493  31.623  1.00  0.00    -0.354 N 
ATOM     54  C   UNL A   1      42.826  28.723  33.970  1.00  0.00     0.074 A 
ATOM     55  C   UNL A   1      43.421  27.601  33.279  1.00  0.00     0.031 C 
ATOM     56  C   UNL A   1      38.267  30.684  29.883  1.00  0.00     0.029 A 
ATOM     57  C   UNL A   1      38.590  31.243  31.192  1.00  0.00     0.049 A 
ATOM     58  H   UNL A   1      40.088  30.620  32.501  1.00  0.00     0.167 HD
ATOM     59  C   UNL A   1      43.213  29.147  35.197  1.00  0.00     0.037 A 
ATOM     60  C   UNL A   1      37.948  32.275  31.777  1.00  0.00     0.037 A 
ATOM     61  C   UNL A   1      42.648  30.290  35.865  1.00  0.00     0.049 A 
ATOM     62  C   UNL A   1      38.430  32.765  33.117  1.00  0.00     0.074 A 
ATOM     63  C   UNL A   1      43.015  30.850  37.076  1.00  0.00     0.029 A 
ATOM     64  N   UNL A   1      41.598  31.053  35.374  1.00  0.00    -0.354 N 
ATOM     65  N   UNL A   1      39.400  32.298  33.866  1.00  0.00    -0.248 NA
ATOM     66  C   UNL A   1      37.742  33.935  33.679  1.00  0.00     0.031 C 
ATOM     67  C   UNL A   1      42.158  31.926  37.337  1.00  0.00     0.029 A 
ATOM     68  C   UNL A   1      41.294  32.069  36.264  1.00  0.00     0.049 A 
ATOM     69  H   UNL A   1      41.136  30.894  34.518  1.00  0.00     0.167 HD
ATOM     70  C   UNL A   1      39.455  33.132  34.979  1.00  0.00     0.074 A 
ATOM     71  C   UNL A   1      38.438  34.146  34.788  1.00  0.00     0.031 C 
ATOM     72  C   UNL A   1      40.273  33.066  36.060  1.00  0.00     0.037 A 
BRANCH  59  73
ATOM     73  C   UNL A   1      44.317  28.383  35.882  1.00  0.00     0.058 A 
ATOM     74  C   UNL A   1      45.670  28.697  35.674  1.00  0.00     0.135 A 
ATOM     75  C   UNL A   1      44.021  27.339  36.774  1.00  0.00     0.135 A 
ATOM     76  F   UNL A   1      46.015  29.674  34.819  1.00  0.00    -0.206 F 
ATOM     77  C   UNL A   1      46.690  27.979  36.290  1.00  0.00     0.059 A 
ATOM     78  C   UNL A   1      45.024  26.630  37.429  1.00  0.00     0.059 A 
ATOM     79  F   UNL A   1      42.746  26.994  37.013  1.00  0.00    -0.206 F 
ATOM     80  C   UNL A   1      46.356  26.947  37.167  1.00  0.00     0.060 A 
BRANCH  80  81
ATOM     81  S   UNL A   1      47.692  26.030  37.963  1.00  0.00     0.124 S 
ATOM     82  O   UNL A   1      48.450  25.558  36.809  1.00  0.00    -0.237 OA
ATOM     83  O   UNL A   1      48.341  27.059  38.768  1.00  0.00    -0.237 OA
ATOM     84  O   UNL A   1      46.992  24.995  38.719  1.00  0.00    -0.744 OA
ENDBRANCH  80  81
ENDBRANCH  59  73
BRANCH  60  85
ATOM     85  C   UNL A   1      36.819  32.949  31.077  1.00  0.00     0.058 A 
ATOM     86  C   UNL A   1      35.491  32.747  31.486  1.00  0.00     0.135 A 
ATOM     87  C   UNL A   1      37.040  33.812  29.993  1.00  0.00     0.135 A 
ATOM     88  F   UNL A   1      35.224  31.927  32.513  1.00  0.00    -0.206 F 
ATOM     89  C   UNL A   1      34.423  33.357  30.835  1.00  0.00     0.059 A 
ATOM     90  C   UNL A   1      35.991  34.456  29.341  1.00  0.00     0.059 A 
ATOM     91  F   UNL A   1      38.291  34.057  29.572  1.00  0.00    -0.206 F 
ATOM     92  C   UNL A   1      34.684  34.213  29.763  1.00  0.00     0.060 A 
BRANCH  92  93
ATOM     93  S   UNL A   1      33.295  35.038  28.955  1.00  0.00     0.124 S 
ATOM     94  O   UNL A   1      32.409  35.297  30.083  1.00  0.00    -0.237 OA
ATOM     95  O   UNL A   1      33.936  36.208  28.364  1.00  0.00    -0.237 OA
ATOM     96  O   UNL A   1      32.824  34.041  27.997  1.00  0.00    -0.744 OA
ENDBRANCH  92  93
ENDBRANCH  60  85
BRANCH  72  97
ATOM     97  C   UNL A   1      40.114  34.139  37.102  1.00  0.00     0.058 A 
ATOM     98  C   UNL A   1      39.190  34.021  38.153  1.00  0.00     0.135 A 
ATOM     99  C   UNL A   1      40.902  35.301  37.049  1.00  0.00     0.135 A 
ATOM    100  F   UNL A   1      38.414  32.930  38.251  1.00  0.00    -0.206 F 
ATOM    101  C   UNL A   1      39.014  35.041  39.082  1.00  0.00     0.059 A 
ATOM    102  C   UNL A   1      40.766  36.319  37.988  1.00  0.00     0.059 A 
ATOM    103  F   UNL A   1      41.814  35.458  36.077  1.00  0.00    -0.206 F 
ATOM    104  C   UNL A   1      39.801  36.189  38.986  1.00  0.00     0.060 A 
BRANCH 104 105
ATOM    105  S   UNL A   1      39.548  37.516  40.183  1.00  0.00     0.124 S 
ATOM    106  O   UNL A   1      39.722  36.807  41.447  1.00  0.00    -0.237 OA
ATOM    107  O   UNL A   1      40.606  38.460  39.835  1.00  0.00    -0.237 OA
ATOM    108  O   UNL A   1      38.191  37.974  39.900  1.00  0.00    -0.744 OA
ENDBRANCH 104 105
ENDBRANCH  72  97
ENDBRANCH  46  47
ENDBRANCH  38  41
ENDBRANCH  36  37
ENDBRANCH  35  36
ENDBRANCH   1  35
TORSDOF 19
ENDMDL
MODEL 2
REMARK VINA RESULT:     -12.7      3.025      9.379
REMARK SMILES CCN(CC)c1ccc([C@@H]2c3[nH]c4ccccc4c3C[C@@H](C(=O)NCCCCNC(=O)c3ccc(-c4c5nc(c(-c6c(F)cc(S(=O)(=O)[O-])cc6F)c6ccc([nH]6)c(-c6c(F)cc(S(=O)(=O)[O-])cc6F)c6nc(c(-c7c(F)cc(S(=O)(=O)[O-])cc7F)c7ccc4[nH]7)C=C6)C=C5)cc3)N2C(C)=O)cc1
REMARK SMILES IDX 26 1 25 2 24 3 22 4 23 5 21 7 10 8 11 9 98 10 12 11 19 12
REMARK SMILES IDX 13 13 18 15 20 16 14 17 17 18 15 19 16 20 9 21 6 22 7 23
REMARK SMILES IDX 103 24 8 25 102 26 3 27 2 28 1 29 4 30 5 31 99 32 100 33
REMARK SMILES IDX 101 34 27 35 28 36 29 37 30 38 31 40 32 41 33 42 97 43 34 44
REMARK SMILES IDX 96 45 35 46 36 47 37 48 90 49 38 50 95 51 89 52 91 53 39 54
REMARK SMILES IDX 94 55 88 56 87 57 40 59 74 60 53 61 73 62 54 63 57 64 72 65
REMARK SMILES IDX 92 66 55 67 56 68 71 70 93 71 58 72 41 73 42 74 51 75 43 76
REMARK SMILES IDX 44 77 50 78 52 79 45 80 46 81 47 82 48 83 49 84 75 85 76 86
REMARK SMILES IDX 85 87 77 88 78 89 84 90 86 91 79 92 80 93 81 94 82 95 83 96
REMARK SMILES IDX 59 97 60 98 69 99 61 100 62 101 68 102 70 103 63 104 64 105
REMARK SMILES IDX 65 106 66 107 67 108
REMARK H PARENT 24 6 12 14 29 39 91 58 57 69
REMARK Flexibility Score: inf
ROOT
ATOM      1  C   UNL A   1      31.966  27.910  24.435  1.00  0.00     0.023 C 
ENDROOT
BRANCH   1   2
ATOM      2  C   UNL A   1      31.674  26.983  23.243  1.00  0.00     0.116 C 
BRANCH   2   3
ATOM      3  N   UNL A   1      32.757  26.015  22.900  1.00  0.00    -0.354 N 
ATOM      4  C   UNL A   1      33.565  25.080  23.501  1.00  0.00     0.243 C 
ATOM      5  O   UNL A   1      34.249  24.418  22.702  1.00  0.00    -0.273 OA
ATOM      6  H   UNL A   1      32.955  26.060  21.937  1.00  0.00     0.163 HD
BRANCH   4   7
ATOM      7  C   UNL A   1      33.865  24.894  25.046  1.00  0.00     0.179 C 
ATOM      8  C   UNL A   1      34.070  22.480  24.718  1.00  0.00     0.163 C 
ATOM      9  C   UNL A   1      35.549  22.699  25.011  1.00  0.00     0.047 A 
ATOM     10  N   UNL A   1      33.497  23.518  25.567  1.00  0.00    -0.318 N 
ATOM     11  N   UNL A   1      36.568  21.792  25.006  1.00  0.00    -0.356 N 
ATOM     12  C   UNL A   1      36.111  23.936  25.347  1.00  0.00    -0.014 A 
ATOM     13  C   UNL A   1      37.671  22.345  25.618  1.00  0.00     0.046 A 
ATOM     14  H   UNL A   1      36.523  20.886  24.625  1.00  0.00     0.166 HD
ATOM     15  C   UNL A   1      37.426  23.706  25.787  1.00  0.00     0.003 A 
ATOM     16  C   UNL A   1      35.326  25.209  25.383  1.00  0.00     0.073 C 
ATOM     17  C   UNL A   1      38.853  21.741  26.036  1.00  0.00     0.026 A 
ATOM     18  C   UNL A   1      38.407  24.524  26.366  1.00  0.00     0.010 A 
ATOM     19  C   UNL A   1      39.791  22.559  26.672  1.00  0.00     0.002 A 
ATOM     20  C   UNL A   1      39.579  23.929  26.826  1.00  0.00     0.001 A 
BRANCH   8  21
ATOM     21  C   UNL A   1      33.431  21.112  24.722  1.00  0.00    -0.019 A 
ATOM     22  C   UNL A   1      32.695  18.354  24.573  1.00  0.00     0.037 A 
ATOM     23  C   UNL A   1      33.072  18.968  25.766  1.00  0.00     0.026 A 
ATOM     24  C   UNL A   1      32.538  19.211  23.477  1.00  0.00     0.026 A 
ATOM     25  C   UNL A   1      33.393  20.314  25.852  1.00  0.00     0.008 A 
ATOM     26  C   UNL A   1      32.910  20.565  23.538  1.00  0.00     0.008 A 
BRANCH  22  27
ATOM     27  N   UNL A   1      32.508  16.981  24.489  1.00  0.00    -0.372 N 
BRANCH  27  28
ATOM     28  C   UNL A   1      33.093  16.251  23.352  1.00  0.00     0.113 C 
ATOM     29  C   UNL A   1      34.551  16.607  23.106  1.00  0.00     0.027 C 
ENDBRANCH  27  28
BRANCH  27  30
ATOM     30  C   UNL A   1      32.115  16.190  25.668  1.00  0.00     0.113 C 
ATOM     31  C   UNL A   1      32.526  14.719  25.609  1.00  0.00     0.027 C 
ENDBRANCH  27  30
ENDBRANCH  22  27
ENDBRANCH   8  21
BRANCH  10  32
ATOM     32  C   UNL A   1      33.423  23.150  26.924  1.00  0.00     0.220 C 
ATOM     33  C   UNL A   1      32.100  23.011  27.626  1.00  0.00     0.114 C 
ATOM     34  O   UNL A   1      34.420  22.988  27.638  1.00  0.00    -0.275 OA
ENDBRANCH  10  32
ENDBRANCH   4   7
ENDBRANCH   2   3
ENDBRANCH   1   2
BRANCH   1  35
ATOM     35  C   UNL A   1      33.314  28.619  24.562  1.00  0.00     0.023 C 
BRANCH  35  36
ATOM     36  C   UNL A   1      33.865  28.837  25.969  1.00  0.00     0.116 C 
BRANCH  36  37
ATOM     37  N   UNL A   1      33.723  30.178  26.535  1.00  0.00    -0.352 N 
ATOM     38  C   UNL A   1      34.573  30.861  27.394  1.00  0.00     0.251 C 
ATOM     39  H   UNL A   1      32.910  30.666  26.269  1.00  0.00     0.163 HD
ATOM     40  O   UNL A   1      34.296  32.007  27.749  1.00  0.00    -0.269 OA
BRANCH  38  41
ATOM     41  C   UNL A   1      35.785  30.200  27.947  1.00  0.00     0.039 A 
ATOM     42  C   UNL A   1      36.993  30.268  27.242  1.00  0.00     0.014 A 
ATOM     43  C   UNL A   1      35.762  29.574  29.192  1.00  0.00     0.014 A 
ATOM     44  C   UNL A   1      38.180  29.833  27.845  1.00  0.00     0.010 A 
ATOM     45  C   UNL A   1      36.955  29.273  29.841  1.00  0.00     0.010 A 
ATOM     46  C   UNL A   1      38.185  29.397  29.180  1.00  0.00    -0.014 A 
BRANCH  46  47
ATOM     47  C   UNL A   1      39.452  29.078  29.899  1.00  0.00     0.031 A 
ATOM     48  C   UNL A   1      39.825  29.816  31.162  1.00  0.00     0.074 A 
ATOM     49  C   UNL A   1      40.310  28.175  29.376  1.00  0.00     0.049 A 
ATOM     50  N   UNL A   1      40.894  29.692  31.908  1.00  0.00    -0.248 NA
ATOM     51  C   UNL A   1      38.899  30.863  31.626  1.00  0.00     0.031 C 
ATOM     52  C   UNL A   1      40.126  27.464  28.107  1.00  0.00     0.029 A 
ATOM     53  N   UNL A   1      41.510  27.696  29.845  1.00  0.00    -0.354 N 
ATOM     54  C   UNL A   1      40.774  30.651  32.909  1.00  0.00     0.074 A 
ATOM     55  C   UNL A   1      39.574  31.405  32.627  1.00  0.00     0.031 C 
ATOM     56  C   UNL A   1      41.143  26.604  27.927  1.00  0.00     0.029 A 
ATOM     57  C   UNL A   1      42.069  26.723  29.048  1.00  0.00     0.049 A 
ATOM     58  H   UNL A   1      41.929  28.018  30.675  1.00  0.00     0.167 HD
ATOM     59  C   UNL A   1      41.562  30.860  33.991  1.00  0.00     0.037 A 
ATOM     60  C   UNL A   1      43.194  25.997  29.207  1.00  0.00     0.037 A 
ATOM     61  C   UNL A   1      42.733  30.080  34.292  1.00  0.00     0.049 A 
ATOM     62  C   UNL A   1      44.026  26.207  30.445  1.00  0.00     0.074 A 
ATOM     63  C   UNL A   1      43.562  30.158  35.398  1.00  0.00     0.029 A 
ATOM     64  N   UNL A   1      43.240  29.071  33.485  1.00  0.00    -0.354 N 
ATOM     65  N   UNL A   1      43.845  27.059  31.426  1.00  0.00    -0.248 NA
ATOM     66  C   UNL A   1      45.203  25.343  30.605  1.00  0.00     0.031 C 
ATOM     67  C   UNL A   1      44.593  29.227  35.238  1.00  0.00     0.029 A 
ATOM     68  C   UNL A   1      44.377  28.530  34.060  1.00  0.00     0.049 A 
ATOM     69  H   UNL A   1      42.849  28.783  32.628  1.00  0.00     0.167 HD
ATOM     70  C   UNL A   1      44.872  26.818  32.333  1.00  0.00     0.074 A 
ATOM     71  C   UNL A   1      45.652  25.722  31.794  1.00  0.00     0.031 C 
ATOM     72  C   UNL A   1      45.145  27.444  33.505  1.00  0.00     0.037 A 
BRANCH  59  73
ATOM     73  C   UNL A   1      41.165  31.962  34.939  1.00  0.00     0.058 A 
ATOM     74  C   UNL A   1      41.681  33.263  34.816  1.00  0.00     0.135 A 
ATOM     75  C   UNL A   1      40.243  31.723  35.972  1.00  0.00     0.135 A 
ATOM     76  F   UNL A   1      42.580  33.546  33.859  1.00  0.00    -0.206 F 
ATOM     77  C   UNL A   1      41.331  34.275  35.703  1.00  0.00     0.059 A 
ATOM     78  C   UNL A   1      39.851  32.730  36.849  1.00  0.00     0.059 A 
ATOM     79  F   UNL A   1      39.715  30.500  36.138  1.00  0.00    -0.206 F 
ATOM     80  C   UNL A   1      40.414  33.999  36.717  1.00  0.00     0.060 A 
BRANCH  80  81
ATOM     81  S   UNL A   1      39.966  35.326  37.856  1.00  0.00     0.124 S 
ATOM     82  O   UNL A   1      41.129  35.359  38.737  1.00  0.00    -0.237 OA
ATOM     83  O   UNL A   1      39.817  36.469  36.961  1.00  0.00    -0.237 OA
ATOM     84  O   UNL A   1      38.730  34.847  38.468  1.00  0.00    -0.744 OA
ENDBRANCH  80  81
ENDBRANCH  59  73
BRANCH  60  85
ATOM     85  C   UNL A   1      43.571  24.966  28.200  1.00  0.00     0.058 A 
ATOM     86  C   UNL A   1      43.093  23.649  28.300  1.00  0.00     0.135 A 
ATOM     87  C   UNL A   1      44.407  25.271  27.115  1.00  0.00     0.135 A 
ATOM     88  F   UNL A   1      42.295  23.302  29.321  1.00  0.00    -0.206 F 
ATOM     89  C   UNL A   1      43.447  22.669  27.378  1.00  0.00     0.059 A 
ATOM     90  C   UNL A   1      44.753  24.316  26.163  1.00  0.00     0.059 A 
ATOM     91  F   UNL A   1      44.877  26.519  26.960  1.00  0.00    -0.206 F 
ATOM     92  C   UNL A   1      44.277  23.014  26.310  1.00  0.00     0.060 A 
BRANCH  92  93
ATOM     93  S   UNL A   1      44.691  21.748  25.090  1.00  0.00     0.124 S 
ATOM     94  O   UNL A   1      43.577  20.818  25.240  1.00  0.00    -0.237 OA
ATOM     95  O   UNL A   1      44.718  22.515  23.849  1.00  0.00    -0.237 OA
ATOM     96  O   UNL A   1      45.989  21.257  25.542  1.00  0.00    -0.744 OA
ENDBRANCH  92  93
ENDBRANCH  60  85
BRANCH  72  97
ATOM     97  C   UNL A   1      46.322  26.935  34.293  1.00  0.00     0.058 A 
ATOM     98  C   UNL A   1      46.207  25.854  35.182  1.00  0.00     0.135 A 
ATOM     99  C   UNL A   1      47.583  27.538  34.154  1.00  0.00     0.135 A 
ATOM    100  F   UNL A   1      45.025  25.241  35.352  1.00  0.00    -0.206 F 
ATOM    101  C   UNL A   1      47.288  25.424  35.945  1.00  0.00     0.059 A 
ATOM    102  C   UNL A   1      48.685  27.102  34.882  1.00  0.00     0.059 A 
ATOM    103  F   UNL A   1      47.754  28.563  33.304  1.00  0.00    -0.206 F 
ATOM    104  C   UNL A   1      48.521  26.061  35.793  1.00  0.00     0.060 A 
BRANCH 104 105
ATOM    105  S   UNL A   1      49.910  25.510  36.805  1.00  0.00     0.124 S 
ATOM    106  O   UNL A   1      51.047  25.986  36.024  1.00  0.00    -0.237 OA
ATOM    107  O   UNL A   1      49.673  26.203  38.068  1.00  0.00    -0.237 OA
ATOM    108  O   UNL A   1      49.742  24.061  36.852  1.00  0.00    -0.744 OA
ENDBRANCH 104 105
ENDBRANCH  72  97
ENDBRANCH  46  47
ENDBRANCH  38  41
ENDBRANCH  36  37
ENDBRANCH  35  36
ENDBRANCH   1  35
TORSDOF 19
ENDMDL
MODEL 3
REMARK VINA RESULT:     -12.6      0.667      1.775
REMARK SMILES CCN(CC)c1ccc([C@@H]2c3[nH]c4ccccc4c3C[C@@H](C(=O)NCCCCNC(=O)c3ccc(-c4c5nc(c(-c6c(F)cc(S(=O)(=O)[O-])cc6F)c6ccc([nH]6)c(-c6c(F)cc(S(=O)(=O)[O-])cc6F)c6nc(c(-c7c(F)cc(S(=O)(=O)[O-])cc7F)c7ccc4[nH]7)C=C6)C=C5)cc3)N2C(C)=O)cc1
REMARK SMILES IDX 26 1 25 2 24 3 22 4 23 5 21 7 10 8 11 9 98 10 12 11 19 12
REMARK SMILES IDX 13 13 18 15 20 16 14 17 17 18 15 19 16 20 9 21 6 22 7 23
REMARK SMILES IDX 103 24 8 25 102 26 3 27 2 28 1 29 4 30 5 31 99 32 100 33
REMARK SMILES IDX 101 34 27 35 28 36 29 37 30 38 31 40 32 41 33 42 97 43 34 44
REMARK SMILES IDX 96 45 35 46 36 47 37 48 90 49 38 50 95 51 89 52 91 53 39 54
REMARK SMILES IDX 94 55 88 56 87 57 40 59 74 60 53 61 73 62 54 63 57 64 72 65
REMARK SMILES IDX 92 66 55 67 56 68 71 70 93 71 58 72 41 73 42 74 51 75 43 76
REMARK SMILES IDX 44 77 50 78 52 79 45 80 46 81 47 82 48 83 49 84 75 85 76 86
REMARK SMILES IDX 85 87 77 88 78 89 84 90 86 91 79 92 80 93 81 94 82 95 83 96
REMARK SMILES IDX 59 97 60 98 69 99 61 100 62 101 68 102 70 103 63 104 64 105
REMARK SMILES IDX 65 106 66 107 67 108
REMARK H PARENT 24 6 12 14 29 39 91 58 57 69
REMARK Flexibility Score: inf
ROOT
ATOM      1  C   UNL A   1      40.078  22.447  27.234  1.00  0.00     0.023 C 
ENDROOT
BRANCH   1   2
ATOM      2  C   UNL A   1      39.245  21.770  26.133  1.00  0.00     0.116 C 
BRANCH   2   3
ATOM      3  N   UNL A   1      38.337  22.673  25.366  1.00  0.00    -0.354 N 
ATOM      4  C   UNL A   1      37.043  23.133  25.385  1.00  0.00     0.243 C 
ATOM      5  O   UNL A   1      36.811  24.020  24.546  1.00  0.00    -0.273 OA
ATOM      6  H   UNL A   1      38.820  23.063  24.602  1.00  0.00     0.163 HD
BRANCH   4   7
ATOM      7  C   UNL A   1      35.808  22.545  26.185  1.00  0.00     0.179 C 
ATOM      8  C   UNL A   1      34.277  23.558  24.570  1.00  0.00     0.163 C 
ATOM      9  C   UNL A   1      33.990  22.125  24.142  1.00  0.00     0.047 A 
ATOM     10  N   UNL A   1      34.532  23.342  25.990  1.00  0.00    -0.318 N 
ATOM     11  N   UNL A   1      33.179  21.674  23.142  1.00  0.00    -0.356 N 
ATOM     12  C   UNL A   1      34.550  20.994  24.747  1.00  0.00    -0.014 A 
ATOM     13  C   UNL A   1      32.974  20.321  23.298  1.00  0.00     0.046 A 
ATOM     14  H   UNL A   1      32.801  22.228  22.421  1.00  0.00     0.166 HD
ATOM     15  C   UNL A   1      33.870  19.863  24.262  1.00  0.00     0.003 A 
ATOM     16  C   UNL A   1      35.561  21.071  25.846  1.00  0.00     0.073 C 
ATOM     17  C   UNL A   1      32.064  19.480  22.664  1.00  0.00     0.026 A 
ATOM     18  C   UNL A   1      33.897  18.502  24.599  1.00  0.00     0.010 A 
ATOM     19  C   UNL A   1      32.060  18.140  23.061  1.00  0.00     0.002 A 
ATOM     20  C   UNL A   1      32.966  17.654  24.004  1.00  0.00     0.001 A 
BRANCH   8  21
ATOM     21  C   UNL A   1      33.405  24.721  24.164  1.00  0.00    -0.019 A 
ATOM     22  C   UNL A   1      31.507  26.835  23.850  1.00  0.00     0.037 A 
ATOM     23  C   UNL A   1      32.794  27.048  24.341  1.00  0.00     0.026 A 
ATOM     24  C   UNL A   1      31.251  25.548  23.362  1.00  0.00     0.026 A 
ATOM     25  C   UNL A   1      33.731  26.033  24.459  1.00  0.00     0.008 A 
ATOM     26  C   UNL A   1      32.174  24.500  23.525  1.00  0.00     0.008 A 
BRANCH  22  27
ATOM     27  N   UNL A   1      30.548  27.840  23.867  1.00  0.00    -0.372 N 
BRANCH  27  28
ATOM     28  C   UNL A   1      30.941  29.192  24.295  1.00  0.00     0.113 C 
ATOM     29  C   UNL A   1      29.953  30.263  23.858  1.00  0.00     0.027 C 
ENDBRANCH  27  28
BRANCH  27  30
ATOM     30  C   UNL A   1      29.294  27.711  23.104  1.00  0.00     0.113 C 
ATOM     31  C   UNL A   1      28.197  26.920  23.817  1.00  0.00     0.027 C 
ENDBRANCH  27  30
ENDBRANCH  22  27
ENDBRANCH   8  21
BRANCH  10  32
ATOM     32  C   UNL A   1      33.356  23.204  26.752  1.00  0.00     0.220 C 
ATOM     33  C   UNL A   1      33.363  22.496  28.079  1.00  0.00     0.114 C 
ATOM     34  O   UNL A   1      32.247  23.584  26.361  1.00  0.00    -0.275 OA
ENDBRANCH  10  32
ENDBRANCH   4   7
ENDBRANCH   2   3
ENDBRANCH   1   2
BRANCH   1  35
ATOM     35  C   UNL A   1      41.576  22.175  27.360  1.00  0.00     0.023 C 
BRANCH  35  36
ATOM     36  C   UNL A   1      42.533  23.285  26.930  1.00  0.00     0.116 C 
BRANCH  36  37
ATOM     37  N   UNL A   1      42.057  24.206  25.899  1.00  0.00    -0.352 N 
ATOM     38  C   UNL A   1      41.681  25.537  26.019  1.00  0.00     0.251 C 
ATOM     39  H   UNL A   1      41.994  23.830  24.991  1.00  0.00     0.163 HD
ATOM     40  O   UNL A   1      41.326  26.168  25.023  1.00  0.00    -0.269 OA
BRANCH  38  41
ATOM     41  C   UNL A   1      41.637  26.196  27.353  1.00  0.00     0.039 A 
ATOM     42  C   UNL A   1      42.614  27.141  27.689  1.00  0.00     0.014 A 
ATOM     43  C   UNL A   1      40.599  25.946  28.248  1.00  0.00     0.014 A 
ATOM     44  C   UNL A   1      42.468  27.916  28.847  1.00  0.00     0.010 A 
ATOM     45  C   UNL A   1      40.382  26.807  29.319  1.00  0.00     0.010 A 
ATOM     46  C   UNL A   1      41.311  27.806  29.638  1.00  0.00    -0.014 A 
BRANCH  46  47
ATOM     47  C   UNL A   1      41.053  28.724  30.785  1.00  0.00     0.031 A 
ATOM     48  C   UNL A   1      41.876  28.626  32.047  1.00  0.00     0.074 A 
ATOM     49  C   UNL A   1      40.027  29.600  30.725  1.00  0.00     0.049 A 
ATOM     50  N   UNL A   1      41.782  29.321  33.153  1.00  0.00    -0.248 NA
ATOM     51  C   UNL A   1      42.914  27.582  32.092  1.00  0.00     0.031 C 
ATOM     52  C   UNL A   1      39.084  29.729  29.609  1.00  0.00     0.029 A 
ATOM     53  N   UNL A   1      39.601  30.551  31.621  1.00  0.00    -0.354 N 
ATOM     54  C   UNL A   1      42.728  28.786  34.021  1.00  0.00     0.074 A 
ATOM     55  C   UNL A   1      43.326  27.656  33.347  1.00  0.00     0.031 C 
ATOM     56  C   UNL A   1      38.230  30.734  29.862  1.00  0.00     0.029 A 
ATOM     57  C   UNL A   1      38.539  31.303  31.170  1.00  0.00     0.049 A 
ATOM     58  H   UNL A   1      40.017  30.684  32.502  1.00  0.00     0.167 HD
ATOM     59  C   UNL A   1      43.101  29.219  35.250  1.00  0.00     0.037 A 
ATOM     60  C   UNL A   1      37.894  32.342  31.738  1.00  0.00     0.037 A 
ATOM     61  C   UNL A   1      42.533  30.370  35.901  1.00  0.00     0.049 A 
ATOM     62  C   UNL A   1      38.361  32.841  33.080  1.00  0.00     0.074 A 
ATOM     63  C   UNL A   1      42.887  30.939  37.112  1.00  0.00     0.029 A 
ATOM     64  N   UNL A   1      41.493  31.133  35.391  1.00  0.00    -0.354 N 
ATOM     65  N   UNL A   1      39.320  32.376  33.846  1.00  0.00    -0.248 NA
ATOM     66  C   UNL A   1      37.672  34.018  33.624  1.00  0.00     0.031 C 
ATOM     67  C   UNL A   1      42.032  32.020  37.354  1.00  0.00     0.029 A 
ATOM     68  C   UNL A   1      41.182  32.158  36.268  1.00  0.00     0.049 A 
ATOM     69  H   UNL A   1      41.041  30.969  34.531  1.00  0.00     0.167 HD
ATOM     70  C   UNL A   1      39.364  33.219  34.952  1.00  0.00     0.074 A 
ATOM     71  C   UNL A   1      38.355  34.235  34.740  1.00  0.00     0.031 C 
ATOM     72  C   UNL A   1      40.168  33.158  36.044  1.00  0.00     0.037 A 
BRANCH  59  73
ATOM     73  C   UNL A   1      44.193  28.456  35.955  1.00  0.00     0.058 A 
ATOM     74  C   UNL A   1      43.904  27.387  36.821  1.00  0.00     0.135 A 
ATOM     75  C   UNL A   1      45.544  28.780  35.751  1.00  0.00     0.135 A 
ATOM     76  F   UNL A   1      42.630  27.042  37.069  1.00  0.00    -0.206 F 
ATOM     77  C   UNL A   1      44.909  26.695  37.488  1.00  0.00     0.059 A 
ATOM     78  C   UNL A   1      46.568  28.079  36.381  1.00  0.00     0.059 A 
ATOM     79  F   UNL A   1      45.880  29.791  34.935  1.00  0.00    -0.206 F 
ATOM     80  C   UNL A   1      46.240  27.049  37.261  1.00  0.00     0.060 A 
BRANCH  80  81
ATOM     81  S   UNL A   1      47.532  26.137  38.130  1.00  0.00     0.124 S 
ATOM     82  O   UNL A   1      47.423  26.689  39.476  1.00  0.00    -0.237 OA
ATOM     83  O   UNL A   1      47.094  24.753  37.978  1.00  0.00    -0.237 OA
ATOM     84  O   UNL A   1      48.747  26.491  37.403  1.00  0.00    -0.744 OA
ENDBRANCH  80  81
ENDBRANCH  59  73
BRANCH  60  85
ATOM     85  C   UNL A   1      36.777  33.016  31.019  1.00  0.00     0.058 A 
ATOM     86  C   UNL A   1      37.030  33.912  29.968  1.00  0.00     0.135 A 
ATOM     87  C   UNL A   1      35.436  32.776  31.359  1.00  0.00     0.135 A 
ATOM     88  F   UNL A   1      38.293  34.181  29.607  1.00  0.00    -0.206 F 
ATOM     89  C   UNL A   1      36.000  34.562  29.296  1.00  0.00     0.059 A 
ATOM     90  C   UNL A   1      34.386  33.392  30.683  1.00  0.00     0.059 A 
ATOM     91  F   UNL A   1      35.136  31.914  32.343  1.00  0.00    -0.206 F 
ATOM     92  C   UNL A   1      34.679  34.294  29.660  1.00  0.00     0.060 A 
BRANCH  92  93
ATOM     93  S   UNL A   1      33.347  35.105  28.749  1.00  0.00     0.124 S 
ATOM     94  O   UNL A   1      32.534  35.643  29.833  1.00  0.00    -0.237 OA
ATOM     95  O   UNL A   1      34.074  36.084  27.949  1.00  0.00    -0.237 OA
ATOM     96  O   UNL A   1      32.744  34.012  27.991  1.00  0.00    -0.744 OA
ENDBRANCH  92  93
ENDBRANCH  60  85
BRANCH  72  97
ATOM     97  C   UNL A   1      40.002  34.241  37.075  1.00  0.00     0.058 A 
ATOM     98  C   UNL A   1      40.676  35.469  36.976  1.00  0.00     0.135 A 
ATOM     99  C   UNL A   1      39.153  34.045  38.177  1.00  0.00     0.135 A 
ATOM    100  F   UNL A   1      41.498  35.707  35.942  1.00  0.00    -0.206 F 
ATOM    101  C   UNL A   1      40.556  36.444  37.961  1.00  0.00     0.059 A 
ATOM    102  C   UNL A   1      38.993  35.021  39.157  1.00  0.00     0.059 A 
ATOM    103  F   UNL A   1      38.471  32.898  38.312  1.00  0.00    -0.206 F 
ATOM    104  C   UNL A   1      39.718  36.206  39.051  1.00  0.00     0.060 A 
BRANCH 104 105
ATOM    105  S   UNL A   1      39.589  37.468  40.335  1.00  0.00     0.124 S 
ATOM    106  O   UNL A   1      39.746  36.670  41.547  1.00  0.00    -0.237 OA
ATOM    107  O   UNL A   1      40.701  38.358  40.013  1.00  0.00    -0.237 OA
ATOM    108  O   UNL A   1      38.261  38.034  40.122  1.00  0.00    -0.744 OA
ENDBRANCH 104 105
ENDBRANCH  72  97
ENDBRANCH  46  47
ENDBRANCH  38  41
ENDBRANCH  36  37
ENDBRANCH  35  36
ENDBRANCH   1  35
TORSDOF 19
ENDMDL
