MODEL 1
REMARK VINA RESULT:     -13.4      0.000      0.000
REMARK SMILES O=C(CCN1C(=O)/C(=C/c2c3ccccc3cc3ccccc23)SC1=S)NCCCCNC(=O)c1ccc(-c2c3nc(c(-c4c(F)cc(S(=O)(=O)[O-])cc4F)c4ccc([nH]4)c(-c4c(F)cc(S(=O)(=O)[O-])cc4F)c4nc(c(-c5c(F)cc(S(=O)(=O)[O-])cc5F)c5ccc2[nH]5)C=C4)C=C3)cc1
REMARK SMILES IDX 29 1 28 2 27 3 1 4 2 5 3 7 4 8 5 9 6 10 25 11 7 12 8 13
REMARK SMILES IDX 24 14 26 15 9 16 10 17 11 18 23 19 12 20 16 21 18 22 22 23
REMARK SMILES IDX 13 24 15 25 17 26 19 27 21 28 14 29 20 30 30 31 31 32 32 33
REMARK SMILES IDX 33 34 34 36 35 37 36 38 100 39 37 40 99 41 38 42 39 43 40 44
REMARK SMILES IDX 93 45 41 46 98 47 92 48 94 49 42 50 97 51 91 52 90 53 43 55
REMARK SMILES IDX 77 56 56 57 76 58 57 59 60 60 75 61 95 62 58 63 59 64 74 66
REMARK SMILES IDX 96 67 61 68 44 69 45 70 54 71 46 72 47 73 53 74 55 75 48 76
REMARK SMILES IDX 49 77 50 78 51 79 52 80 78 81 79 82 88 83 80 84 81 85 87 86
REMARK SMILES IDX 89 87 82 88 83 89 84 90 85 91 86 92 62 93 63 94 72 95 64 96
REMARK SMILES IDX 65 97 71 98 73 99 66 100 67 101 68 102 69 103 70 104
REMARK H PARENT 27 6 32 35 94 54 60 65
REMARK Flexibility Score: inf
ROOT
ATOM      1  C   UNL A   1      34.649  30.904  27.632  1.00  0.00     0.023 C 
ENDROOT
BRANCH   1   2
ATOM      2  C   UNL A   1      33.237  30.678  27.088  1.00  0.00     0.116 C 
BRANCH   2   3
ATOM      3  N   UNL A   1      32.702  29.362  27.403  1.00  0.00    -0.356 N 
ATOM      4  O   UNL A   1      31.432  29.151  25.493  1.00  0.00    -0.275 OA
ATOM      5  C   UNL A   1      31.873  28.680  26.537  1.00  0.00     0.221 C 
ATOM      6  H   UNL A   1      32.940  28.944  28.262  1.00  0.00     0.163 HD
BRANCH   5   7
ATOM      7  C   UNL A   1      31.571  27.257  26.951  1.00  0.00     0.122 C 
BRANCH   7   8
ATOM      8  C   UNL A   1      30.739  26.534  25.885  1.00  0.00     0.137 C 
BRANCH   8   9
ATOM      9  N   UNL A   1      31.445  25.382  25.310  1.00  0.00    -0.292 N 
ATOM     10  C   UNL A   1      31.657  24.279  26.119  1.00  0.00     0.266 C 
ATOM     11  C   UNL A   1      31.943  25.307  24.025  1.00  0.00     0.148 C 
ATOM     12  O   UNL A   1      31.264  24.157  27.274  1.00  0.00    -0.268 OA
ATOM     13  C   UNL A   1      32.533  23.300  25.436  1.00  0.00     0.081 C 
ATOM     14  S   UNL A   1      32.918  23.852  23.856  1.00  0.00    -0.054 SA
ATOM     15  S   UNL A   1      31.735  26.381  22.768  1.00  0.00    -0.052 S 
ATOM     16  C   UNL A   1      33.033  22.247  26.097  1.00  0.00     0.030 C 
BRANCH  16  17
ATOM     17  C   UNL A   1      34.187  21.465  25.616  1.00  0.00    -0.009 A 
ATOM     18  C   UNL A   1      33.912  20.158  25.107  1.00  0.00    -0.010 A 
ATOM     19  C   UNL A   1      35.516  21.983  25.688  1.00  0.00    -0.010 A 
ATOM     20  C   UNL A   1      32.611  19.608  24.919  1.00  0.00     0.009 A 
ATOM     21  C   UNL A   1      34.999  19.354  24.748  1.00  0.00    -0.017 A 
ATOM     22  C   UNL A   1      36.582  21.143  25.299  1.00  0.00    -0.017 A 
ATOM     23  C   UNL A   1      35.844  23.295  26.103  1.00  0.00     0.009 A 
ATOM     24  C   UNL A   1      32.405  18.310  24.443  1.00  0.00     0.001 A 
ATOM     25  C   UNL A   1      34.764  18.050  24.298  1.00  0.00     0.009 A 
ATOM     26  C   UNL A   1      36.308  19.852  24.841  1.00  0.00     0.017 A 
ATOM     27  C   UNL A   1      37.910  21.597  25.356  1.00  0.00     0.009 A 
ATOM     28  C   UNL A   1      37.168  23.747  26.129  1.00  0.00     0.001 A 
ATOM     29  C   UNL A   1      33.492  17.512  24.162  1.00  0.00     0.001 A 
ATOM     30  C   UNL A   1      38.202  22.895  25.764  1.00  0.00     0.001 A 
ENDBRANCH  16  17
ENDBRANCH   8   9
ENDBRANCH   7   8
ENDBRANCH   5   7
ENDBRANCH   2   3
ENDBRANCH   1   2
BRANCH   1  31
ATOM     31  C   UNL A   1      35.010  32.359  27.951  1.00  0.00     0.023 C 
BRANCH  31  32
ATOM     32  C   UNL A   1      36.025  32.595  29.076  1.00  0.00     0.116 C 
BRANCH  32  33
ATOM     33  N   UNL A   1      35.797  31.724  30.218  1.00  0.00    -0.352 N 
ATOM     34  C   UNL A   1      36.547  30.706  30.765  1.00  0.00     0.251 C 
ATOM     35  H   UNL A   1      34.949  31.895  30.689  1.00  0.00     0.163 HD
ATOM     36  O   UNL A   1      36.023  30.014  31.640  1.00  0.00    -0.269 OA
BRANCH  34  37
ATOM     37  C   UNL A   1      37.941  30.392  30.343  1.00  0.00     0.039 A 
ATOM     38  C   UNL A   1      38.989  30.642  31.245  1.00  0.00     0.014 A 
ATOM     39  C   UNL A   1      38.265  29.952  29.063  1.00  0.00     0.014 A 
ATOM     40  C   UNL A   1      40.330  30.381  30.901  1.00  0.00     0.010 A 
ATOM     41  C   UNL A   1      39.598  29.642  28.743  1.00  0.00     0.010 A 
ATOM     42  C   UNL A   1      40.658  29.822  29.659  1.00  0.00    -0.014 A 
BRANCH  42  43
ATOM     43  C   UNL A   1      42.048  29.337  29.308  1.00  0.00     0.031 A 
ATOM     44  C   UNL A   1      43.141  30.332  28.970  1.00  0.00     0.074 A 
ATOM     45  C   UNL A   1      42.300  28.024  29.070  1.00  0.00     0.049 A 
ATOM     46  N   UNL A   1      44.312  30.123  28.417  1.00  0.00    -0.248 NA
ATOM     47  C   UNL A   1      42.872  31.745  29.276  1.00  0.00     0.031 C 
ATOM     48  C   UNL A   1      41.378  26.907  29.295  1.00  0.00     0.029 A 
ATOM     49  N   UNL A   1      43.376  27.418  28.449  1.00  0.00    -0.354 N 
ATOM     50  C   UNL A   1      44.925  31.369  28.338  1.00  0.00     0.074 A 
ATOM     51  C   UNL A   1      43.947  32.341  28.778  1.00  0.00     0.031 C 
ATOM     52  C   UNL A   1      41.847  25.804  28.687  1.00  0.00     0.029 A 
ATOM     53  C   UNL A   1      43.142  26.105  28.089  1.00  0.00     0.049 A 
ATOM     54  H   UNL A   1      44.229  27.879  28.279  1.00  0.00     0.167 HD
ATOM     55  C   UNL A   1      46.203  31.679  28.003  1.00  0.00     0.037 A 
ATOM     56  C   UNL A   1      43.866  25.228  27.364  1.00  0.00     0.037 A 
ATOM     57  C   UNL A   1      47.199  30.721  27.596  1.00  0.00     0.049 A 
ATOM     58  C   UNL A   1      45.256  25.592  26.921  1.00  0.00     0.074 A 
ATOM     59  C   UNL A   1      48.552  30.926  27.377  1.00  0.00     0.029 A 
ATOM     60  N   UNL A   1      46.956  29.383  27.336  1.00  0.00    -0.354 N 
ATOM     61  N   UNL A   1      45.874  26.742  27.017  1.00  0.00    -0.248 NA
ATOM     62  C   UNL A   1      46.075  24.516  26.340  1.00  0.00     0.031 C 
ATOM     63  C   UNL A   1      49.114  29.726  26.927  1.00  0.00     0.029 A 
ATOM     64  C   UNL A   1      48.123  28.759  26.923  1.00  0.00     0.049 A 
ATOM     65  H   UNL A   1      46.082  28.940  27.428  1.00  0.00     0.167 HD
ATOM     66  C   UNL A   1      47.179  26.505  26.593  1.00  0.00     0.074 A 
ATOM     67  C   UNL A   1      47.252  25.113  26.210  1.00  0.00     0.031 C 
ATOM     68  C   UNL A   1      48.224  27.367  26.562  1.00  0.00     0.037 A 
BRANCH  55  69
ATOM     69  C   UNL A   1      46.624  33.121  28.124  1.00  0.00     0.058 A 
ATOM     70  C   UNL A   1      46.512  34.005  27.037  1.00  0.00     0.135 A 
ATOM     71  C   UNL A   1      47.090  33.642  29.342  1.00  0.00     0.135 A 
ATOM     72  F   UNL A   1      46.069  33.564  25.849  1.00  0.00    -0.206 F 
ATOM     73  C   UNL A   1      46.892  35.338  27.138  1.00  0.00     0.059 A 
ATOM     74  C   UNL A   1      47.443  34.982  29.476  1.00  0.00     0.059 A 
ATOM     75  F   UNL A   1      47.203  32.847  30.418  1.00  0.00    -0.206 F 
ATOM     76  C   UNL A   1      47.358  35.818  28.362  1.00  0.00     0.060 A 
BRANCH  76  77
ATOM     77  S   UNL A   1      47.848  37.551  28.471  1.00  0.00     0.124 S 
ATOM     78  O   UNL A   1      48.500  37.749  27.180  1.00  0.00    -0.237 OA
ATOM     79  O   UNL A   1      46.566  38.227  28.644  1.00  0.00    -0.237 OA
ATOM     80  O   UNL A   1      48.732  37.583  29.631  1.00  0.00    -0.744 OA
ENDBRANCH  76  77
ENDBRANCH  55  69
BRANCH  56  81
ATOM     81  C   UNL A   1      43.342  23.860  27.095  1.00  0.00     0.058 A 
ATOM     82  C   UNL A   1      43.410  22.867  28.084  1.00  0.00     0.135 A 
ATOM     83  C   UNL A   1      42.791  23.508  25.853  1.00  0.00     0.135 A 
ATOM     84  F   UNL A   1      43.940  23.154  29.282  1.00  0.00    -0.206 F 
ATOM     85  C   UNL A   1      42.975  21.568  27.846  1.00  0.00     0.059 A 
ATOM     86  C   UNL A   1      42.331  22.217  25.597  1.00  0.00     0.059 A 
ATOM     87  F   UNL A   1      42.694  24.424  24.876  1.00  0.00    -0.206 F 
ATOM     88  C   UNL A   1      42.437  21.252  26.599  1.00  0.00     0.060 A 
BRANCH  88  89
ATOM     89  S   UNL A   1      41.848  19.565  26.326  1.00  0.00     0.124 S 
ATOM     90  O   UNL A   1      42.565  19.194  25.112  1.00  0.00    -0.237 OA
ATOM     91  O   UNL A   1      42.277  18.895  27.550  1.00  0.00    -0.237 OA
ATOM     92  O   UNL A   1      40.405  19.730  26.183  1.00  0.00    -0.744 OA
ENDBRANCH  88  89
ENDBRANCH  56  81
BRANCH  68  93
ATOM     93  C   UNL A   1      49.576  26.829  26.177  1.00  0.00     0.058 A 
ATOM     94  C   UNL A   1      50.064  26.899  24.864  1.00  0.00     0.135 A 
ATOM     95  C   UNL A   1      50.420  26.280  27.158  1.00  0.00     0.135 A 
ATOM     96  F   UNL A   1      49.298  27.402  23.884  1.00  0.00    -0.206 F 
ATOM     97  C   UNL A   1      51.332  26.430  24.533  1.00  0.00     0.059 A 
ATOM     98  C   UNL A   1      51.703  25.833  26.856  1.00  0.00     0.059 A 
ATOM     99  F   UNL A   1      50.007  26.191  28.432  1.00  0.00    -0.206 F 
ATOM    100  C   UNL A   1      52.148  25.904  25.538  1.00  0.00     0.060 A 
BRANCH 100 101
ATOM    101  S   UNL A   1      53.810  25.348  25.105  1.00  0.00     0.124 S 
ATOM    102  O   UNL A   1      53.652  23.899  25.126  1.00  0.00    -0.237 OA
ATOM    103  O   UNL A   1      54.004  25.946  23.787  1.00  0.00    -0.237 OA
ATOM    104  O   UNL A   1      54.644  25.904  26.167  1.00  0.00    -0.744 OA
ENDBRANCH 100 101
ENDBRANCH  68  93
ENDBRANCH  42  43
ENDBRANCH  34  37
ENDBRANCH  32  33
ENDBRANCH  31  32
ENDBRANCH   1  31
TORSDOF 17
ENDMDL
MODEL 2
REMARK VINA RESULT:     -12.7      1.025      7.850
REMARK SMILES O=C(CCN1C(=O)/C(=C/c2c3ccccc3cc3ccccc23)SC1=S)NCCCCNC(=O)c1ccc(-c2c3nc(c(-c4c(F)cc(S(=O)(=O)[O-])cc4F)c4ccc([nH]4)c(-c4c(F)cc(S(=O)(=O)[O-])cc4F)c4nc(c(-c5c(F)cc(S(=O)(=O)[O-])cc5F)c5ccc2[nH]5)C=C4)C=C3)cc1
REMARK SMILES IDX 29 1 28 2 27 3 1 4 2 5 3 7 4 8 5 9 6 10 25 11 7 12 8 13
REMARK SMILES IDX 24 14 26 15 9 16 10 17 11 18 23 19 12 20 16 21 18 22 22 23
REMARK SMILES IDX 13 24 15 25 17 26 19 27 21 28 14 29 20 30 30 31 31 32 32 33
REMARK SMILES IDX 33 34 34 36 35 37 36 38 100 39 37 40 99 41 38 42 39 43 40 44
REMARK SMILES IDX 93 45 41 46 98 47 92 48 94 49 42 50 97 51 91 52 90 53 43 55
REMARK SMILES IDX 77 56 56 57 76 58 57 59 60 60 75 61 95 62 58 63 59 64 74 66
REMARK SMILES IDX 96 67 61 68 44 69 45 70 54 71 46 72 47 73 53 74 55 75 48 76
REMARK SMILES IDX 49 77 50 78 51 79 52 80 78 81 79 82 88 83 80 84 81 85 87 86
REMARK SMILES IDX 89 87 82 88 83 89 84 90 85 91 86 92 62 93 63 94 72 95 64 96
REMARK SMILES IDX 65 97 71 98 73 99 66 100 67 101 68 102 69 103 70 104
REMARK H PARENT 27 6 32 35 94 54 60 65
REMARK Flexibility Score: inf
ROOT
ATOM      1  C   UNL A   1      35.399  32.678  28.119  1.00  0.00     0.023 C 
ENDROOT
BRANCH   1   2
ATOM      2  C   UNL A   1      34.186  31.753  28.004  1.00  0.00     0.116 C 
BRANCH   2   3
ATOM      3  N   UNL A   1      34.289  30.801  26.909  1.00  0.00    -0.356 N 
ATOM      4  O   UNL A   1      32.267  29.768  27.292  1.00  0.00    -0.275 OA
ATOM      5  C   UNL A   1      33.278  29.911  26.612  1.00  0.00     0.221 C 
ATOM      6  H   UNL A   1      35.107  30.792  26.361  1.00  0.00     0.163 HD
BRANCH   5   7
ATOM      7  C   UNL A   1      33.485  29.134  25.331  1.00  0.00     0.122 C 
BRANCH   7   8
ATOM      8  C   UNL A   1      32.320  28.171  25.072  1.00  0.00     0.137 C 
BRANCH   8   9
ATOM      9  N   UNL A   1      32.778  26.831  24.683  1.00  0.00    -0.292 N 
ATOM     10  C   UNL A   1      32.761  25.834  25.643  1.00  0.00     0.266 C 
ATOM     11  C   UNL A   1      33.250  26.476  23.436  1.00  0.00     0.148 C 
ATOM     12  O   UNL A   1      32.352  25.958  26.793  1.00  0.00    -0.268 OA
ATOM     13  C   UNL A   1      33.420  24.612  25.128  1.00  0.00     0.081 C 
ATOM     14  S   UNL A   1      33.909  24.846  23.499  1.00  0.00    -0.054 SA
ATOM     15  S   UNL A   1      33.264  27.381  22.036  1.00  0.00    -0.052 S 
ATOM     16  C   UNL A   1      33.696  23.584  25.943  1.00  0.00     0.030 C 
BRANCH  16  17
ATOM     17  C   UNL A   1      34.667  22.527  25.609  1.00  0.00    -0.009 A 
ATOM     18  C   UNL A   1      34.134  21.292  25.123  1.00  0.00    -0.010 A 
ATOM     19  C   UNL A   1      36.069  22.722  25.793  1.00  0.00    -0.010 A 
ATOM     20  C   UNL A   1      32.760  21.052  24.828  1.00  0.00     0.009 A 
ATOM     21  C   UNL A   1      35.024  20.236  24.904  1.00  0.00    -0.017 A 
ATOM     22  C   UNL A   1      36.934  21.633  25.543  1.00  0.00    -0.017 A 
ATOM     23  C   UNL A   1      36.665  23.943  26.190  1.00  0.00     0.009 A 
ATOM     24  C   UNL A   1      32.293  19.813  24.382  1.00  0.00     0.001 A 
ATOM     25  C   UNL A   1      34.525  18.999  24.481  1.00  0.00     0.009 A 
ATOM     26  C   UNL A   1      36.401  20.418  25.108  1.00  0.00     0.017 A 
ATOM     27  C   UNL A   1      38.322  21.766  25.715  1.00  0.00     0.009 A 
ATOM     28  C   UNL A   1      38.051  24.073  26.330  1.00  0.00     0.001 A 
ATOM     29  C   UNL A   1      33.178  18.767  24.240  1.00  0.00     0.001 A 
ATOM     30  C   UNL A   1      38.878  22.982  26.101  1.00  0.00     0.001 A 
ENDBRANCH  16  17
ENDBRANCH   8   9
ENDBRANCH   7   8
ENDBRANCH   5   7
ENDBRANCH   2   3
ENDBRANCH   1   2
BRANCH   1  31
ATOM     31  C   UNL A   1      35.542  33.420  29.453  1.00  0.00     0.023 C 
BRANCH  31  32
ATOM     32  C   UNL A   1      36.578  32.879  30.445  1.00  0.00     0.116 C 
BRANCH  32  33
ATOM     33  N   UNL A   1      36.230  31.558  30.942  1.00  0.00    -0.352 N 
ATOM     34  C   UNL A   1      36.827  30.326  30.784  1.00  0.00     0.251 C 
ATOM     35  H   UNL A   1      35.416  31.540  31.497  1.00  0.00     0.163 HD
ATOM     36  O   UNL A   1      36.211  29.335  31.180  1.00  0.00    -0.269 OA
BRANCH  34  37
ATOM     37  C   UNL A   1      38.160  30.133  30.147  1.00  0.00     0.039 A 
ATOM     38  C   UNL A   1      39.301  30.124  30.968  1.00  0.00     0.014 A 
ATOM     39  C   UNL A   1      38.339  30.058  28.770  1.00  0.00     0.014 A 
ATOM     40  C   UNL A   1      40.592  29.961  30.426  1.00  0.00     0.010 A 
ATOM     41  C   UNL A   1      39.622  29.841  28.239  1.00  0.00     0.010 A 
ATOM     42  C   UNL A   1      40.775  29.760  29.052  1.00  0.00    -0.014 A 
BRANCH  42  43
ATOM     43  C   UNL A   1      42.105  29.384  28.438  1.00  0.00     0.031 A 
ATOM     44  C   UNL A   1      42.432  27.930  28.157  1.00  0.00     0.074 A 
ATOM     45  C   UNL A   1      43.115  30.286  28.328  1.00  0.00     0.049 A 
ATOM     46  N   UNL A   1      43.587  27.379  27.866  1.00  0.00    -0.248 NA
ATOM     47  C   UNL A   1      41.321  26.970  28.236  1.00  0.00     0.031 C 
ATOM     48  C   UNL A   1      43.024  31.727  28.580  1.00  0.00     0.029 A 
ATOM     49  N   UNL A   1      44.465  30.094  28.102  1.00  0.00    -0.354 N 
ATOM     50  C   UNL A   1      43.333  26.023  27.698  1.00  0.00     0.074 A 
ATOM     51  C   UNL A   1      41.944  25.815  28.048  1.00  0.00     0.031 C 
ATOM     52  C   UNL A   1      44.260  32.250  28.655  1.00  0.00     0.029 A 
ATOM     53  C   UNL A   1      45.237  31.205  28.381  1.00  0.00     0.049 A 
ATOM     54  H   UNL A   1      44.841  29.246  27.774  1.00  0.00     0.167 HD
ATOM     55  C   UNL A   1      44.149  25.046  27.228  1.00  0.00     0.037 A 
ATOM     56  C   UNL A   1      46.573  31.385  28.420  1.00  0.00     0.037 A 
ATOM     57  C   UNL A   1      45.523  25.242  26.841  1.00  0.00     0.049 A 
ATOM     58  C   UNL A   1      47.490  30.281  27.973  1.00  0.00     0.074 A 
ATOM     59  C   UNL A   1      46.380  24.345  26.223  1.00  0.00     0.029 A 
ATOM     60  N   UNL A   1      46.248  26.404  27.044  1.00  0.00    -0.354 N 
ATOM     61  N   UNL A   1      47.193  29.046  27.653  1.00  0.00    -0.248 NA
ATOM     62  C   UNL A   1      48.915  30.617  27.818  1.00  0.00     0.031 C 
ATOM     63  C   UNL A   1      47.638  24.945  26.105  1.00  0.00     0.029 A 
ATOM     64  C   UNL A   1      47.550  26.236  26.597  1.00  0.00     0.049 A 
ATOM     65  H   UNL A   1      45.892  27.227  27.448  1.00  0.00     0.167 HD
ATOM     66  C   UNL A   1      48.376  28.486  27.175  1.00  0.00     0.074 A 
ATOM     67  C   UNL A   1      49.397  29.505  27.278  1.00  0.00     0.031 C 
ATOM     68  C   UNL A   1      48.575  27.247  26.667  1.00  0.00     0.037 A 
BRANCH  55  69
ATOM     69  C   UNL A   1      43.555  23.674  27.039  1.00  0.00     0.058 A 
ATOM     70  C   UNL A   1      43.169  23.218  25.766  1.00  0.00     0.135 A 
ATOM     71  C   UNL A   1      43.420  22.784  28.117  1.00  0.00     0.135 A 
ATOM     72  F   UNL A   1      43.279  24.023  24.697  1.00  0.00    -0.206 F 
ATOM     73  C   UNL A   1      42.625  21.954  25.578  1.00  0.00     0.059 A 
ATOM     74  C   UNL A   1      42.911  21.500  27.946  1.00  0.00     0.059 A 
ATOM     75  F   UNL A   1      43.787  23.160  29.353  1.00  0.00    -0.206 F 
ATOM     76  C   UNL A   1      42.498  21.101  26.675  1.00  0.00     0.060 A 
BRANCH  76  77
ATOM     77  S   UNL A   1      41.788  19.463  26.409  1.00  0.00     0.124 S 
ATOM     78  O   UNL A   1      42.428  19.071  25.157  1.00  0.00    -0.237 OA
ATOM     79  O   UNL A   1      42.224  18.737  27.597  1.00  0.00    -0.237 OA
ATOM     80  O   UNL A   1      40.355  19.723  26.326  1.00  0.00    -0.744 OA
ENDBRANCH  76  77
ENDBRANCH  55  69
BRANCH  56  81
ATOM     81  C   UNL A   1      47.144  32.710  28.795  1.00  0.00     0.058 A 
ATOM     82  C   UNL A   1      47.472  32.988  30.130  1.00  0.00     0.135 A 
ATOM     83  C   UNL A   1      47.348  33.724  27.847  1.00  0.00     0.135 A 
ATOM     84  F   UNL A   1      47.282  32.052  31.073  1.00  0.00    -0.206 F 
ATOM     85  C   UNL A   1      47.958  34.231  30.519  1.00  0.00     0.059 A 
ATOM     86  C   UNL A   1      47.852  34.972  28.210  1.00  0.00     0.059 A 
ATOM     87  F   UNL A   1      47.058  33.504  26.554  1.00  0.00    -0.206 F 
ATOM     88  C   UNL A   1      48.146  35.217  29.552  1.00  0.00     0.060 A 
BRANCH  88  89
ATOM     89  S   UNL A   1      48.811  36.813  30.077  1.00  0.00     0.124 S 
ATOM     90  O   UNL A   1      49.739  36.416  31.128  1.00  0.00    -0.237 OA
ATOM     91  O   UNL A   1      49.416  37.308  28.843  1.00  0.00    -0.237 OA
ATOM     92  O   UNL A   1      47.627  37.543  30.522  1.00  0.00    -0.744 OA
ENDBRANCH  88  89
ENDBRANCH  56  81
BRANCH  68  93
ATOM     93  C   UNL A   1      49.931  26.924  26.096  1.00  0.00     0.058 A 
ATOM     94  C   UNL A   1      50.255  27.167  24.753  1.00  0.00     0.135 A 
ATOM     95  C   UNL A   1      50.940  26.410  26.929  1.00  0.00     0.135 A 
ATOM     96  F   UNL A   1      49.328  27.646  23.909  1.00  0.00    -0.206 F 
ATOM     97  C   UNL A   1      51.526  26.896  24.252  1.00  0.00     0.059 A 
ATOM     98  C   UNL A   1      52.226  26.162  26.457  1.00  0.00     0.059 A 
ATOM     99  F   UNL A   1      50.688  26.163  28.224  1.00  0.00    -0.206 F 
ATOM    100  C   UNL A   1      52.507  26.400  25.113  1.00  0.00     0.060 A 
BRANCH 100 101
ATOM    101  S   UNL A   1      54.165  26.105  24.462  1.00  0.00     0.124 S 
ATOM    102  O   UNL A   1      54.946  27.107  25.178  1.00  0.00    -0.237 OA
ATOM    103  O   UNL A   1      54.408  24.717  24.847  1.00  0.00    -0.237 OA
ATOM    104  O   UNL A   1      54.014  26.333  23.028  1.00  0.00    -0.744 OA
ENDBRANCH 100 101
ENDBRANCH  68  93
ENDBRANCH  42  43
ENDBRANCH  34  37
ENDBRANCH  32  33
ENDBRANCH  31  32
ENDBRANCH   1  31
TORSDOF 17
ENDMDL
MODEL 3
REMARK VINA RESULT:     -12.5      1.021      8.138
REMARK SMILES O=C(CCN1C(=O)/C(=C/c2c3ccccc3cc3ccccc23)SC1=S)NCCCCNC(=O)c1ccc(-c2c3nc(c(-c4c(F)cc(S(=O)(=O)[O-])cc4F)c4ccc([nH]4)c(-c4c(F)cc(S(=O)(=O)[O-])cc4F)c4nc(c(-c5c(F)cc(S(=O)(=O)[O-])cc5F)c5ccc2[nH]5)C=C4)C=C3)cc1
REMARK SMILES IDX 29 1 28 2 27 3 1 4 2 5 3 7 4 8 5 9 6 10 25 11 7 12 8 13
REMARK SMILES IDX 24 14 26 15 9 16 10 17 11 18 23 19 12 20 16 21 18 22 22 23
REMARK SMILES IDX 13 24 15 25 17 26 19 27 21 28 14 29 20 30 30 31 31 32 32 33
REMARK SMILES IDX 33 34 34 36 35 37 36 38 100 39 37 40 99 41 38 42 39 43 40 44
REMARK SMILES IDX 93 45 41 46 98 47 92 48 94 49 42 50 97 51 91 52 90 53 43 55
REMARK SMILES IDX 77 56 56 57 76 58 57 59 60 60 75 61 95 62 58 63 59 64 74 66
REMARK SMILES IDX 96 67 61 68 44 69 45 70 54 71 46 72 47 73 53 74 55 75 48 76
REMARK SMILES IDX 49 77 50 78 51 79 52 80 78 81 79 82 88 83 80 84 81 85 87 86
REMARK SMILES IDX 89 87 82 88 83 89 84 90 85 91 86 92 62 93 63 94 72 95 64 96
REMARK SMILES IDX 65 97 71 98 73 99 66 100 67 101 68 102 69 103 70 104
REMARK H PARENT 27 6 32 35 94 54 60 65
REMARK Flexibility Score: inf
ROOT
ATOM      1  C   UNL A   1      35.639  32.735  28.315  1.00  0.00     0.023 C 
ENDROOT
BRANCH   1   2
ATOM      2  C   UNL A   1      34.361  31.965  27.979  1.00  0.00     0.116 C 
BRANCH   2   3
ATOM      3  N   UNL A   1      34.591  30.809  27.125  1.00  0.00    -0.356 N 
ATOM      4  O   UNL A   1      32.406  30.084  27.099  1.00  0.00    -0.275 OA
ATOM      5  C   UNL A   1      33.565  29.987  26.711  1.00  0.00     0.221 C 
ATOM      6  H   UNL A   1      35.510  30.609  26.833  1.00  0.00     0.163 HD
BRANCH   5   7
ATOM      7  C   UNL A   1      33.969  28.954  25.681  1.00  0.00     0.122 C 
BRANCH   7   8
ATOM      8  C   UNL A   1      32.750  28.178  25.167  1.00  0.00     0.137 C 
BRANCH   8   9
ATOM      9  N   UNL A   1      33.084  26.799  24.789  1.00  0.00    -0.292 N 
ATOM     10  C   UNL A   1      32.988  25.817  25.760  1.00  0.00     0.266 C 
ATOM     11  C   UNL A   1      33.511  26.391  23.542  1.00  0.00     0.148 C 
ATOM     12  O   UNL A   1      32.602  25.989  26.911  1.00  0.00    -0.268 OA
ATOM     13  C   UNL A   1      33.532  24.537  25.253  1.00  0.00     0.081 C 
ATOM     14  S   UNL A   1      34.024  24.710  23.617  1.00  0.00    -0.054 SA
ATOM     15  S   UNL A   1      33.592  27.277  22.132  1.00  0.00    -0.052 S 
ATOM     16  C   UNL A   1      33.722  23.497  26.076  1.00  0.00     0.030 C 
BRANCH  16  17
ATOM     17  C   UNL A   1      34.593  22.354  25.746  1.00  0.00    -0.009 A 
ATOM     18  C   UNL A   1      36.003  22.564  25.864  1.00  0.00    -0.010 A 
ATOM     19  C   UNL A   1      34.051  21.111  25.301  1.00  0.00    -0.010 A 
ATOM     20  C   UNL A   1      36.616  23.741  26.385  1.00  0.00     0.009 A 
ATOM     21  C   UNL A   1      36.855  21.534  25.451  1.00  0.00    -0.017 A 
ATOM     22  C   UNL A   1      34.948  20.092  24.911  1.00  0.00    -0.017 A 
ATOM     23  C   UNL A   1      32.669  20.813  25.243  1.00  0.00     0.009 A 
ATOM     24  C   UNL A   1      38.003  23.901  26.449  1.00  0.00     0.001 A 
ATOM     25  C   UNL A   1      38.239  21.732  25.504  1.00  0.00     0.009 A 
ATOM     26  C   UNL A   1      36.323  20.320  24.990  1.00  0.00     0.017 A 
ATOM     27  C   UNL A   1      34.470  18.851  24.458  1.00  0.00     0.009 A 
ATOM     28  C   UNL A   1      32.204  19.564  24.817  1.00  0.00     0.001 A 
ATOM     29  C   UNL A   1      38.822  22.901  25.972  1.00  0.00     0.001 A 
ATOM     30  C   UNL A   1      33.104  18.586  24.417  1.00  0.00     0.001 A 
ENDBRANCH  16  17
ENDBRANCH   8   9
ENDBRANCH   7   8
ENDBRANCH   5   7
ENDBRANCH   2   3
ENDBRANCH   1   2
BRANCH   1  31
ATOM     31  C   UNL A   1      35.628  33.485  29.652  1.00  0.00     0.023 C 
BRANCH  31  32
ATOM     32  C   UNL A   1      36.616  33.012  30.725  1.00  0.00     0.116 C 
BRANCH  32  33
ATOM     33  N   UNL A   1      36.287  31.691  31.237  1.00  0.00    -0.352 N 
ATOM     34  C   UNL A   1      36.876  30.460  31.054  1.00  0.00     0.251 C 
ATOM     35  H   UNL A   1      35.497  31.675  31.824  1.00  0.00     0.163 HD
ATOM     36  O   UNL A   1      36.276  29.469  31.476  1.00  0.00    -0.269 OA
BRANCH  34  37
ATOM     37  C   UNL A   1      38.183  30.265  30.365  1.00  0.00     0.039 A 
ATOM     38  C   UNL A   1      39.357  30.261  31.137  1.00  0.00     0.014 A 
ATOM     39  C   UNL A   1      38.305  30.183  28.982  1.00  0.00     0.014 A 
ATOM     40  C   UNL A   1      40.624  30.098  30.544  1.00  0.00     0.010 A 
ATOM     41  C   UNL A   1      39.565  29.966  28.399  1.00  0.00     0.010 A 
ATOM     42  C   UNL A   1      40.751  29.890  29.164  1.00  0.00    -0.014 A 
BRANCH  42  43
ATOM     43  C   UNL A   1      42.055  29.512  28.498  1.00  0.00     0.031 A 
ATOM     44  C   UNL A   1      42.380  28.056  28.225  1.00  0.00     0.074 A 
ATOM     45  C   UNL A   1      43.053  30.419  28.330  1.00  0.00     0.049 A 
ATOM     46  N   UNL A   1      43.524  27.509  27.891  1.00  0.00    -0.248 NA
ATOM     47  C   UNL A   1      41.279  27.092  28.367  1.00  0.00     0.031 C 
ATOM     48  C   UNL A   1      42.964  31.863  28.565  1.00  0.00     0.029 A 
ATOM     49  N   UNL A   1      44.393  30.232  28.049  1.00  0.00    -0.354 N 
ATOM     50  C   UNL A   1      43.271  26.148  27.754  1.00  0.00     0.074 A 
ATOM     51  C   UNL A   1      41.900  25.937  28.168  1.00  0.00     0.031 C 
ATOM     52  C   UNL A   1      44.198  32.395  28.578  1.00  0.00     0.029 A 
ATOM     53  C   UNL A   1      45.170  31.351  28.277  1.00  0.00     0.049 A 
ATOM     54  H   UNL A   1      44.760  29.381  27.717  1.00  0.00     0.167 HD
ATOM     55  C   UNL A   1      44.072  25.169  27.263  1.00  0.00     0.037 A 
ATOM     56  C   UNL A   1      46.505  31.540  28.254  1.00  0.00     0.037 A 
ATOM     57  C   UNL A   1      45.427  25.367  26.814  1.00  0.00     0.049 A 
ATOM     58  C   UNL A   1      47.408  30.434  27.783  1.00  0.00     0.074 A 
ATOM     59  C   UNL A   1      46.262  24.467  26.171  1.00  0.00     0.029 A 
ATOM     60  N   UNL A   1      46.153  26.536  26.967  1.00  0.00    -0.354 N 
ATOM     61  N   UNL A   1      47.106  29.193  27.495  1.00  0.00    -0.248 NA
ATOM     62  C   UNL A   1      48.823  30.777  27.561  1.00  0.00     0.031 C 
ATOM     63  C   UNL A   1      47.509  25.073  25.990  1.00  0.00     0.029 A 
ATOM     64  C   UNL A   1      47.434  26.370  26.466  1.00  0.00     0.049 A 
ATOM     65  H   UNL A   1      45.809  27.364  27.374  1.00  0.00     0.167 HD
ATOM     66  C   UNL A   1      48.270  28.634  26.974  1.00  0.00     0.074 A 
ATOM     67  C   UNL A   1      49.288  29.660  27.017  1.00  0.00     0.031 C 
ATOM     68  C   UNL A   1      48.455  27.388  26.475  1.00  0.00     0.037 A 
BRANCH  55  69
ATOM     69  C   UNL A   1      43.480  23.791  27.121  1.00  0.00     0.058 A 
ATOM     70  C   UNL A   1      43.325  22.948  28.235  1.00  0.00     0.135 A 
ATOM     71  C   UNL A   1      43.013  23.324  25.881  1.00  0.00     0.135 A 
ATOM     72  F   UNL A   1      43.750  23.342  29.446  1.00  0.00    -0.206 F 
ATOM     73  C   UNL A   1      42.776  21.677  28.118  1.00  0.00     0.059 A 
ATOM     74  C   UNL A   1      42.427  22.069  25.747  1.00  0.00     0.059 A 
ATOM     75  F   UNL A   1      43.121  24.093  24.786  1.00  0.00    -0.206 F 
ATOM     76  C   UNL A   1      42.331  21.245  26.868  1.00  0.00     0.060 A 
BRANCH  76  77
ATOM     77  S   UNL A   1      41.622  19.590  26.738  1.00  0.00     0.124 S 
ATOM     78  O   UNL A   1      40.363  19.757  27.457  1.00  0.00    -0.237 OA
ATOM     79  O   UNL A   1      41.507  19.412  25.293  1.00  0.00    -0.237 OA
ATOM     80  O   UNL A   1      42.612  18.743  27.395  1.00  0.00    -0.744 OA
ENDBRANCH  76  77
ENDBRANCH  55  69
BRANCH  56  81
ATOM     81  C   UNL A   1      47.083  32.873  28.584  1.00  0.00     0.058 A 
ATOM     82  C   UNL A   1      47.227  33.850  27.588  1.00  0.00     0.135 A 
ATOM     83  C   UNL A   1      47.522  33.190  29.879  1.00  0.00     0.135 A 
ATOM     84  F   UNL A   1      46.832  33.587  26.333  1.00  0.00    -0.206 F 
ATOM     85  C   UNL A   1      47.808  35.085  27.854  1.00  0.00     0.059 A 
ATOM     86  C   UNL A   1      48.091  34.428  30.174  1.00  0.00     0.059 A 
ATOM     87  F   UNL A   1      47.397  32.293  30.870  1.00  0.00    -0.206 F 
ATOM     88  C   UNL A   1      48.237  35.365  29.151  1.00  0.00     0.060 A 
BRANCH  88  89
ATOM     89  S   UNL A   1      48.959  36.989  29.479  1.00  0.00     0.124 S 
ATOM     90  O   UNL A   1      47.798  37.741  29.942  1.00  0.00    -0.237 OA
ATOM     91  O   UNL A   1      49.961  36.674  30.493  1.00  0.00    -0.237 OA
ATOM     92  O   UNL A   1      49.495  37.390  28.182  1.00  0.00    -0.744 OA
ENDBRANCH  88  89
ENDBRANCH  56  81
BRANCH  68  93
ATOM     93  C   UNL A   1      49.786  27.065  25.850  1.00  0.00     0.058 A 
ATOM     94  C   UNL A   1      50.056  27.306  24.495  1.00  0.00     0.135 A 
ATOM     95  C   UNL A   1      50.829  26.551  26.641  1.00  0.00     0.135 A 
ATOM     96  F   UNL A   1      49.095  27.785  23.690  1.00  0.00    -0.206 F 
ATOM     97  C   UNL A   1      51.305  27.036  23.943  1.00  0.00     0.059 A 
ATOM     98  C   UNL A   1      52.094  26.303  26.118  1.00  0.00     0.059 A 
ATOM     99  F   UNL A   1      50.629  26.304  27.946  1.00  0.00    -0.206 F 
ATOM    100  C   UNL A   1      52.321  26.540  24.764  1.00  0.00     0.060 A 
BRANCH 100 101
ATOM    101  S   UNL A   1      53.951  26.244  24.046  1.00  0.00     0.124 S 
ATOM    102  O   UNL A   1      54.420  25.111  24.836  1.00  0.00    -0.237 OA
ATOM    103  O   UNL A   1      53.628  25.954  22.651  1.00  0.00    -0.237 OA
ATOM    104  O   UNL A   1      54.656  27.502  24.271  1.00  0.00    -0.744 OA
ENDBRANCH 100 101
ENDBRANCH  68  93
ENDBRANCH  42  43
ENDBRANCH  34  37
ENDBRANCH  32  33
ENDBRANCH  31  32
ENDBRANCH   1  31
TORSDOF 17
ENDMDL
