MODEL 1
REMARK VINA RESULT:     -11.0      0.000      0.000
REMARK SMILES CNC(=O)NC(=O)CCSc1csc(C(=O)NCCCCNC(=O)c2ccc(-c3c4nc(c(-c5c(F)cc(S(=O)(=O)[O-])cc5F)c5ccc([nH]5)c(-c5c(F)cc(S(=O)(=O)[O-])cc5F)c5nc(c(-c6c(F)cc(S(=O)(=O)[O-])cc6F)c6ccc3[nH]6)C=C5)C=C4)cc2)c1
REMARK SMILES IDX 19 1 18 2 17 3 15 4 16 5 14 7 11 8 12 9 91 10 13 11 10 12
REMARK SMILES IDX 9 13 8 14 6 15 1 16 2 17 3 18 4 20 5 21 7 23 20 24 21 25
REMARK SMILES IDX 22 26 23 27 24 29 25 30 26 31 90 32 27 33 89 34 28 35 29 36
REMARK SMILES IDX 30 37 83 38 31 39 88 40 82 41 84 42 32 43 87 44 81 45 80 46
REMARK SMILES IDX 33 48 67 49 46 50 66 51 47 52 50 53 65 54 85 55 48 56 49 57
REMARK SMILES IDX 64 59 86 60 51 61 34 62 35 63 44 64 36 65 37 66 43 67 45 68
REMARK SMILES IDX 38 69 39 70 40 71 41 72 42 73 68 74 69 75 78 76 70 77 71 78
REMARK SMILES IDX 77 79 79 80 72 81 73 82 74 83 75 84 76 85 52 86 53 87 62 88
REMARK SMILES IDX 54 89 55 90 61 91 63 92 56 93 57 94 58 95 59 96 60 97
REMARK H PARENT 17 6 2 19 5 22 22 28 84 47 50 58
REMARK Flexibility Score: inf
ROOT
ATOM      1  C   UNL A   1      33.263  29.383  24.998  1.00  0.00     0.023 C 
ENDROOT
BRANCH   1   2
ATOM      2  C   UNL A   1      33.376  28.928  23.547  1.00  0.00     0.116 C 
BRANCH   2   3
ATOM      3  N   UNL A   1      32.117  28.841  22.837  1.00  0.00    -0.351 N 
ATOM      4  C   UNL A   1      31.367  27.707  22.570  1.00  0.00     0.261 C 
ATOM      5  O   UNL A   1      30.362  27.845  21.883  1.00  0.00    -0.268 OA
ATOM      6  H   UNL A   1      31.749  29.691  22.505  1.00  0.00     0.163 HD
BRANCH   4   7
ATOM      7  C   UNL A   1      31.816  26.424  23.097  1.00  0.00     0.093 A 
ATOM      8  C   UNL A   1      32.982  24.429  23.450  1.00  0.00     0.019 A 
ATOM      9  C   UNL A   1      31.837  24.211  24.182  1.00  0.00     0.080 A 
ATOM     10  C   UNL A   1      33.007  25.742  22.903  1.00  0.00     0.040 A 
ATOM     11  S   UNL A   1      30.778  25.553  24.149  1.00  0.00    -0.137 S 
BRANCH   8  12
ATOM     12  S   UNL A   1      34.226  23.199  23.285  1.00  0.00    -0.125 SA
BRANCH  12  13
ATOM     13  C   UNL A   1      35.509  23.631  24.494  1.00  0.00     0.085 C 
BRANCH  13  14
ATOM     14  C   UNL A   1      35.577  22.723  25.713  1.00  0.00     0.112 C 
BRANCH  14  15
ATOM     15  C   UNL A   1      35.405  21.255  25.432  1.00  0.00     0.228 C 
ATOM     16  C   UNL A   1      33.094  22.336  27.884  1.00  0.00     0.144 C 
ATOM     17  N   UNL A   1      32.490  21.806  26.691  1.00  0.00    -0.341 N 
ATOM     18  C   UNL A   1      32.952  20.880  25.832  1.00  0.00     0.321 C 
ATOM     19  H   UNL A   1      31.605  22.178  26.469  1.00  0.00     0.165 HD
ATOM     20  O   UNL A   1      32.151  20.275  25.120  1.00  0.00    -0.248 OA
ATOM     21  N   UNL A   1      34.273  20.553  25.784  1.00  0.00    -0.278 N 
ATOM     22  H   UNL A   1      34.457  19.625  26.058  1.00  0.00     0.174 HD
ATOM     23  O   UNL A   1      36.306  20.646  24.841  1.00  0.00    -0.275 OA
ENDBRANCH  14  15
ENDBRANCH  13  14
ENDBRANCH  12  13
ENDBRANCH   8  12
ENDBRANCH   4   7
ENDBRANCH   2   3
ENDBRANCH   1   2
BRANCH   1  24
ATOM     24  C   UNL A   1      33.669  28.366  26.054  1.00  0.00     0.023 C 
BRANCH  24  25
ATOM     25  C   UNL A   1      33.308  28.708  27.496  1.00  0.00     0.116 C 
BRANCH  25  26
ATOM     26  N   UNL A   1      33.417  30.121  27.838  1.00  0.00    -0.352 N 
ATOM     27  C   UNL A   1      34.532  30.815  28.270  1.00  0.00     0.251 C 
ATOM     28  H   UNL A   1      32.590  30.649  27.752  1.00  0.00     0.163 HD
ATOM     29  O   UNL A   1      34.456  32.001  28.574  1.00  0.00    -0.269 OA
BRANCH  27  30
ATOM     30  C   UNL A   1      35.820  30.094  28.411  1.00  0.00     0.039 A 
ATOM     31  C   UNL A   1      36.712  30.069  27.336  1.00  0.00     0.014 A 
ATOM     32  C   UNL A   1      36.184  29.529  29.635  1.00  0.00     0.014 A 
ATOM     33  C   UNL A   1      38.013  29.590  27.526  1.00  0.00     0.010 A 
ATOM     34  C   UNL A   1      37.502  29.138  29.846  1.00  0.00     0.010 A 
ATOM     35  C   UNL A   1      38.440  29.182  28.802  1.00  0.00    -0.014 A 
BRANCH  35  36
ATOM     36  C   UNL A   1      39.859  28.831  29.085  1.00  0.00     0.031 A 
ATOM     37  C   UNL A   1      40.793  29.867  29.650  1.00  0.00     0.074 A 
ATOM     38  C   UNL A   1      40.338  27.617  28.737  1.00  0.00     0.049 A 
ATOM     39  N   UNL A   1      42.088  29.809  29.823  1.00  0.00    -0.248 NA
ATOM     40  C   UNL A   1      40.193  31.154  30.042  1.00  0.00     0.031 C 
ATOM     41  C   UNL A   1      39.555  26.534  28.137  1.00  0.00     0.029 A 
ATOM     42  N   UNL A   1      41.607  27.095  28.820  1.00  0.00    -0.354 N 
ATOM     43  C   UNL A   1      42.461  31.052  30.322  1.00  0.00     0.074 A 
ATOM     44  C   UNL A   1      41.263  31.862  30.374  1.00  0.00     0.031 C 
ATOM     45  C   UNL A   1      40.354  25.475  27.925  1.00  0.00     0.029 A 
ATOM     46  C   UNL A   1      41.715  25.814  28.329  1.00  0.00     0.049 A 
ATOM     47  H   UNL A   1      42.369  27.591  29.198  1.00  0.00     0.167 HD
ATOM     48  C   UNL A   1      43.684  31.474  30.722  1.00  0.00     0.037 A 
ATOM     49  C   UNL A   1      42.788  25.008  28.202  1.00  0.00     0.037 A 
ATOM     50  C   UNL A   1      44.868  30.657  30.703  1.00  0.00     0.049 A 
ATOM     51  C   UNL A   1      44.138  25.501  28.649  1.00  0.00     0.074 A 
ATOM     52  C   UNL A   1      46.142  30.979  31.137  1.00  0.00     0.029 A 
ATOM     53  N   UNL A   1      44.926  29.355  30.229  1.00  0.00    -0.354 N 
ATOM     54  N   UNL A   1      44.461  26.664  29.164  1.00  0.00    -0.248 NA
ATOM     55  C   UNL A   1      45.271  24.575  28.501  1.00  0.00     0.031 C 
ATOM     56  C   UNL A   1      46.978  29.885  30.895  1.00  0.00     0.029 A 
ATOM     57  C   UNL A   1      46.215  28.865  30.350  1.00  0.00     0.049 A 
ATOM     58  H   UNL A   1      44.163  28.853  29.861  1.00  0.00     0.167 HD
ATOM     59  C   UNL A   1      45.825  26.595  29.431  1.00  0.00     0.074 A 
ATOM     60  C   UNL A   1      46.265  25.277  29.027  1.00  0.00     0.031 C 
ATOM     61  C   UNL A   1      46.636  27.540  29.966  1.00  0.00     0.037 A 
BRANCH  48  62
ATOM     62  C   UNL A   1      43.801  32.884  31.232  1.00  0.00     0.058 A 
ATOM     63  C   UNL A   1      43.909  33.974  30.354  1.00  0.00     0.135 A 
ATOM     64  C   UNL A   1      43.767  33.153  32.610  1.00  0.00     0.135 A 
ATOM     65  F   UNL A   1      43.962  33.772  29.029  1.00  0.00    -0.206 F 
ATOM     66  C   UNL A   1      44.008  35.279  30.824  1.00  0.00     0.059 A 
ATOM     67  C   UNL A   1      43.837  34.454  33.102  1.00  0.00     0.059 A 
ATOM     68  F   UNL A   1      43.665  32.148  33.494  1.00  0.00    -0.206 F 
ATOM     69  C   UNL A   1      43.972  35.509  32.201  1.00  0.00     0.060 A 
BRANCH  69  70
ATOM     70  S   UNL A   1      44.097  37.209  32.793  1.00  0.00     0.124 S 
ATOM     71  O   UNL A   1      44.064  37.956  31.539  1.00  0.00    -0.237 OA
ATOM     72  O   UNL A   1      42.910  37.335  33.635  1.00  0.00    -0.237 OA
ATOM     73  O   UNL A   1      45.371  37.230  33.503  1.00  0.00    -0.744 OA
ENDBRANCH  69  70
ENDBRANCH  48  62
BRANCH  49  74
ATOM     74  C   UNL A   1      42.635  23.637  27.639  1.00  0.00     0.058 A 
ATOM     75  C   UNL A   1      42.417  22.536  28.481  1.00  0.00     0.135 A 
ATOM     76  C   UNL A   1      42.710  23.399  26.258  1.00  0.00     0.135 A 
ATOM     77  F   UNL A   1      42.346  22.712  29.809  1.00  0.00    -0.206 F 
ATOM     78  C   UNL A   1      42.301  21.244  27.978  1.00  0.00     0.059 A 
ATOM     79  C   UNL A   1      42.571  22.118  25.729  1.00  0.00     0.059 A 
ATOM     80  F   UNL A   1      42.901  24.419  25.408  1.00  0.00    -0.206 F 
ATOM     81  C   UNL A   1      42.381  21.046  26.599  1.00  0.00     0.060 A 
BRANCH  81  82
ATOM     82  S   UNL A   1      42.195  19.368  25.954  1.00  0.00     0.124 S 
ATOM     83  O   UNL A   1      40.755  19.294  25.741  1.00  0.00    -0.237 OA
ATOM     84  O   UNL A   1      43.018  19.410  24.748  1.00  0.00    -0.237 OA
ATOM     85  O   UNL A   1      42.720  18.536  27.031  1.00  0.00    -0.744 OA
ENDBRANCH  81  82
ENDBRANCH  49  74
BRANCH  61  86
ATOM     86  C   UNL A   1      48.076  27.176  30.196  1.00  0.00     0.058 A 
ATOM     87  C   UNL A   1      49.069  27.445  29.242  1.00  0.00     0.135 A 
ATOM     88  C   UNL A   1      48.477  26.620  31.423  1.00  0.00     0.135 A 
ATOM     89  F   UNL A   1      48.737  27.968  28.051  1.00  0.00    -0.206 F 
ATOM     90  C   UNL A   1      50.409  27.164  29.491  1.00  0.00     0.059 A 
ATOM     91  C   UNL A   1      49.814  26.355  31.701  1.00  0.00     0.059 A 
ATOM     92  F   UNL A   1      47.568  26.351  32.372  1.00  0.00    -0.206 F 
ATOM     93  C   UNL A   1      50.773  26.624  30.726  1.00  0.00     0.060 A 
BRANCH  93  94
ATOM     94  S   UNL A   1      52.521  26.319  31.058  1.00  0.00     0.124 S 
ATOM     95  O   UNL A   1      52.471  25.025  31.731  1.00  0.00    -0.237 OA
ATOM     96  O   UNL A   1      53.099  26.315  29.718  1.00  0.00    -0.237 OA
ATOM     97  O   UNL A   1      52.910  27.449  31.899  1.00  0.00    -0.744 OA
ENDBRANCH  93  94
ENDBRANCH  61  86
ENDBRANCH  35  36
ENDBRANCH  27  30
ENDBRANCH  25  26
ENDBRANCH  24  25
ENDBRANCH   1  24
TORSDOF 18
ENDMDL
MODEL 2
REMARK VINA RESULT:     -10.6      3.935     10.117
REMARK SMILES CNC(=O)NC(=O)CCSc1csc(C(=O)NCCCCNC(=O)c2ccc(-c3c4nc(c(-c5c(F)cc(S(=O)(=O)[O-])cc5F)c5ccc([nH]5)c(-c5c(F)cc(S(=O)(=O)[O-])cc5F)c5nc(c(-c6c(F)cc(S(=O)(=O)[O-])cc6F)c6ccc3[nH]6)C=C5)C=C4)cc2)c1
REMARK SMILES IDX 19 1 18 2 17 3 15 4 16 5 14 7 11 8 12 9 91 10 13 11 10 12
REMARK SMILES IDX 9 13 8 14 6 15 1 16 2 17 3 18 4 20 5 21 7 23 20 24 21 25
REMARK SMILES IDX 22 26 23 27 24 29 25 30 26 31 90 32 27 33 89 34 28 35 29 36
REMARK SMILES IDX 30 37 83 38 31 39 88 40 82 41 84 42 32 43 87 44 81 45 80 46
REMARK SMILES IDX 33 48 67 49 46 50 66 51 47 52 50 53 65 54 85 55 48 56 49 57
REMARK SMILES IDX 64 59 86 60 51 61 34 62 35 63 44 64 36 65 37 66 43 67 45 68
REMARK SMILES IDX 38 69 39 70 40 71 41 72 42 73 68 74 69 75 78 76 70 77 71 78
REMARK SMILES IDX 77 79 79 80 72 81 73 82 74 83 75 84 76 85 52 86 53 87 62 88
REMARK SMILES IDX 54 89 55 90 61 91 63 92 56 93 57 94 58 95 59 96 60 97
REMARK H PARENT 17 6 2 19 5 22 22 28 84 47 50 58
REMARK Flexibility Score: inf
ROOT
ATOM      1  C   UNL A   1      35.414  33.927  33.677  1.00  0.00     0.023 C 
ENDROOT
BRANCH   1   2
ATOM      2  C   UNL A   1      35.141  35.300  33.076  1.00  0.00     0.116 C 
BRANCH   2   3
ATOM      3  N   UNL A   1      33.744  35.677  33.030  1.00  0.00    -0.351 N 
ATOM      4  C   UNL A   1      32.915  35.740  31.922  1.00  0.00     0.261 C 
ATOM      5  O   UNL A   1      31.776  36.160  32.092  1.00  0.00    -0.268 OA
ATOM      6  H   UNL A   1      33.333  35.916  33.892  1.00  0.00     0.163 HD
BRANCH   4   7
ATOM      7  C   UNL A   1      33.438  35.328  30.625  1.00  0.00     0.093 A 
ATOM      8  C   UNL A   1      34.589  34.214  28.923  1.00  0.00     0.019 A 
ATOM      9  C   UNL A   1      34.206  35.372  28.283  1.00  0.00     0.080 A 
ATOM     10  C   UNL A   1      34.065  34.152  30.243  1.00  0.00     0.040 A 
ATOM     11  S   UNL A   1      33.282  36.397  29.293  1.00  0.00    -0.137 S 
BRANCH   8  12
ATOM     12  S   UNL A   1      35.578  33.000  28.128  1.00  0.00    -0.125 SA
BRANCH  12  13
ATOM     13  C   UNL A   1      34.757  31.412  28.444  1.00  0.00     0.085 C 
BRANCH  13  14
ATOM     14  C   UNL A   1      34.152  30.744  27.217  1.00  0.00     0.112 C 
BRANCH  14  15
ATOM     15  C   UNL A   1      32.653  30.832  27.110  1.00  0.00     0.228 C 
ATOM     16  C   UNL A   1      33.827  27.784  25.749  1.00  0.00     0.144 C 
ATOM     17  N   UNL A   1      32.926  27.631  26.861  1.00  0.00    -0.341 N 
ATOM     18  C   UNL A   1      31.928  28.432  27.275  1.00  0.00     0.321 C 
ATOM     19  H   UNL A   1      33.062  26.818  27.401  1.00  0.00     0.165 HD
ATOM     20  O   UNL A   1      31.032  27.956  27.972  1.00  0.00    -0.248 OA
ATOM     21  N   UNL A   1      31.854  29.733  26.883  1.00  0.00    -0.278 N 
ATOM     22  H   UNL A   1      31.069  29.930  26.322  1.00  0.00     0.174 HD
ATOM     23  O   UNL A   1      32.103  31.932  27.251  1.00  0.00    -0.275 OA
ENDBRANCH  14  15
ENDBRANCH  13  14
ENDBRANCH  12  13
ENDBRANCH   8  12
ENDBRANCH   4   7
ENDBRANCH   2   3
ENDBRANCH   1   2
BRANCH   1  24
ATOM     24  C   UNL A   1      36.811  33.364  33.458  1.00  0.00     0.023 C 
BRANCH  24  25
ATOM     25  C   UNL A   1      37.077  32.728  32.097  1.00  0.00     0.116 C 
BRANCH  25  26
ATOM     26  N   UNL A   1      36.410  31.450  31.874  1.00  0.00    -0.352 N 
ATOM     27  C   UNL A   1      36.898  30.330  31.229  1.00  0.00     0.251 C 
ATOM     28  H   UNL A   1      35.494  31.376  32.228  1.00  0.00     0.163 HD
ATOM     29  O   UNL A   1      36.194  29.338  31.070  1.00  0.00    -0.269 OA
BRANCH  27  30
ATOM     30  C   UNL A   1      38.276  30.356  30.681  1.00  0.00     0.039 A 
ATOM     31  C   UNL A   1      39.348  30.011  31.508  1.00  0.00     0.014 A 
ATOM     32  C   UNL A   1      38.494  30.626  29.329  1.00  0.00     0.014 A 
ATOM     33  C   UNL A   1      40.617  29.815  30.951  1.00  0.00     0.010 A 
ATOM     34  C   UNL A   1      39.734  30.345  28.763  1.00  0.00     0.010 A 
ATOM     35  C   UNL A   1      40.806  29.915  29.562  1.00  0.00    -0.014 A 
BRANCH  35  36
ATOM     36  C   UNL A   1      42.094  29.547  28.911  1.00  0.00     0.031 A 
ATOM     37  C   UNL A   1      42.329  28.132  28.454  1.00  0.00     0.074 A 
ATOM     38  C   UNL A   1      43.092  30.452  28.826  1.00  0.00     0.049 A 
ATOM     39  N   UNL A   1      43.427  27.577  28.009  1.00  0.00    -0.248 NA
ATOM     40  C   UNL A   1      41.184  27.211  28.541  1.00  0.00     0.031 C 
ATOM     41  C   UNL A   1      43.016  31.846  29.272  1.00  0.00     0.029 A 
ATOM     42  N   UNL A   1      44.376  30.331  28.351  1.00  0.00    -0.354 N 
ATOM     43  C   UNL A   1      43.113  26.242  27.784  1.00  0.00     0.074 A 
ATOM     44  C   UNL A   1      41.737  26.058  28.191  1.00  0.00     0.031 C 
ATOM     45  C   UNL A   1      44.192  32.452  29.033  1.00  0.00     0.029 A 
ATOM     46  C   UNL A   1      45.121  31.484  28.460  1.00  0.00     0.049 A 
ATOM     47  H   UNL A   1      44.731  29.497  27.966  1.00  0.00     0.167 HD
ATOM     48  C   UNL A   1      43.891  25.263  27.263  1.00  0.00     0.037 A 
ATOM     49  C   UNL A   1      46.409  31.731  28.150  1.00  0.00     0.037 A 
ATOM     50  C   UNL A   1      45.248  25.455  26.826  1.00  0.00     0.049 A 
ATOM     51  C   UNL A   1      47.255  30.626  27.577  1.00  0.00     0.074 A 
ATOM     52  C   UNL A   1      46.099  24.536  26.238  1.00  0.00     0.029 A 
ATOM     53  N   UNL A   1      45.952  26.645  26.924  1.00  0.00    -0.354 N 
ATOM     54  N   UNL A   1      46.925  29.381  27.327  1.00  0.00    -0.248 NA
ATOM     55  C   UNL A   1      48.649  30.955  27.243  1.00  0.00     0.031 C 
ATOM     56  C   UNL A   1      47.330  25.161  26.010  1.00  0.00     0.029 A 
ATOM     57  C   UNL A   1      47.230  26.482  26.416  1.00  0.00     0.049 A 
ATOM     58  H   UNL A   1      45.596  27.484  27.298  1.00  0.00     0.167 HD
ATOM     59  C   UNL A   1      48.058  28.791  26.775  1.00  0.00     0.074 A 
ATOM     60  C   UNL A   1      49.081  29.814  26.724  1.00  0.00     0.031 C 
ATOM     61  C   UNL A   1      48.232  27.516  26.349  1.00  0.00     0.037 A 
BRANCH  48  62
ATOM     62  C   UNL A   1      43.285  23.893  27.124  1.00  0.00     0.058 A 
ATOM     63  C   UNL A   1      42.834  23.414  25.884  1.00  0.00     0.135 A 
ATOM     64  C   UNL A   1      43.190  23.036  28.231  1.00  0.00     0.135 A 
ATOM     65  F   UNL A   1      42.887  24.199  24.796  1.00  0.00    -0.206 F 
ATOM     66  C   UNL A   1      42.282  22.145  25.752  1.00  0.00     0.059 A 
ATOM     67  C   UNL A   1      42.667  21.750  28.117  1.00  0.00     0.059 A 
ATOM     68  F   UNL A   1      43.608  23.442  29.440  1.00  0.00    -0.206 F 
ATOM     69  C   UNL A   1      42.201  21.320  26.875  1.00  0.00     0.060 A 
BRANCH  69  70
ATOM     70  S   UNL A   1      41.487  19.674  26.684  1.00  0.00     0.124 S 
ATOM     71  O   UNL A   1      41.946  19.312  25.347  1.00  0.00    -0.237 OA
ATOM     72  O   UNL A   1      42.102  18.937  27.785  1.00  0.00    -0.237 OA
ATOM     73  O   UNL A   1      40.053  19.907  26.814  1.00  0.00    -0.744 OA
ENDBRANCH  69  70
ENDBRANCH  48  62
BRANCH  49  74
ATOM     74  C   UNL A   1      46.983  33.090  28.357  1.00  0.00     0.058 A 
ATOM     75  C   UNL A   1      46.815  34.095  27.392  1.00  0.00     0.135 A 
ATOM     76  C   UNL A   1      47.714  33.409  29.511  1.00  0.00     0.135 A 
ATOM     77  F   UNL A   1      46.131  33.835  26.267  1.00  0.00    -0.206 F 
ATOM     78  C   UNL A   1      47.369  35.361  27.552  1.00  0.00     0.059 A 
ATOM     79  C   UNL A   1      48.256  34.677  29.706  1.00  0.00     0.059 A 
ATOM     80  F   UNL A   1      47.891  32.490  30.472  1.00  0.00    -0.206 F 
ATOM     81  C   UNL A   1      48.089  35.642  28.714  1.00  0.00     0.060 A 
BRANCH  81  82
ATOM     82  S   UNL A   1      48.775  37.300  28.927  1.00  0.00     0.124 S 
ATOM     83  O   UNL A   1      49.246  37.598  27.580  1.00  0.00    -0.237 OA
ATOM     84  O   UNL A   1      47.611  38.057  29.380  1.00  0.00    -0.237 OA
ATOM     85  O   UNL A   1      49.814  37.104  29.933  1.00  0.00    -0.744 OA
ENDBRANCH  81  82
ENDBRANCH  49  74
BRANCH  61  86
ATOM     86  C   UNL A   1      49.559  27.158  25.741  1.00  0.00     0.058 A 
ATOM     87  C   UNL A   1      49.810  27.312  24.370  1.00  0.00     0.135 A 
ATOM     88  C   UNL A   1      50.618  26.726  26.558  1.00  0.00     0.135 A 
ATOM     89  F   UNL A   1      48.830  27.714  23.544  1.00  0.00    -0.206 F 
ATOM     90  C   UNL A   1      51.062  27.040  23.825  1.00  0.00     0.059 A 
ATOM     91  C   UNL A   1      51.884  26.472  26.039  1.00  0.00     0.059 A 
ATOM     92  F   UNL A   1      50.432  26.570  27.878  1.00  0.00    -0.206 F 
ATOM     93  C   UNL A   1      52.094  26.625  24.669  1.00  0.00     0.060 A 
BRANCH  93  94
ATOM     94  S   UNL A   1      53.729  26.332  23.961  1.00  0.00     0.124 S 
ATOM     95  O   UNL A   1      53.414  26.195  22.543  1.00  0.00    -0.237 OA
ATOM     96  O   UNL A   1      54.454  27.542  24.336  1.00  0.00    -0.237 OA
ATOM     97  O   UNL A   1      54.174  25.110  24.626  1.00  0.00    -0.744 OA
ENDBRANCH  93  94
ENDBRANCH  61  86
ENDBRANCH  35  36
ENDBRANCH  27  30
ENDBRANCH  25  26
ENDBRANCH  24  25
ENDBRANCH   1  24
TORSDOF 18
ENDMDL
MODEL 3
REMARK VINA RESULT:     -10.5      4.625     10.522
REMARK SMILES CNC(=O)NC(=O)CCSc1csc(C(=O)NCCCCNC(=O)c2ccc(-c3c4nc(c(-c5c(F)cc(S(=O)(=O)[O-])cc5F)c5ccc([nH]5)c(-c5c(F)cc(S(=O)(=O)[O-])cc5F)c5nc(c(-c6c(F)cc(S(=O)(=O)[O-])cc6F)c6ccc3[nH]6)C=C5)C=C4)cc2)c1
REMARK SMILES IDX 19 1 18 2 17 3 15 4 16 5 14 7 11 8 12 9 91 10 13 11 10 12
REMARK SMILES IDX 9 13 8 14 6 15 1 16 2 17 3 18 4 20 5 21 7 23 20 24 21 25
REMARK SMILES IDX 22 26 23 27 24 29 25 30 26 31 90 32 27 33 89 34 28 35 29 36
REMARK SMILES IDX 30 37 83 38 31 39 88 40 82 41 84 42 32 43 87 44 81 45 80 46
REMARK SMILES IDX 33 48 67 49 46 50 66 51 47 52 50 53 65 54 85 55 48 56 49 57
REMARK SMILES IDX 64 59 86 60 51 61 34 62 35 63 44 64 36 65 37 66 43 67 45 68
REMARK SMILES IDX 38 69 39 70 40 71 41 72 42 73 68 74 69 75 78 76 70 77 71 78
REMARK SMILES IDX 77 79 79 80 72 81 73 82 74 83 75 84 76 85 52 86 53 87 62 88
REMARK SMILES IDX 54 89 55 90 61 91 63 92 56 93 57 94 58 95 59 96 60 97
REMARK H PARENT 17 6 2 19 5 22 22 28 84 47 50 58
REMARK Flexibility Score: inf
ROOT
ATOM      1  C   UNL A   1      38.642  23.720  26.519  1.00  0.00     0.023 C 
ENDROOT
BRANCH   1   2
ATOM      2  C   UNL A   1      37.359  23.189  25.891  1.00  0.00     0.116 C 
BRANCH   2   3
ATOM      3  N   UNL A   1      37.386  23.085  24.448  1.00  0.00    -0.351 N 
ATOM      4  C   UNL A   1      36.325  23.207  23.565  1.00  0.00     0.261 C 
ATOM      5  O   UNL A   1      36.552  23.007  22.378  1.00  0.00    -0.268 OA
ATOM      6  H   UNL A   1      38.265  22.907  24.044  1.00  0.00     0.163 HD
BRANCH   4   7
ATOM      7  C   UNL A   1      35.006  23.544  24.089  1.00  0.00     0.093 A 
ATOM      8  C   UNL A   1      33.174  24.687  24.982  1.00  0.00     0.019 A 
ATOM      9  C   UNL A   1      32.798  23.376  25.172  1.00  0.00     0.080 A 
ATOM     10  C   UNL A   1      34.403  24.779  24.274  1.00  0.00     0.040 A 
ATOM     11  S   UNL A   1      33.954  22.274  24.560  1.00  0.00    -0.137 S 
BRANCH   8  12
ATOM     12  S   UNL A   1      32.186  26.026  25.548  1.00  0.00    -0.125 SA
BRANCH  12  13
ATOM     13  C   UNL A   1      33.340  27.200  26.312  1.00  0.00     0.085 C 
BRANCH  13  14
ATOM     14  C   UNL A   1      33.772  28.353  25.417  1.00  0.00     0.112 C 
BRANCH  14  15
ATOM     15  C   UNL A   1      32.733  29.420  25.197  1.00  0.00     0.228 C 
ATOM     16  C   UNL A   1      34.045  28.295  22.108  1.00  0.00     0.144 C 
ATOM     17  N   UNL A   1      32.629  28.090  22.263  1.00  0.00    -0.341 N 
ATOM     18  C   UNL A   1      31.732  28.791  22.979  1.00  0.00     0.321 C 
ATOM     19  H   UNL A   1      32.261  27.319  21.772  1.00  0.00     0.165 HD
ATOM     20  O   UNL A   1      30.541  28.719  22.677  1.00  0.00    -0.248 OA
ATOM     21  N   UNL A   1      32.122  29.628  23.980  1.00  0.00    -0.278 N 
ATOM     22  H   UNL A   1      31.926  30.576  23.797  1.00  0.00     0.174 HD
ATOM     23  O   UNL A   1      32.392  30.134  26.148  1.00  0.00    -0.275 OA
ENDBRANCH  14  15
ENDBRANCH  13  14
ENDBRANCH  12  13
ENDBRANCH   8  12
ENDBRANCH   4   7
ENDBRANCH   2   3
ENDBRANCH   1   2
BRANCH   1  24
ATOM     24  C   UNL A   1      39.694  22.681  26.878  1.00  0.00     0.023 C 
BRANCH  24  25
ATOM     25  C   UNL A   1      41.138  23.173  26.934  1.00  0.00     0.116 C 
BRANCH  25  26
ATOM     26  N   UNL A   1      41.526  24.066  25.848  1.00  0.00    -0.352 N 
ATOM     27  C   UNL A   1      41.831  25.412  25.915  1.00  0.00     0.251 C 
ATOM     28  H   UNL A   1      41.576  23.659  24.953  1.00  0.00     0.163 HD
ATOM     29  O   UNL A   1      42.091  26.050  24.899  1.00  0.00    -0.269 OA
BRANCH  27  30
ATOM     30  C   UNL A   1      41.794  26.097  27.231  1.00  0.00     0.039 A 
ATOM     31  C   UNL A   1      42.922  26.793  27.672  1.00  0.00     0.014 A 
ATOM     32  C   UNL A   1      40.615  26.128  27.977  1.00  0.00     0.014 A 
ATOM     33  C   UNL A   1      42.828  27.622  28.795  1.00  0.00     0.010 A 
ATOM     34  C   UNL A   1      40.498  27.020  29.039  1.00  0.00     0.010 A 
ATOM     35  C   UNL A   1      41.595  27.795  29.449  1.00  0.00    -0.014 A 
BRANCH  35  36
ATOM     36  C   UNL A   1      41.411  28.796  30.537  1.00  0.00     0.031 A 
ATOM     37  C   UNL A   1      42.280  28.740  31.765  1.00  0.00     0.074 A 
ATOM     38  C   UNL A   1      40.399  29.686  30.472  1.00  0.00     0.049 A 
ATOM     39  N   UNL A   1      42.180  29.416  32.881  1.00  0.00    -0.248 NA
ATOM     40  C   UNL A   1      43.387  27.770  31.749  1.00  0.00     0.031 C 
ATOM     41  C   UNL A   1      39.453  29.820  29.362  1.00  0.00     0.029 A 
ATOM     42  N   UNL A   1      39.983  30.639  31.371  1.00  0.00    -0.354 N 
ATOM     43  C   UNL A   1      43.194  28.941  33.704  1.00  0.00     0.074 A 
ATOM     44  C   UNL A   1      43.864  27.882  32.980  1.00  0.00     0.031 C 
ATOM     45  C   UNL A   1      38.583  30.806  29.637  1.00  0.00     0.029 A 
ATOM     46  C   UNL A   1      38.876  31.346  30.960  1.00  0.00     0.049 A 
ATOM     47  H   UNL A   1      40.436  30.802  32.230  1.00  0.00     0.167 HD
ATOM     48  C   UNL A   1      43.551  29.362  34.941  1.00  0.00     0.037 A 
ATOM     49  C   UNL A   1      38.166  32.309  31.583  1.00  0.00     0.037 A 
ATOM     50  C   UNL A   1      42.906  30.438  35.647  1.00  0.00     0.049 A 
ATOM     51  C   UNL A   1      38.579  32.757  32.959  1.00  0.00     0.074 A 
ATOM     52  C   UNL A   1      43.230  30.971  36.882  1.00  0.00     0.029 A 
ATOM     53  N   UNL A   1      41.812  31.149  35.180  1.00  0.00    -0.354 N 
ATOM     54  N   UNL A   1      39.572  32.328  33.701  1.00  0.00    -0.248 NA
ATOM     55  C   UNL A   1      37.779  33.821  33.584  1.00  0.00     0.031 C 
ATOM     56  C   UNL A   1      42.310  31.982  37.178  1.00  0.00     0.029 A 
ATOM     57  C   UNL A   1      41.440  32.108  36.107  1.00  0.00     0.049 A 
ATOM     58  H   UNL A   1      41.364  30.995  34.317  1.00  0.00     0.167 HD
ATOM     59  C   UNL A   1      39.535  33.092  34.864  1.00  0.00     0.074 A 
ATOM     60  C   UNL A   1      38.426  34.012  34.725  1.00  0.00     0.031 C 
ATOM     61  C   UNL A   1      40.348  33.035  35.946  1.00  0.00     0.037 A 
BRANCH  48  62
ATOM     62  C   UNL A   1      44.705  28.665  35.608  1.00  0.00     0.058 A 
ATOM     63  C   UNL A   1      46.029  29.093  35.417  1.00  0.00     0.135 A 
ATOM     64  C   UNL A   1      44.485  27.584  36.475  1.00  0.00     0.135 A 
ATOM     65  F   UNL A   1      46.297  30.112  34.586  1.00  0.00    -0.206 F 
ATOM     66  C   UNL A   1      47.096  28.455  36.039  1.00  0.00     0.059 A 
ATOM     67  C   UNL A   1      45.535  26.947  37.131  1.00  0.00     0.059 A 
ATOM     68  F   UNL A   1      43.239  27.134  36.694  1.00  0.00    -0.206 F 
ATOM     69  C   UNL A   1      46.839  27.382  36.894  1.00  0.00     0.060 A 
BRANCH  69  70
ATOM     70  S   UNL A   1      48.236  26.569  37.698  1.00  0.00     0.124 S 
ATOM     71  O   UNL A   1      47.877  26.702  39.107  1.00  0.00    -0.237 OA
ATOM     72  O   UNL A   1      48.167  25.216  37.153  1.00  0.00    -0.237 OA
ATOM     73  O   UNL A   1      49.384  27.358  37.265  1.00  0.00    -0.744 OA
ENDBRANCH  69  70
ENDBRANCH  48  62
BRANCH  49  74
ATOM     74  C   UNL A   1      36.995  32.934  30.906  1.00  0.00     0.058 A 
ATOM     75  C   UNL A   1      37.176  33.908  29.913  1.00  0.00     0.135 A 
ATOM     76  C   UNL A   1      35.679  32.579  31.241  1.00  0.00     0.135 A 
ATOM     77  F   UNL A   1      38.415  34.287  29.564  1.00  0.00    -0.206 F 
ATOM     78  C   UNL A   1      36.095  34.525  29.290  1.00  0.00     0.059 A 
ATOM     79  C   UNL A   1      34.582  33.163  30.614  1.00  0.00     0.059 A 
ATOM     80  F   UNL A   1      35.451  31.641  32.173  1.00  0.00    -0.206 F 
ATOM     81  C   UNL A   1      34.801  34.146  29.649  1.00  0.00     0.060 A 
BRANCH  81  82
ATOM     82  S   UNL A   1      33.406  34.929  28.810  1.00  0.00     0.124 S 
ATOM     83  O   UNL A   1      34.045  36.086  28.196  1.00  0.00    -0.237 OA
ATOM     84  O   UNL A   1      32.969  33.879  27.895  1.00  0.00    -0.237 OA
ATOM     85  O   UNL A   1      32.481  35.222  29.901  1.00  0.00    -0.744 OA
ENDBRANCH  81  82
ENDBRANCH  49  74
BRANCH  61  86
ATOM     86  C   UNL A   1      40.110  34.025  37.052  1.00  0.00     0.058 A 
ATOM     87  C   UNL A   1      40.710  35.293  37.052  1.00  0.00     0.135 A 
ATOM     88  C   UNL A   1      39.208  33.725  38.087  1.00  0.00     0.135 A 
ATOM     89  F   UNL A   1      41.585  35.626  36.090  1.00  0.00    -0.206 F 
ATOM     90  C   UNL A   1      40.432  36.228  38.046  1.00  0.00     0.059 A 
ATOM     91  C   UNL A   1      38.897  34.653  39.076  1.00  0.00     0.059 A 
ATOM     92  F   UNL A   1      38.601  32.529  38.129  1.00  0.00    -0.206 F 
ATOM     93  C   UNL A   1      39.520  35.900  39.051  1.00  0.00     0.060 A 
BRANCH  93  94
ATOM     94  S   UNL A   1      39.125  37.141  40.301  1.00  0.00     0.124 S 
ATOM     95  O   UNL A   1      38.319  36.367  41.239  1.00  0.00    -0.237 OA
ATOM     96  O   UNL A   1      40.446  37.539  40.777  1.00  0.00    -0.237 OA
ATOM     97  O   UNL A   1      38.402  38.164  39.549  1.00  0.00    -0.744 OA
ENDBRANCH  93  94
ENDBRANCH  61  86
ENDBRANCH  35  36
ENDBRANCH  27  30
ENDBRANCH  25  26
ENDBRANCH  24  25
ENDBRANCH   1  24
TORSDOF 18
ENDMDL
