MODEL 1
REMARK VINA RESULT:     -10.9      0.000      0.000
REMARK SMILES C/C(=N/OCc1ccccc1Nc1c(Cl)cccc1Cl)C(=O)NCCCCNC(=O)c1ccc(-c2c3nc(c(-c4c(F)cc(S(=O)(=O)[O-])cc4F)c4ccc([nH]4)c(-c4c(F)cc(S(=O)(=O)[O-])cc4F)c4nc(c(-c5c(F)cc(S(=O)(=O)[O-])cc5F)c5ccc2[nH]5)C=C4)C=C3)cc1
REMARK SMILES IDX 24 1 23 2 21 3 22 4 2 6 1 7 3 8 4 9 5 10 6 11 7 12 11 13
REMARK SMILES IDX 8 14 10 15 9 16 12 17 13 19 14 20 19 21 15 22 16 23 18 24
REMARK SMILES IDX 20 25 17 26 25 27 26 28 27 29 28 30 29 31 30 33 31 34 32 35
REMARK SMILES IDX 96 36 33 37 95 38 34 39 35 40 36 41 89 42 37 43 94 44 88 45
REMARK SMILES IDX 90 46 38 47 93 48 87 49 86 50 39 52 73 53 52 54 72 55 53 56
REMARK SMILES IDX 56 57 71 58 91 59 54 60 55 61 70 63 92 64 57 65 40 66 41 67
REMARK SMILES IDX 50 68 42 69 43 70 49 71 51 72 44 73 45 74 46 75 47 76 48 77
REMARK SMILES IDX 74 78 75 79 84 80 76 81 77 82 83 83 85 84 78 85 79 86 80 87
REMARK SMILES IDX 81 88 82 89 58 90 59 91 68 92 60 93 61 94 67 95 69 96 62 97
REMARK SMILES IDX 63 98 64 99 65 100 66 101
REMARK H PARENT 23 5 12 18 28 32 90 51 56 62
REMARK Flexibility Score: inf
ROOT
ATOM      1  C   UNL A   1      34.404  25.674  25.405  1.00  0.00     0.116 C 
ENDROOT
BRANCH   1   2
ATOM      2  N   UNL A   1      33.397  26.128  26.339  1.00  0.00    -0.351 N 
ATOM      3  C   UNL A   1      32.837  27.348  26.610  1.00  0.00     0.268 C 
ATOM      4  O   UNL A   1      31.785  27.337  27.256  1.00  0.00    -0.268 OA
ATOM      5  H   UNL A   1      33.037  25.404  26.902  1.00  0.00     0.163 HD
BRANCH   3   6
ATOM      6  C   UNL A   1      33.422  28.728  26.331  1.00  0.00     0.141 C 
ATOM      7  C   UNL A   1      34.816  28.910  26.909  1.00  0.00     0.077 C 
ATOM      8  N   UNL A   1      32.936  29.791  25.758  1.00  0.00    -0.086 NA
BRANCH   8   9
ATOM      9  O   UNL A   1      31.604  29.707  25.389  1.00  0.00    -0.390 OA
BRANCH   9  10
ATOM     10  C   UNL A   1      31.488  29.506  23.974  1.00  0.00     0.302 C 
BRANCH  10  11
ATOM     11  C   UNL A   1      30.087  29.066  23.611  1.00  0.00     0.016 A 
ATOM     12  C   UNL A   1      29.199  30.019  23.078  1.00  0.00     0.009 A 
ATOM     13  C   UNL A   1      29.644  27.739  23.828  1.00  0.00     0.045 A 
ATOM     14  C   UNL A   1      27.886  29.673  22.769  1.00  0.00     0.001 A 
ATOM     15  C   UNL A   1      28.312  27.420  23.529  1.00  0.00     0.026 A 
ATOM     16  C   UNL A   1      27.441  28.375  22.999  1.00  0.00     0.002 A 
BRANCH  13  17
ATOM     17  N   UNL A   1      30.525  26.787  24.374  1.00  0.00    -0.353 N 
ATOM     18  H   UNL A   1      30.971  27.098  25.194  1.00  0.00     0.167 HD
BRANCH  17  19
ATOM     19  C   UNL A   1      30.904  25.480  23.995  1.00  0.00     0.076 A 
ATOM     20  C   UNL A   1      30.655  24.420  24.896  1.00  0.00     0.066 A 
ATOM     21  C   UNL A   1      31.648  25.179  22.839  1.00  0.00     0.066 A 
ATOM     22  Cl  UNL A   1      29.812  24.696  26.387  1.00  0.00    -0.082 Cl
ATOM     23  C   UNL A   1      31.087  23.115  24.638  1.00  0.00     0.023 A 
ATOM     24  C   UNL A   1      32.074  23.867  22.578  1.00  0.00     0.023 A 
ATOM     25  Cl  UNL A   1      32.196  26.392  21.730  1.00  0.00    -0.082 Cl
ATOM     26  C   UNL A   1      31.791  22.837  23.473  1.00  0.00     0.003 A 
ENDBRANCH  17  19
ENDBRANCH  13  17
ENDBRANCH  10  11
ENDBRANCH   9  10
ENDBRANCH   8   9
ENDBRANCH   3   6
ENDBRANCH   1   2
BRANCH   1  27
ATOM     27  C   UNL A   1      34.579  24.158  25.363  1.00  0.00     0.023 C 
BRANCH  27  28
ATOM     28  C   UNL A   1      35.914  23.657  25.930  1.00  0.00     0.023 C 
BRANCH  28  29
ATOM     29  C   UNL A   1      37.103  23.712  24.972  1.00  0.00     0.116 C 
BRANCH  29  30
ATOM     30  N   UNL A   1      38.156  22.752  25.266  1.00  0.00    -0.352 N 
ATOM     31  C   UNL A   1      39.270  22.948  26.052  1.00  0.00     0.251 C 
ATOM     32  H   UNL A   1      38.062  21.860  24.857  1.00  0.00     0.163 HD
ATOM     33  O   UNL A   1      40.131  22.077  26.145  1.00  0.00    -0.269 OA
BRANCH  31  34
ATOM     34  C   UNL A   1      39.437  24.249  26.733  1.00  0.00     0.039 A 
ATOM     35  C   UNL A   1      38.880  24.423  28.000  1.00  0.00     0.014 A 
ATOM     36  C   UNL A   1      40.213  25.256  26.153  1.00  0.00     0.014 A 
ATOM     37  C   UNL A   1      39.175  25.578  28.726  1.00  0.00     0.010 A 
ATOM     38  C   UNL A   1      40.560  26.375  26.905  1.00  0.00     0.010 A 
ATOM     39  C   UNL A   1      40.055  26.542  28.202  1.00  0.00    -0.014 A 
BRANCH  39  40
ATOM     40  C   UNL A   1      40.483  27.706  29.020  1.00  0.00     0.031 A 
ATOM     41  C   UNL A   1      41.813  27.700  29.721  1.00  0.00     0.074 A 
ATOM     42  C   UNL A   1      39.638  28.744  29.182  1.00  0.00     0.049 A 
ATOM     43  N   UNL A   1      42.348  28.619  30.483  1.00  0.00    -0.248 NA
ATOM     44  C   UNL A   1      42.636  26.489  29.574  1.00  0.00     0.031 C 
ATOM     45  C   UNL A   1      38.288  28.831  28.621  1.00  0.00     0.029 A 
ATOM     46  N   UNL A   1      39.786  29.922  29.871  1.00  0.00    -0.354 N 
ATOM     47  C   UNL A   1      43.561  28.098  30.913  1.00  0.00     0.074 A 
ATOM     48  C   UNL A   1      43.657  26.758  30.373  1.00  0.00     0.031 C 
ATOM     49  C   UNL A   1      37.744  30.011  28.962  1.00  0.00     0.029 A 
ATOM     50  C   UNL A   1      38.695  30.754  29.782  1.00  0.00     0.049 A 
ATOM     51  H   UNL A   1      40.598  30.150  30.379  1.00  0.00     0.167 HD
ATOM     52  C   UNL A   1      44.518  28.689  31.668  1.00  0.00     0.037 A 
ATOM     53  C   UNL A   1      38.488  31.982  30.296  1.00  0.00     0.037 A 
ATOM     54  C   UNL A   1      44.427  30.032  32.178  1.00  0.00     0.049 A 
ATOM     55  C   UNL A   1      39.585  32.640  31.086  1.00  0.00     0.074 A 
ATOM     56  C   UNL A   1      45.371  30.748  32.893  1.00  0.00     0.029 A 
ATOM     57  N   UNL A   1      43.326  30.862  32.028  1.00  0.00    -0.354 N 
ATOM     58  N   UNL A   1      40.763  32.164  31.413  1.00  0.00    -0.248 NA
ATOM     59  C   UNL A   1      39.333  34.006  31.563  1.00  0.00     0.031 C 
ATOM     60  C   UNL A   1      44.828  32.001  33.203  1.00  0.00     0.029 A 
ATOM     61  C   UNL A   1      43.561  32.080  32.647  1.00  0.00     0.049 A 
ATOM     62  H   UNL A   1      42.498  30.622  31.553  1.00  0.00     0.167 HD
ATOM     63  C   UNL A   1      41.402  33.180  32.114  1.00  0.00     0.074 A 
ATOM     64  C   UNL A   1      40.484  34.301  32.151  1.00  0.00     0.031 C 
ATOM     65  C   UNL A   1      42.637  33.186  32.674  1.00  0.00     0.037 A 
BRANCH  52  66
ATOM     66  C   UNL A   1      45.752  27.885  31.973  1.00  0.00     0.058 A 
ATOM     67  C   UNL A   1      46.873  27.909  31.128  1.00  0.00     0.135 A 
ATOM     68  C   UNL A   1      45.822  27.092  33.129  1.00  0.00     0.135 A 
ATOM     69  F   UNL A   1      46.854  28.638  30.000  1.00  0.00    -0.206 F 
ATOM     70  C   UNL A   1      48.005  27.147  31.397  1.00  0.00     0.059 A 
ATOM     71  C   UNL A   1      46.956  26.342  33.433  1.00  0.00     0.059 A 
ATOM     72  F   UNL A   1      44.780  27.033  33.974  1.00  0.00    -0.206 F 
ATOM     73  C   UNL A   1      48.035  26.363  32.550  1.00  0.00     0.060 A 
BRANCH  73  74
ATOM     74  S   UNL A   1      49.506  25.372  32.883  1.00  0.00     0.124 S 
ATOM     75  O   UNL A   1      50.373  26.350  33.533  1.00  0.00    -0.237 OA
ATOM     76  O   UNL A   1      48.985  24.315  33.746  1.00  0.00    -0.237 OA
ATOM     77  O   UNL A   1      49.932  24.939  31.556  1.00  0.00    -0.744 OA
ENDBRANCH  73  74
ENDBRANCH  52  66
BRANCH  53  78
ATOM     78  C   UNL A   1      37.206  32.686  30.030  1.00  0.00     0.058 A 
ATOM     79  C   UNL A   1      36.063  32.413  30.795  1.00  0.00     0.135 A 
ATOM     80  C   UNL A   1      37.106  33.666  29.030  1.00  0.00     0.135 A 
ATOM     81  F   UNL A   1      36.108  31.481  31.759  1.00  0.00    -0.206 F 
ATOM     82  C   UNL A   1      34.861  33.077  30.573  1.00  0.00     0.059 A 
ATOM     83  C   UNL A   1      35.922  34.360  28.804  1.00  0.00     0.059 A 
ATOM     84  F   UNL A   1      38.178  33.977  28.284  1.00  0.00    -0.206 F 
ATOM     85  C   UNL A   1      34.802  34.053  29.577  1.00  0.00     0.060 A 
BRANCH  85  86
ATOM     86  S   UNL A   1      33.257  34.958  29.340  1.00  0.00     0.124 S 
ATOM     87  O   UNL A   1      32.718  34.981  30.694  1.00  0.00    -0.237 OA
ATOM     88  O   UNL A   1      33.726  36.238  28.817  1.00  0.00    -0.237 OA
ATOM     89  O   UNL A   1      32.527  34.130  28.383  1.00  0.00    -0.744 OA
ENDBRANCH  85  86
ENDBRANCH  53  78
BRANCH  65  90
ATOM     90  C   UNL A   1      43.077  34.452  33.351  1.00  0.00     0.058 A 
ATOM     91  C   UNL A   1      42.921  34.641  34.733  1.00  0.00     0.135 A 
ATOM     92  C   UNL A   1      43.689  35.478  32.613  1.00  0.00     0.135 A 
ATOM     93  F   UNL A   1      42.337  33.693  35.484  1.00  0.00    -0.206 F 
ATOM     94  C   UNL A   1      43.330  35.816  35.357  1.00  0.00     0.059 A 
ATOM     95  C   UNL A   1      44.128  36.650  33.219  1.00  0.00     0.059 A 
ATOM     96  F   UNL A   1      43.872  35.341  31.290  1.00  0.00    -0.206 F 
ATOM     97  C   UNL A   1      43.929  36.818  34.589  1.00  0.00     0.060 A 
BRANCH  97  98
ATOM     98  S   UNL A   1      44.468  38.333  35.407  1.00  0.00     0.124 S 
ATOM     99  O   UNL A   1      43.856  39.354  34.565  1.00  0.00    -0.237 OA
ATOM    100  O   UNL A   1      43.900  38.189  36.744  1.00  0.00    -0.237 OA
ATOM    101  O   UNL A   1      45.924  38.253  35.341  1.00  0.00    -0.744 OA
ENDBRANCH  97  98
ENDBRANCH  65  90
ENDBRANCH  39  40
ENDBRANCH  31  34
ENDBRANCH  29  30
ENDBRANCH  28  29
ENDBRANCH  27  28
ENDBRANCH   1  27
TORSDOF 19
ENDMDL
MODEL 2
REMARK VINA RESULT:     -10.8      0.748      8.083
REMARK SMILES C/C(=N/OCc1ccccc1Nc1c(Cl)cccc1Cl)C(=O)NCCCCNC(=O)c1ccc(-c2c3nc(c(-c4c(F)cc(S(=O)(=O)[O-])cc4F)c4ccc([nH]4)c(-c4c(F)cc(S(=O)(=O)[O-])cc4F)c4nc(c(-c5c(F)cc(S(=O)(=O)[O-])cc5F)c5ccc2[nH]5)C=C4)C=C3)cc1
REMARK SMILES IDX 24 1 23 2 21 3 22 4 2 6 1 7 3 8 4 9 5 10 6 11 7 12 11 13
REMARK SMILES IDX 8 14 10 15 9 16 12 17 13 19 14 20 19 21 15 22 16 23 18 24
REMARK SMILES IDX 20 25 17 26 25 27 26 28 27 29 28 30 29 31 30 33 31 34 32 35
REMARK SMILES IDX 96 36 33 37 95 38 34 39 35 40 36 41 89 42 37 43 94 44 88 45
REMARK SMILES IDX 90 46 38 47 93 48 87 49 86 50 39 52 73 53 52 54 72 55 53 56
REMARK SMILES IDX 56 57 71 58 91 59 54 60 55 61 70 63 92 64 57 65 40 66 41 67
REMARK SMILES IDX 50 68 42 69 43 70 49 71 51 72 44 73 45 74 46 75 47 76 48 77
REMARK SMILES IDX 74 78 75 79 84 80 76 81 77 82 83 83 85 84 78 85 79 86 80 87
REMARK SMILES IDX 81 88 82 89 58 90 59 91 68 92 60 93 61 94 67 95 69 96 62 97
REMARK SMILES IDX 63 98 64 99 65 100 66 101
REMARK H PARENT 23 5 12 18 28 32 90 51 56 62
REMARK Flexibility Score: inf
ROOT
ATOM      1  C   UNL A   1      34.371  25.636  25.418  1.00  0.00     0.116 C 
ENDROOT
BRANCH   1   2
ATOM      2  N   UNL A   1      33.378  26.184  26.315  1.00  0.00    -0.351 N 
ATOM      3  C   UNL A   1      32.937  27.454  26.580  1.00  0.00     0.268 C 
ATOM      4  O   UNL A   1      31.862  27.546  27.181  1.00  0.00    -0.268 OA
ATOM      5  H   UNL A   1      32.920  25.496  26.852  1.00  0.00     0.163 HD
BRANCH   3   6
ATOM      6  C   UNL A   1      33.675  28.767  26.347  1.00  0.00     0.141 C 
ATOM      7  C   UNL A   1      34.651  29.106  27.462  1.00  0.00     0.077 C 
ATOM      8  N   UNL A   1      33.582  29.677  25.420  1.00  0.00    -0.086 NA
BRANCH   8   9
ATOM      9  O   UNL A   1      32.570  29.477  24.496  1.00  0.00    -0.390 OA
BRANCH   9  10
ATOM     10  C   UNL A   1      31.386  30.185  24.892  1.00  0.00     0.302 C 
BRANCH  10  11
ATOM     11  C   UNL A   1      30.203  29.753  24.053  1.00  0.00     0.016 A 
ATOM     12  C   UNL A   1      29.243  30.719  23.698  1.00  0.00     0.009 A 
ATOM     13  C   UNL A   1      30.025  28.408  23.653  1.00  0.00     0.045 A 
ATOM     14  C   UNL A   1      28.114  30.363  22.963  1.00  0.00     0.001 A 
ATOM     15  C   UNL A   1      28.870  28.069  22.933  1.00  0.00     0.026 A 
ATOM     16  C   UNL A   1      27.925  29.038  22.585  1.00  0.00     0.002 A 
BRANCH  13  17
ATOM     17  N   UNL A   1      30.975  27.437  24.019  1.00  0.00    -0.353 N 
ATOM     18  H   UNL A   1      31.659  27.779  24.640  1.00  0.00     0.167 HD
BRANCH  17  19
ATOM     19  C   UNL A   1      31.157  26.076  23.686  1.00  0.00     0.076 A 
ATOM     20  C   UNL A   1      30.537  25.097  24.495  1.00  0.00     0.066 A 
ATOM     21  C   UNL A   1      32.035  25.620  22.684  1.00  0.00     0.066 A 
ATOM     22  Cl  UNL A   1      29.495  25.552  25.806  1.00  0.00    -0.082 Cl
ATOM     23  C   UNL A   1      30.747  23.729  24.290  1.00  0.00     0.023 A 
ATOM     24  C   UNL A   1      32.237  24.246  22.476  1.00  0.00     0.023 A 
ATOM     25  Cl  UNL A   1      33.011  26.687  21.732  1.00  0.00    -0.082 Cl
ATOM     26  C   UNL A   1      31.593  23.304  23.274  1.00  0.00     0.003 A 
ENDBRANCH  17  19
ENDBRANCH  13  17
ENDBRANCH  10  11
ENDBRANCH   9  10
ENDBRANCH   8   9
ENDBRANCH   3   6
ENDBRANCH   1   2
BRANCH   1  27
ATOM     27  C   UNL A   1      34.493  24.116  25.475  1.00  0.00     0.023 C 
BRANCH  27  28
ATOM     28  C   UNL A   1      35.823  23.606  26.045  1.00  0.00     0.023 C 
BRANCH  28  29
ATOM     29  C   UNL A   1      37.058  23.871  25.184  1.00  0.00     0.116 C 
BRANCH  29  30
ATOM     30  N   UNL A   1      38.143  22.921  25.382  1.00  0.00    -0.352 N 
ATOM     31  C   UNL A   1      39.291  23.106  26.120  1.00  0.00     0.251 C 
ATOM     32  H   UNL A   1      38.045  22.047  24.939  1.00  0.00     0.163 HD
ATOM     33  O   UNL A   1      40.172  22.251  26.131  1.00  0.00    -0.269 OA
BRANCH  31  34
ATOM     34  C   UNL A   1      39.467  24.379  26.850  1.00  0.00     0.039 A 
ATOM     35  C   UNL A   1      38.917  24.506  28.126  1.00  0.00     0.014 A 
ATOM     36  C   UNL A   1      40.246  25.405  26.306  1.00  0.00     0.014 A 
ATOM     37  C   UNL A   1      39.220  25.632  28.894  1.00  0.00     0.010 A 
ATOM     38  C   UNL A   1      40.601  26.492  27.099  1.00  0.00     0.010 A 
ATOM     39  C   UNL A   1      40.102  26.611  28.404  1.00  0.00    -0.014 A 
BRANCH  39  40
ATOM     40  C   UNL A   1      40.539  27.740  29.265  1.00  0.00     0.031 A 
ATOM     41  C   UNL A   1      39.660  28.945  29.451  1.00  0.00     0.074 A 
ATOM     42  C   UNL A   1      41.764  27.704  29.828  1.00  0.00     0.049 A 
ATOM     43  N   UNL A   1      39.880  30.025  30.155  1.00  0.00    -0.248 NA
ATOM     44  C   UNL A   1      38.380  28.952  28.725  1.00  0.00     0.031 C 
ATOM     45  C   UNL A   1      42.743  26.628  29.654  1.00  0.00     0.029 A 
ATOM     46  N   UNL A   1      42.399  28.598  30.654  1.00  0.00    -0.354 N 
ATOM     47  C   UNL A   1      38.775  30.843  29.951  1.00  0.00     0.074 A 
ATOM     48  C   UNL A   1      37.913  30.157  29.013  1.00  0.00     0.031 C 
ATOM     49  C   UNL A   1      43.840  26.910  30.376  1.00  0.00     0.029 A 
ATOM     50  C   UNL A   1      43.653  28.193  31.045  1.00  0.00     0.049 A 
ATOM     51  H   UNL A   1      41.993  29.447  30.940  1.00  0.00     0.167 HD
ATOM     52  C   UNL A   1      38.493  32.043  30.514  1.00  0.00     0.037 A 
ATOM     53  C   UNL A   1      44.549  28.785  31.859  1.00  0.00     0.037 A 
ATOM     54  C   UNL A   1      39.343  32.705  31.468  1.00  0.00     0.049 A 
ATOM     55  C   UNL A   1      44.192  30.091  32.513  1.00  0.00     0.074 A 
ATOM     56  C   UNL A   1      39.116  33.888  32.149  1.00  0.00     0.029 A 
ATOM     57  N   UNL A   1      40.585  32.243  31.876  1.00  0.00    -0.354 N 
ATOM     58  N   UNL A   1      43.104  30.811  32.374  1.00  0.00    -0.248 NA
ATOM     59  C   UNL A   1      45.175  30.657  33.446  1.00  0.00     0.031 C 
ATOM     60  C   UNL A   1      40.235  34.157  32.946  1.00  0.00     0.029 A 
ATOM     61  C   UNL A   1      41.142  33.122  32.791  1.00  0.00     0.049 A 
ATOM     62  H   UNL A   1      41.009  31.412  31.562  1.00  0.00     0.167 HD
ATOM     63  C   UNL A   1      43.262  31.903  33.220  1.00  0.00     0.074 A 
ATOM     64  C   UNL A   1      44.543  31.741  33.875  1.00  0.00     0.031 C 
ATOM     65  C   UNL A   1      42.420  32.944  33.435  1.00  0.00     0.037 A 
BRANCH  52  66
ATOM     66  C   UNL A   1      37.203  32.706  30.116  1.00  0.00     0.058 A 
ATOM     67  C   UNL A   1      37.143  33.618  29.051  1.00  0.00     0.135 A 
ATOM     68  C   UNL A   1      36.010  32.416  30.796  1.00  0.00     0.135 A 
ATOM     69  F   UNL A   1      38.258  33.942  28.376  1.00  0.00    -0.206 F 
ATOM     70  C   UNL A   1      35.955  34.249  28.697  1.00  0.00     0.059 A 
ATOM     71  C   UNL A   1      34.803  33.015  30.443  1.00  0.00     0.059 A 
ATOM     72  F   UNL A   1      36.008  31.550  31.822  1.00  0.00    -0.206 F 
ATOM     73  C   UNL A   1      34.791  33.945  29.403  1.00  0.00     0.060 A 
BRANCH  73  74
ATOM     74  S   UNL A   1      33.258  34.778  28.941  1.00  0.00     0.124 S 
ATOM     75  O   UNL A   1      32.594  34.901  30.236  1.00  0.00    -0.237 OA
ATOM     76  O   UNL A   1      33.742  36.026  28.357  1.00  0.00    -0.237 OA
ATOM     77  O   UNL A   1      32.637  33.850  28.003  1.00  0.00    -0.744 OA
ENDBRANCH  73  74
ENDBRANCH  52  66
BRANCH  53  78
ATOM     78  C   UNL A   1      45.846  28.116  32.140  1.00  0.00     0.058 A 
ATOM     79  C   UNL A   1      45.975  27.215  33.207  1.00  0.00     0.135 A 
ATOM     80  C   UNL A   1      46.971  28.339  31.331  1.00  0.00     0.135 A 
ATOM     81  F   UNL A   1      44.928  26.974  34.010  1.00  0.00    -0.206 F 
ATOM     82  C   UNL A   1      47.176  26.565  33.471  1.00  0.00     0.059 A 
ATOM     83  C   UNL A   1      48.177  27.684  31.561  1.00  0.00     0.059 A 
ATOM     84  F   UNL A   1      46.892  29.177  30.286  1.00  0.00    -0.206 F 
ATOM     85  C   UNL A   1      48.271  26.803  32.639  1.00  0.00     0.060 A 
BRANCH  85  86
ATOM     86  S   UNL A   1      49.807  25.904  32.948  1.00  0.00     0.124 S 
ATOM     87  O   UNL A   1      49.977  25.172  31.698  1.00  0.00    -0.237 OA
ATOM     88  O   UNL A   1      50.755  26.988  33.189  1.00  0.00    -0.237 OA
ATOM     89  O   UNL A   1      49.488  25.090  34.119  1.00  0.00    -0.744 OA
ENDBRANCH  85  86
ENDBRANCH  53  78
BRANCH  65  90
ATOM     90  C   UNL A   1      42.849  33.976  34.440  1.00  0.00     0.058 A 
ATOM     91  C   UNL A   1      43.571  35.118  34.061  1.00  0.00     0.135 A 
ATOM     92  C   UNL A   1      42.506  33.834  35.795  1.00  0.00     0.135 A 
ATOM     93  F   UNL A   1      43.927  35.299  32.779  1.00  0.00    -0.206 F 
ATOM     94  C   UNL A   1      43.966  36.070  34.996  1.00  0.00     0.059 A 
ATOM     95  C   UNL A   1      42.870  34.785  36.742  1.00  0.00     0.059 A 
ATOM     96  F   UNL A   1      41.806  32.764  36.206  1.00  0.00    -0.206 F 
ATOM     97  C   UNL A   1      43.614  35.892  36.336  1.00  0.00     0.060 A 
BRANCH  97  98
ATOM     98  S   UNL A   1      44.118  37.138  37.540  1.00  0.00     0.124 S 
ATOM     99  O   UNL A   1      42.953  37.188  38.415  1.00  0.00    -0.237 OA
ATOM    100  O   UNL A   1      45.322  36.549  38.119  1.00  0.00    -0.237 OA
ATOM    101  O   UNL A   1      44.343  38.327  36.722  1.00  0.00    -0.744 OA
ENDBRANCH  97  98
ENDBRANCH  65  90
ENDBRANCH  39  40
ENDBRANCH  31  34
ENDBRANCH  29  30
ENDBRANCH  28  29
ENDBRANCH  27  28
ENDBRANCH   1  27
TORSDOF 19
ENDMDL
MODEL 3
REMARK VINA RESULT:     -10.5      4.671     10.059
REMARK SMILES C/C(=N/OCc1ccccc1Nc1c(Cl)cccc1Cl)C(=O)NCCCCNC(=O)c1ccc(-c2c3nc(c(-c4c(F)cc(S(=O)(=O)[O-])cc4F)c4ccc([nH]4)c(-c4c(F)cc(S(=O)(=O)[O-])cc4F)c4nc(c(-c5c(F)cc(S(=O)(=O)[O-])cc5F)c5ccc2[nH]5)C=C4)C=C3)cc1
REMARK SMILES IDX 24 1 23 2 21 3 22 4 2 6 1 7 3 8 4 9 5 10 6 11 7 12 11 13
REMARK SMILES IDX 8 14 10 15 9 16 12 17 13 19 14 20 19 21 15 22 16 23 18 24
REMARK SMILES IDX 20 25 17 26 25 27 26 28 27 29 28 30 29 31 30 33 31 34 32 35
REMARK SMILES IDX 96 36 33 37 95 38 34 39 35 40 36 41 89 42 37 43 94 44 88 45
REMARK SMILES IDX 90 46 38 47 93 48 87 49 86 50 39 52 73 53 52 54 72 55 53 56
REMARK SMILES IDX 56 57 71 58 91 59 54 60 55 61 70 63 92 64 57 65 40 66 41 67
REMARK SMILES IDX 50 68 42 69 43 70 49 71 51 72 44 73 45 74 46 75 47 76 48 77
REMARK SMILES IDX 74 78 75 79 84 80 76 81 77 82 83 83 85 84 78 85 79 86 80 87
REMARK SMILES IDX 81 88 82 89 58 90 59 91 68 92 60 93 61 94 67 95 69 96 62 97
REMARK SMILES IDX 63 98 64 99 65 100 66 101
REMARK H PARENT 23 5 12 18 28 32 90 51 56 62
REMARK Flexibility Score: inf
ROOT
ATOM      1  C   UNL A   1      34.689  32.465  27.809  1.00  0.00     0.116 C 
ENDROOT
BRANCH   1   2
ATOM      2  N   UNL A   1      34.548  31.064  28.141  1.00  0.00    -0.351 N 
ATOM      3  C   UNL A   1      33.918  30.006  27.539  1.00  0.00     0.268 C 
ATOM      4  O   UNL A   1      34.249  28.881  27.926  1.00  0.00    -0.268 OA
ATOM      5  H   UNL A   1      35.001  30.818  28.980  1.00  0.00     0.163 HD
BRANCH   3   6
ATOM      6  C   UNL A   1      32.760  30.048  26.549  1.00  0.00     0.141 C 
ATOM      7  C   UNL A   1      31.897  31.291  26.696  1.00  0.00     0.077 C 
ATOM      8  N   UNL A   1      32.334  29.201  25.657  1.00  0.00    -0.086 NA
BRANCH   8   9
ATOM      9  O   UNL A   1      32.994  27.984  25.635  1.00  0.00    -0.390 OA
BRANCH   9  10
ATOM     10  C   UNL A   1      33.871  27.912  24.502  1.00  0.00     0.302 C 
BRANCH  10  11
ATOM     11  C   UNL A   1      33.446  26.799  23.569  1.00  0.00     0.016 A 
ATOM     12  C   UNL A   1      33.348  27.076  22.193  1.00  0.00     0.009 A 
ATOM     13  C   UNL A   1      33.113  25.510  24.050  1.00  0.00     0.045 A 
ATOM     14  C   UNL A   1      32.919  26.097  21.299  1.00  0.00     0.001 A 
ATOM     15  C   UNL A   1      32.663  24.549  23.135  1.00  0.00     0.026 A 
ATOM     16  C   UNL A   1      32.572  24.836  21.770  1.00  0.00     0.002 A 
BRANCH  13  17
ATOM     17  N   UNL A   1      33.196  25.234  25.428  1.00  0.00    -0.353 N 
ATOM     18  H   UNL A   1      33.046  26.027  25.991  1.00  0.00     0.167 HD
BRANCH  17  19
ATOM     19  C   UNL A   1      33.447  24.061  26.173  1.00  0.00     0.076 A 
ATOM     20  C   UNL A   1      34.747  23.508  26.138  1.00  0.00     0.066 A 
ATOM     21  C   UNL A   1      32.451  23.320  26.837  1.00  0.00     0.066 A 
ATOM     22  Cl  UNL A   1      36.032  24.302  25.285  1.00  0.00    -0.082 Cl
ATOM     23  C   UNL A   1      35.052  22.298  26.770  1.00  0.00     0.023 A 
ATOM     24  C   UNL A   1      32.761  22.109  27.477  1.00  0.00     0.023 A 
ATOM     25  Cl  UNL A   1      30.777  23.763  26.814  1.00  0.00    -0.082 Cl
ATOM     26  C   UNL A   1      34.058  21.601  27.446  1.00  0.00     0.003 A 
ENDBRANCH  17  19
ENDBRANCH  13  17
ENDBRANCH  10  11
ENDBRANCH   9  10
ENDBRANCH   8   9
ENDBRANCH   3   6
ENDBRANCH   1   2
BRANCH   1  27
ATOM     27  C   UNL A   1      36.034  33.068  28.207  1.00  0.00     0.023 C 
BRANCH  27  28
ATOM     28  C   UNL A   1      36.042  33.752  29.580  1.00  0.00     0.023 C 
BRANCH  28  29
ATOM     29  C   UNL A   1      36.804  33.017  30.683  1.00  0.00     0.116 C 
BRANCH  29  30
ATOM     30  N   UNL A   1      36.207  31.752  31.083  1.00  0.00    -0.352 N 
ATOM     31  C   UNL A   1      36.761  30.496  30.974  1.00  0.00     0.251 C 
ATOM     32  H   UNL A   1      35.305  31.799  31.477  1.00  0.00     0.163 HD
ATOM     33  O   UNL A   1      36.109  29.498  31.269  1.00  0.00    -0.269 OA
BRANCH  31  34
ATOM     34  C   UNL A   1      38.132  30.370  30.439  1.00  0.00     0.039 A 
ATOM     35  C   UNL A   1      39.197  30.256  31.334  1.00  0.00     0.014 A 
ATOM     36  C   UNL A   1      38.349  30.278  29.062  1.00  0.00     0.014 A 
ATOM     37  C   UNL A   1      40.473  29.963  30.848  1.00  0.00     0.010 A 
ATOM     38  C   UNL A   1      39.607  29.919  28.586  1.00  0.00     0.010 A 
ATOM     39  C   UNL A   1      40.678  29.747  29.474  1.00  0.00    -0.014 A 
BRANCH  39  40
ATOM     40  C   UNL A   1      41.999  29.300  28.963  1.00  0.00     0.031 A 
ATOM     41  C   UNL A   1      43.141  30.269  28.846  1.00  0.00     0.074 A 
ATOM     42  C   UNL A   1      42.148  28.027  28.544  1.00  0.00     0.049 A 
ATOM     43  N   UNL A   1      44.359  30.061  28.415  1.00  0.00    -0.248 NA
ATOM     44  C   UNL A   1      42.872  31.663  29.232  1.00  0.00     0.031 C 
ATOM     45  C   UNL A   1      41.091  27.012  28.530  1.00  0.00     0.029 A 
ATOM     46  N   UNL A   1      43.243  27.369  28.042  1.00  0.00    -0.354 N 
ATOM     47  C   UNL A   1      44.997  31.294  28.468  1.00  0.00     0.074 A 
ATOM     48  C   UNL A   1      44.015  32.256  28.920  1.00  0.00     0.031 C 
ATOM     49  C   UNL A   1      41.597  25.855  28.074  1.00  0.00     0.029 A 
ATOM     50  C   UNL A   1      43.005  26.049  27.742  1.00  0.00     0.049 A 
ATOM     51  H   UNL A   1      44.117  27.802  27.911  1.00  0.00     0.167 HD
ATOM     52  C   UNL A   1      46.289  31.593  28.190  1.00  0.00     0.037 A 
ATOM     53  C   UNL A   1      43.830  25.098  27.264  1.00  0.00     0.037 A 
ATOM     54  C   UNL A   1      47.267  30.625  27.767  1.00  0.00     0.049 A 
ATOM     55  C   UNL A   1      45.273  25.439  27.013  1.00  0.00     0.074 A 
ATOM     56  C   UNL A   1      48.617  30.813  27.528  1.00  0.00     0.029 A 
ATOM     57  N   UNL A   1      47.000  29.287  27.519  1.00  0.00    -0.354 N 
ATOM     58  N   UNL A   1      45.881  26.594  27.150  1.00  0.00    -0.248 NA
ATOM     59  C   UNL A   1      46.145  24.348  26.559  1.00  0.00     0.031 C 
ATOM     60  C   UNL A   1      49.161  29.594  27.105  1.00  0.00     0.029 A 
ATOM     61  C   UNL A   1      48.157  28.638  27.119  1.00  0.00     0.049 A 
ATOM     62  H   UNL A   1      46.118  28.860  27.614  1.00  0.00     0.167 HD
ATOM     63  C   UNL A   1      47.212  26.363  26.821  1.00  0.00     0.074 A 
ATOM     64  C   UNL A   1      47.322  24.956  26.492  1.00  0.00     0.031 C 
ATOM     65  C   UNL A   1      48.249  27.236  26.796  1.00  0.00     0.037 A 
BRANCH  52  66
ATOM     66  C   UNL A   1      46.716  33.027  28.349  1.00  0.00     0.058 A 
ATOM     67  C   UNL A   1      46.679  33.928  27.274  1.00  0.00     0.135 A 
ATOM     68  C   UNL A   1      47.152  33.510  29.593  1.00  0.00     0.135 A 
ATOM     69  F   UNL A   1      46.284  33.515  26.059  1.00  0.00    -0.206 F 
ATOM     70  C   UNL A   1      47.096  35.248  27.414  1.00  0.00     0.059 A 
ATOM     71  C   UNL A   1      47.549  34.834  29.764  1.00  0.00     0.059 A 
ATOM     72  F   UNL A   1      47.207  32.692  30.656  1.00  0.00    -0.206 F 
ATOM     73  C   UNL A   1      47.534  35.690  28.662  1.00  0.00     0.060 A 
BRANCH  73  74
ATOM     74  S   UNL A   1      48.082  37.402  28.829  1.00  0.00     0.124 S 
ATOM     75  O   UNL A   1      47.898  37.626  30.261  1.00  0.00    -0.237 OA
ATOM     76  O   UNL A   1      49.467  37.335  28.372  1.00  0.00    -0.237 OA
ATOM     77  O   UNL A   1      47.171  38.136  27.957  1.00  0.00    -0.744 OA
ENDBRANCH  73  74
ENDBRANCH  52  66
BRANCH  53  78
ATOM     78  C   UNL A   1      43.319  23.719  27.044  1.00  0.00     0.058 A 
ATOM     79  C   UNL A   1      43.015  23.262  25.753  1.00  0.00     0.135 A 
ATOM     80  C   UNL A   1      43.155  22.824  28.111  1.00  0.00     0.135 A 
ATOM     81  F   UNL A   1      43.151  24.084  24.702  1.00  0.00    -0.206 F 
ATOM     82  C   UNL A   1      42.555  21.970  25.527  1.00  0.00     0.059 A 
ATOM     83  C   UNL A   1      42.718  21.518  27.909  1.00  0.00     0.059 A 
ATOM     84  F   UNL A   1      43.451  23.208  29.363  1.00  0.00    -0.206 F 
ATOM     85  C   UNL A   1      42.414  21.103  26.612  1.00  0.00     0.060 A 
BRANCH  85  86
ATOM     86  S   UNL A   1      41.880  19.405  26.302  1.00  0.00     0.124 S 
ATOM     87  O   UNL A   1      40.444  19.575  26.120  1.00  0.00    -0.237 OA
ATOM     88  O   UNL A   1      42.640  19.057  25.105  1.00  0.00    -0.237 OA
ATOM     89  O   UNL A   1      42.285  18.701  27.517  1.00  0.00    -0.744 OA
ENDBRANCH  85  86
ENDBRANCH  53  78
BRANCH  65  90
ATOM     90  C   UNL A   1      49.598  26.688  26.425  1.00  0.00     0.058 A 
ATOM     91  C   UNL A   1      50.077  26.741  25.107  1.00  0.00     0.135 A 
ATOM     92  C   UNL A   1      50.433  26.129  27.406  1.00  0.00     0.135 A 
ATOM     93  F   UNL A   1      49.316  27.261  24.130  1.00  0.00    -0.206 F 
ATOM     94  C   UNL A   1      51.327  26.231  24.768  1.00  0.00     0.059 A 
ATOM     95  C   UNL A   1      51.695  25.636  27.095  1.00  0.00     0.059 A 
ATOM     96  F   UNL A   1      50.024  26.066  28.684  1.00  0.00    -0.206 F 
ATOM     97  C   UNL A   1      52.128  25.677  25.770  1.00  0.00     0.060 A 
BRANCH  97  98
ATOM     98  S   UNL A   1      53.753  25.031  25.325  1.00  0.00     0.124 S 
ATOM     99  O   UNL A   1      53.487  23.599  25.245  1.00  0.00    -0.237 OA
ATOM    100  O   UNL A   1      54.020  25.697  24.054  1.00  0.00    -0.237 OA
ATOM    101  O   UNL A   1      54.600  25.453  26.435  1.00  0.00    -0.744 OA
ENDBRANCH  97  98
ENDBRANCH  65  90
ENDBRANCH  39  40
ENDBRANCH  31  34
ENDBRANCH  29  30
ENDBRANCH  28  29
ENDBRANCH  27  28
ENDBRANCH   1  27
TORSDOF 19
ENDMDL
