MODEL 1
REMARK VINA RESULT:     -11.6      0.000      0.000
REMARK SMILES O=C(NCCCCNC(=O)c1cccc2cccc(C(=O)NC3COC3)c12)c1ccc(-c2c3nc(c(-c4c(F)cc(S(=O)(=O)[O-])cc4F)c4ccc([nH]4)c(-c4c(F)cc(S(=O)(=O)[O-])cc4F)c4nc(c(-c5c(F)cc(S(=O)(=O)[O-])cc5F)c5ccc2[nH]5)C=C4)C=C3)cc1
REMARK SMILES IDX 5 1 4 2 3 3 1 4 2 5 28 7 29 8 93 9 30 10 92 11 31 12 32 13
REMARK SMILES IDX 33 14 86 15 34 16 91 17 85 18 87 19 35 20 90 21 84 22 83 23
REMARK SMILES IDX 36 25 70 26 49 27 69 28 50 29 53 30 68 31 88 32 51 33 52 34
REMARK SMILES IDX 67 36 89 37 54 38 37 39 38 40 47 41 39 42 40 43 46 44 48 45
REMARK SMILES IDX 41 46 42 47 43 48 44 49 45 50 71 51 72 52 81 53 73 54 74 55
REMARK SMILES IDX 80 56 82 57 75 58 76 59 77 60 78 61 79 62 55 63 56 64 65 65
REMARK SMILES IDX 57 66 58 67 64 68 66 69 59 70 60 71 61 72 62 73 63 74 6 75
REMARK SMILES IDX 7 76 8 77 9 78 10 80 11 81 12 82 27 83 13 84 15 85 19 86
REMARK SMILES IDX 14 87 16 88 18 89 17 90 20 91 21 92 22 93 23 95 24 96 26 97
REMARK SMILES IDX 25 98
REMARK H PARENT 3 6 87 24 53 35 8 79 22 94
REMARK Flexibility Score: inf
ROOT
ATOM      1  C   UNL A   1      39.250  23.336  27.021  1.00  0.00     0.023 C 
ENDROOT
BRANCH   1   2
ATOM      2  C   UNL A   1      39.595  24.628  26.280  1.00  0.00     0.116 C 
BRANCH   2   3
ATOM      3  N   UNL A   1      40.969  24.665  25.799  1.00  0.00    -0.352 N 
ATOM      4  O   UNL A   1      43.059  25.459  25.525  1.00  0.00    -0.269 OA
ATOM      5  C   UNL A   1      42.009  25.479  26.164  1.00  0.00     0.251 C 
ATOM      6  H   UNL A   1      41.185  24.001  25.106  1.00  0.00     0.163 HD
BRANCH   5   7
ATOM      7  C   UNL A   1      41.855  26.395  27.309  1.00  0.00     0.039 A 
ATOM      8  C   UNL A   1      41.080  26.030  28.414  1.00  0.00     0.014 A 
ATOM      9  C   UNL A   1      42.507  27.630  27.278  1.00  0.00     0.014 A 
ATOM     10  C   UNL A   1      40.852  26.952  29.430  1.00  0.00     0.010 A 
ATOM     11  C   UNL A   1      42.331  28.527  28.330  1.00  0.00     0.010 A 
ATOM     12  C   UNL A   1      41.479  28.206  29.399  1.00  0.00    -0.014 A 
BRANCH  12  13
ATOM     13  C   UNL A   1      41.281  29.165  30.511  1.00  0.00     0.031 A 
ATOM     14  C   UNL A   1      42.153  29.113  31.732  1.00  0.00     0.074 A 
ATOM     15  C   UNL A   1      40.282  30.063  30.426  1.00  0.00     0.049 A 
ATOM     16  N   UNL A   1      42.072  29.815  32.833  1.00  0.00    -0.248 NA
ATOM     17  C   UNL A   1      43.254  28.136  31.720  1.00  0.00     0.031 C 
ATOM     18  C   UNL A   1      39.365  30.194  29.291  1.00  0.00     0.029 A 
ATOM     19  N   UNL A   1      39.859  31.020  31.311  1.00  0.00    -0.354 N 
ATOM     20  C   UNL A   1      43.089  29.349  33.656  1.00  0.00     0.074 A 
ATOM     21  C   UNL A   1      43.765  28.292  32.933  1.00  0.00     0.031 C 
ATOM     22  C   UNL A   1      38.487  31.173  29.550  1.00  0.00     0.029 A 
ATOM     23  C   UNL A   1      38.744  31.701  30.886  1.00  0.00     0.049 A 
ATOM     24  H   UNL A   1      40.309  31.201  32.167  1.00  0.00     0.167 HD
ATOM     25  C   UNL A   1      43.426  29.768  34.900  1.00  0.00     0.037 A 
ATOM     26  C   UNL A   1      37.988  32.621  31.513  1.00  0.00     0.037 A 
ATOM     27  C   UNL A   1      42.750  30.829  35.603  1.00  0.00     0.049 A 
ATOM     28  C   UNL A   1      38.368  33.064  32.894  1.00  0.00     0.074 A 
ATOM     29  C   UNL A   1      43.048  31.365  36.844  1.00  0.00     0.029 A 
ATOM     30  N   UNL A   1      41.635  31.507  35.131  1.00  0.00    -0.354 N 
ATOM     31  N   UNL A   1      39.363  32.648  33.643  1.00  0.00    -0.248 NA
ATOM     32  C   UNL A   1      37.532  34.095  33.519  1.00  0.00     0.031 C 
ATOM     33  C   UNL A   1      42.087  32.337  37.141  1.00  0.00     0.029 A 
ATOM     34  C   UNL A   1      41.216  32.439  36.067  1.00  0.00     0.049 A 
ATOM     35  H   UNL A   1      41.205  31.350  34.260  1.00  0.00     0.167 HD
ATOM     36  C   UNL A   1      39.282  33.378  34.821  1.00  0.00     0.074 A 
ATOM     37  C   UNL A   1      38.144  34.266  34.685  1.00  0.00     0.031 C 
ATOM     38  C   UNL A   1      40.081  33.319  35.914  1.00  0.00     0.037 A 
BRANCH  25  39
ATOM     39  C   UNL A   1      44.554  29.053  35.589  1.00  0.00     0.058 A 
ATOM     40  C   UNL A   1      45.891  29.453  35.434  1.00  0.00     0.135 A 
ATOM     41  C   UNL A   1      44.294  27.949  36.418  1.00  0.00     0.135 A 
ATOM     42  F   UNL A   1      46.198  30.495  34.644  1.00  0.00    -0.206 F 
ATOM     43  C   UNL A   1      46.933  28.757  36.039  1.00  0.00     0.059 A 
ATOM     44  C   UNL A   1      45.319  27.253  37.053  1.00  0.00     0.059 A 
ATOM     45  F   UNL A   1      43.034  27.527  36.605  1.00  0.00    -0.206 F 
ATOM     46  C   UNL A   1      46.638  27.651  36.837  1.00  0.00     0.060 A 
BRANCH  46  47
ATOM     47  S   UNL A   1      48.000  26.729  37.581  1.00  0.00     0.124 S 
ATOM     48  O   UNL A   1      49.094  27.040  36.665  1.00  0.00    -0.237 OA
ATOM     49  O   UNL A   1      48.099  27.328  38.909  1.00  0.00    -0.237 OA
ATOM     50  O   UNL A   1      47.531  25.347  37.554  1.00  0.00    -0.744 OA
ENDBRANCH  46  47
ENDBRANCH  25  39
BRANCH  26  51
ATOM     51  C   UNL A   1      36.791  33.156  30.817  1.00  0.00     0.058 A 
ATOM     52  C   UNL A   1      35.499  32.792  31.219  1.00  0.00     0.135 A 
ATOM     53  C   UNL A   1      36.919  34.123  29.808  1.00  0.00     0.135 A 
ATOM     54  F   UNL A   1      35.329  31.869  32.178  1.00  0.00    -0.206 F 
ATOM     55  C   UNL A   1      34.372  33.380  30.653  1.00  0.00     0.059 A 
ATOM     56  C   UNL A   1      35.808  34.740  29.243  1.00  0.00     0.059 A 
ATOM     57  F   UNL A   1      38.137  34.518  29.405  1.00  0.00    -0.206 F 
ATOM     58  C   UNL A   1      34.538  34.362  29.674  1.00  0.00     0.060 A 
BRANCH  58  59
ATOM     59  S   UNL A   1      33.073  35.197  29.028  1.00  0.00     0.124 S 
ATOM     60  O   UNL A   1      32.579  34.220  28.064  1.00  0.00    -0.237 OA
ATOM     61  O   UNL A   1      32.264  35.374  30.229  1.00  0.00    -0.237 OA
ATOM     62  O   UNL A   1      33.614  36.429  28.459  1.00  0.00    -0.744 OA
ENDBRANCH  58  59
ENDBRANCH  26  51
BRANCH  38  63
ATOM     63  C   UNL A   1      39.776  34.252  37.049  1.00  0.00     0.058 A 
ATOM     64  C   UNL A   1      39.022  33.840  38.157  1.00  0.00     0.135 A 
ATOM     65  C   UNL A   1      40.324  35.545  37.069  1.00  0.00     0.135 A 
ATOM     66  F   UNL A   1      38.469  32.617  38.180  1.00  0.00    -0.206 F 
ATOM     67  C   UNL A   1      38.821  34.677  39.249  1.00  0.00     0.059 A 
ATOM     68  C   UNL A   1      40.152  36.392  38.159  1.00  0.00     0.059 A 
ATOM     69  F   UNL A   1      41.058  35.985  36.034  1.00  0.00    -0.206 F 
ATOM     70  C   UNL A   1      39.397  35.949  39.245  1.00  0.00     0.060 A 
BRANCH  70  71
ATOM     71  S   UNL A   1      39.196  36.999  40.700  1.00  0.00     0.124 S 
ATOM     72  O   UNL A   1      40.574  37.396  40.970  1.00  0.00    -0.237 OA
ATOM     73  O   UNL A   1      38.317  38.055  40.206  1.00  0.00    -0.237 OA
ATOM     74  O   UNL A   1      38.595  36.104  41.684  1.00  0.00    -0.744 OA
ENDBRANCH  70  71
ENDBRANCH  38  63
ENDBRANCH  12  13
ENDBRANCH   5   7
ENDBRANCH   2   3
ENDBRANCH   1   2
BRANCH   1  75
ATOM     75  C   UNL A   1      38.937  22.131  26.136  1.00  0.00     0.023 C 
BRANCH  75  76
ATOM     76  C   UNL A   1      40.082  21.142  25.991  1.00  0.00     0.116 C 
BRANCH  76  77
ATOM     77  N   UNL A   1      41.383  21.756  26.048  1.00  0.00    -0.352 N 
ATOM     78  C   UNL A   1      42.306  21.199  26.901  1.00  0.00     0.251 C 
ATOM     79  H   UNL A   1      41.602  22.542  25.498  1.00  0.00     0.163 HD
ATOM     80  O   UNL A   1      42.269  20.044  27.308  1.00  0.00    -0.269 OA
BRANCH  78  81
ATOM     81  C   UNL A   1      43.190  22.158  27.572  1.00  0.00     0.048 A 
ATOM     82  C   UNL A   1      42.683  22.489  28.848  1.00  0.00     0.014 A 
ATOM     83  C   UNL A   1      44.373  22.744  27.035  1.00  0.00     0.007 A 
ATOM     84  C   UNL A   1      43.291  23.455  29.622  1.00  0.00     0.001 A 
ATOM     85  C   UNL A   1      44.962  23.747  27.871  1.00  0.00    -0.017 A 
ATOM     86  C   UNL A   1      45.018  22.494  25.771  1.00  0.00     0.048 A 
ATOM     87  C   UNL A   1      44.417  24.088  29.124  1.00  0.00     0.009 A 
ATOM     88  C   UNL A   1      46.082  24.472  27.453  1.00  0.00     0.009 A 
ATOM     89  C   UNL A   1      46.161  23.237  25.397  1.00  0.00     0.014 A 
ATOM     90  C   UNL A   1      46.683  24.223  26.229  1.00  0.00     0.001 A 
BRANCH  86  91
ATOM     91  C   UNL A   1      44.328  21.895  24.612  1.00  0.00     0.252 C 
ATOM     92  O   UNL A   1      43.485  22.621  24.072  1.00  0.00    -0.269 OA
ATOM     93  N   UNL A   1      44.514  20.658  24.062  1.00  0.00    -0.345 N 
ATOM     94  H   UNL A   1      43.839  20.484  23.366  1.00  0.00     0.164 HD
BRANCH  93  95
ATOM     95  C   UNL A   1      45.422  19.513  24.200  1.00  0.00     0.134 C 
ATOM     96  C   UNL A   1      46.847  19.585  24.729  1.00  0.00     0.187 C 
ATOM     97  C   UNL A   1      45.166  18.663  25.465  1.00  0.00     0.187 C 
ATOM     98  O   UNL A   1      46.594  18.492  25.657  1.00  0.00    -0.377 OA
ENDBRANCH  93  95
ENDBRANCH  86  91
ENDBRANCH  78  81
ENDBRANCH  76  77
ENDBRANCH  75  76
ENDBRANCH   1  75
TORSDOF 16
ENDMDL
MODEL 2
REMARK VINA RESULT:     -11.3      5.806     13.887
REMARK SMILES O=C(NCCCCNC(=O)c1cccc2cccc(C(=O)NC3COC3)c12)c1ccc(-c2c3nc(c(-c4c(F)cc(S(=O)(=O)[O-])cc4F)c4ccc([nH]4)c(-c4c(F)cc(S(=O)(=O)[O-])cc4F)c4nc(c(-c5c(F)cc(S(=O)(=O)[O-])cc5F)c5ccc2[nH]5)C=C4)C=C3)cc1
REMARK SMILES IDX 5 1 4 2 3 3 1 4 2 5 28 7 29 8 93 9 30 10 92 11 31 12 32 13
REMARK SMILES IDX 33 14 86 15 34 16 91 17 85 18 87 19 35 20 90 21 84 22 83 23
REMARK SMILES IDX 36 25 70 26 49 27 69 28 50 29 53 30 68 31 88 32 51 33 52 34
REMARK SMILES IDX 67 36 89 37 54 38 37 39 38 40 47 41 39 42 40 43 46 44 48 45
REMARK SMILES IDX 41 46 42 47 43 48 44 49 45 50 71 51 72 52 81 53 73 54 74 55
REMARK SMILES IDX 80 56 82 57 75 58 76 59 77 60 78 61 79 62 55 63 56 64 65 65
REMARK SMILES IDX 57 66 58 67 64 68 66 69 59 70 60 71 61 72 62 73 63 74 6 75
REMARK SMILES IDX 7 76 8 77 9 78 10 80 11 81 12 82 27 83 13 84 15 85 19 86
REMARK SMILES IDX 14 87 16 88 18 89 17 90 20 91 21 92 22 93 23 95 24 96 26 97
REMARK SMILES IDX 25 98
REMARK H PARENT 3 6 87 24 53 35 8 79 22 94
REMARK Flexibility Score: inf
ROOT
ATOM      1  C   UNL A   1      34.976  30.575  27.310  1.00  0.00     0.023 C 
ENDROOT
BRANCH   1   2
ATOM      2  C   UNL A   1      35.510  29.551  28.312  1.00  0.00     0.116 C 
BRANCH   2   3
ATOM      3  N   UNL A   1      35.597  30.068  29.671  1.00  0.00    -0.352 N 
ATOM      4  O   UNL A   1      36.522  30.510  31.676  1.00  0.00    -0.269 OA
ATOM      5  C   UNL A   1      36.681  30.195  30.498  1.00  0.00     0.251 C 
ATOM      6  H   UNL A   1      34.743  30.375  30.054  1.00  0.00     0.163 HD
BRANCH   5   7
ATOM      7  C   UNL A   1      38.035  29.929  29.978  1.00  0.00     0.039 A 
ATOM      8  C   UNL A   1      38.313  30.064  28.615  1.00  0.00     0.014 A 
ATOM      9  C   UNL A   1      39.039  29.550  30.872  1.00  0.00     0.014 A 
ATOM     10  C   UNL A   1      39.562  29.697  28.127  1.00  0.00     0.010 A 
ATOM     11  C   UNL A   1      40.311  29.246  30.389  1.00  0.00     0.010 A 
ATOM     12  C   UNL A   1      40.572  29.290  29.010  1.00  0.00    -0.014 A 
BRANCH  12  13
ATOM     13  C   UNL A   1      41.921  28.954  28.494  1.00  0.00     0.031 A 
ATOM     14  C   UNL A   1      42.245  27.557  28.050  1.00  0.00     0.074 A 
ATOM     15  C   UNL A   1      42.864  29.914  28.465  1.00  0.00     0.049 A 
ATOM     16  N   UNL A   1      43.390  27.064  27.652  1.00  0.00    -0.248 NA
ATOM     17  C   UNL A   1      41.143  26.582  28.066  1.00  0.00     0.031 C 
ATOM     18  C   UNL A   1      42.662  31.302  28.885  1.00  0.00     0.029 A 
ATOM     19  N   UNL A   1      44.179  29.867  28.082  1.00  0.00    -0.354 N 
ATOM     20  C   UNL A   1      43.156  25.719  27.396  1.00  0.00     0.074 A 
ATOM     21  C   UNL A   1      41.762  25.469  27.699  1.00  0.00     0.031 C 
ATOM     22  C   UNL A   1      43.812  31.975  28.740  1.00  0.00     0.029 A 
ATOM     23  C   UNL A   1      44.843  31.055  28.268  1.00  0.00     0.049 A 
ATOM     24  H   UNL A   1      44.606  29.061  27.712  1.00  0.00     0.167 HD
ATOM     25  C   UNL A   1      44.026  24.782  26.948  1.00  0.00     0.037 A 
ATOM     26  C   UNL A   1      46.144  31.365  28.113  1.00  0.00     0.037 A 
ATOM     27  C   UNL A   1      45.408  25.047  26.640  1.00  0.00     0.049 A 
ATOM     28  C   UNL A   1      47.095  30.312  27.628  1.00  0.00     0.074 A 
ATOM     29  C   UNL A   1      46.358  24.180  26.129  1.00  0.00     0.029 A 
ATOM     30  N   UNL A   1      46.040  26.269  26.824  1.00  0.00    -0.354 N 
ATOM     31  N   UNL A   1      46.849  29.054  27.344  1.00  0.00    -0.248 NA
ATOM     32  C   UNL A   1      48.495  30.711  27.441  1.00  0.00     0.031 C 
ATOM     33  C   UNL A   1      47.574  24.866  26.045  1.00  0.00     0.029 A 
ATOM     34  C   UNL A   1      47.374  26.173  26.461  1.00  0.00     0.049 A 
ATOM     35  H   UNL A   1      45.604  27.085  27.162  1.00  0.00     0.167 HD
ATOM     36  C   UNL A   1      48.060  28.515  26.930  1.00  0.00     0.074 A 
ATOM     37  C   UNL A   1      49.037  29.584  26.995  1.00  0.00     0.031 C 
ATOM     38  C   UNL A   1      48.333  27.249  26.529  1.00  0.00     0.037 A 
BRANCH  25  39
ATOM     39  C   UNL A   1      43.512  23.376  26.798  1.00  0.00     0.058 A 
ATOM     40  C   UNL A   1      43.266  22.554  27.909  1.00  0.00     0.135 A 
ATOM     41  C   UNL A   1      43.263  22.844  25.523  1.00  0.00     0.135 A 
ATOM     42  F   UNL A   1      43.499  23.009  29.152  1.00  0.00    -0.206 F 
ATOM     43  C   UNL A   1      42.835  21.240  27.761  1.00  0.00     0.059 A 
ATOM     44  C   UNL A   1      42.807  21.540  25.351  1.00  0.00     0.059 A 
ATOM     45  F   UNL A   1      43.476  23.587  24.426  1.00  0.00    -0.206 F 
ATOM     46  C   UNL A   1      42.619  20.738  26.476  1.00  0.00     0.060 A 
BRANCH  46  47
ATOM     47  S   UNL A   1      42.102  19.018  26.292  1.00  0.00     0.124 S 
ATOM     48  O   UNL A   1      43.059  18.533  25.302  1.00  0.00    -0.237 OA
ATOM     49  O   UNL A   1      42.270  18.491  27.644  1.00  0.00    -0.237 OA
ATOM     50  O   UNL A   1      40.721  19.125  25.832  1.00  0.00    -0.744 OA
ENDBRANCH  46  47
ENDBRANCH  25  39
BRANCH  26  51
ATOM     51  C   UNL A   1      46.595  32.740  28.443  1.00  0.00     0.058 A 
ATOM     52  C   UNL A   1      46.572  33.757  27.480  1.00  0.00     0.135 A 
ATOM     53  C   UNL A   1      46.955  33.083  29.756  1.00  0.00     0.135 A 
ATOM     54  F   UNL A   1      46.236  33.476  26.212  1.00  0.00    -0.206 F 
ATOM     55  C   UNL A   1      46.877  35.074  27.811  1.00  0.00     0.059 A 
ATOM     56  C   UNL A   1      47.244  34.395  30.114  1.00  0.00     0.059 A 
ATOM     57  F   UNL A   1      46.972  32.144  30.715  1.00  0.00    -0.206 F 
ATOM     58  C   UNL A   1      47.200  35.384  29.134  1.00  0.00     0.060 A 
BRANCH  58  59
ATOM     59  S   UNL A   1      47.485  37.112  29.574  1.00  0.00     0.124 S 
ATOM     60  O   UNL A   1      46.140  37.667  29.476  1.00  0.00    -0.237 OA
ATOM     61  O   UNL A   1      48.032  37.001  30.923  1.00  0.00    -0.237 OA
ATOM     62  O   UNL A   1      48.431  37.565  28.558  1.00  0.00    -0.744 OA
ENDBRANCH  58  59
ENDBRANCH  26  51
BRANCH  38  63
ATOM     63  C   UNL A   1      49.740  26.944  26.105  1.00  0.00     0.058 A 
ATOM     64  C   UNL A   1      50.163  27.120  24.779  1.00  0.00     0.135 A 
ATOM     65  C   UNL A   1      50.699  26.560  27.056  1.00  0.00     0.135 A 
ATOM     66  F   UNL A   1      49.281  27.476  23.832  1.00  0.00    -0.206 F 
ATOM     67  C   UNL A   1      51.490  26.927  24.410  1.00  0.00     0.059 A 
ATOM     68  C   UNL A   1      52.035  26.380  26.713  1.00  0.00     0.059 A 
ATOM     69  F   UNL A   1      50.345  26.384  28.340  1.00  0.00    -0.206 F 
ATOM     70  C   UNL A   1      52.421  26.565  25.385  1.00  0.00     0.060 A 
BRANCH  70  71
ATOM     71  S   UNL A   1      54.154  26.393  24.910  1.00  0.00     0.124 S 
ATOM     72  O   UNL A   1      54.562  25.237  25.702  1.00  0.00    -0.237 OA
ATOM     73  O   UNL A   1      54.065  26.175  23.470  1.00  0.00    -0.237 OA
ATOM     74  O   UNL A   1      54.743  27.668  25.308  1.00  0.00    -0.744 OA
ENDBRANCH  70  71
ENDBRANCH  38  63
ENDBRANCH  12  13
ENDBRANCH   5   7
ENDBRANCH   2   3
ENDBRANCH   1   2
BRANCH   1  75
ATOM     75  C   UNL A   1      33.572  31.106  27.594  1.00  0.00     0.023 C 
BRANCH  75  76
ATOM     76  C   UNL A   1      33.534  32.529  28.127  1.00  0.00     0.116 C 
BRANCH  76  77
ATOM     77  N   UNL A   1      34.311  32.717  29.324  1.00  0.00    -0.352 N 
ATOM     78  C   UNL A   1      34.893  33.948  29.512  1.00  0.00     0.251 C 
ATOM     79  H   UNL A   1      34.421  31.992  29.981  1.00  0.00     0.163 HD
ATOM     80  O   UNL A   1      34.509  34.985  28.984  1.00  0.00    -0.269 OA
BRANCH  78  81
ATOM     81  C   UNL A   1      36.218  33.921  30.140  1.00  0.00     0.048 A 
ATOM     82  C   UNL A   1      37.224  33.748  29.163  1.00  0.00     0.014 A 
ATOM     83  C   UNL A   1      36.500  33.997  31.535  1.00  0.00     0.007 A 
ATOM     84  C   UNL A   1      38.544  33.587  29.529  1.00  0.00     0.001 A 
ATOM     85  C   UNL A   1      37.882  33.814  31.864  1.00  0.00    -0.017 A 
ATOM     86  C   UNL A   1      35.591  34.190  32.636  1.00  0.00     0.048 A 
ATOM     87  C   UNL A   1      38.863  33.606  30.876  1.00  0.00     0.009 A 
ATOM     88  C   UNL A   1      38.311  33.783  33.194  1.00  0.00     0.009 A 
ATOM     89  C   UNL A   1      36.072  34.171  33.965  1.00  0.00     0.014 A 
ATOM     90  C   UNL A   1      37.419  33.962  34.241  1.00  0.00     0.001 A 
BRANCH  86  91
ATOM     91  C   UNL A   1      34.145  33.912  32.553  1.00  0.00     0.252 C 
ATOM     92  O   UNL A   1      33.845  32.714  32.473  1.00  0.00    -0.269 OA
ATOM     93  N   UNL A   1      33.108  34.803  32.568  1.00  0.00    -0.345 N 
ATOM     94  H   UNL A   1      32.255  34.345  32.386  1.00  0.00     0.164 HD
BRANCH  93  95
ATOM     95  C   UNL A   1      32.890  36.239  32.774  1.00  0.00     0.134 C 
ATOM     96  C   UNL A   1      33.773  37.146  33.619  1.00  0.00     0.187 C 
ATOM     97  C   UNL A   1      33.382  37.120  31.603  1.00  0.00     0.187 C 
ATOM     98  O   UNL A   1      33.870  38.117  32.538  1.00  0.00    -0.377 OA
ENDBRANCH  93  95
ENDBRANCH  86  91
ENDBRANCH  78  81
ENDBRANCH  76  77
ENDBRANCH  75  76
ENDBRANCH   1  75
TORSDOF 16
ENDMDL
MODEL 3
REMARK VINA RESULT:     -11.2      3.774      6.940
REMARK SMILES O=C(NCCCCNC(=O)c1cccc2cccc(C(=O)NC3COC3)c12)c1ccc(-c2c3nc(c(-c4c(F)cc(S(=O)(=O)[O-])cc4F)c4ccc([nH]4)c(-c4c(F)cc(S(=O)(=O)[O-])cc4F)c4nc(c(-c5c(F)cc(S(=O)(=O)[O-])cc5F)c5ccc2[nH]5)C=C4)C=C3)cc1
REMARK SMILES IDX 5 1 4 2 3 3 1 4 2 5 28 7 29 8 93 9 30 10 92 11 31 12 32 13
REMARK SMILES IDX 33 14 86 15 34 16 91 17 85 18 87 19 35 20 90 21 84 22 83 23
REMARK SMILES IDX 36 25 70 26 49 27 69 28 50 29 53 30 68 31 88 32 51 33 52 34
REMARK SMILES IDX 67 36 89 37 54 38 37 39 38 40 47 41 39 42 40 43 46 44 48 45
REMARK SMILES IDX 41 46 42 47 43 48 44 49 45 50 71 51 72 52 81 53 73 54 74 55
REMARK SMILES IDX 80 56 82 57 75 58 76 59 77 60 78 61 79 62 55 63 56 64 65 65
REMARK SMILES IDX 57 66 58 67 64 68 66 69 59 70 60 71 61 72 62 73 63 74 6 75
REMARK SMILES IDX 7 76 8 77 9 78 10 80 11 81 12 82 27 83 13 84 15 85 19 86
REMARK SMILES IDX 14 87 16 88 18 89 17 90 20 91 21 92 22 93 23 95 24 96 26 97
REMARK SMILES IDX 25 98
REMARK H PARENT 3 6 87 24 53 35 8 79 22 94
REMARK Flexibility Score: inf
ROOT
ATOM      1  C   UNL A   1      37.371  23.286  25.859  1.00  0.00     0.023 C 
ENDROOT
BRANCH   1   2
ATOM      2  C   UNL A   1      38.313  24.352  26.420  1.00  0.00     0.116 C 
BRANCH   2   3
ATOM      3  N   UNL A   1      39.716  24.084  26.137  1.00  0.00    -0.352 N 
ATOM      4  O   UNL A   1      41.937  24.454  26.083  1.00  0.00    -0.269 OA
ATOM      5  C   UNL A   1      40.842  24.739  26.562  1.00  0.00     0.251 C 
ATOM      6  H   UNL A   1      39.882  23.312  25.550  1.00  0.00     0.163 HD
BRANCH   5   7
ATOM      7  C   UNL A   1      40.731  25.802  27.578  1.00  0.00     0.039 A 
ATOM      8  C   UNL A   1      41.566  26.922  27.531  1.00  0.00     0.014 A 
ATOM      9  C   UNL A   1      39.769  25.677  28.584  1.00  0.00     0.014 A 
ATOM     10  C   UNL A   1      41.527  27.854  28.563  1.00  0.00     0.010 A 
ATOM     11  C   UNL A   1      39.687  26.648  29.581  1.00  0.00     0.010 A 
ATOM     12  C   UNL A   1      40.584  27.727  29.593  1.00  0.00    -0.014 A 
BRANCH  12  13
ATOM     13  C   UNL A   1      40.505  28.753  30.660  1.00  0.00     0.031 A 
ATOM     14  C   UNL A   1      41.378  28.660  31.878  1.00  0.00     0.074 A 
ATOM     15  C   UNL A   1      39.611  29.751  30.538  1.00  0.00     0.049 A 
ATOM     16  N   UNL A   1      41.386  29.416  32.946  1.00  0.00    -0.248 NA
ATOM     17  C   UNL A   1      42.364  27.567  31.907  1.00  0.00     0.031 C 
ATOM     18  C   UNL A   1      38.703  29.931  29.403  1.00  0.00     0.029 A 
ATOM     19  N   UNL A   1      39.305  30.789  31.380  1.00  0.00    -0.354 N 
ATOM     20  C   UNL A   1      42.353  28.879  33.784  1.00  0.00     0.074 A 
ATOM     21  C   UNL A   1      42.902  27.721  33.108  1.00  0.00     0.031 C 
ATOM     22  C   UNL A   1      37.941  31.012  29.620  1.00  0.00     0.029 A 
ATOM     23  C   UNL A   1      38.268  31.569  30.928  1.00  0.00     0.049 A 
ATOM     24  H   UNL A   1      39.781  30.957  32.224  1.00  0.00     0.167 HD
ATOM     25  C   UNL A   1      42.747  29.314  35.006  1.00  0.00     0.037 A 
ATOM     26  C   UNL A   1      37.625  32.595  31.516  1.00  0.00     0.037 A 
ATOM     27  C   UNL A   1      42.200  30.474  35.662  1.00  0.00     0.049 A 
ATOM     28  C   UNL A   1      38.066  33.056  32.873  1.00  0.00     0.074 A 
ATOM     29  C   UNL A   1      42.567  31.030  36.875  1.00  0.00     0.029 A 
ATOM     30  N   UNL A   1      41.162  31.250  35.165  1.00  0.00    -0.354 N 
ATOM     31  N   UNL A   1      39.015  32.567  33.635  1.00  0.00    -0.248 NA
ATOM     32  C   UNL A   1      37.356  34.202  33.453  1.00  0.00     0.031 C 
ATOM     33  C   UNL A   1      41.723  32.116  37.131  1.00  0.00     0.029 A 
ATOM     34  C   UNL A   1      40.858  32.265  36.058  1.00  0.00     0.049 A 
ATOM     35  H   UNL A   1      40.709  31.102  34.304  1.00  0.00     0.167 HD
ATOM     36  C   UNL A   1      39.028  33.354  34.779  1.00  0.00     0.074 A 
ATOM     37  C   UNL A   1      37.994  34.356  34.607  1.00  0.00     0.031 C 
ATOM     38  C   UNL A   1      39.826  33.257  35.869  1.00  0.00     0.037 A 
BRANCH  25  39
ATOM     39  C   UNL A   1      43.796  28.510  35.722  1.00  0.00     0.058 A 
ATOM     40  C   UNL A   1      43.460  27.482  36.618  1.00  0.00     0.135 A 
ATOM     41  C   UNL A   1      45.159  28.772  35.509  1.00  0.00     0.135 A 
ATOM     42  F   UNL A   1      42.171  27.198  36.868  1.00  0.00    -0.206 F 
ATOM     43  C   UNL A   1      44.436  26.774  37.311  1.00  0.00     0.059 A 
ATOM     44  C   UNL A   1      46.153  28.058  36.173  1.00  0.00     0.059 A 
ATOM     45  F   UNL A   1      45.537  29.739  34.660  1.00  0.00    -0.206 F 
ATOM     46  C   UNL A   1      45.780  27.077  37.091  1.00  0.00     0.060 A 
BRANCH  46  47
ATOM     47  S   UNL A   1      47.037  26.182  38.028  1.00  0.00     0.124 S 
ATOM     48  O   UNL A   1      48.245  26.922  37.672  1.00  0.00    -0.237 OA
ATOM     49  O   UNL A   1      46.580  26.343  39.405  1.00  0.00    -0.237 OA
ATOM     50  O   UNL A   1      46.954  24.824  37.498  1.00  0.00    -0.744 OA
ENDBRANCH  46  47
ENDBRANCH  25  39
BRANCH  26  51
ATOM     51  C   UNL A   1      36.488  33.228  30.802  1.00  0.00     0.058 A 
ATOM     52  C   UNL A   1      35.174  33.081  31.264  1.00  0.00     0.135 A 
ATOM     53  C   UNL A   1      36.710  34.076  29.705  1.00  0.00     0.135 A 
ATOM     54  F   UNL A   1      34.914  32.278  32.307  1.00  0.00    -0.206 F 
ATOM     55  C   UNL A   1      34.118  33.768  30.673  1.00  0.00     0.059 A 
ATOM     56  C   UNL A   1      35.674  34.788  29.112  1.00  0.00     0.059 A 
ATOM     57  F   UNL A   1      37.956  34.262  29.241  1.00  0.00    -0.206 F 
ATOM     58  C   UNL A   1      34.380  34.629  29.605  1.00  0.00     0.060 A 
BRANCH  58  59
ATOM     59  S   UNL A   1      33.020  35.598  28.918  1.00  0.00     0.124 S 
ATOM     60  O   UNL A   1      32.298  35.987  30.124  1.00  0.00    -0.237 OA
ATOM     61  O   UNL A   1      33.726  36.670  28.223  1.00  0.00    -0.237 OA
ATOM     62  O   UNL A   1      32.335  34.645  28.050  1.00  0.00    -0.744 OA
ENDBRANCH  58  59
ENDBRANCH  26  51
BRANCH  38  63
ATOM     63  C   UNL A   1      39.638  34.269  36.961  1.00  0.00     0.058 A 
ATOM     64  C   UNL A   1      38.931  33.963  38.133  1.00  0.00     0.135 A 
ATOM     65  C   UNL A   1      40.251  35.530  36.872  1.00  0.00     0.135 A 
ATOM     66  F   UNL A   1      38.319  32.776  38.261  1.00  0.00    -0.206 F 
ATOM     67  C   UNL A   1      38.839  34.872  39.182  1.00  0.00     0.059 A 
ATOM     68  C   UNL A   1      40.188  36.446  37.916  1.00  0.00     0.059 A 
ATOM     69  F   UNL A   1      40.943  35.868  35.772  1.00  0.00    -0.206 F 
ATOM     70  C   UNL A   1      39.478  36.108  39.068  1.00  0.00     0.060 A 
BRANCH  70  71
ATOM     71  S   UNL A   1      39.418  37.250  40.466  1.00  0.00     0.124 S 
ATOM     72  O   UNL A   1      40.835  37.421  40.766  1.00  0.00    -0.237 OA
ATOM     73  O   UNL A   1      38.746  38.412  39.893  1.00  0.00    -0.237 OA
ATOM     74  O   UNL A   1      38.646  36.520  41.467  1.00  0.00    -0.744 OA
ENDBRANCH  70  71
ENDBRANCH  38  63
ENDBRANCH  12  13
ENDBRANCH   5   7
ENDBRANCH   2   3
ENDBRANCH   1   2
BRANCH   1  75
ATOM     75  C   UNL A   1      36.301  23.793  24.893  1.00  0.00     0.023 C 
BRANCH  75  76
ATOM     76  C   UNL A   1      34.977  24.148  25.551  1.00  0.00     0.116 C 
BRANCH  76  77
ATOM     77  N   UNL A   1      34.089  24.890  24.695  1.00  0.00    -0.352 N 
ATOM     78  C   UNL A   1      33.352  25.896  25.271  1.00  0.00     0.251 C 
ATOM     79  H   UNL A   1      34.014  24.683  23.735  1.00  0.00     0.163 HD
ATOM     80  O   UNL A   1      33.649  26.467  26.313  1.00  0.00    -0.269 OA
BRANCH  78  81
ATOM     81  C   UNL A   1      31.993  26.053  24.741  1.00  0.00     0.048 A 
ATOM     82  C   UNL A   1      31.344  24.801  24.665  1.00  0.00     0.014 A 
ATOM     83  C   UNL A   1      31.387  27.265  24.298  1.00  0.00     0.007 A 
ATOM     84  C   UNL A   1      30.093  24.686  24.098  1.00  0.00     0.001 A 
ATOM     85  C   UNL A   1      30.094  27.092  23.708  1.00  0.00    -0.017 A 
ATOM     86  C   UNL A   1      31.911  28.607  24.330  1.00  0.00     0.048 A 
ATOM     87  C   UNL A   1      29.481  25.828  23.610  1.00  0.00     0.009 A 
ATOM     88  C   UNL A   1      29.400  28.173  23.154  1.00  0.00     0.009 A 
ATOM     89  C   UNL A   1      31.166  29.673  23.776  1.00  0.00     0.014 A 
ATOM     90  C   UNL A   1      29.925  29.455  23.187  1.00  0.00     0.001 A 
BRANCH  86  91
ATOM     91  C   UNL A   1      33.350  28.914  24.432  1.00  0.00     0.252 C 
ATOM     92  O   UNL A   1      33.994  28.761  23.387  1.00  0.00    -0.269 OA
ATOM     93  N   UNL A   1      34.048  29.355  25.522  1.00  0.00    -0.345 N 
ATOM     94  H   UNL A   1      35.014  29.370  25.332  1.00  0.00     0.164 HD
BRANCH  93  95
ATOM     95  C   UNL A   1      33.783  29.812  26.891  1.00  0.00     0.134 C 
ATOM     96  C   UNL A   1      34.705  30.704  27.710  1.00  0.00     0.187 C 
ATOM     97  C   UNL A   1      32.814  31.012  26.972  1.00  0.00     0.187 C 
ATOM     98  O   UNL A   1      33.604  31.599  28.038  1.00  0.00    -0.377 OA
ENDBRANCH  93  95
ENDBRANCH  86  91
ENDBRANCH  78  81
ENDBRANCH  76  77
ENDBRANCH  75  76
ENDBRANCH   1  75
TORSDOF 16
ENDMDL
