MODEL 1
REMARK VINA RESULT:     -12.6      0.000      0.000
REMARK SMILES CCc1ccc2c(CC(=O)NCCCCNC(=O)c3ccc(-c4c5nc(c(-c6c(F)cc(S(=O)(=O)[O-])cc6F)c6ccc([nH]6)c(-c6c(F)cc(S(=O)(=O)[O-])cc6F)c6nc(c(-c7c(F)cc(S(=O)(=O)[O-])cc7F)c7ccc4[nH]7)C=C6)C=C5)cc3)c(C(=O)c3cc(C)ccn3)[nH]c2c1
REMARK SMILES IDX 13 1 12 2 11 3 9 4 10 5 8 7 7 8 3 9 4 10 97 11 5 12 96 13
REMARK SMILES IDX 6 14 95 15 85 16 2 18 1 19 86 20 87 21 88 22 89 23 94 24
REMARK SMILES IDX 90 25 93 26 91 27 92 28 14 29 15 30 16 31 17 32 18 34 19 35
REMARK SMILES IDX 20 36 84 37 21 38 83 39 22 40 23 41 24 42 77 43 25 44 82 45
REMARK SMILES IDX 76 46 78 47 26 48 81 49 75 50 74 51 27 53 61 54 40 55 60 56
REMARK SMILES IDX 41 57 44 58 59 59 79 60 42 61 43 62 58 64 80 65 45 66 28 67
REMARK SMILES IDX 29 68 38 69 30 70 31 71 37 72 39 73 32 74 33 75 34 76 35 77
REMARK SMILES IDX 36 78 62 79 63 80 72 81 64 82 65 83 71 84 73 85 66 86 67 87
REMARK SMILES IDX 68 88 69 89 70 90 46 91 47 92 56 93 48 94 49 95 55 96 57 97
REMARK SMILES IDX 50 98 51 99 52 100 53 101 54 102
REMARK H PARENT 11 6 95 17 16 33 78 52 44 63
REMARK Flexibility Score: inf
ROOT
ATOM      1  C   UNL A   1      38.805  23.635  26.565  1.00  0.00     0.023 C 
ENDROOT
BRANCH   1   2
ATOM      2  C   UNL A   1      37.511  23.062  25.994  1.00  0.00     0.116 C 
BRANCH   2   3
ATOM      3  N   UNL A   1      37.540  22.938  24.552  1.00  0.00    -0.356 N 
ATOM      4  C   UNL A   1      36.600  23.296  23.628  1.00  0.00     0.224 C 
ATOM      5  O   UNL A   1      36.952  23.299  22.445  1.00  0.00    -0.275 OA
ATOM      6  H   UNL A   1      38.360  22.537  24.183  1.00  0.00     0.163 HD
BRANCH   4   7
ATOM      7  C   UNL A   1      35.227  23.813  24.046  1.00  0.00     0.138 C 
BRANCH   7   8
ATOM      8  C   UNL A   1      34.049  23.017  23.545  1.00  0.00    -0.002 A 
ATOM      9  C   UNL A   1      32.712  19.036  24.098  1.00  0.00    -0.046 A 
ATOM     10  C   UNL A   1      33.837  19.414  24.839  1.00  0.00     0.004 A 
ATOM     11  C   UNL A   1      32.090  19.974  23.255  1.00  0.00     0.030 A 
ATOM     12  C   UNL A   1      34.366  20.708  24.747  1.00  0.00     0.011 A 
ATOM     13  C   UNL A   1      32.638  21.264  23.176  1.00  0.00     0.046 A 
ATOM     14  C   UNL A   1      33.760  21.654  23.895  1.00  0.00     0.004 A 
ATOM     15  N   UNL A   1      32.246  22.348  22.430  1.00  0.00    -0.352 N 
ATOM     16  C   UNL A   1      33.015  23.458  22.717  1.00  0.00     0.093 A 
ATOM     17  H   UNL A   1      31.512  22.336  21.773  1.00  0.00     0.167 HD
BRANCH   9  18
ATOM     18  C   UNL A   1      32.150  17.642  24.261  1.00  0.00     0.032 C 
ATOM     19  C   UNL A   1      33.206  16.564  24.465  1.00  0.00     0.009 C 
ENDBRANCH   9  18
BRANCH  16  20
ATOM     20  C   UNL A   1      32.776  24.806  22.207  1.00  0.00     0.227 C 
ATOM     21  O   UNL A   1      33.516  25.356  21.394  1.00  0.00    -0.285 OA
BRANCH  20  22
ATOM     22  C   UNL A   1      31.638  25.601  22.745  1.00  0.00     0.113 A 
ATOM     23  C   UNL A   1      31.409  26.893  22.277  1.00  0.00     0.036 A 
ATOM     24  N   UNL A   1      30.850  24.981  23.657  1.00  0.00    -0.253 NA
ATOM     25  C   UNL A   1      30.314  27.598  22.779  1.00  0.00    -0.047 A 
ATOM     26  C   UNL A   1      29.780  25.669  24.101  1.00  0.00     0.112 A 
ATOM     27  C   UNL A   1      30.005  28.989  22.315  1.00  0.00     0.044 C 
ATOM     28  C   UNL A   1      29.476  26.962  23.701  1.00  0.00     0.023 A 
ENDBRANCH  20  22
ENDBRANCH  16  20
ENDBRANCH   7   8
ENDBRANCH   4   7
ENDBRANCH   2   3
ENDBRANCH   1   2
BRANCH   1  29
ATOM     29  C   UNL A   1      39.884  22.602  26.900  1.00  0.00     0.023 C 
BRANCH  29  30
ATOM     30  C   UNL A   1      41.299  23.149  27.059  1.00  0.00     0.116 C 
BRANCH  30  31
ATOM     31  N   UNL A   1      41.733  23.965  25.935  1.00  0.00    -0.352 N 
ATOM     32  C   UNL A   1      41.977  25.317  25.896  1.00  0.00     0.251 C 
ATOM     33  H   UNL A   1      41.871  23.483  25.088  1.00  0.00     0.163 HD
ATOM     34  O   UNL A   1      42.246  25.860  24.827  1.00  0.00    -0.269 OA
BRANCH  32  35
ATOM     35  C   UNL A   1      41.874  26.123  27.133  1.00  0.00     0.039 A 
ATOM     36  C   UNL A   1      42.794  27.154  27.341  1.00  0.00     0.014 A 
ATOM     37  C   UNL A   1      40.871  25.878  28.074  1.00  0.00     0.014 A 
ATOM     38  C   UNL A   1      42.664  27.987  28.455  1.00  0.00     0.010 A 
ATOM     39  C   UNL A   1      40.708  26.743  29.155  1.00  0.00     0.010 A 
ATOM     40  C   UNL A   1      41.598  27.811  29.352  1.00  0.00    -0.014 A 
BRANCH  40  41
ATOM     41  C   UNL A   1      41.383  28.745  30.488  1.00  0.00     0.031 A 
ATOM     42  C   UNL A   1      42.207  28.619  31.739  1.00  0.00     0.074 A 
ATOM     43  C   UNL A   1      40.385  29.649  30.423  1.00  0.00     0.049 A 
ATOM     44  N   UNL A   1      42.102  29.277  32.865  1.00  0.00    -0.248 NA
ATOM     45  C   UNL A   1      43.272  27.603  31.736  1.00  0.00     0.031 C 
ATOM     46  C   UNL A   1      39.472  29.824  29.289  1.00  0.00     0.029 A 
ATOM     47  N   UNL A   1      39.953  30.575  31.340  1.00  0.00    -0.354 N 
ATOM     48  C   UNL A   1      43.062  28.738  33.713  1.00  0.00     0.074 A 
ATOM     49  C   UNL A   1      43.725  27.679  32.980  1.00  0.00     0.031 C 
ATOM     50  C   UNL A   1      38.592  30.796  29.579  1.00  0.00     0.029 A 
ATOM     51  C   UNL A   1      38.857  31.295  30.925  1.00  0.00     0.049 A 
ATOM     52  H   UNL A   1      40.387  30.712  32.213  1.00  0.00     0.167 HD
ATOM     53  C   UNL A   1      43.373  29.102  34.979  1.00  0.00     0.037 A 
ATOM     54  C   UNL A   1      38.138  32.241  31.561  1.00  0.00     0.037 A 
ATOM     55  C   UNL A   1      42.747  30.189  35.686  1.00  0.00     0.049 A 
ATOM     56  C   UNL A   1      38.540  32.662  32.948  1.00  0.00     0.074 A 
ATOM     57  C   UNL A   1      43.061  30.695  36.935  1.00  0.00     0.029 A 
ATOM     58  N   UNL A   1      41.685  30.939  35.205  1.00  0.00    -0.354 N 
ATOM     59  N   UNL A   1      39.508  32.199  33.700  1.00  0.00    -0.248 NA
ATOM     60  C   UNL A   1      37.760  33.742  33.569  1.00  0.00     0.031 C 
ATOM     61  C   UNL A   1      42.168  31.732  37.224  1.00  0.00     0.029 A 
ATOM     62  C   UNL A   1      41.321  31.894  36.140  1.00  0.00     0.049 A 
ATOM     63  H   UNL A   1      41.253  30.811  34.330  1.00  0.00     0.167 HD
ATOM     64  C   UNL A   1      39.469  32.944  34.872  1.00  0.00     0.074 A 
ATOM     65  C   UNL A   1      38.389  33.899  34.726  1.00  0.00     0.031 C 
ATOM     66  C   UNL A   1      40.254  32.847  35.972  1.00  0.00     0.037 A 
BRANCH  53  67
ATOM     67  C   UNL A   1      44.450  28.332  35.689  1.00  0.00     0.058 A 
ATOM     68  C   UNL A   1      45.787  28.756  35.674  1.00  0.00     0.135 A 
ATOM     69  C   UNL A   1      44.127  27.198  36.453  1.00  0.00     0.135 A 
ATOM     70  F   UNL A   1      46.149  29.824  34.947  1.00  0.00    -0.206 F 
ATOM     71  C   UNL A   1      46.771  28.076  36.384  1.00  0.00     0.059 A 
ATOM     72  C   UNL A   1      45.093  26.515  37.188  1.00  0.00     0.059 A 
ATOM     73  F   UNL A   1      42.863  26.751  36.499  1.00  0.00    -0.206 F 
ATOM     74  C   UNL A   1      46.414  26.958  37.141  1.00  0.00     0.060 A 
BRANCH  74  75
ATOM     75  S   UNL A   1      47.697  26.109  38.086  1.00  0.00     0.124 S 
ATOM     76  O   UNL A   1      47.206  26.271  39.451  1.00  0.00    -0.237 OA
ATOM     77  O   UNL A   1      47.636  24.752  37.549  1.00  0.00    -0.237 OA
ATOM     78  O   UNL A   1      48.908  26.854  37.761  1.00  0.00    -0.744 OA
ENDBRANCH  74  75
ENDBRANCH  53  67
BRANCH  54  79
ATOM     79  C   UNL A   1      36.966  32.863  30.892  1.00  0.00     0.058 A 
ATOM     80  C   UNL A   1      37.121  33.974  30.050  1.00  0.00     0.135 A 
ATOM     81  C   UNL A   1      35.668  32.367  31.090  1.00  0.00     0.135 A 
ATOM     82  F   UNL A   1      38.341  34.487  29.834  1.00  0.00    -0.206 F 
ATOM     83  C   UNL A   1      36.027  34.590  29.448  1.00  0.00     0.059 A 
ATOM     84  C   UNL A   1      34.563  32.951  30.481  1.00  0.00     0.059 A 
ATOM     85  F   UNL A   1      35.471  31.293  31.872  1.00  0.00    -0.206 F 
ATOM     86  C   UNL A   1      34.751  34.073  29.673  1.00  0.00     0.060 A 
BRANCH  86  87
ATOM     87  S   UNL A   1      33.338  34.856  28.867  1.00  0.00     0.124 S 
ATOM     88  O   UNL A   1      32.868  33.786  27.995  1.00  0.00    -0.237 OA
ATOM     89  O   UNL A   1      32.475  35.182  29.998  1.00  0.00    -0.237 OA
ATOM     90  O   UNL A   1      33.934  36.006  28.194  1.00  0.00    -0.744 OA
ENDBRANCH  86  87
ENDBRANCH  54  79
BRANCH  66  91
ATOM     91  C   UNL A   1      40.004  33.817  37.091  1.00  0.00     0.058 A 
ATOM     92  C   UNL A   1      40.621  35.077  37.122  1.00  0.00     0.135 A 
ATOM     93  C   UNL A   1      39.095  33.504  38.113  1.00  0.00     0.135 A 
ATOM     94  F   UNL A   1      41.504  35.421  36.170  1.00  0.00    -0.206 F 
ATOM     95  C   UNL A   1      40.361  35.987  38.142  1.00  0.00     0.059 A 
ATOM     96  C   UNL A   1      38.802  34.406  39.129  1.00  0.00     0.059 A 
ATOM     97  F   UNL A   1      38.471  32.315  38.122  1.00  0.00    -0.206 F 
ATOM     98  C   UNL A   1      39.448  35.643  39.141  1.00  0.00     0.060 A 
BRANCH  98  99
ATOM     99  S   UNL A   1      39.087  36.843  40.440  1.00  0.00     0.124 S 
ATOM    100  O   UNL A   1      38.469  37.923  39.679  1.00  0.00    -0.237 OA
ATOM    101  O   UNL A   1      38.193  36.097  41.321  1.00  0.00    -0.237 OA
ATOM    102  O   UNL A   1      40.402  37.141  41.001  1.00  0.00    -0.744 OA
ENDBRANCH  98  99
ENDBRANCH  66  91
ENDBRANCH  40  41
ENDBRANCH  32  35
ENDBRANCH  30  31
ENDBRANCH  29  30
ENDBRANCH   1  29
TORSDOF 18
ENDMDL
MODEL 2
REMARK VINA RESULT:     -12.6      6.268     11.905
REMARK SMILES CCc1ccc2c(CC(=O)NCCCCNC(=O)c3ccc(-c4c5nc(c(-c6c(F)cc(S(=O)(=O)[O-])cc6F)c6ccc([nH]6)c(-c6c(F)cc(S(=O)(=O)[O-])cc6F)c6nc(c(-c7c(F)cc(S(=O)(=O)[O-])cc7F)c7ccc4[nH]7)C=C6)C=C5)cc3)c(C(=O)c3cc(C)ccn3)[nH]c2c1
REMARK SMILES IDX 13 1 12 2 11 3 9 4 10 5 8 7 7 8 3 9 4 10 97 11 5 12 96 13
REMARK SMILES IDX 6 14 95 15 85 16 2 18 1 19 86 20 87 21 88 22 89 23 94 24
REMARK SMILES IDX 90 25 93 26 91 27 92 28 14 29 15 30 16 31 17 32 18 34 19 35
REMARK SMILES IDX 20 36 84 37 21 38 83 39 22 40 23 41 24 42 77 43 25 44 82 45
REMARK SMILES IDX 76 46 78 47 26 48 81 49 75 50 74 51 27 53 61 54 40 55 60 56
REMARK SMILES IDX 41 57 44 58 59 59 79 60 42 61 43 62 58 64 80 65 45 66 28 67
REMARK SMILES IDX 29 68 38 69 30 70 31 71 37 72 39 73 32 74 33 75 34 76 35 77
REMARK SMILES IDX 36 78 62 79 63 80 72 81 64 82 65 83 71 84 73 85 66 86 67 87
REMARK SMILES IDX 68 88 69 89 70 90 46 91 47 92 56 93 48 94 49 95 55 96 57 97
REMARK SMILES IDX 50 98 51 99 52 100 53 101 54 102
REMARK H PARENT 11 6 95 17 16 33 78 52 44 63
REMARK Flexibility Score: inf
ROOT
ATOM      1  C   UNL A   1      35.033  30.066  27.595  1.00  0.00     0.023 C 
ENDROOT
BRANCH   1   2
ATOM      2  C   UNL A   1      33.856  29.528  26.786  1.00  0.00     0.116 C 
BRANCH   2   3
ATOM      3  N   UNL A   1      34.219  28.409  25.942  1.00  0.00    -0.356 N 
ATOM      4  C   UNL A   1      33.540  27.251  25.691  1.00  0.00     0.224 C 
ATOM      5  O   UNL A   1      33.950  26.553  24.759  1.00  0.00    -0.275 OA
ATOM      6  H   UNL A   1      35.084  28.497  25.481  1.00  0.00     0.163 HD
BRANCH   4   7
ATOM      7  C   UNL A   1      32.248  26.909  26.425  1.00  0.00     0.138 C 
BRANCH   7   8
ATOM      8  C   UNL A   1      31.038  26.692  25.552  1.00  0.00    -0.002 A 
ATOM      9  C   UNL A   1      28.864  29.119  22.846  1.00  0.00    -0.046 A 
ATOM     10  C   UNL A   1      30.014  29.693  23.397  1.00  0.00     0.004 A 
ATOM     11  C   UNL A   1      28.515  27.801  23.189  1.00  0.00     0.030 A 
ATOM     12  C   UNL A   1      30.820  28.985  24.297  1.00  0.00     0.011 A 
ATOM     13  C   UNL A   1      29.335  27.110  24.093  1.00  0.00     0.046 A 
ATOM     14  C   UNL A   1      30.474  27.667  24.660  1.00  0.00     0.004 A 
ATOM     15  N   UNL A   1      29.216  25.840  24.605  1.00  0.00    -0.352 N 
ATOM     16  C   UNL A   1      30.295  25.519  25.404  1.00  0.00     0.093 A 
ATOM     17  H   UNL A   1      28.459  25.236  24.425  1.00  0.00     0.167 HD
BRANCH   9  18
ATOM     18  C   UNL A   1      28.047  29.906  21.845  1.00  0.00     0.032 C 
ATOM     19  C   UNL A   1      28.670  31.235  21.441  1.00  0.00     0.009 C 
ENDBRANCH   9  18
BRANCH  16  20
ATOM     20  C   UNL A   1      30.552  24.205  25.987  1.00  0.00     0.227 C 
ATOM     21  O   UNL A   1      30.195  23.894  27.122  1.00  0.00    -0.285 OA
BRANCH  20  22
ATOM     22  C   UNL A   1      31.355  23.210  25.224  1.00  0.00     0.113 A 
ATOM     23  C   UNL A   1      31.870  23.543  23.974  1.00  0.00     0.036 A 
ATOM     24  N   UNL A   1      31.570  22.018  25.834  1.00  0.00    -0.253 NA
ATOM     25  C   UNL A   1      32.646  22.597  23.301  1.00  0.00    -0.047 A 
ATOM     26  C   UNL A   1      32.350  21.135  25.179  1.00  0.00     0.112 A 
ATOM     27  C   UNL A   1      33.237  22.892  21.956  1.00  0.00     0.044 C 
ATOM     28  C   UNL A   1      32.900  21.373  23.928  1.00  0.00     0.023 A 
ENDBRANCH  20  22
ENDBRANCH  16  20
ENDBRANCH   7   8
ENDBRANCH   4   7
ENDBRANCH   2   3
ENDBRANCH   1   2
BRANCH   1  29
ATOM     29  C   UNL A   1      34.972  31.560  27.919  1.00  0.00     0.023 C 
BRANCH  29  30
ATOM     30  C   UNL A   1      35.900  32.036  29.034  1.00  0.00     0.116 C 
BRANCH  30  31
ATOM     31  N   UNL A   1      35.677  31.354  30.300  1.00  0.00    -0.352 N 
ATOM     32  C   UNL A   1      36.532  30.536  31.000  1.00  0.00     0.251 C 
ATOM     33  H   UNL A   1      34.794  31.499  30.712  1.00  0.00     0.163 HD
ATOM     34  O   UNL A   1      36.139  29.963  32.014  1.00  0.00    -0.269 OA
BRANCH  32  35
ATOM     35  C   UNL A   1      37.910  30.313  30.508  1.00  0.00     0.039 A 
ATOM     36  C   UNL A   1      38.944  30.195  31.440  1.00  0.00     0.014 A 
ATOM     37  C   UNL A   1      38.181  30.205  29.142  1.00  0.00     0.014 A 
ATOM     38  C   UNL A   1      40.238  29.895  31.008  1.00  0.00     0.010 A 
ATOM     39  C   UNL A   1      39.460  29.850  28.715  1.00  0.00     0.010 A 
ATOM     40  C   UNL A   1      40.499  29.684  29.644  1.00  0.00    -0.014 A 
BRANCH  40  41
ATOM     41  C   UNL A   1      41.845  29.266  29.171  1.00  0.00     0.031 A 
ATOM     42  C   UNL A   1      42.945  30.281  29.025  1.00  0.00     0.074 A 
ATOM     43  C   UNL A   1      42.049  27.989  28.792  1.00  0.00     0.049 A 
ATOM     44  N   UNL A   1      44.151  30.126  28.541  1.00  0.00    -0.248 NA
ATOM     45  C   UNL A   1      42.644  31.657  29.452  1.00  0.00     0.031 C 
ATOM     46  C   UNL A   1      41.041  26.924  28.825  1.00  0.00     0.029 A 
ATOM     47  N   UNL A   1      43.163  27.370  28.281  1.00  0.00    -0.354 N 
ATOM     48  C   UNL A   1      44.741  31.383  28.576  1.00  0.00     0.074 A 
ATOM     49  C   UNL A   1      43.752  32.298  29.106  1.00  0.00     0.031 C 
ATOM     50  C   UNL A   1      41.583  25.789  28.355  1.00  0.00     0.029 A 
ATOM     51  C   UNL A   1      42.966  26.047  27.964  1.00  0.00     0.049 A 
ATOM     52  H   UNL A   1      44.024  27.832  28.155  1.00  0.00     0.167 HD
ATOM     53  C   UNL A   1      45.997  31.739  28.216  1.00  0.00     0.037 A 
ATOM     54  C   UNL A   1      43.799  25.147  27.406  1.00  0.00     0.037 A 
ATOM     55  C   UNL A   1      46.994  30.817  27.738  1.00  0.00     0.049 A 
ATOM     56  C   UNL A   1      45.205  25.557  27.065  1.00  0.00     0.074 A 
ATOM     57  C   UNL A   1      48.322  31.067  27.440  1.00  0.00     0.029 A 
ATOM     58  N   UNL A   1      46.774  29.470  27.493  1.00  0.00    -0.354 N 
ATOM     59  N   UNL A   1      45.772  26.733  27.188  1.00  0.00    -0.248 NA
ATOM     60  C   UNL A   1      46.090  24.518  26.520  1.00  0.00     0.031 C 
ATOM     61  C   UNL A   1      48.900  29.877  26.985  1.00  0.00     0.029 A 
ATOM     62  C   UNL A   1      47.940  28.879  27.032  1.00  0.00     0.049 A 
ATOM     63  H   UNL A   1      45.919  29.004  27.626  1.00  0.00     0.167 HD
ATOM     64  C   UNL A   1      47.083  26.570  26.758  1.00  0.00     0.074 A 
ATOM     65  C   UNL A   1      47.231  25.179  26.383  1.00  0.00     0.031 C 
ATOM     66  C   UNL A   1      48.075  27.489  26.678  1.00  0.00     0.037 A 
BRANCH  53  67
ATOM     67  C   UNL A   1      46.379  33.187  28.333  1.00  0.00     0.058 A 
ATOM     68  C   UNL A   1      46.193  34.084  27.270  1.00  0.00     0.135 A 
ATOM     69  C   UNL A   1      46.868  33.697  29.547  1.00  0.00     0.135 A 
ATOM     70  F   UNL A   1      45.743  33.643  26.085  1.00  0.00    -0.206 F 
ATOM     71  C   UNL A   1      46.490  35.436  27.402  1.00  0.00     0.059 A 
ATOM     72  C   UNL A   1      47.152  35.051  29.707  1.00  0.00     0.059 A 
ATOM     73  F   UNL A   1      47.065  32.881  30.594  1.00  0.00    -0.206 F 
ATOM     74  C   UNL A   1      46.965  35.911  28.626  1.00  0.00     0.060 A 
BRANCH  74  75
ATOM     75  S   UNL A   1      47.310  37.676  28.792  1.00  0.00     0.124 S 
ATOM     76  O   UNL A   1      47.132  38.137  27.419  1.00  0.00    -0.237 OA
ATOM     77  O   UNL A   1      46.288  38.107  29.742  1.00  0.00    -0.237 OA
ATOM     78  O   UNL A   1      48.681  37.709  29.292  1.00  0.00    -0.744 OA
ENDBRANCH  74  75
ENDBRANCH  53  67
BRANCH  54  79
ATOM     79  C   UNL A   1      43.331  23.761  27.142  1.00  0.00     0.058 A 
ATOM     80  C   UNL A   1      42.964  23.356  25.852  1.00  0.00     0.135 A 
ATOM     81  C   UNL A   1      43.232  22.819  28.178  1.00  0.00     0.135 A 
ATOM     82  F   UNL A   1      43.037  24.222  24.831  1.00  0.00    -0.206 F 
ATOM     83  C   UNL A   1      42.488  22.073  25.598  1.00  0.00     0.059 A 
ATOM     84  C   UNL A   1      42.782  21.523  27.945  1.00  0.00     0.059 A 
ATOM     85  F   UNL A   1      43.591  23.153  29.428  1.00  0.00    -0.206 F 
ATOM     86  C   UNL A   1      42.396  21.164  26.654  1.00  0.00     0.060 A 
BRANCH  86  87
ATOM     87  S   UNL A   1      41.807  19.491  26.316  1.00  0.00     0.124 S 
ATOM     88  O   UNL A   1      40.368  19.706  26.203  1.00  0.00    -0.237 OA
ATOM     89  O   UNL A   1      42.502  19.162  25.075  1.00  0.00    -0.237 OA
ATOM     90  O   UNL A   1      42.246  18.740  27.487  1.00  0.00    -0.744 OA
ENDBRANCH  86  87
ENDBRANCH  54  79
BRANCH  66  91
ATOM     91  C   UNL A   1      49.419  27.019  26.203  1.00  0.00     0.058 A 
ATOM     92  C   UNL A   1      50.345  26.432  27.080  1.00  0.00     0.135 A 
ATOM     93  C   UNL A   1      49.764  27.108  24.845  1.00  0.00     0.135 A 
ATOM     94  F   UNL A   1      50.064  26.331  28.389  1.00  0.00    -0.206 F 
ATOM     95  C   UNL A   1      51.576  25.966  26.629  1.00  0.00     0.059 A 
ATOM     96  C   UNL A   1      50.979  26.628  24.369  1.00  0.00     0.059 A 
ATOM     97  F   UNL A   1      48.909  27.652  23.965  1.00  0.00    -0.206 F 
ATOM     98  C   UNL A   1      51.883  26.067  25.271  1.00  0.00     0.060 A 
BRANCH  98  99
ATOM     99  S   UNL A   1      53.467  25.426  24.688  1.00  0.00     0.124 S 
ATOM    100  O   UNL A   1      54.411  26.229  25.456  1.00  0.00    -0.237 OA
ATOM    101  O   UNL A   1      53.391  24.015  25.055  1.00  0.00    -0.237 OA
ATOM    102  O   UNL A   1      53.433  25.695  23.253  1.00  0.00    -0.744 OA
ENDBRANCH  98  99
ENDBRANCH  66  91
ENDBRANCH  40  41
ENDBRANCH  32  35
ENDBRANCH  30  31
ENDBRANCH  29  30
ENDBRANCH   1  29
TORSDOF 18
ENDMDL
MODEL 3
REMARK VINA RESULT:     -12.6      1.339      4.047
REMARK SMILES CCc1ccc2c(CC(=O)NCCCCNC(=O)c3ccc(-c4c5nc(c(-c6c(F)cc(S(=O)(=O)[O-])cc6F)c6ccc([nH]6)c(-c6c(F)cc(S(=O)(=O)[O-])cc6F)c6nc(c(-c7c(F)cc(S(=O)(=O)[O-])cc7F)c7ccc4[nH]7)C=C6)C=C5)cc3)c(C(=O)c3cc(C)ccn3)[nH]c2c1
REMARK SMILES IDX 13 1 12 2 11 3 9 4 10 5 8 7 7 8 3 9 4 10 97 11 5 12 96 13
REMARK SMILES IDX 6 14 95 15 85 16 2 18 1 19 86 20 87 21 88 22 89 23 94 24
REMARK SMILES IDX 90 25 93 26 91 27 92 28 14 29 15 30 16 31 17 32 18 34 19 35
REMARK SMILES IDX 20 36 84 37 21 38 83 39 22 40 23 41 24 42 77 43 25 44 82 45
REMARK SMILES IDX 76 46 78 47 26 48 81 49 75 50 74 51 27 53 61 54 40 55 60 56
REMARK SMILES IDX 41 57 44 58 59 59 79 60 42 61 43 62 58 64 80 65 45 66 28 67
REMARK SMILES IDX 29 68 38 69 30 70 31 71 37 72 39 73 32 74 33 75 34 76 35 77
REMARK SMILES IDX 36 78 62 79 63 80 72 81 64 82 65 83 71 84 73 85 66 86 67 87
REMARK SMILES IDX 68 88 69 89 70 90 46 91 47 92 56 93 48 94 49 95 55 96 57 97
REMARK SMILES IDX 50 98 51 99 52 100 53 101 54 102
REMARK H PARENT 11 6 95 17 16 33 78 52 44 63
REMARK Flexibility Score: inf
ROOT
ATOM      1  C   UNL A   1      36.790  23.332  24.578  1.00  0.00     0.023 C 
ENDROOT
BRANCH   1   2
ATOM      2  C   UNL A   1      35.482  24.093  24.777  1.00  0.00     0.116 C 
BRANCH   2   3
ATOM      3  N   UNL A   1      34.806  24.383  23.530  1.00  0.00    -0.356 N 
ATOM      4  C   UNL A   1      33.840  25.310  23.258  1.00  0.00     0.224 C 
ATOM      5  O   UNL A   1      33.585  25.520  22.069  1.00  0.00    -0.275 OA
ATOM      6  H   UNL A   1      35.085  23.831  22.765  1.00  0.00     0.163 HD
BRANCH   4   7
ATOM      7  C   UNL A   1      33.213  26.156  24.362  1.00  0.00     0.138 C 
BRANCH   7   8
ATOM      8  C   UNL A   1      31.713  26.291  24.308  1.00  0.00    -0.002 A 
ATOM      9  C   UNL A   1      29.053  29.131  22.634  1.00  0.00    -0.046 A 
ATOM     10  C   UNL A   1      30.412  29.333  22.371  1.00  0.00     0.004 A 
ATOM     11  C   UNL A   1      28.653  28.018  23.395  1.00  0.00     0.030 A 
ATOM     12  C   UNL A   1      31.386  28.456  22.863  1.00  0.00     0.011 A 
ATOM     13  C   UNL A   1      29.645  27.152  23.880  1.00  0.00     0.046 A 
ATOM     14  C   UNL A   1      30.999  27.343  23.638  1.00  0.00     0.004 A 
ATOM     15  N   UNL A   1      29.533  26.021  24.651  1.00  0.00    -0.352 N 
ATOM     16  C   UNL A   1      30.761  25.415  24.832  1.00  0.00     0.093 A 
ATOM     17  H   UNL A   1      28.687  25.685  25.027  1.00  0.00     0.167 HD
BRANCH   9  18
ATOM     18  C   UNL A   1      28.033  30.081  22.047  1.00  0.00     0.032 C 
ATOM     19  C   UNL A   1      27.642  31.224  22.973  1.00  0.00     0.009 C 
ENDBRANCH   9  18
BRANCH  16  20
ATOM     20  C   UNL A   1      30.977  24.124  25.480  1.00  0.00     0.227 C 
ATOM     21  O   UNL A   1      30.698  23.910  26.658  1.00  0.00    -0.285 OA
BRANCH  20  22
ATOM     22  C   UNL A   1      31.643  23.028  24.724  1.00  0.00     0.113 A 
ATOM     23  C   UNL A   1      32.563  22.200  25.365  1.00  0.00     0.036 A 
ATOM     24  N   UNL A   1      31.270  22.878  23.430  1.00  0.00    -0.253 NA
ATOM     25  C   UNL A   1      33.144  21.162  24.634  1.00  0.00    -0.047 A 
ATOM     26  C   UNL A   1      31.820  21.848  22.756  1.00  0.00     0.112 A 
ATOM     27  C   UNL A   1      34.136  20.230  25.261  1.00  0.00     0.044 C 
ATOM     28  C   UNL A   1      32.750  20.978  23.305  1.00  0.00     0.023 A 
ENDBRANCH  20  22
ENDBRANCH  16  20
ENDBRANCH   7   8
ENDBRANCH   4   7
ENDBRANCH   2   3
ENDBRANCH   1   2
BRANCH   1  29
ATOM     29  C   UNL A   1      37.528  22.957  25.865  1.00  0.00     0.023 C 
BRANCH  29  30
ATOM     30  C   UNL A   1      38.417  24.045  26.461  1.00  0.00     0.116 C 
BRANCH  30  31
ATOM     31  N   UNL A   1      39.828  23.874  26.147  1.00  0.00    -0.352 N 
ATOM     32  C   UNL A   1      40.901  24.620  26.572  1.00  0.00     0.251 C 
ATOM     33  H   UNL A   1      40.042  23.121  25.551  1.00  0.00     0.163 HD
ATOM     34  O   UNL A   1      42.023  24.388  26.126  1.00  0.00    -0.269 OA
BRANCH  32  35
ATOM     35  C   UNL A   1      40.698  25.728  27.532  1.00  0.00     0.039 A 
ATOM     36  C   UNL A   1      39.719  25.590  28.519  1.00  0.00     0.014 A 
ATOM     37  C   UNL A   1      41.475  26.888  27.471  1.00  0.00     0.014 A 
ATOM     38  C   UNL A   1      39.568  26.583  29.491  1.00  0.00     0.010 A 
ATOM     39  C   UNL A   1      41.363  27.851  28.474  1.00  0.00     0.010 A 
ATOM     40  C   UNL A   1      40.414  27.704  29.498  1.00  0.00    -0.014 A 
BRANCH  40  41
ATOM     41  C   UNL A   1      40.338  28.721  30.579  1.00  0.00     0.031 A 
ATOM     42  C   UNL A   1      41.185  28.580  31.813  1.00  0.00     0.074 A 
ATOM     43  C   UNL A   1      39.443  29.725  30.484  1.00  0.00     0.049 A 
ATOM     44  N   UNL A   1      41.188  29.310  32.898  1.00  0.00    -0.248 NA
ATOM     45  C   UNL A   1      42.132  27.453  31.846  1.00  0.00     0.031 C 
ATOM     46  C   UNL A   1      38.519  29.933  29.365  1.00  0.00     0.029 A 
ATOM     47  N   UNL A   1      39.145  30.746  31.351  1.00  0.00    -0.354 N 
ATOM     48  C   UNL A   1      42.111  28.719  33.753  1.00  0.00     0.074 A 
ATOM     49  C   UNL A   1      42.630  27.552  33.071  1.00  0.00     0.031 C 
ATOM     50  C   UNL A   1      37.759  31.011  29.616  1.00  0.00     0.029 A 
ATOM     51  C   UNL A   1      38.122  31.557  30.920  1.00  0.00     0.049 A 
ATOM     52  H   UNL A   1      39.620  30.885  32.202  1.00  0.00     0.167 HD
ATOM     53  C   UNL A   1      42.501  29.121  34.986  1.00  0.00     0.037 A 
ATOM     54  C   UNL A   1      37.531  32.612  31.515  1.00  0.00     0.037 A 
ATOM     55  C   UNL A   1      42.021  30.311  35.639  1.00  0.00     0.049 A 
ATOM     56  C   UNL A   1      38.021  33.068  32.862  1.00  0.00     0.074 A 
ATOM     57  C   UNL A   1      42.428  30.852  36.846  1.00  0.00     0.029 A 
ATOM     58  N   UNL A   1      41.031  31.144  35.140  1.00  0.00    -0.354 N 
ATOM     59  N   UNL A   1      38.957  32.546  33.616  1.00  0.00    -0.248 NA
ATOM     60  C   UNL A   1      37.384  34.263  33.434  1.00  0.00     0.031 C 
ATOM     61  C   UNL A   1      41.663  31.997  37.093  1.00  0.00     0.029 A 
ATOM     62  C   UNL A   1      40.804  32.187  36.023  1.00  0.00     0.049 A 
ATOM     63  H   UNL A   1      40.560  31.013  34.287  1.00  0.00     0.167 HD
ATOM     64  C   UNL A   1      39.037  33.359  34.740  1.00  0.00     0.074 A 
ATOM     65  C   UNL A   1      38.063  34.417  34.562  1.00  0.00     0.031 C 
ATOM     66  C   UNL A   1      39.842  33.241  35.823  1.00  0.00     0.037 A 
BRANCH  53  67
ATOM     67  C   UNL A   1      43.510  28.280  35.714  1.00  0.00     0.058 A 
ATOM     68  C   UNL A   1      43.116  27.264  36.600  1.00  0.00     0.135 A 
ATOM     69  C   UNL A   1      44.883  28.442  35.468  1.00  0.00     0.135 A 
ATOM     70  F   UNL A   1      41.817  27.079  36.880  1.00  0.00    -0.206 F 
ATOM     71  C   UNL A   1      44.050  26.446  37.225  1.00  0.00     0.059 A 
ATOM     72  C   UNL A   1      45.833  27.620  36.067  1.00  0.00     0.059 A 
ATOM     73  F   UNL A   1      45.311  29.400  34.631  1.00  0.00    -0.206 F 
ATOM     74  C   UNL A   1      45.407  26.628  36.950  1.00  0.00     0.060 A 
BRANCH  74  75
ATOM     75  S   UNL A   1      46.604  25.533  37.741  1.00  0.00     0.124 S 
ATOM     76  O   UNL A   1      45.726  24.556  38.379  1.00  0.00    -0.237 OA
ATOM     77  O   UNL A   1      47.378  25.041  36.605  1.00  0.00    -0.237 OA
ATOM     78  O   UNL A   1      47.325  26.417  38.651  1.00  0.00    -0.744 OA
ENDBRANCH  74  75
ENDBRANCH  53  67
BRANCH  54  79
ATOM     79  C   UNL A   1      36.412  33.320  30.839  1.00  0.00     0.058 A 
ATOM     80  C   UNL A   1      36.648  34.161  29.742  1.00  0.00     0.135 A 
ATOM     81  C   UNL A   1      35.089  33.178  31.284  1.00  0.00     0.135 A 
ATOM     82  F   UNL A   1      37.896  34.332  29.283  1.00  0.00    -0.206 F 
ATOM     83  C   UNL A   1      35.614  34.860  29.124  1.00  0.00     0.059 A 
ATOM     84  C   UNL A   1      34.036  33.848  30.668  1.00  0.00     0.059 A 
ATOM     85  F   UNL A   1      34.810  32.370  32.318  1.00  0.00    -0.206 F 
ATOM     86  C   UNL A   1      34.311  34.699  29.598  1.00  0.00     0.060 A 
BRANCH  86  87
ATOM     87  S   UNL A   1      32.969  35.584  28.774  1.00  0.00     0.124 S 
ATOM     88  O   UNL A   1      32.363  34.522  27.981  1.00  0.00    -0.237 OA
ATOM     89  O   UNL A   1      32.179  36.069  29.902  1.00  0.00    -0.237 OA
ATOM     90  O   UNL A   1      33.667  36.620  28.019  1.00  0.00    -0.744 OA
ENDBRANCH  86  87
ENDBRANCH  54  79
BRANCH  66  91
ATOM     91  C   UNL A   1      39.736  34.297  36.885  1.00  0.00     0.058 A 
ATOM     92  C   UNL A   1      38.947  34.110  38.031  1.00  0.00     0.135 A 
ATOM     93  C   UNL A   1      40.472  35.487  36.781  1.00  0.00     0.135 A 
ATOM     94  F   UNL A   1      38.217  32.992  38.173  1.00  0.00    -0.206 F 
ATOM     95  C   UNL A   1      38.877  35.077  39.029  1.00  0.00     0.059 A 
ATOM     96  C   UNL A   1      40.436  36.456  37.777  1.00  0.00     0.059 A 
ATOM     97  F   UNL A   1      41.250  35.709  35.708  1.00  0.00    -0.206 F 
ATOM     98  C   UNL A   1      39.627  36.247  38.894  1.00  0.00     0.060 A 
BRANCH  98  99
ATOM     99  S   UNL A   1      39.561  37.479  40.211  1.00  0.00     0.124 S 
ATOM    100  O   UNL A   1      40.641  38.380  39.826  1.00  0.00    -0.237 OA
ATOM    101  O   UNL A   1      38.210  38.016  40.075  1.00  0.00    -0.237 OA
ATOM    102  O   UNL A   1      39.796  36.694  41.420  1.00  0.00    -0.744 OA
ENDBRANCH  98  99
ENDBRANCH  66  91
ENDBRANCH  40  41
ENDBRANCH  32  35
ENDBRANCH  30  31
ENDBRANCH  29  30
ENDBRANCH   1  29
TORSDOF 18
ENDMDL
