MODEL 1
REMARK VINA RESULT:     -13.4      0.000      0.000
REMARK SMILES Cc1cc(C)n(-c2nc(C)c(C)c(Oc3cccc(C(=O)NCCCCNC(=O)c4ccc(-c5c6nc(c(-c7c(F)cc(S(=O)(=O)[O-])cc7F)c7ccc([nH]7)c(-c7c(F)cc(S(=O)(=O)[O-])cc7F)c7nc(c(-c8c(F)cc(S(=O)(=O)[O-])cc8F)c8ccc5[nH]8)C=C7)C=C6)cc4)c3)n2)n1
REMARK SMILES IDX 24 1 23 2 22 3 20 4 21 5 19 7 15 8 16 9 96 10 17 11 18 12
REMARK SMILES IDX 14 13 13 14 7 15 8 16 97 17 9 18 10 19 11 20 12 21 6 22 1 23
REMARK SMILES IDX 2 24 3 25 98 26 4 27 5 28 25 29 26 30 27 31 28 32 29 34
REMARK SMILES IDX 30 35 31 36 95 37 32 38 94 39 33 40 34 41 35 42 88 43 36 44
REMARK SMILES IDX 93 45 87 46 89 47 37 48 92 49 86 50 85 51 38 53 72 54 51 55
REMARK SMILES IDX 71 56 52 57 55 58 70 59 90 60 53 61 54 62 69 64 91 65 56 66
REMARK SMILES IDX 39 67 40 68 49 69 41 70 42 71 48 72 50 73 43 74 44 75 45 76
REMARK SMILES IDX 46 77 47 78 73 79 74 80 83 81 75 82 76 83 82 84 84 85 77 86
REMARK SMILES IDX 78 87 79 88 80 89 81 90 57 91 58 92 67 93 59 94 60 95 66 96
REMARK SMILES IDX 68 97 61 98 62 99 63 100 64 101 65 102
REMARK H PARENT 22 6 27 33 89 52 55 63
REMARK Flexibility Score: inf
ROOT
ATOM      1  C   UNL A   1      35.466  22.303  24.207  1.00  0.00     0.023 C 
ENDROOT
BRANCH   1   2
ATOM      2  C   UNL A   1      34.798  23.229  23.184  1.00  0.00     0.116 C 
BRANCH   2   3
ATOM      3  N   UNL A   1      33.606  22.614  22.638  1.00  0.00    -0.352 N 
ATOM      4  C   UNL A   1      32.326  22.443  23.095  1.00  0.00     0.251 C 
ATOM      5  O   UNL A   1      31.573  21.785  22.371  1.00  0.00    -0.269 OA
ATOM      6  H   UNL A   1      33.746  22.235  21.740  1.00  0.00     0.163 HD
BRANCH   4   7
ATOM      7  C   UNL A   1      31.779  23.011  24.364  1.00  0.00     0.043 A 
ATOM      8  C   UNL A   1      30.622  24.649  25.731  1.00  0.00     0.130 A 
ATOM      9  C   UNL A   1      30.725  23.822  26.849  1.00  0.00     0.047 A 
ATOM     10  C   UNL A   1      31.216  24.279  24.518  1.00  0.00     0.061 A 
ATOM     11  C   UNL A   1      31.354  22.589  26.738  1.00  0.00     0.005 A 
ATOM     12  C   UNL A   1      31.854  22.180  25.499  1.00  0.00     0.014 A 
BRANCH   8  13
ATOM     13  O   UNL A   1      30.013  25.865  25.928  1.00  0.00    -0.439 OA
BRANCH  13  14
ATOM     14  C   UNL A   1      30.676  27.031  25.536  1.00  0.00     0.227 A 
ATOM     15  C   UNL A   1      32.235  28.670  25.873  1.00  0.00     0.254 A 
ATOM     16  N   UNL A   1      31.891  29.289  24.721  1.00  0.00    -0.216 NA
ATOM     17  N   UNL A   1      31.678  27.519  26.297  1.00  0.00    -0.175 NA
ATOM     18  C   UNL A   1      30.975  28.701  23.926  1.00  0.00     0.050 A 
ATOM     19  C   UNL A   1      30.857  29.307  22.558  1.00  0.00     0.067 C 
ATOM     20  C   UNL A   1      30.276  27.573  24.321  1.00  0.00     0.033 A 
ATOM     21  C   UNL A   1      29.193  26.964  23.488  1.00  0.00     0.052 C 
BRANCH  15  22
ATOM     22  N   UNL A   1      33.269  29.300  26.659  1.00  0.00    -0.203 N 
ATOM     23  C   UNL A   1      36.656  29.352  27.775  1.00  0.00     0.069 C 
ATOM     24  C   UNL A   1      35.228  29.617  27.465  1.00  0.00     0.060 A 
ATOM     25  C   UNL A   1      34.543  30.836  27.624  1.00  0.00     0.049 A 
ATOM     26  N   UNL A   1      34.432  28.656  26.976  1.00  0.00    -0.170 NA
ATOM     27  C   UNL A   1      33.276  30.609  27.135  1.00  0.00     0.045 A 
ATOM     28  C   UNL A   1      32.089  31.500  27.131  1.00  0.00     0.067 C 
ENDBRANCH  15  22
ENDBRANCH  13  14
ENDBRANCH   8  13
ENDBRANCH   4   7
ENDBRANCH   2   3
ENDBRANCH   1   2
BRANCH   1  29
ATOM     29  C   UNL A   1      36.988  22.487  24.346  1.00  0.00     0.023 C 
BRANCH  29  30
ATOM     30  C   UNL A   1      37.447  22.981  25.714  1.00  0.00     0.116 C 
BRANCH  30  31
ATOM     31  N   UNL A   1      38.420  22.086  26.341  1.00  0.00    -0.352 N 
ATOM     32  C   UNL A   1      39.673  22.405  26.819  1.00  0.00     0.251 C 
ATOM     33  H   UNL A   1      38.149  21.144  26.432  1.00  0.00     0.163 HD
ATOM     34  O   UNL A   1      40.536  21.534  26.956  1.00  0.00    -0.269 OA
BRANCH  32  35
ATOM     35  C   UNL A   1      39.957  23.801  27.178  1.00  0.00     0.039 A 
ATOM     36  C   UNL A   1      39.015  24.814  26.988  1.00  0.00     0.014 A 
ATOM     37  C   UNL A   1      41.192  24.073  27.765  1.00  0.00     0.014 A 
ATOM     38  C   UNL A   1      39.300  26.088  27.471  1.00  0.00     0.010 A 
ATOM     39  C   UNL A   1      41.406  25.286  28.371  1.00  0.00     0.010 A 
ATOM     40  C   UNL A   1      40.490  26.313  28.185  1.00  0.00    -0.014 A 
BRANCH  40  41
ATOM     41  C   UNL A   1      40.731  27.594  28.840  1.00  0.00     0.031 A 
ATOM     42  C   UNL A   1      41.777  28.430  28.187  1.00  0.00     0.074 A 
ATOM     43  C   UNL A   1      39.960  28.076  29.839  1.00  0.00     0.049 A 
ATOM     44  N   UNL A   1      42.970  28.663  28.620  1.00  0.00    -0.248 NA
ATOM     45  C   UNL A   1      41.542  28.919  26.818  1.00  0.00     0.031 C 
ATOM     46  C   UNL A   1      38.716  27.524  30.388  1.00  0.00     0.029 A 
ATOM     47  N   UNL A   1      40.085  29.245  30.523  1.00  0.00    -0.354 N 
ATOM     48  C   UNL A   1      43.551  29.538  27.704  1.00  0.00     0.074 A 
ATOM     49  C   UNL A   1      42.717  29.489  26.534  1.00  0.00     0.031 C 
ATOM     50  C   UNL A   1      38.087  28.467  31.125  1.00  0.00     0.029 A 
ATOM     51  C   UNL A   1      38.957  29.622  31.244  1.00  0.00     0.049 A 
ATOM     52  H   UNL A   1      40.910  29.782  30.508  1.00  0.00     0.167 HD
ATOM     53  C   UNL A   1      44.526  30.409  28.095  1.00  0.00     0.037 A 
ATOM     54  C   UNL A   1      38.744  30.812  31.863  1.00  0.00     0.037 A 
ATOM     55  C   UNL A   1      45.046  30.043  29.392  1.00  0.00     0.049 A 
ATOM     56  C   UNL A   1      40.087  31.409  32.104  1.00  0.00     0.074 A 
ATOM     57  C   UNL A   1      45.645  28.912  29.915  1.00  0.00     0.029 A 
ATOM     58  N   UNL A   1      44.620  30.775  30.477  1.00  0.00    -0.354 N 
ATOM     59  N   UNL A   1      40.978  30.878  32.902  1.00  0.00    -0.248 NA
ATOM     60  C   UNL A   1      40.621  32.291  31.077  1.00  0.00     0.031 C 
ATOM     61  C   UNL A   1      45.096  28.783  31.224  1.00  0.00     0.029 A 
ATOM     62  C   UNL A   1      44.268  29.883  31.456  1.00  0.00     0.049 A 
ATOM     63  H   UNL A   1      44.577  31.756  30.538  1.00  0.00     0.167 HD
ATOM     64  C   UNL A   1      42.184  31.001  32.224  1.00  0.00     0.074 A 
ATOM     65  C   UNL A   1      41.909  31.938  31.133  1.00  0.00     0.031 C 
ATOM     66  C   UNL A   1      43.210  30.118  32.417  1.00  0.00     0.037 A 
BRANCH  53  67
ATOM     67  C   UNL A   1      44.737  31.798  27.530  1.00  0.00     0.058 A 
ATOM     68  C   UNL A   1      45.906  32.048  26.775  1.00  0.00     0.135 A 
ATOM     69  C   UNL A   1      44.034  32.947  27.950  1.00  0.00     0.135 A 
ATOM     70  F   UNL A   1      46.641  31.031  26.294  1.00  0.00    -0.206 F 
ATOM     71  C   UNL A   1      46.407  33.332  26.573  1.00  0.00     0.059 A 
ATOM     72  C   UNL A   1      44.489  34.240  27.713  1.00  0.00     0.059 A 
ATOM     73  F   UNL A   1      42.923  32.882  28.692  1.00  0.00    -0.206 F 
ATOM     74  C   UNL A   1      45.701  34.421  27.071  1.00  0.00     0.060 A 
BRANCH  74  75
ATOM     75  S   UNL A   1      46.415  36.067  26.930  1.00  0.00     0.124 S 
ATOM     76  O   UNL A   1      45.225  36.879  26.698  1.00  0.00    -0.237 OA
ATOM     77  O   UNL A   1      47.056  36.227  28.231  1.00  0.00    -0.237 OA
ATOM     78  O   UNL A   1      47.327  35.941  25.798  1.00  0.00    -0.744 OA
ENDBRANCH  74  75
ENDBRANCH  53  67
BRANCH  54  79
ATOM     79  C   UNL A   1      37.474  31.595  31.873  1.00  0.00     0.058 A 
ATOM     80  C   UNL A   1      36.820  31.939  33.069  1.00  0.00     0.135 A 
ATOM     81  C   UNL A   1      37.008  32.250  30.711  1.00  0.00     0.135 A 
ATOM     82  F   UNL A   1      37.210  31.390  34.231  1.00  0.00    -0.206 F 
ATOM     83  C   UNL A   1      35.789  32.892  33.117  1.00  0.00     0.059 A 
ATOM     84  C   UNL A   1      35.980  33.192  30.732  1.00  0.00     0.059 A 
ATOM     85  F   UNL A   1      37.596  32.055  29.522  1.00  0.00    -0.206 F 
ATOM     86  C   UNL A   1      35.387  33.526  31.942  1.00  0.00     0.060 A 
BRANCH  86  87
ATOM     87  S   UNL A   1      34.157  34.852  32.009  1.00  0.00     0.124 S 
ATOM     88  O   UNL A   1      33.932  35.129  30.594  1.00  0.00    -0.237 OA
ATOM     89  O   UNL A   1      33.054  34.213  32.716  1.00  0.00    -0.237 OA
ATOM     90  O   UNL A   1      34.838  35.911  32.748  1.00  0.00    -0.744 OA
ENDBRANCH  86  87
ENDBRANCH  54  79
BRANCH  66  91
ATOM     91  C   UNL A   1      43.154  29.159  33.579  1.00  0.00     0.058 A 
ATOM     92  C   UNL A   1      43.479  29.491  34.907  1.00  0.00     0.135 A 
ATOM     93  C   UNL A   1      42.541  27.913  33.365  1.00  0.00     0.135 A 
ATOM     94  F   UNL A   1      43.976  30.696  35.216  1.00  0.00    -0.206 F 
ATOM     95  C   UNL A   1      43.225  28.615  35.967  1.00  0.00     0.059 A 
ATOM     96  C   UNL A   1      42.250  27.040  34.408  1.00  0.00     0.059 A 
ATOM     97  F   UNL A   1      42.151  27.562  32.129  1.00  0.00    -0.206 F 
ATOM     98  C   UNL A   1      42.601  27.394  35.708  1.00  0.00     0.060 A 
BRANCH  98  99
ATOM     99  S   UNL A   1      42.192  26.302  37.087  1.00  0.00     0.124 S 
ATOM    100  O   UNL A   1      43.174  26.695  38.093  1.00  0.00    -0.237 OA
ATOM    101  O   UNL A   1      40.808  26.665  37.378  1.00  0.00    -0.237 OA
ATOM    102  O   UNL A   1      42.372  24.964  36.531  1.00  0.00    -0.744 OA
ENDBRANCH  98  99
ENDBRANCH  66  91
ENDBRANCH  40  41
ENDBRANCH  32  35
ENDBRANCH  30  31
ENDBRANCH  29  30
ENDBRANCH   1  29
TORSDOF 17
ENDMDL
MODEL 2
REMARK VINA RESULT:     -13.2      1.287      2.683
REMARK SMILES Cc1cc(C)n(-c2nc(C)c(C)c(Oc3cccc(C(=O)NCCCCNC(=O)c4ccc(-c5c6nc(c(-c7c(F)cc(S(=O)(=O)[O-])cc7F)c7ccc([nH]7)c(-c7c(F)cc(S(=O)(=O)[O-])cc7F)c7nc(c(-c8c(F)cc(S(=O)(=O)[O-])cc8F)c8ccc5[nH]8)C=C7)C=C6)cc4)c3)n2)n1
REMARK SMILES IDX 24 1 23 2 22 3 20 4 21 5 19 7 15 8 16 9 96 10 17 11 18 12
REMARK SMILES IDX 14 13 13 14 7 15 8 16 97 17 9 18 10 19 11 20 12 21 6 22 1 23
REMARK SMILES IDX 2 24 3 25 98 26 4 27 5 28 25 29 26 30 27 31 28 32 29 34
REMARK SMILES IDX 30 35 31 36 95 37 32 38 94 39 33 40 34 41 35 42 88 43 36 44
REMARK SMILES IDX 93 45 87 46 89 47 37 48 92 49 86 50 85 51 38 53 72 54 51 55
REMARK SMILES IDX 71 56 52 57 55 58 70 59 90 60 53 61 54 62 69 64 91 65 56 66
REMARK SMILES IDX 39 67 40 68 49 69 41 70 42 71 48 72 50 73 43 74 44 75 45 76
REMARK SMILES IDX 46 77 47 78 73 79 74 80 83 81 75 82 76 83 82 84 84 85 77 86
REMARK SMILES IDX 78 87 79 88 80 89 81 90 57 91 58 92 67 93 59 94 60 95 66 96
REMARK SMILES IDX 68 97 61 98 62 99 63 100 64 101 65 102
REMARK H PARENT 22 6 27 33 89 52 55 63
REMARK Flexibility Score: inf
ROOT
ATOM      1  C   UNL A   1      36.309  20.730  24.912  1.00  0.00     0.023 C 
ENDROOT
BRANCH   1   2
ATOM      2  C   UNL A   1      34.797  20.544  25.090  1.00  0.00     0.116 C 
BRANCH   2   3
ATOM      3  N   UNL A   1      34.346  21.168  26.317  1.00  0.00    -0.352 N 
ATOM      4  C   UNL A   1      33.665  22.321  26.606  1.00  0.00     0.251 C 
ATOM      5  O   UNL A   1      33.517  22.579  27.804  1.00  0.00    -0.269 OA
ATOM      6  H   UNL A   1      34.580  20.648  27.120  1.00  0.00     0.163 HD
BRANCH   4   7
ATOM      7  C   UNL A   1      33.075  23.251  25.598  1.00  0.00     0.043 A 
ATOM      8  C   UNL A   1      32.954  25.281  24.272  1.00  0.00     0.130 A 
ATOM      9  C   UNL A   1      31.855  24.784  23.571  1.00  0.00     0.047 A 
ATOM     10  C   UNL A   1      33.508  24.552  25.331  1.00  0.00     0.061 A 
ATOM     11  C   UNL A   1      31.356  23.524  23.876  1.00  0.00     0.005 A 
ATOM     12  C   UNL A   1      31.978  22.757  24.864  1.00  0.00     0.014 A 
BRANCH   8  13
ATOM     13  O   UNL A   1      33.369  26.546  23.933  1.00  0.00    -0.439 OA
BRANCH  13  14
ATOM     14  C   UNL A   1      32.578  27.641  24.291  1.00  0.00     0.227 A 
ATOM     15  C   UNL A   1      30.800  29.038  23.947  1.00  0.00     0.254 A 
ATOM     16  N   UNL A   1      31.119  29.775  25.035  1.00  0.00    -0.216 NA
ATOM     17  N   UNL A   1      31.483  27.941  23.563  1.00  0.00    -0.175 NA
ATOM     18  C   UNL A   1      32.146  29.367  25.809  1.00  0.00     0.050 A 
ATOM     19  C   UNL A   1      32.253  30.078  27.126  1.00  0.00     0.067 C 
ATOM     20  C   UNL A   1      32.966  28.314  25.443  1.00  0.00     0.033 A 
ATOM     21  C   UNL A   1      34.163  27.910  26.245  1.00  0.00     0.052 C 
BRANCH  15  22
ATOM     22  N   UNL A   1      29.653  29.473  23.188  1.00  0.00    -0.203 N 
ATOM     23  C   UNL A   1      28.237  31.714  20.801  1.00  0.00     0.069 C 
ATOM     24  C   UNL A   1      28.538  30.632  21.773  1.00  0.00     0.060 A 
ATOM     25  C   UNL A   1      27.792  29.457  21.984  1.00  0.00     0.049 A 
ATOM     26  N   UNL A   1      29.610  30.693  22.574  1.00  0.00    -0.170 NA
ATOM     27  C   UNL A   1      28.501  28.737  22.919  1.00  0.00     0.045 A 
ATOM     28  C   UNL A   1      28.152  27.464  23.597  1.00  0.00     0.067 C 
ENDBRANCH  15  22
ENDBRANCH  13  14
ENDBRANCH   8  13
ENDBRANCH   4   7
ENDBRANCH   2   3
ENDBRANCH   1   2
BRANCH   1  29
ATOM     29  C   UNL A   1      36.743  22.161  24.547  1.00  0.00     0.023 C 
BRANCH  29  30
ATOM     30  C   UNL A   1      37.547  22.877  25.628  1.00  0.00     0.116 C 
BRANCH  30  31
ATOM     31  N   UNL A   1      38.483  21.989  26.318  1.00  0.00    -0.352 N 
ATOM     32  C   UNL A   1      39.705  22.315  26.866  1.00  0.00     0.251 C 
ATOM     33  H   UNL A   1      38.208  21.048  26.401  1.00  0.00     0.163 HD
ATOM     34  O   UNL A   1      40.559  21.447  27.060  1.00  0.00    -0.269 OA
BRANCH  32  35
ATOM     35  C   UNL A   1      39.966  23.715  27.230  1.00  0.00     0.039 A 
ATOM     36  C   UNL A   1      38.954  24.678  27.212  1.00  0.00     0.014 A 
ATOM     37  C   UNL A   1      41.256  24.040  27.643  1.00  0.00     0.014 A 
ATOM     38  C   UNL A   1      39.240  25.952  27.693  1.00  0.00     0.010 A 
ATOM     39  C   UNL A   1      41.493  25.245  28.254  1.00  0.00     0.010 A 
ATOM     40  C   UNL A   1      40.507  26.224  28.237  1.00  0.00    -0.014 A 
BRANCH  40  41
ATOM     41  C   UNL A   1      40.775  27.498  28.896  1.00  0.00     0.031 A 
ATOM     42  C   UNL A   1      41.816  28.328  28.228  1.00  0.00     0.074 A 
ATOM     43  C   UNL A   1      40.028  27.982  29.912  1.00  0.00     0.049 A 
ATOM     44  N   UNL A   1      43.020  28.546  28.638  1.00  0.00    -0.248 NA
ATOM     45  C   UNL A   1      41.560  28.829  26.866  1.00  0.00     0.031 C 
ATOM     46  C   UNL A   1      38.790  27.439  30.482  1.00  0.00     0.029 A 
ATOM     47  N   UNL A   1      40.178  29.145  30.600  1.00  0.00    -0.354 N 
ATOM     48  C   UNL A   1      43.591  29.421  27.717  1.00  0.00     0.074 A 
ATOM     49  C   UNL A   1      42.734  29.388  26.563  1.00  0.00     0.031 C 
ATOM     50  C   UNL A   1      38.184  28.383  31.237  1.00  0.00     0.029 A 
ATOM     51  C   UNL A   1      39.069  29.528  31.346  1.00  0.00     0.049 A 
ATOM     52  H   UNL A   1      41.008  29.674  30.573  1.00  0.00     0.167 HD
ATOM     53  C   UNL A   1      44.583  30.280  28.094  1.00  0.00     0.037 A 
ATOM     54  C   UNL A   1      38.880  30.716  31.977  1.00  0.00     0.037 A 
ATOM     55  C   UNL A   1      45.124  29.900  29.378  1.00  0.00     0.049 A 
ATOM     56  C   UNL A   1      40.233  31.298  32.195  1.00  0.00     0.074 A 
ATOM     57  C   UNL A   1      45.722  28.760  29.883  1.00  0.00     0.029 A 
ATOM     58  N   UNL A   1      44.727  30.629  30.476  1.00  0.00    -0.354 N 
ATOM     59  N   UNL A   1      41.134  30.754  32.973  1.00  0.00    -0.248 NA
ATOM     60  C   UNL A   1      40.756  32.182  31.164  1.00  0.00     0.031 C 
ATOM     61  C   UNL A   1      45.197  28.628  31.202  1.00  0.00     0.029 A 
ATOM     62  C   UNL A   1      44.384  29.735  31.457  1.00  0.00     0.049 A 
ATOM     63  H   UNL A   1      44.695  31.610  30.544  1.00  0.00     0.167 HD
ATOM     64  C   UNL A   1      42.327  30.868  32.271  1.00  0.00     0.074 A 
ATOM     65  C   UNL A   1      42.041  31.815  31.192  1.00  0.00     0.031 C 
ATOM     66  C   UNL A   1      43.348  29.974  32.439  1.00  0.00     0.037 A 
BRANCH  53  67
ATOM     67  C   UNL A   1      44.797  31.670  27.534  1.00  0.00     0.058 A 
ATOM     68  C   UNL A   1      45.982  31.929  26.808  1.00  0.00     0.135 A 
ATOM     69  C   UNL A   1      44.074  32.813  27.936  1.00  0.00     0.135 A 
ATOM     70  F   UNL A   1      46.738  30.918  26.347  1.00  0.00    -0.206 F 
ATOM     71  C   UNL A   1      46.478  33.217  26.618  1.00  0.00     0.059 A 
ATOM     72  C   UNL A   1      44.525  34.110  27.710  1.00  0.00     0.059 A 
ATOM     73  F   UNL A   1      42.946  32.740  28.649  1.00  0.00    -0.206 F 
ATOM     74  C   UNL A   1      45.752  34.300  27.098  1.00  0.00     0.060 A 
BRANCH  74  75
ATOM     75  S   UNL A   1      46.456  35.952  26.974  1.00  0.00     0.124 S 
ATOM     76  O   UNL A   1      47.081  36.100  28.284  1.00  0.00    -0.237 OA
ATOM     77  O   UNL A   1      47.365  35.805  25.843  1.00  0.00    -0.237 OA
ATOM     78  O   UNL A   1      45.290  36.795  26.730  1.00  0.00    -0.744 OA
ENDBRANCH  74  75
ENDBRANCH  53  67
BRANCH  54  79
ATOM     79  C   UNL A   1      37.618  31.513  32.016  1.00  0.00     0.058 A 
ATOM     80  C   UNL A   1      36.974  31.829  33.226  1.00  0.00     0.135 A 
ATOM     81  C   UNL A   1      37.152  32.205  30.876  1.00  0.00     0.135 A 
ATOM     82  F   UNL A   1      37.365  31.244  34.369  1.00  0.00    -0.206 F 
ATOM     83  C   UNL A   1      35.954  32.791  33.306  1.00  0.00     0.059 A 
ATOM     84  C   UNL A   1      36.135  33.156  30.929  1.00  0.00     0.059 A 
ATOM     85  F   UNL A   1      37.732  32.037  29.678  1.00  0.00    -0.206 F 
ATOM     86  C   UNL A   1      35.552  33.462  32.151  1.00  0.00     0.060 A 
BRANCH  86  87
ATOM     87  S   UNL A   1      34.336  34.799  32.263  1.00  0.00     0.124 S 
ATOM     88  O   UNL A   1      34.146  35.152  30.861  1.00  0.00    -0.237 OA
ATOM     89  O   UNL A   1      33.211  34.138  32.912  1.00  0.00    -0.237 OA
ATOM     90  O   UNL A   1      35.014  35.809  33.072  1.00  0.00    -0.744 OA
ENDBRANCH  86  87
ENDBRANCH  54  79
BRANCH  66  91
ATOM     91  C   UNL A   1      43.305  29.008  33.596  1.00  0.00     0.058 A 
ATOM     92  C   UNL A   1      43.669  29.325  34.917  1.00  0.00     0.135 A 
ATOM     93  C   UNL A   1      42.665  27.775  33.390  1.00  0.00     0.135 A 
ATOM     94  F   UNL A   1      44.196  30.519  35.222  1.00  0.00    -0.206 F 
ATOM     95  C   UNL A   1      43.428  28.447  35.978  1.00  0.00     0.059 A 
ATOM     96  C   UNL A   1      42.385  26.900  34.435  1.00  0.00     0.059 A 
ATOM     97  F   UNL A   1      42.237  27.439  32.162  1.00  0.00    -0.206 F 
ATOM     98  C   UNL A   1      42.775  27.239  35.727  1.00  0.00     0.060 A 
BRANCH  98  99
ATOM     99  S   UNL A   1      42.382  26.145  37.109  1.00  0.00     0.124 S 
ATOM    100  O   UNL A   1      42.831  24.848  36.613  1.00  0.00    -0.237 OA
ATOM    101  O   UNL A   1      43.172  26.714  38.197  1.00  0.00    -0.237 OA
ATOM    102  O   UNL A   1      40.936  26.288  37.260  1.00  0.00    -0.744 OA
ENDBRANCH  98  99
ENDBRANCH  66  91
ENDBRANCH  40  41
ENDBRANCH  32  35
ENDBRANCH  30  31
ENDBRANCH  29  30
ENDBRANCH   1  29
TORSDOF 17
ENDMDL
MODEL 3
REMARK VINA RESULT:     -13.0      4.483     10.330
REMARK SMILES Cc1cc(C)n(-c2nc(C)c(C)c(Oc3cccc(C(=O)NCCCCNC(=O)c4ccc(-c5c6nc(c(-c7c(F)cc(S(=O)(=O)[O-])cc7F)c7ccc([nH]7)c(-c7c(F)cc(S(=O)(=O)[O-])cc7F)c7nc(c(-c8c(F)cc(S(=O)(=O)[O-])cc8F)c8ccc5[nH]8)C=C7)C=C6)cc4)c3)n2)n1
REMARK SMILES IDX 24 1 23 2 22 3 20 4 21 5 19 7 15 8 16 9 96 10 17 11 18 12
REMARK SMILES IDX 14 13 13 14 7 15 8 16 97 17 9 18 10 19 11 20 12 21 6 22 1 23
REMARK SMILES IDX 2 24 3 25 98 26 4 27 5 28 25 29 26 30 27 31 28 32 29 34
REMARK SMILES IDX 30 35 31 36 95 37 32 38 94 39 33 40 34 41 35 42 88 43 36 44
REMARK SMILES IDX 93 45 87 46 89 47 37 48 92 49 86 50 85 51 38 53 72 54 51 55
REMARK SMILES IDX 71 56 52 57 55 58 70 59 90 60 53 61 54 62 69 64 91 65 56 66
REMARK SMILES IDX 39 67 40 68 49 69 41 70 42 71 48 72 50 73 43 74 44 75 45 76
REMARK SMILES IDX 46 77 47 78 73 79 74 80 83 81 75 82 76 83 82 84 84 85 77 86
REMARK SMILES IDX 78 87 79 88 80 89 81 90 57 91 58 92 67 93 59 94 60 95 66 96
REMARK SMILES IDX 68 97 61 98 62 99 63 100 64 101 65 102
REMARK H PARENT 22 6 27 33 89 52 55 63
REMARK Flexibility Score: inf
ROOT
ATOM      1  C   UNL A   1      39.344  32.264  33.204  1.00  0.00     0.023 C 
ENDROOT
BRANCH   1   2
ATOM      2  C   UNL A   1      39.860  30.827  33.349  1.00  0.00     0.116 C 
BRANCH   2   3
ATOM      3  N   UNL A   1      38.779  29.928  33.698  1.00  0.00    -0.352 N 
ATOM      4  C   UNL A   1      37.936  29.126  32.975  1.00  0.00     0.251 C 
ATOM      5  O   UNL A   1      37.060  28.540  33.618  1.00  0.00    -0.269 OA
ATOM      6  H   UNL A   1      38.614  29.884  34.668  1.00  0.00     0.163 HD
BRANCH   4   7
ATOM      7  C   UNL A   1      38.019  28.890  31.503  1.00  0.00     0.043 A 
ATOM      8  C   UNL A   1      37.700  29.435  29.159  1.00  0.00     0.130 A 
ATOM      9  C   UNL A   1      38.397  28.289  28.775  1.00  0.00     0.047 A 
ATOM     10  C   UNL A   1      37.445  29.689  30.512  1.00  0.00     0.061 A 
ATOM     11  C   UNL A   1      38.907  27.435  29.746  1.00  0.00     0.005 A 
ATOM     12  C   UNL A   1      38.739  27.749  31.096  1.00  0.00     0.014 A 
BRANCH   8  13
ATOM     13  O   UNL A   1      37.201  30.211  28.142  1.00  0.00    -0.439 OA
BRANCH  13  14
ATOM     14  C   UNL A   1      35.975  30.858  28.318  1.00  0.00     0.227 A 
ATOM     15  C   UNL A   1      34.674  32.481  29.268  1.00  0.00     0.254 A 
ATOM     16  N   UNL A   1      33.574  32.035  28.618  1.00  0.00    -0.216 NA
ATOM     17  N   UNL A   1      35.900  31.943  29.116  1.00  0.00    -0.175 NA
ATOM     18  C   UNL A   1      33.717  31.029  27.732  1.00  0.00     0.050 A 
ATOM     19  C   UNL A   1      32.515  30.786  26.868  1.00  0.00     0.067 C 
ATOM     20  C   UNL A   1      34.913  30.348  27.581  1.00  0.00     0.033 A 
ATOM     21  C   UNL A   1      35.059  29.171  26.669  1.00  0.00     0.052 C 
BRANCH  15  22
ATOM     22  N   UNL A   1      34.486  33.604  30.155  1.00  0.00    -0.203 N 
ATOM     23  C   UNL A   1      33.001  36.785  30.787  1.00  0.00     0.069 C 
ATOM     24  C   UNL A   1      33.716  35.484  30.834  1.00  0.00     0.060 A 
ATOM     25  C   UNL A   1      34.180  34.818  31.984  1.00  0.00     0.049 A 
ATOM     26  N   UNL A   1      33.992  34.799  29.715  1.00  0.00    -0.170 NA
ATOM     27  C   UNL A   1      34.702  33.628  31.531  1.00  0.00     0.045 A 
ATOM     28  C   UNL A   1      35.418  32.563  32.277  1.00  0.00     0.067 C 
ENDBRANCH  15  22
ENDBRANCH  13  14
ENDBRANCH   8  13
ENDBRANCH   4   7
ENDBRANCH   2   3
ENDBRANCH   1   2
BRANCH   1  29
ATOM     29  C   UNL A   1      40.347  33.354  33.626  1.00  0.00     0.023 C 
BRANCH  29  30
ATOM     30  C   UNL A   1      41.490  33.581  32.642  1.00  0.00     0.116 C 
BRANCH  30  31
ATOM     31  N   UNL A   1      41.078  34.342  31.462  1.00  0.00    -0.352 N 
ATOM     32  C   UNL A   1      41.359  34.066  30.141  1.00  0.00     0.251 C 
ATOM     33  H   UNL A   1      40.537  35.146  31.631  1.00  0.00     0.163 HD
ATOM     34  O   UNL A   1      41.307  34.955  29.287  1.00  0.00    -0.269 OA
BRANCH  32  35
ATOM     35  C   UNL A   1      41.704  32.688  29.765  1.00  0.00     0.039 A 
ATOM     36  C   UNL A   1      42.980  32.351  29.307  1.00  0.00     0.014 A 
ATOM     37  C   UNL A   1      40.722  31.714  29.928  1.00  0.00     0.014 A 
ATOM     38  C   UNL A   1      43.277  31.008  29.093  1.00  0.00     0.010 A 
ATOM     39  C   UNL A   1      41.061  30.386  29.863  1.00  0.00     0.010 A 
ATOM     40  C   UNL A   1      42.319  30.026  29.397  1.00  0.00    -0.014 A 
BRANCH  40  41
ATOM     41  C   UNL A   1      42.664  28.609  29.339  1.00  0.00     0.031 A 
ATOM     42  C   UNL A   1      43.325  28.087  30.568  1.00  0.00     0.074 A 
ATOM     43  C   UNL A   1      42.264  27.786  28.346  1.00  0.00     0.049 A 
ATOM     44  N   UNL A   1      44.569  27.770  30.708  1.00  0.00    -0.248 NA
ATOM     45  C   UNL A   1      42.571  28.082  31.833  1.00  0.00     0.031 C 
ATOM     46  C   UNL A   1      41.356  28.068  27.228  1.00  0.00     0.029 A 
ATOM     47  N   UNL A   1      42.522  26.461  28.183  1.00  0.00    -0.354 N 
ATOM     48  C   UNL A   1      44.700  27.282  32.006  1.00  0.00     0.074 A 
ATOM     49  C   UNL A   1      43.508  27.691  32.700  1.00  0.00     0.031 C 
ATOM     50  C   UNL A   1      40.953  26.906  26.666  1.00  0.00     0.029 A 
ATOM     51  C   UNL A   1      41.700  25.816  27.264  1.00  0.00     0.049 A 
ATOM     52  H   UNL A   1      43.234  25.994  28.677  1.00  0.00     0.167 HD
ATOM     53  C   UNL A   1      45.668  26.370  32.314  1.00  0.00     0.037 A 
ATOM     54  C   UNL A   1      41.619  24.479  27.039  1.00  0.00     0.037 A 
ATOM     55  C   UNL A   1      46.651  26.296  31.257  1.00  0.00     0.049 A 
ATOM     56  C   UNL A   1      42.899  23.891  27.522  1.00  0.00     0.074 A 
ATOM     57  C   UNL A   1      47.496  27.205  30.651  1.00  0.00     0.029 A 
ATOM     58  N   UNL A   1      46.580  25.223  30.398  1.00  0.00    -0.354 N 
ATOM     59  N   UNL A   1      44.061  24.155  26.982  1.00  0.00    -0.248 NA
ATOM     60  C   UNL A   1      42.946  23.431  28.902  1.00  0.00     0.031 C 
ATOM     61  C   UNL A   1      47.469  26.861  29.268  1.00  0.00     0.029 A 
ATOM     62  C   UNL A   1      46.685  25.714  29.123  1.00  0.00     0.049 A 
ATOM     63  H   UNL A   1      46.474  24.278  30.653  1.00  0.00     0.167 HD
ATOM     64  C   UNL A   1      44.926  24.319  28.056  1.00  0.00     0.074 A 
ATOM     65  C   UNL A   1      44.194  23.797  29.212  1.00  0.00     0.031 C 
ATOM     66  C   UNL A   1      46.027  25.125  27.976  1.00  0.00     0.037 A 
BRANCH  53  67
ATOM     67  C   UNL A   1      45.536  25.265  33.340  1.00  0.00     0.058 A 
ATOM     68  C   UNL A   1      46.525  25.157  34.345  1.00  0.00     0.135 A 
ATOM     69  C   UNL A   1      44.692  24.143  33.202  1.00  0.00     0.135 A 
ATOM     70  F   UNL A   1      47.367  26.175  34.589  1.00  0.00    -0.206 F 
ATOM     71  C   UNL A   1      46.744  23.980  35.057  1.00  0.00     0.059 A 
ATOM     72  C   UNL A   1      44.860  22.976  33.941  1.00  0.00     0.059 A 
ATOM     73  F   UNL A   1      43.723  24.077  32.283  1.00  0.00    -0.206 F 
ATOM     74  C   UNL A   1      45.919  22.885  34.826  1.00  0.00     0.060 A 
BRANCH  74  75
ATOM     75  S   UNL A   1      46.285  21.324  35.645  1.00  0.00     0.124 S 
ATOM     76  O   UNL A   1      45.482  20.392  34.861  1.00  0.00    -0.237 OA
ATOM     77  O   UNL A   1      47.730  21.228  35.472  1.00  0.00    -0.237 OA
ATOM     78  O   UNL A   1      45.835  21.551  37.014  1.00  0.00    -0.744 OA
ENDBRANCH  74  75
ENDBRANCH  53  67
BRANCH  54  79
ATOM     79  C   UNL A   1      40.372  23.687  26.821  1.00  0.00     0.058 A 
ATOM     80  C   UNL A   1      39.096  24.276  26.879  1.00  0.00     0.135 A 
ATOM     81  C   UNL A   1      40.418  22.378  26.294  1.00  0.00     0.135 A 
ATOM     82  F   UNL A   1      38.954  25.529  27.338  1.00  0.00    -0.206 F 
ATOM     83  C   UNL A   1      37.944  23.621  26.416  1.00  0.00     0.059 A 
ATOM     84  C   UNL A   1      39.287  21.703  25.837  1.00  0.00     0.059 A 
ATOM     85  F   UNL A   1      41.585  21.738  26.128  1.00  0.00    -0.206 F 
ATOM     86  C   UNL A   1      38.053  22.338  25.881  1.00  0.00     0.060 A 
BRANCH  86  87
ATOM     87  S   UNL A   1      36.600  21.537  25.157  1.00  0.00     0.124 S 
ATOM     88  O   UNL A   1      37.043  20.152  25.041  1.00  0.00    -0.237 OA
ATOM     89  O   UNL A   1      35.574  21.795  26.160  1.00  0.00    -0.237 OA
ATOM     90  O   UNL A   1      36.420  22.239  23.889  1.00  0.00    -0.744 OA
ENDBRANCH  86  87
ENDBRANCH  54  79
BRANCH  66  91
ATOM     91  C   UNL A   1      46.480  25.630  26.629  1.00  0.00     0.058 A 
ATOM     92  C   UNL A   1      45.897  26.711  25.943  1.00  0.00     0.135 A 
ATOM     93  C   UNL A   1      47.689  25.128  26.119  1.00  0.00     0.135 A 
ATOM     94  F   UNL A   1      44.797  27.315  26.411  1.00  0.00    -0.206 F 
ATOM     95  C   UNL A   1      46.480  27.251  24.793  1.00  0.00     0.059 A 
ATOM     96  C   UNL A   1      48.303  25.672  24.996  1.00  0.00     0.059 A 
ATOM     97  F   UNL A   1      48.328  24.137  26.763  1.00  0.00    -0.206 F 
ATOM     98  C   UNL A   1      47.690  26.730  24.331  1.00  0.00     0.060 A 
BRANCH  98  99
ATOM     99  S   UNL A   1      48.488  27.487  22.899  1.00  0.00     0.124 S 
ATOM    100  O   UNL A   1      48.803  26.325  22.074  1.00  0.00    -0.237 OA
ATOM    101  O   UNL A   1      47.443  28.365  22.382  1.00  0.00    -0.237 OA
ATOM    102  O   UNL A   1      49.642  28.175  23.472  1.00  0.00    -0.744 OA
ENDBRANCH  98  99
ENDBRANCH  66  91
ENDBRANCH  40  41
ENDBRANCH  32  35
ENDBRANCH  30  31
ENDBRANCH  29  30
ENDBRANCH   1  29
TORSDOF 17
ENDMDL
