MODEL 1
REMARK VINA RESULT:     -11.4      0.000      0.000
REMARK SMILES C[C@@H](C(=O)NCCCCNC(=O)c1ccc(-c2c3nc(c(-c4c(F)cc(S(=O)(=O)[O-])cc4F)c4ccc([nH]4)c(-c4c(F)cc(S(=O)(=O)[O-])cc4F)c4nc(c(-c5c(F)cc(S(=O)(=O)[O-])cc5F)c5ccc2[nH]5)C=C4)C=C3)cc1)c1ccc(Cc2ccoc2)cc1F
REMARK SMILES IDX 7 1 6 2 5 3 3 4 4 5 2 7 1 8 79 9 80 10 90 11 81 12 89 13
REMARK SMILES IDX 91 14 82 15 83 16 84 17 85 18 88 19 86 20 87 21 8 22 9 23
REMARK SMILES IDX 10 24 11 25 12 27 13 28 14 29 78 30 15 31 77 32 16 33 17 34
REMARK SMILES IDX 18 35 71 36 19 37 76 38 70 39 72 40 20 41 75 42 69 43 68 44
REMARK SMILES IDX 21 46 55 47 34 48 54 49 35 50 38 51 53 52 73 53 36 54 37 55
REMARK SMILES IDX 52 57 74 58 39 59 22 60 23 61 32 62 24 63 25 64 31 65 33 66
REMARK SMILES IDX 26 67 27 68 28 69 29 70 30 71 56 72 57 73 66 74 58 75 59 76
REMARK SMILES IDX 65 77 67 78 60 79 61 80 62 81 63 82 64 83 40 84 41 85 50 86
REMARK SMILES IDX 42 87 43 88 49 89 51 90 44 91 45 92 46 93 47 94 48 95
REMARK H PARENT 5 6 10 26 72 45 38 56
REMARK Flexibility Score: inf
ROOT
ATOM      1  C   UNL A   1      34.573  23.085  25.549  1.00  0.00     0.023 C 
ENDROOT
BRANCH   1   2
ATOM      2  C   UNL A   1      33.338  23.928  25.864  1.00  0.00     0.116 C 
BRANCH   2   3
ATOM      3  N   UNL A   1      33.625  25.348  25.884  1.00  0.00    -0.356 N 
ATOM      4  C   UNL A   1      33.316  26.332  24.989  1.00  0.00     0.227 C 
ATOM      5  O   UNL A   1      33.531  27.489  25.355  1.00  0.00    -0.274 OA
ATOM      6  H   UNL A   1      34.125  25.654  26.675  1.00  0.00     0.163 HD
BRANCH   4   7
ATOM      7  C   UNL A   1      32.654  25.984  23.640  1.00  0.00     0.108 C 
ATOM      8  C   UNL A   1      33.539  26.292  22.430  1.00  0.00     0.023 C 
BRANCH   7   9
ATOM      9  C   UNL A   1      31.308  26.669  23.435  1.00  0.00    -0.000 A 
ATOM     10  C   UNL A   1      31.227  27.876  22.727  1.00  0.00     0.008 A 
ATOM     11  C   UNL A   1      30.130  26.156  23.995  1.00  0.00     0.127 A 
ATOM     12  C   UNL A   1      30.002  28.538  22.584  1.00  0.00     0.004 A 
ATOM     13  C   UNL A   1      28.907  26.809  23.854  1.00  0.00     0.043 A 
ATOM     14  F   UNL A   1      30.165  25.025  24.716  1.00  0.00    -0.207 F 
ATOM     15  C   UNL A   1      28.828  28.015  23.147  1.00  0.00    -0.041 A 
BRANCH  15  16
ATOM     16  C   UNL A   1      27.507  28.725  22.984  1.00  0.00     0.074 C 
BRANCH  16  17
ATOM     17  C   UNL A   1      27.805  30.152  22.669  1.00  0.00    -0.005 A 
ATOM     18  C   UNL A   1      28.061  31.223  23.579  1.00  0.00     0.046 A 
ATOM     19  C   UNL A   1      27.954  30.710  21.414  1.00  0.00     0.198 A 
ATOM     20  C   UNL A   1      28.331  32.334  22.817  1.00  0.00     0.195 A 
ATOM     21  O   UNL A   1      28.274  32.027  21.498  1.00  0.00    -0.472 OA
ENDBRANCH  16  17
ENDBRANCH  15  16
ENDBRANCH   7   9
ENDBRANCH   4   7
ENDBRANCH   2   3
ENDBRANCH   1   2
BRANCH   1  22
ATOM     22  C   UNL A   1      35.896  23.620  26.104  1.00  0.00     0.023 C 
BRANCH  22  23
ATOM     23  C   UNL A   1      37.050  23.710  25.111  1.00  0.00     0.116 C 
BRANCH  23  24
ATOM     24  N   UNL A   1      38.143  22.800  25.417  1.00  0.00    -0.352 N 
ATOM     25  C   UNL A   1      39.292  23.027  26.137  1.00  0.00     0.251 C 
ATOM     26  H   UNL A   1      38.045  21.887  25.058  1.00  0.00     0.163 HD
ATOM     27  O   UNL A   1      40.157  22.156  26.197  1.00  0.00    -0.269 OA
BRANCH  25  28
ATOM     28  C   UNL A   1      39.506  24.332  26.800  1.00  0.00     0.039 A 
ATOM     29  C   UNL A   1      38.962  24.536  28.072  1.00  0.00     0.014 A 
ATOM     30  C   UNL A   1      40.258  25.339  26.188  1.00  0.00     0.014 A 
ATOM     31  C   UNL A   1      39.252  25.712  28.768  1.00  0.00     0.010 A 
ATOM     32  C   UNL A   1      40.592  26.486  26.907  1.00  0.00     0.010 A 
ATOM     33  C   UNL A   1      40.112  26.673  28.212  1.00  0.00    -0.014 A 
BRANCH  33  34
ATOM     34  C   UNL A   1      40.574  27.842  29.004  1.00  0.00     0.031 A 
ATOM     35  C   UNL A   1      41.887  27.801  29.737  1.00  0.00     0.074 A 
ATOM     36  C   UNL A   1      39.763  28.911  29.131  1.00  0.00     0.049 A 
ATOM     37  N   UNL A   1      42.405  28.687  30.547  1.00  0.00    -0.248 NA
ATOM     38  C   UNL A   1      42.714  26.598  29.555  1.00  0.00     0.031 C 
ATOM     39  C   UNL A   1      38.439  29.048  28.514  1.00  0.00     0.029 A 
ATOM     40  N   UNL A   1      39.916  30.079  29.837  1.00  0.00    -0.354 N 
ATOM     41  C   UNL A   1      43.609  28.149  30.982  1.00  0.00     0.074 A 
ATOM     42  C   UNL A   1      43.730  26.841  30.373  1.00  0.00     0.031 C 
ATOM     43  C   UNL A   1      37.908  30.230  28.865  1.00  0.00     0.029 A 
ATOM     44  C   UNL A   1      38.831  30.920  29.759  1.00  0.00     0.049 A 
ATOM     45  H   UNL A   1      40.728  30.293  30.353  1.00  0.00     0.167 HD
ATOM     46  C   UNL A   1      44.534  28.700  31.803  1.00  0.00     0.037 A 
ATOM     47  C   UNL A   1      38.595  32.105  30.355  1.00  0.00     0.037 A 
ATOM     48  C   UNL A   1      44.423  30.015  32.382  1.00  0.00     0.049 A 
ATOM     49  C   UNL A   1      39.641  32.694  31.261  1.00  0.00     0.074 A 
ATOM     50  C   UNL A   1      45.351  30.695  33.152  1.00  0.00     0.029 A 
ATOM     51  N   UNL A   1      43.320  30.845  32.262  1.00  0.00    -0.354 N 
ATOM     52  N   UNL A   1      40.811  32.205  31.593  1.00  0.00    -0.248 NA
ATOM     53  C   UNL A   1      39.336  33.994  31.875  1.00  0.00     0.031 C 
ATOM     54  C   UNL A   1      44.793  31.919  33.533  1.00  0.00     0.029 A 
ATOM     55  C   UNL A   1      43.531  32.019  32.967  1.00  0.00     0.049 A 
ATOM     56  H   UNL A   1      42.506  30.633  31.750  1.00  0.00     0.167 HD
ATOM     57  C   UNL A   1      41.387  33.143  32.442  1.00  0.00     0.074 A 
ATOM     58  C   UNL A   1      40.446  34.239  32.556  1.00  0.00     0.031 C 
ATOM     59  C   UNL A   1      42.585  33.100  33.073  1.00  0.00     0.037 A 
BRANCH  46  60
ATOM     60  C   UNL A   1      45.763  27.898  32.122  1.00  0.00     0.058 A 
ATOM     61  C   UNL A   1      45.778  26.966  33.170  1.00  0.00     0.135 A 
ATOM     62  C   UNL A   1      46.912  28.003  31.320  1.00  0.00     0.135 A 
ATOM     63  F   UNL A   1      44.712  26.837  33.975  1.00  0.00    -0.206 F 
ATOM     64  C   UNL A   1      46.890  26.169  33.418  1.00  0.00     0.059 A 
ATOM     65  C   UNL A   1      48.029  27.201  31.537  1.00  0.00     0.059 A 
ATOM     66  F   UNL A   1      46.950  28.882  30.307  1.00  0.00    -0.206 F 
ATOM     67  C   UNL A   1      48.011  26.290  32.592  1.00  0.00     0.060 A 
BRANCH  67  68
ATOM     68  S   UNL A   1      49.430  25.219  32.902  1.00  0.00     0.124 S 
ATOM     69  O   UNL A   1      50.324  26.122  33.620  1.00  0.00    -0.237 OA
ATOM     70  O   UNL A   1      48.843  24.145  33.697  1.00  0.00    -0.237 OA
ATOM     71  O   UNL A   1      49.867  24.837  31.564  1.00  0.00    -0.744 OA
ENDBRANCH  67  68
ENDBRANCH  46  60
BRANCH  47  72
ATOM     72  C   UNL A   1      37.309  32.816  30.123  1.00  0.00     0.058 A 
ATOM     73  C   UNL A   1      36.183  32.548  30.915  1.00  0.00     0.135 A 
ATOM     74  C   UNL A   1      37.177  33.763  29.097  1.00  0.00     0.135 A 
ATOM     75  F   UNL A   1      36.259  31.645  31.905  1.00  0.00    -0.206 F 
ATOM     76  C   UNL A   1      34.963  33.173  30.681  1.00  0.00     0.059 A 
ATOM     77  C   UNL A   1      35.975  34.420  28.859  1.00  0.00     0.059 A 
ATOM     78  F   UNL A   1      38.230  34.067  28.323  1.00  0.00    -0.206 F 
ATOM     79  C   UNL A   1      34.868  34.107  29.648  1.00  0.00     0.060 A 
BRANCH  79  80
ATOM     80  S   UNL A   1      33.287  34.934  29.364  1.00  0.00     0.124 S 
ATOM     81  O   UNL A   1      33.722  36.215  28.818  1.00  0.00    -0.237 OA
ATOM     82  O   UNL A   1      32.629  34.029  28.426  1.00  0.00    -0.237 OA
ATOM     83  O   UNL A   1      32.694  34.982  30.697  1.00  0.00    -0.744 OA
ENDBRANCH  79  80
ENDBRANCH  47  72
BRANCH  59  84
ATOM     84  C   UNL A   1      42.953  34.274  33.935  1.00  0.00     0.058 A 
ATOM     85  C   UNL A   1      42.729  34.263  35.320  1.00  0.00     0.135 A 
ATOM     86  C   UNL A   1      43.579  35.400  33.380  1.00  0.00     0.135 A 
ATOM     87  F   UNL A   1      42.125  33.213  35.898  1.00  0.00    -0.206 F 
ATOM     88  C   UNL A   1      43.094  35.337  36.124  1.00  0.00     0.059 A 
ATOM     89  C   UNL A   1      43.975  36.477  34.168  1.00  0.00     0.059 A 
ATOM     90  F   UNL A   1      43.824  35.457  32.061  1.00  0.00    -0.206 F 
ATOM     91  C   UNL A   1      43.718  36.441  35.538  1.00  0.00     0.060 A 
BRANCH  91  92
ATOM     92  S   UNL A   1      44.220  37.815  36.595  1.00  0.00     0.124 S 
ATOM     93  O   UNL A   1      44.098  38.948  35.684  1.00  0.00    -0.237 OA
ATOM     94  O   UNL A   1      43.237  37.759  37.672  1.00  0.00    -0.237 OA
ATOM     95  O   UNL A   1      45.584  37.465  36.982  1.00  0.00    -0.744 OA
ENDBRANCH  91  92
ENDBRANCH  59  84
ENDBRANCH  33  34
ENDBRANCH  25  28
ENDBRANCH  23  24
ENDBRANCH  22  23
ENDBRANCH   1  22
TORSDOF 17
ENDMDL
MODEL 2
REMARK VINA RESULT:     -11.3      4.925     10.544
REMARK SMILES C[C@@H](C(=O)NCCCCNC(=O)c1ccc(-c2c3nc(c(-c4c(F)cc(S(=O)(=O)[O-])cc4F)c4ccc([nH]4)c(-c4c(F)cc(S(=O)(=O)[O-])cc4F)c4nc(c(-c5c(F)cc(S(=O)(=O)[O-])cc5F)c5ccc2[nH]5)C=C4)C=C3)cc1)c1ccc(Cc2ccoc2)cc1F
REMARK SMILES IDX 7 1 6 2 5 3 3 4 4 5 2 7 1 8 79 9 80 10 90 11 81 12 89 13
REMARK SMILES IDX 91 14 82 15 83 16 84 17 85 18 88 19 86 20 87 21 8 22 9 23
REMARK SMILES IDX 10 24 11 25 12 27 13 28 14 29 78 30 15 31 77 32 16 33 17 34
REMARK SMILES IDX 18 35 71 36 19 37 76 38 70 39 72 40 20 41 75 42 69 43 68 44
REMARK SMILES IDX 21 46 55 47 34 48 54 49 35 50 38 51 53 52 73 53 36 54 37 55
REMARK SMILES IDX 52 57 74 58 39 59 22 60 23 61 32 62 24 63 25 64 31 65 33 66
REMARK SMILES IDX 26 67 27 68 28 69 29 70 30 71 56 72 57 73 66 74 58 75 59 76
REMARK SMILES IDX 65 77 67 78 60 79 61 80 62 81 63 82 64 83 40 84 41 85 50 86
REMARK SMILES IDX 42 87 43 88 49 89 51 90 44 91 45 92 46 93 47 94 48 95
REMARK H PARENT 5 6 10 26 72 45 38 56
REMARK Flexibility Score: inf
ROOT
ATOM      1  C   UNL A   1      33.114  29.664  27.254  1.00  0.00     0.023 C 
ENDROOT
BRANCH   1   2
ATOM      2  C   UNL A   1      32.561  30.450  26.067  1.00  0.00     0.116 C 
BRANCH   2   3
ATOM      3  N   UNL A   1      31.632  29.674  25.270  1.00  0.00    -0.356 N 
ATOM      4  C   UNL A   1      31.849  28.639  24.405  1.00  0.00     0.227 C 
ATOM      5  O   UNL A   1      30.847  28.046  24.002  1.00  0.00    -0.274 OA
ATOM      6  H   UNL A   1      30.689  29.935  25.370  1.00  0.00     0.163 HD
BRANCH   4   7
ATOM      7  C   UNL A   1      33.285  28.209  24.043  1.00  0.00     0.108 C 
ATOM      8  C   UNL A   1      33.783  28.798  22.721  1.00  0.00     0.023 C 
BRANCH   7   9
ATOM      9  C   UNL A   1      33.466  26.696  23.991  1.00  0.00    -0.000 A 
ATOM     10  C   UNL A   1      33.504  26.029  22.759  1.00  0.00     0.008 A 
ATOM     11  C   UNL A   1      33.534  25.924  25.159  1.00  0.00     0.127 A 
ATOM     12  C   UNL A   1      33.613  24.635  22.707  1.00  0.00     0.004 A 
ATOM     13  C   UNL A   1      33.645  24.536  25.113  1.00  0.00     0.043 A 
ATOM     14  F   UNL A   1      33.460  26.515  26.361  1.00  0.00    -0.207 F 
ATOM     15  C   UNL A   1      33.682  23.870  23.882  1.00  0.00    -0.041 A 
BRANCH  15  16
ATOM     16  C   UNL A   1      33.810  22.368  23.824  1.00  0.00     0.074 C 
BRANCH  16  17
ATOM     17  C   UNL A   1      35.179  22.019  24.301  1.00  0.00    -0.005 A 
ATOM     18  C   UNL A   1      36.429  22.561  23.874  1.00  0.00     0.046 A 
ATOM     19  C   UNL A   1      35.504  21.132  25.309  1.00  0.00     0.198 A 
ATOM     20  C   UNL A   1      37.402  21.963  24.637  1.00  0.00     0.195 A 
ATOM     21  O   UNL A   1      36.845  21.096  25.517  1.00  0.00    -0.472 OA
ENDBRANCH  16  17
ENDBRANCH  15  16
ENDBRANCH   7   9
ENDBRANCH   4   7
ENDBRANCH   2   3
ENDBRANCH   1   2
BRANCH   1  22
ATOM     22  C   UNL A   1      34.621  29.395  27.221  1.00  0.00     0.023 C 
BRANCH  22  23
ATOM     23  C   UNL A   1      35.502  30.440  27.899  1.00  0.00     0.116 C 
BRANCH  23  24
ATOM     24  N   UNL A   1      35.355  30.463  29.346  1.00  0.00    -0.352 N 
ATOM     25  C   UNL A   1      36.311  30.311  30.323  1.00  0.00     0.251 C 
ATOM     26  H   UNL A   1      34.437  30.610  29.674  1.00  0.00     0.163 HD
ATOM     27  O   UNL A   1      35.973  30.253  31.502  1.00  0.00    -0.269 OA
BRANCH  25  28
ATOM     28  C   UNL A   1      37.736  30.175  29.950  1.00  0.00     0.039 A 
ATOM     29  C   UNL A   1      38.693  30.117  30.968  1.00  0.00     0.014 A 
ATOM     30  C   UNL A   1      38.126  30.078  28.612  1.00  0.00     0.014 A 
ATOM     31  C   UNL A   1      40.029  29.866  30.648  1.00  0.00     0.010 A 
ATOM     32  C   UNL A   1      39.450  29.772  28.299  1.00  0.00     0.010 A 
ATOM     33  C   UNL A   1      40.410  29.640  29.315  1.00  0.00    -0.014 A 
BRANCH  33  34
ATOM     34  C   UNL A   1      41.786  29.197  28.972  1.00  0.00     0.031 A 
ATOM     35  C   UNL A   1      42.920  30.183  28.923  1.00  0.00     0.074 A 
ATOM     36  C   UNL A   1      41.992  27.912  28.618  1.00  0.00     0.049 A 
ATOM     37  N   UNL A   1      44.160  29.992  28.555  1.00  0.00    -0.248 NA
ATOM     38  C   UNL A   1      42.616  31.568  29.317  1.00  0.00     0.031 C 
ATOM     39  C   UNL A   1      40.960  26.871  28.571  1.00  0.00     0.029 A 
ATOM     40  N   UNL A   1      43.130  27.263  28.209  1.00  0.00    -0.354 N 
ATOM     41  C   UNL A   1      44.783  31.230  28.659  1.00  0.00     0.074 A 
ATOM     42  C   UNL A   1      43.774  32.173  29.092  1.00  0.00     0.031 C 
ATOM     43  C   UNL A   1      41.513  25.718  28.162  1.00  0.00     0.029 A 
ATOM     44  C   UNL A   1      42.927  25.942  27.882  1.00  0.00     0.049 A 
ATOM     45  H   UNL A   1      44.010  27.702  28.153  1.00  0.00     0.167 HD
ATOM     46  C   UNL A   1      46.079  31.545  28.428  1.00  0.00     0.037 A 
ATOM     47  C   UNL A   1      43.779  25.018  27.394  1.00  0.00     0.037 A 
ATOM     48  C   UNL A   1      47.086  30.596  28.028  1.00  0.00     0.049 A 
ATOM     49  C   UNL A   1      45.213  25.398  27.147  1.00  0.00     0.074 A 
ATOM     50  C   UNL A   1      48.444  30.804  27.858  1.00  0.00     0.029 A 
ATOM     51  N   UNL A   1      46.847  29.263  27.728  1.00  0.00    -0.354 N 
ATOM     52  N   UNL A   1      45.801  26.554  27.333  1.00  0.00    -0.248 NA
ATOM     53  C   UNL A   1      46.099  24.348  26.626  1.00  0.00     0.031 C 
ATOM     54  C   UNL A   1      49.020  29.609  27.415  1.00  0.00     0.029 A 
ATOM     55  C   UNL A   1      48.027  28.645  27.347  1.00  0.00     0.049 A 
ATOM     56  H   UNL A   1      45.969  28.821  27.780  1.00  0.00     0.167 HD
ATOM     57  C   UNL A   1      47.129  26.368  26.963  1.00  0.00     0.074 A 
ATOM     58  C   UNL A   1      47.262  24.982  26.565  1.00  0.00     0.031 C 
ATOM     59  C   UNL A   1      48.144  27.265  26.951  1.00  0.00     0.037 A 
BRANCH  46  60
ATOM     60  C   UNL A   1      46.503  32.975  28.612  1.00  0.00     0.058 A 
ATOM     61  C   UNL A   1      46.979  33.445  29.845  1.00  0.00     0.135 A 
ATOM     62  C   UNL A   1      46.509  33.863  27.523  1.00  0.00     0.135 A 
ATOM     63  F   UNL A   1      46.980  32.642  30.920  1.00  0.00    -0.206 F 
ATOM     64  C   UNL A   1      47.442  34.748  29.996  1.00  0.00     0.059 A 
ATOM     65  C   UNL A   1      46.988  35.164  27.646  1.00  0.00     0.059 A 
ATOM     66  F   UNL A   1      46.061  33.463  26.323  1.00  0.00    -0.206 F 
ATOM     67  C   UNL A   1      47.448  35.599  28.888  1.00  0.00     0.060 A 
BRANCH  67  68
ATOM     68  S   UNL A   1      48.091  37.273  29.092  1.00  0.00     0.124 S 
ATOM     69  O   UNL A   1      47.281  37.763  30.203  1.00  0.00    -0.237 OA
ATOM     70  O   UNL A   1      49.499  37.033  29.393  1.00  0.00    -0.237 OA
ATOM     71  O   UNL A   1      47.828  37.899  27.800  1.00  0.00    -0.744 OA
ENDBRANCH  67  68
ENDBRANCH  46  60
BRANCH  47  72
ATOM     72  C   UNL A   1      43.298  23.643  27.095  1.00  0.00     0.058 A 
ATOM     73  C   UNL A   1      43.085  22.713  28.124  1.00  0.00     0.135 A 
ATOM     74  C   UNL A   1      43.061  23.227  25.777  1.00  0.00     0.135 A 
ATOM     75  F   UNL A   1      43.305  23.063  29.400  1.00  0.00    -0.206 F 
ATOM     76  C   UNL A   1      42.678  21.411  27.855  1.00  0.00     0.059 A 
ATOM     77  C   UNL A   1      42.630  21.937  25.484  1.00  0.00     0.059 A 
ATOM     78  F   UNL A   1      43.234  24.084  24.759  1.00  0.00    -0.206 F 
ATOM     79  C   UNL A   1      42.456  21.031  26.530  1.00  0.00     0.060 A 
BRANCH  79  80
ATOM     80  S   UNL A   1      41.904  19.345  26.189  1.00  0.00     0.124 S 
ATOM     81  O   UNL A   1      42.269  18.663  27.425  1.00  0.00    -0.237 OA
ATOM     82  O   UNL A   1      40.474  19.529  25.958  1.00  0.00    -0.237 OA
ATOM     83  O   UNL A   1      42.678  18.975  25.008  1.00  0.00    -0.744 OA
ENDBRANCH  79  80
ENDBRANCH  47  72
BRANCH  59  84
ATOM     84  C   UNL A   1      49.492  26.774  26.505  1.00  0.00     0.058 A 
ATOM     85  C   UNL A   1      50.403  26.213  27.412  1.00  0.00     0.135 A 
ATOM     86  C   UNL A   1      49.858  26.822  25.151  1.00  0.00     0.135 A 
ATOM     87  F   UNL A   1      50.104  26.153  28.720  1.00  0.00    -0.206 F 
ATOM     88  C   UNL A   1      51.640  25.733  26.997  1.00  0.00     0.059 A 
ATOM     89  C   UNL A   1      51.081  26.326  24.709  1.00  0.00     0.059 A 
ATOM     90  F   UNL A   1      49.019  27.341  24.241  1.00  0.00    -0.206 F 
ATOM     91  C   UNL A   1      51.970  25.793  25.641  1.00  0.00     0.060 A 
BRANCH  91  92
ATOM     92  S   UNL A   1      53.564  25.135  25.107  1.00  0.00     0.124 S 
ATOM     93  O   UNL A   1      54.434  25.542  26.205  1.00  0.00    -0.237 OA
ATOM     94  O   UNL A   1      53.296  23.704  25.008  1.00  0.00    -0.237 OA
ATOM     95  O   UNL A   1      53.801  25.811  23.835  1.00  0.00    -0.744 OA
ENDBRANCH  91  92
ENDBRANCH  59  84
ENDBRANCH  33  34
ENDBRANCH  25  28
ENDBRANCH  23  24
ENDBRANCH  22  23
ENDBRANCH   1  22
TORSDOF 17
ENDMDL
MODEL 3
REMARK VINA RESULT:     -11.2      5.099     10.708
REMARK SMILES C[C@@H](C(=O)NCCCCNC(=O)c1ccc(-c2c3nc(c(-c4c(F)cc(S(=O)(=O)[O-])cc4F)c4ccc([nH]4)c(-c4c(F)cc(S(=O)(=O)[O-])cc4F)c4nc(c(-c5c(F)cc(S(=O)(=O)[O-])cc5F)c5ccc2[nH]5)C=C4)C=C3)cc1)c1ccc(Cc2ccoc2)cc1F
REMARK SMILES IDX 7 1 6 2 5 3 3 4 4 5 2 7 1 8 79 9 80 10 90 11 81 12 89 13
REMARK SMILES IDX 91 14 82 15 83 16 84 17 85 18 88 19 86 20 87 21 8 22 9 23
REMARK SMILES IDX 10 24 11 25 12 27 13 28 14 29 78 30 15 31 77 32 16 33 17 34
REMARK SMILES IDX 18 35 71 36 19 37 76 38 70 39 72 40 20 41 75 42 69 43 68 44
REMARK SMILES IDX 21 46 55 47 34 48 54 49 35 50 38 51 53 52 73 53 36 54 37 55
REMARK SMILES IDX 52 57 74 58 39 59 22 60 23 61 32 62 24 63 25 64 31 65 33 66
REMARK SMILES IDX 26 67 27 68 28 69 29 70 30 71 56 72 57 73 66 74 58 75 59 76
REMARK SMILES IDX 65 77 67 78 60 79 61 80 62 81 63 82 64 83 40 84 41 85 50 86
REMARK SMILES IDX 42 87 43 88 49 89 51 90 44 91 45 92 46 93 47 94 48 95
REMARK H PARENT 5 6 10 26 72 45 38 56
REMARK Flexibility Score: inf
ROOT
ATOM      1  C   UNL A   1      33.915  31.550  27.886  1.00  0.00     0.023 C 
ENDROOT
BRANCH   1   2
ATOM      2  C   UNL A   1      33.712  30.200  27.198  1.00  0.00     0.116 C 
BRANCH   2   3
ATOM      3  N   UNL A   1      32.541  29.499  27.686  1.00  0.00    -0.356 N 
ATOM      4  C   UNL A   1      31.874  28.419  27.181  1.00  0.00     0.227 C 
ATOM      5  O   UNL A   1      31.012  27.922  27.908  1.00  0.00    -0.274 OA
ATOM      6  H   UNL A   1      32.165  29.860  28.521  1.00  0.00     0.163 HD
BRANCH   4   7
ATOM      7  C   UNL A   1      32.264  27.830  25.810  1.00  0.00     0.108 C 
ATOM      8  C   UNL A   1      31.114  27.827  24.799  1.00  0.00     0.023 C 
BRANCH   7   9
ATOM      9  C   UNL A   1      32.825  26.416  25.900  1.00  0.00    -0.000 A 
ATOM     10  C   UNL A   1      34.155  26.156  25.539  1.00  0.00     0.008 A 
ATOM     11  C   UNL A   1      32.024  25.331  26.280  1.00  0.00     0.127 A 
ATOM     12  C   UNL A   1      34.659  24.851  25.566  1.00  0.00     0.004 A 
ATOM     13  C   UNL A   1      32.521  24.029  26.311  1.00  0.00     0.043 A 
ATOM     14  F   UNL A   1      30.735  25.525  26.595  1.00  0.00    -0.207 F 
ATOM     15  C   UNL A   1      33.849  23.771  25.950  1.00  0.00    -0.041 A 
BRANCH  15  16
ATOM     16  C   UNL A   1      34.397  22.366  25.987  1.00  0.00     0.074 C 
BRANCH  16  17
ATOM     17  C   UNL A   1      33.485  21.511  25.174  1.00  0.00    -0.005 A 
ATOM     18  C   UNL A   1      33.195  21.606  23.779  1.00  0.00     0.046 A 
ATOM     19  C   UNL A   1      32.781  20.404  25.607  1.00  0.00     0.198 A 
ATOM     20  C   UNL A   1      32.341  20.572  23.480  1.00  0.00     0.195 A 
ATOM     21  O   UNL A   1      32.090  19.832  24.588  1.00  0.00    -0.472 OA
ENDBRANCH  16  17
ENDBRANCH  15  16
ENDBRANCH   7   9
ENDBRANCH   4   7
ENDBRANCH   2   3
ENDBRANCH   1   2
BRANCH   1  22
ATOM     22  C   UNL A   1      35.317  32.152  27.754  1.00  0.00     0.023 C 
BRANCH  22  23
ATOM     23  C   UNL A   1      36.083  32.352  29.058  1.00  0.00     0.116 C 
BRANCH  23  24
ATOM     24  N   UNL A   1      35.781  31.342  30.061  1.00  0.00    -0.352 N 
ATOM     25  C   UNL A   1      36.566  30.313  30.528  1.00  0.00     0.251 C 
ATOM     26  H   UNL A   1      34.885  31.405  30.466  1.00  0.00     0.163 HD
ATOM     27  O   UNL A   1      36.092  29.490  31.307  1.00  0.00    -0.269 OA
BRANCH  25  28
ATOM     28  C   UNL A   1      37.962  30.175  30.059  1.00  0.00     0.039 A 
ATOM     29  C   UNL A   1      38.999  30.323  30.986  1.00  0.00     0.014 A 
ATOM     30  C   UNL A   1      38.250  29.875  28.725  1.00  0.00     0.014 A 
ATOM     31  C   UNL A   1      40.317  30.076  30.595  1.00  0.00     0.010 A 
ATOM     32  C   UNL A   1      39.559  29.574  28.351  1.00  0.00     0.010 A 
ATOM     33  C   UNL A   1      40.602  29.650  29.287  1.00  0.00    -0.014 A 
BRANCH  33  34
ATOM     34  C   UNL A   1      41.968  29.211  28.901  1.00  0.00     0.031 A 
ATOM     35  C   UNL A   1      43.090  30.205  28.793  1.00  0.00     0.074 A 
ATOM     36  C   UNL A   1      42.172  27.922  28.563  1.00  0.00     0.049 A 
ATOM     37  N   UNL A   1      44.318  30.018  28.382  1.00  0.00    -0.248 NA
ATOM     38  C   UNL A   1      42.790  31.595  29.172  1.00  0.00     0.031 C 
ATOM     39  C   UNL A   1      41.148  26.872  28.574  1.00  0.00     0.029 A 
ATOM     40  N   UNL A   1      43.300  27.274  28.124  1.00  0.00    -0.354 N 
ATOM     41  C   UNL A   1      44.934  31.262  28.440  1.00  0.00     0.074 A 
ATOM     42  C   UNL A   1      43.933  32.206  28.893  1.00  0.00     0.031 C 
ATOM     43  C   UNL A   1      41.696  25.716  28.166  1.00  0.00     0.029 A 
ATOM     44  C   UNL A   1      43.097  25.946  27.829  1.00  0.00     0.049 A 
ATOM     45  H   UNL A   1      44.173  27.720  28.027  1.00  0.00     0.167 HD
ATOM     46  C   UNL A   1      46.217  31.584  28.155  1.00  0.00     0.037 A 
ATOM     47  C   UNL A   1      43.937  25.020  27.326  1.00  0.00     0.037 A 
ATOM     48  C   UNL A   1      47.217  30.635  27.734  1.00  0.00     0.049 A 
ATOM     49  C   UNL A   1      45.358  25.407  27.019  1.00  0.00     0.074 A 
ATOM     50  C   UNL A   1      48.566  30.852  27.510  1.00  0.00     0.029 A 
ATOM     51  N   UNL A   1      46.979  29.296  27.468  1.00  0.00    -0.354 N 
ATOM     52  N   UNL A   1      45.942  26.571  27.161  1.00  0.00    -0.248 NA
ATOM     53  C   UNL A   1      46.233  24.355  26.484  1.00  0.00     0.031 C 
ATOM     54  C   UNL A   1      49.135  29.653  27.068  1.00  0.00     0.029 A 
ATOM     55  C   UNL A   1      48.149  28.680  27.054  1.00  0.00     0.049 A 
ATOM     56  H   UNL A   1      46.107  28.847  27.561  1.00  0.00     0.167 HD
ATOM     57  C   UNL A   1      47.257  26.389  26.746  1.00  0.00     0.074 A 
ATOM     58  C   UNL A   1      47.387  24.997  26.368  1.00  0.00     0.031 C 
ATOM     59  C   UNL A   1      48.263  27.294  26.680  1.00  0.00     0.037 A 
BRANCH  46  60
ATOM     60  C   UNL A   1      46.635  33.020  28.297  1.00  0.00     0.058 A 
ATOM     61  C   UNL A   1      47.166  33.513  29.498  1.00  0.00     0.135 A 
ATOM     62  C   UNL A   1      46.579  33.891  27.196  1.00  0.00     0.135 A 
ATOM     63  F   UNL A   1      47.228  32.726  30.584  1.00  0.00    -0.206 F 
ATOM     64  C   UNL A   1      47.623  34.822  29.607  1.00  0.00     0.059 A 
ATOM     65  C   UNL A   1      47.050  35.198  27.276  1.00  0.00     0.059 A 
ATOM     66  F   UNL A   1      46.076  33.469  26.026  1.00  0.00    -0.206 F 
ATOM     67  C   UNL A   1      47.566  35.657  28.488  1.00  0.00     0.060 A 
BRANCH  67  68
ATOM     68  S   UNL A   1      48.201  37.340  28.635  1.00  0.00     0.124 S 
ATOM     69  O   UNL A   1      48.252  37.506  30.085  1.00  0.00    -0.237 OA
ATOM     70  O   UNL A   1      49.494  37.246  27.963  1.00  0.00    -0.237 OA
ATOM     71  O   UNL A   1      47.198  38.144  27.947  1.00  0.00    -0.744 OA
ENDBRANCH  67  68
ENDBRANCH  46  60
BRANCH  47  72
ATOM     72  C   UNL A   1      43.458  23.636  27.070  1.00  0.00     0.058 A 
ATOM     73  C   UNL A   1      43.194  23.193  25.766  1.00  0.00     0.135 A 
ATOM     74  C   UNL A   1      43.240  22.736  28.124  1.00  0.00     0.135 A 
ATOM     75  F   UNL A   1      43.382  24.019  24.726  1.00  0.00    -0.206 F 
ATOM     76  C   UNL A   1      42.705  21.915  25.516  1.00  0.00     0.059 A 
ATOM     77  C   UNL A   1      42.774  21.445  27.898  1.00  0.00     0.059 A 
ATOM     78  F   UNL A   1      43.494  23.107  29.389  1.00  0.00    -0.206 F 
ATOM     79  C   UNL A   1      42.495  21.049  26.591  1.00  0.00     0.060 A 
BRANCH  79  80
ATOM     80  S   UNL A   1      41.882  19.382  26.258  1.00  0.00     0.124 S 
ATOM     81  O   UNL A   1      42.536  19.079  24.990  1.00  0.00    -0.237 OA
ATOM     82  O   UNL A   1      42.362  18.639  27.419  1.00  0.00    -0.237 OA
ATOM     83  O   UNL A   1      40.435  19.566  26.197  1.00  0.00    -0.744 OA
ENDBRANCH  79  80
ENDBRANCH  47  72
BRANCH  59  84
ATOM     84  C   UNL A   1      49.598  26.806  26.192  1.00  0.00     0.058 A 
ATOM     85  C   UNL A   1      50.007  27.002  24.864  1.00  0.00     0.135 A 
ATOM     86  C   UNL A   1      50.495  26.178  27.070  1.00  0.00     0.135 A 
ATOM     87  F   UNL A   1      49.182  27.589  23.983  1.00  0.00    -0.206 F 
ATOM     88  C   UNL A   1      51.253  26.576  24.417  1.00  0.00     0.059 A 
ATOM     89  C   UNL A   1      51.756  25.765  26.651  1.00  0.00     0.059 A 
ATOM     90  F   UNL A   1      50.155  25.975  28.352  1.00  0.00    -0.206 F 
ATOM     91  C   UNL A   1      52.122  25.959  25.320  1.00  0.00     0.060 A 
BRANCH  91  92
ATOM     92  S   UNL A   1      53.750  25.441  24.739  1.00  0.00     0.124 S 
ATOM     93  O   UNL A   1      53.622  23.988  24.758  1.00  0.00    -0.237 OA
ATOM     94  O   UNL A   1      53.821  26.054  23.416  1.00  0.00    -0.237 OA
ATOM     95  O   UNL A   1      54.660  26.005  25.732  1.00  0.00    -0.744 OA
ENDBRANCH  91  92
ENDBRANCH  59  84
ENDBRANCH  33  34
ENDBRANCH  25  28
ENDBRANCH  23  24
ENDBRANCH  22  23
ENDBRANCH   1  22
TORSDOF 17
ENDMDL
