MODEL 1
REMARK VINA RESULT:     -10.8      0.000      0.000
REMARK SMILES O=C(NCCCCNC(=O)c1ccc(N2C(=O)C[C@H]([NH+]3CCN(c4ccc(F)cc4)CC3)C2=O)cc1)c1ccc(-c2c3nc(c(-c4c(F)cc(S(=O)(=O)[O-])cc4F)c4ccc([nH]4)c(-c4c(F)cc(S(=O)(=O)[O-])cc4F)c4nc(c(-c5c(F)cc(S(=O)(=O)[O-])cc5F)c5ccc2[nH]5)C=C4)C=C3)cc1
REMARK SMILES IDX 5 1 4 2 3 3 1 4 2 5 37 7 38 8 102 9 39 10 101 11 40 12 41 13
REMARK SMILES IDX 42 14 95 15 43 16 100 17 94 18 96 19 44 20 99 21 93 22 92 23
REMARK SMILES IDX 45 25 79 26 58 27 78 28 59 29 62 30 77 31 97 32 60 33 61 34
REMARK SMILES IDX 76 36 98 37 63 38 46 39 47 40 56 41 48 42 49 43 55 44 57 45
REMARK SMILES IDX 50 46 51 47 52 48 53 49 54 50 80 51 81 52 90 53 82 54 83 55
REMARK SMILES IDX 89 56 91 57 84 58 85 59 86 60 87 61 88 62 64 63 65 64 74 65
REMARK SMILES IDX 66 66 67 67 73 68 75 69 68 70 69 71 70 72 71 73 72 74 6 75
REMARK SMILES IDX 7 76 8 77 9 78 10 80 11 81 12 82 36 83 13 84 35 85 14 86
REMARK SMILES IDX 15 87 16 88 33 89 17 90 18 91 19 92 34 93 20 94 21 95 32 96
REMARK SMILES IDX 22 98 31 99 23 100 24 101 25 102 30 103 26 104 29 105 27 106
REMARK SMILES IDX 28 107
REMARK H PARENT 3 6 96 24 62 35 8 79 20 97
REMARK Flexibility Score: inf
ROOT
ATOM      1  C   UNL A   1      34.822  33.776  28.006  1.00  0.00     0.023 C 
ENDROOT
BRANCH   1   2
ATOM      2  C   UNL A   1      34.908  32.537  28.885  1.00  0.00     0.116 C 
BRANCH   2   3
ATOM      3  N   UNL A   1      34.089  31.430  28.413  1.00  0.00    -0.352 N 
ATOM      4  O   UNL A   1      33.685  29.374  27.567  1.00  0.00    -0.269 OA
ATOM      5  C   UNL A   1      34.491  30.165  28.046  1.00  0.00     0.251 C 
ATOM      6  H   UNL A   1      33.124  31.609  28.345  1.00  0.00     0.163 HD
BRANCH   5   7
ATOM      7  C   UNL A   1      35.913  29.784  28.203  1.00  0.00     0.039 A 
ATOM      8  C   UNL A   1      36.387  29.326  29.434  1.00  0.00     0.014 A 
ATOM      9  C   UNL A   1      36.788  29.930  27.123  1.00  0.00     0.014 A 
ATOM     10  C   UNL A   1      37.753  29.176  29.629  1.00  0.00     0.010 A 
ATOM     11  C   UNL A   1      38.157  29.685  27.298  1.00  0.00     0.010 A 
ATOM     12  C   UNL A   1      38.655  29.342  28.563  1.00  0.00    -0.014 A 
BRANCH  12  13
ATOM     13  C   UNL A   1      40.098  29.085  28.810  1.00  0.00     0.031 A 
ATOM     14  C   UNL A   1      40.978  30.101  29.486  1.00  0.00     0.074 A 
ATOM     15  C   UNL A   1      40.591  27.875  28.478  1.00  0.00     0.049 A 
ATOM     16  N   UNL A   1      42.232  29.989  29.845  1.00  0.00    -0.248 NA
ATOM     17  C   UNL A   1      40.384  31.412  29.793  1.00  0.00     0.031 C 
ATOM     18  C   UNL A   1      39.837  26.821  27.790  1.00  0.00     0.029 A 
ATOM     19  N   UNL A   1      41.817  27.308  28.705  1.00  0.00    -0.354 N 
ATOM     20  C   UNL A   1      42.582  31.211  30.409  1.00  0.00     0.074 A 
ATOM     21  C   UNL A   1      41.415  32.062  30.321  1.00  0.00     0.031 C 
ATOM     22  C   UNL A   1      40.593  25.718  27.711  1.00  0.00     0.029 A 
ATOM     23  C   UNL A   1      41.902  26.001  28.289  1.00  0.00     0.049 A 
ATOM     24  H   UNL A   1      42.565  27.790  29.127  1.00  0.00     0.167 HD
ATOM     25  C   UNL A   1      43.765  31.582  30.956  1.00  0.00     0.037 A 
ATOM     26  C   UNL A   1      42.919  25.123  28.357  1.00  0.00     0.037 A 
ATOM     27  C   UNL A   1      44.920  30.723  31.053  1.00  0.00     0.049 A 
ATOM     28  C   UNL A   1      44.206  25.553  28.996  1.00  0.00     0.074 A 
ATOM     29  C   UNL A   1      46.164  31.006  31.593  1.00  0.00     0.029 A 
ATOM     30  N   UNL A   1      44.971  29.409  30.608  1.00  0.00    -0.354 N 
ATOM     31  N   UNL A   1      44.513  26.712  29.526  1.00  0.00    -0.248 NA
ATOM     32  C   UNL A   1      45.286  24.560  29.043  1.00  0.00     0.031 C 
ATOM     33  C   UNL A   1      46.974  29.873  31.451  1.00  0.00     0.029 A 
ATOM     34  C   UNL A   1      46.225  28.872  30.856  1.00  0.00     0.049 A 
ATOM     35  H   UNL A   1      44.227  28.929  30.179  1.00  0.00     0.167 HD
ATOM     36  C   UNL A   1      45.826  26.591  29.963  1.00  0.00     0.074 A 
ATOM     37  C   UNL A   1      46.239  25.233  29.671  1.00  0.00     0.031 C 
ATOM     38  C   UNL A   1      46.622  27.524  30.542  1.00  0.00     0.037 A 
BRANCH  25  39
ATOM     39  C   UNL A   1      43.882  32.981  31.497  1.00  0.00     0.058 A 
ATOM     40  C   UNL A   1      43.678  33.262  32.857  1.00  0.00     0.135 A 
ATOM     41  C   UNL A   1      44.268  34.042  30.661  1.00  0.00     0.135 A 
ATOM     42  F   UNL A   1      43.294  32.288  33.697  1.00  0.00    -0.206 F 
ATOM     43  C   UNL A   1      43.841  34.546  33.368  1.00  0.00     0.059 A 
ATOM     44  C   UNL A   1      44.457  35.331  31.154  1.00  0.00     0.059 A 
ATOM     45  F   UNL A   1      44.477  33.829  29.352  1.00  0.00    -0.206 F 
ATOM     46  C   UNL A   1      44.232  35.575  32.508  1.00  0.00     0.060 A 
BRANCH  46  47
ATOM     47  S   UNL A   1      44.462  37.232  33.190  1.00  0.00     0.124 S 
ATOM     48  O   UNL A   1      45.423  36.975  34.259  1.00  0.00    -0.237 OA
ATOM     49  O   UNL A   1      44.975  37.975  32.044  1.00  0.00    -0.237 OA
ATOM     50  O   UNL A   1      43.122  37.608  33.628  1.00  0.00    -0.744 OA
ENDBRANCH  46  47
ENDBRANCH  25  39
BRANCH  26  51
ATOM     51  C   UNL A   1      42.755  23.760  27.793  1.00  0.00     0.058 A 
ATOM     52  C   UNL A   1      42.455  22.664  28.613  1.00  0.00     0.135 A 
ATOM     53  C   UNL A   1      42.864  23.537  26.412  1.00  0.00     0.135 A 
ATOM     54  F   UNL A   1      42.341  22.828  29.939  1.00  0.00    -0.206 F 
ATOM     55  C   UNL A   1      42.285  21.387  28.086  1.00  0.00     0.059 A 
ATOM     56  C   UNL A   1      42.673  22.276  25.859  1.00  0.00     0.059 A 
ATOM     57  F   UNL A   1      43.128  24.560  25.584  1.00  0.00    -0.206 F 
ATOM     58  C   UNL A   1      42.396  21.205  26.705  1.00  0.00     0.060 A 
BRANCH  58  59
ATOM     59  S   UNL A   1      42.124  19.559  26.015  1.00  0.00     0.124 S 
ATOM     60  O   UNL A   1      40.689  19.584  25.760  1.00  0.00    -0.237 OA
ATOM     61  O   UNL A   1      42.984  19.568  24.835  1.00  0.00    -0.237 OA
ATOM     62  O   UNL A   1      42.562  18.673  27.090  1.00  0.00    -0.744 OA
ENDBRANCH  58  59
ENDBRANCH  26  51
BRANCH  38  63
ATOM     63  C   UNL A   1      48.020  27.094  30.884  1.00  0.00     0.058 A 
ATOM     64  C   UNL A   1      49.073  27.241  29.967  1.00  0.00     0.135 A 
ATOM     65  C   UNL A   1      48.309  26.527  32.134  1.00  0.00     0.135 A 
ATOM     66  F   UNL A   1      48.843  27.772  28.756  1.00  0.00    -0.206 F 
ATOM     67  C   UNL A   1      50.358  26.805  30.264  1.00  0.00     0.059 A 
ATOM     68  C   UNL A   1      49.592  26.105  32.461  1.00  0.00     0.059 A 
ATOM     69  F   UNL A   1      47.337  26.373  33.048  1.00  0.00    -0.206 F 
ATOM     70  C   UNL A   1      50.607  26.230  31.511  1.00  0.00     0.060 A 
BRANCH  70  71
ATOM     71  S   UNL A   1      52.278  25.659  31.887  1.00  0.00     0.124 S 
ATOM     72  O   UNL A   1      52.612  26.478  33.047  1.00  0.00    -0.237 OA
ATOM     73  O   UNL A   1      52.075  24.237  32.152  1.00  0.00    -0.237 OA
ATOM     74  O   UNL A   1      53.020  25.963  30.668  1.00  0.00    -0.744 OA
ENDBRANCH  70  71
ENDBRANCH  38  63
ENDBRANCH  12  13
ENDBRANCH   5   7
ENDBRANCH   2   3
ENDBRANCH   1   2
BRANCH   1  75
ATOM     75  C   UNL A   1      34.298  35.034  28.697  1.00  0.00     0.023 C 
BRANCH  75  76
ATOM     76  C   UNL A   1      33.187  34.793  29.717  1.00  0.00     0.116 C 
BRANCH  76  77
ATOM     77  N   UNL A   1      32.900  35.979  30.509  1.00  0.00    -0.352 N 
ATOM     78  C   UNL A   1      33.262  36.251  31.803  1.00  0.00     0.251 C 
ATOM     79  H   UNL A   1      32.378  36.679  30.056  1.00  0.00     0.163 HD
ATOM     80  O   UNL A   1      32.833  37.234  32.396  1.00  0.00    -0.269 OA
BRANCH  78  81
ATOM     81  C   UNL A   1      34.183  35.333  32.486  1.00  0.00     0.039 A 
ATOM     82  C   UNL A   1      33.665  34.274  33.225  1.00  0.00     0.016 A 
ATOM     83  C   UNL A   1      35.560  35.524  32.389  1.00  0.00     0.016 A 
ATOM     84  C   UNL A   1      34.539  33.366  33.830  1.00  0.00     0.027 A 
ATOM     85  C   UNL A   1      36.426  34.622  33.010  1.00  0.00     0.027 A 
ATOM     86  C   UNL A   1      35.935  33.522  33.735  1.00  0.00     0.052 A 
BRANCH  86  87
ATOM     87  N   UNL A   1      36.819  32.610  34.376  1.00  0.00    -0.245 N 
ATOM     88  C   UNL A   1      37.181  32.688  35.701  1.00  0.00     0.240 C 
ATOM     89  C   UNL A   1      37.431  31.541  33.747  1.00  0.00     0.292 C 
ATOM     90  O   UNL A   1      36.919  33.547  36.532  1.00  0.00    -0.274 OA
ATOM     91  C   UNL A   1      37.923  31.446  36.075  1.00  0.00     0.176 C 
ATOM     92  C   UNL A   1      38.366  30.864  34.750  1.00  0.00     0.284 C 
ATOM     93  O   UNL A   1      37.338  31.195  32.576  1.00  0.00    -0.267 OA
BRANCH  92  94
ATOM     94  N   UNL A   1      39.777  30.992  34.345  1.00  0.00    -0.321 N 
ATOM     95  C   UNL A   1      40.817  30.707  35.349  1.00  0.00     0.284 C 
ATOM     96  C   UNL A   1      40.111  30.330  33.070  1.00  0.00     0.284 C 
ATOM     97  H   UNL A   1      39.811  32.003  34.217  1.00  0.00     0.348 HD
ATOM     98  C   UNL A   1      41.222  29.226  35.521  1.00  0.00     0.178 C 
ATOM     99  C   UNL A   1      40.523  28.841  33.141  1.00  0.00     0.178 C 
ATOM    100  N   UNL A   1      41.490  28.597  34.222  1.00  0.00    -0.360 N 
BRANCH 100 101
ATOM    101  C   UNL A   1      42.244  27.432  34.170  1.00  0.00     0.037 A 
ATOM    102  C   UNL A   1      41.995  26.334  35.009  1.00  0.00     0.029 A 
ATOM    103  C   UNL A   1      43.327  27.339  33.280  1.00  0.00     0.029 A 
ATOM    104  C   UNL A   1      42.800  25.191  34.968  1.00  0.00     0.041 A 
ATOM    105  C   UNL A   1      44.143  26.205  33.241  1.00  0.00     0.041 A 
ATOM    106  C   UNL A   1      43.872  25.141  34.088  1.00  0.00     0.123 A 
ATOM    107  F   UNL A   1      44.656  24.056  34.059  1.00  0.00    -0.207 F 
ENDBRANCH 100 101
ENDBRANCH  92  94
ENDBRANCH  86  87
ENDBRANCH  78  81
ENDBRANCH  76  77
ENDBRANCH  75  76
ENDBRANCH   1  75
TORSDOF 17
ENDMDL
MODEL 2
REMARK VINA RESULT:     -10.8      4.889      7.822
REMARK SMILES O=C(NCCCCNC(=O)c1ccc(N2C(=O)C[C@H]([NH+]3CCN(c4ccc(F)cc4)CC3)C2=O)cc1)c1ccc(-c2c3nc(c(-c4c(F)cc(S(=O)(=O)[O-])cc4F)c4ccc([nH]4)c(-c4c(F)cc(S(=O)(=O)[O-])cc4F)c4nc(c(-c5c(F)cc(S(=O)(=O)[O-])cc5F)c5ccc2[nH]5)C=C4)C=C3)cc1
REMARK SMILES IDX 5 1 4 2 3 3 1 4 2 5 37 7 38 8 102 9 39 10 101 11 40 12 41 13
REMARK SMILES IDX 42 14 95 15 43 16 100 17 94 18 96 19 44 20 99 21 93 22 92 23
REMARK SMILES IDX 45 25 79 26 58 27 78 28 59 29 62 30 77 31 97 32 60 33 61 34
REMARK SMILES IDX 76 36 98 37 63 38 46 39 47 40 56 41 48 42 49 43 55 44 57 45
REMARK SMILES IDX 50 46 51 47 52 48 53 49 54 50 80 51 81 52 90 53 82 54 83 55
REMARK SMILES IDX 89 56 91 57 84 58 85 59 86 60 87 61 88 62 64 63 65 64 74 65
REMARK SMILES IDX 66 66 67 67 73 68 75 69 68 70 69 71 70 72 71 73 72 74 6 75
REMARK SMILES IDX 7 76 8 77 9 78 10 80 11 81 12 82 36 83 13 84 35 85 14 86
REMARK SMILES IDX 15 87 16 88 33 89 17 90 18 91 19 92 34 93 20 94 21 95 32 96
REMARK SMILES IDX 22 98 31 99 23 100 24 101 25 102 30 103 26 104 29 105 27 106
REMARK SMILES IDX 28 107
REMARK H PARENT 3 6 96 24 62 35 8 79 20 97
REMARK Flexibility Score: inf
ROOT
ATOM      1  C   UNL A   1      35.955  32.870  28.662  1.00  0.00     0.023 C 
ENDROOT
BRANCH   1   2
ATOM      2  C   UNL A   1      36.820  32.844  29.914  1.00  0.00     0.116 C 
BRANCH   2   3
ATOM      3  N   UNL A   1      36.340  31.923  30.934  1.00  0.00    -0.352 N 
ATOM      4  O   UNL A   1      36.267  29.989  32.101  1.00  0.00    -0.269 OA
ATOM      5  C   UNL A   1      36.854  30.695  31.286  1.00  0.00     0.251 C 
ATOM      6  H   UNL A   1      35.545  32.215  31.435  1.00  0.00     0.163 HD
BRANCH   5   7
ATOM      7  C   UNL A   1      38.101  30.221  30.643  1.00  0.00     0.039 A 
ATOM      8  C   UNL A   1      39.229  29.945  31.418  1.00  0.00     0.014 A 
ATOM      9  C   UNL A   1      38.154  30.096  29.253  1.00  0.00     0.014 A 
ATOM     10  C   UNL A   1      40.447  29.709  30.793  1.00  0.00     0.010 A 
ATOM     11  C   UNL A   1      39.364  29.763  28.630  1.00  0.00     0.010 A 
ATOM     12  C   UNL A   1      40.529  29.604  29.393  1.00  0.00    -0.014 A 
BRANCH  12  13
ATOM     13  C   UNL A   1      41.842  29.266  28.785  1.00  0.00     0.031 A 
ATOM     14  C   UNL A   1      42.971  30.260  28.736  1.00  0.00     0.074 A 
ATOM     15  C   UNL A   1      42.028  28.007  28.340  1.00  0.00     0.049 A 
ATOM     16  N   UNL A   1      44.198  30.085  28.315  1.00  0.00    -0.248 NA
ATOM     17  C   UNL A   1      42.691  31.624  29.210  1.00  0.00     0.031 C 
ATOM     18  C   UNL A   1      40.994  26.966  28.310  1.00  0.00     0.029 A 
ATOM     19  N   UNL A   1      43.147  27.373  27.868  1.00  0.00    -0.354 N 
ATOM     20  C   UNL A   1      44.834  31.313  28.461  1.00  0.00     0.074 A 
ATOM     21  C   UNL A   1      43.849  32.235  28.986  1.00  0.00     0.031 C 
ATOM     22  C   UNL A   1      41.543  25.812  27.908  1.00  0.00     0.029 A 
ATOM     23  C   UNL A   1      42.949  26.040  27.599  1.00  0.00     0.049 A 
ATOM     24  H   UNL A   1      44.010  27.829  27.736  1.00  0.00     0.167 HD
ATOM     25  C   UNL A   1      46.122  31.636  28.190  1.00  0.00     0.037 A 
ATOM     26  C   UNL A   1      43.801  25.102  27.146  1.00  0.00     0.037 A 
ATOM     27  C   UNL A   1      47.102  30.709  27.680  1.00  0.00     0.049 A 
ATOM     28  C   UNL A   1      45.227  25.482  26.884  1.00  0.00     0.074 A 
ATOM     29  C   UNL A   1      48.433  30.940  27.376  1.00  0.00     0.029 A 
ATOM     30  N   UNL A   1      46.860  29.370  27.407  1.00  0.00    -0.354 N 
ATOM     31  N   UNL A   1      45.807  26.649  27.034  1.00  0.00    -0.248 NA
ATOM     32  C   UNL A   1      46.115  24.422  26.389  1.00  0.00     0.031 C 
ATOM     33  C   UNL A   1      48.989  29.748  26.895  1.00  0.00     0.029 A 
ATOM     34  C   UNL A   1      48.014  28.765  26.933  1.00  0.00     0.049 A 
ATOM     35  H   UNL A   1      45.996  28.916  27.531  1.00  0.00     0.167 HD
ATOM     36  C   UNL A   1      47.128  26.466  26.643  1.00  0.00     0.074 A 
ATOM     37  C   UNL A   1      47.268  25.067  26.289  1.00  0.00     0.031 C 
ATOM     38  C   UNL A   1      48.129  27.376  26.570  1.00  0.00     0.037 A 
BRANCH  25  39
ATOM     39  C   UNL A   1      46.558  33.055  28.436  1.00  0.00     0.058 A 
ATOM     40  C   UNL A   1      47.067  33.462  29.680  1.00  0.00     0.135 A 
ATOM     41  C   UNL A   1      46.530  34.003  27.400  1.00  0.00     0.135 A 
ATOM     42  F   UNL A   1      47.102  32.600  30.709  1.00  0.00    -0.206 F 
ATOM     43  C   UNL A   1      47.523  34.759  29.892  1.00  0.00     0.059 A 
ATOM     44  C   UNL A   1      46.999  35.302  27.583  1.00  0.00     0.059 A 
ATOM     45  F   UNL A   1      46.053  33.668  26.191  1.00  0.00    -0.206 F 
ATOM     46  C   UNL A   1      47.486  35.673  28.836  1.00  0.00     0.060 A 
BRANCH  46  47
ATOM     47  S   UNL A   1      48.103  37.347  29.119  1.00  0.00     0.124 S 
ATOM     48  O   UNL A   1      48.444  37.764  27.762  1.00  0.00    -0.237 OA
ATOM     49  O   UNL A   1      46.947  38.011  29.713  1.00  0.00    -0.237 OA
ATOM     50  O   UNL A   1      49.235  37.145  30.017  1.00  0.00    -0.744 OA
ENDBRANCH  46  47
ENDBRANCH  25  39
BRANCH  26  51
ATOM     51  C   UNL A   1      43.313  23.720  26.905  1.00  0.00     0.058 A 
ATOM     52  C   UNL A   1      43.108  23.236  25.607  1.00  0.00     0.135 A 
ATOM     53  C   UNL A   1      43.072  22.847  27.977  1.00  0.00     0.135 A 
ATOM     54  F   UNL A   1      43.323  24.034  24.550  1.00  0.00    -0.206 F 
ATOM     55  C   UNL A   1      42.664  21.937  25.377  1.00  0.00     0.059 A 
ATOM     56  C   UNL A   1      42.655  21.538  27.773  1.00  0.00     0.059 A 
ATOM     57  F   UNL A   1      43.277  23.259  29.239  1.00  0.00    -0.206 F 
ATOM     58  C   UNL A   1      42.441  21.096  26.469  1.00  0.00     0.060 A 
BRANCH  58  59
ATOM     59  S   UNL A   1      41.918  19.394  26.169  1.00  0.00     0.124 S 
ATOM     60  O   UNL A   1      42.721  19.043  25.004  1.00  0.00    -0.237 OA
ATOM     61  O   UNL A   1      42.279  18.731  27.420  1.00  0.00    -0.237 OA
ATOM     62  O   UNL A   1      40.483  19.526  25.934  1.00  0.00    -0.744 OA
ENDBRANCH  58  59
ENDBRANCH  26  51
BRANCH  38  63
ATOM     63  C   UNL A   1      49.458  26.875  26.081  1.00  0.00     0.058 A 
ATOM     64  C   UNL A   1      50.366  26.251  26.952  1.00  0.00     0.135 A 
ATOM     65  C   UNL A   1      49.828  27.021  24.737  1.00  0.00     0.135 A 
ATOM     66  F   UNL A   1      50.059  26.095  28.249  1.00  0.00    -0.206 F 
ATOM     67  C   UNL A   1      51.614  25.825  26.513  1.00  0.00     0.059 A 
ATOM     68  C   UNL A   1      51.062  26.581  24.271  1.00  0.00     0.059 A 
ATOM     69  F   UNL A   1      48.990  27.603  23.864  1.00  0.00    -0.206 F 
ATOM     70  C   UNL A   1      51.957  26.002  25.172  1.00  0.00     0.060 A 
BRANCH  70  71
ATOM     71  S   UNL A   1      53.582  25.452  24.610  1.00  0.00     0.124 S 
ATOM     72  O   UNL A   1      53.547  25.830  23.201  1.00  0.00    -0.237 OA
ATOM     73  O   UNL A   1      54.488  26.227  25.453  1.00  0.00    -0.237 OA
ATOM     74  O   UNL A   1      53.563  24.017  24.877  1.00  0.00    -0.744 OA
ENDBRANCH  70  71
ENDBRANCH  38  63
ENDBRANCH  12  13
ENDBRANCH   5   7
ENDBRANCH   2   3
ENDBRANCH   1   2
BRANCH   1  75
ATOM     75  C   UNL A   1      34.516  32.395  28.851  1.00  0.00     0.023 C 
BRANCH  75  76
ATOM     76  C   UNL A   1      33.899  31.707  27.634  1.00  0.00     0.116 C 
BRANCH  76  77
ATOM     77  N   UNL A   1      32.637  32.313  27.240  1.00  0.00    -0.352 N 
ATOM     78  C   UNL A   1      31.610  31.759  26.521  1.00  0.00     0.251 C 
ATOM     79  H   UNL A   1      32.502  33.245  27.528  1.00  0.00     0.163 HD
ATOM     80  O   UNL A   1      30.659  32.430  26.138  1.00  0.00    -0.269 OA
BRANCH  78  81
ATOM     81  C   UNL A   1      31.665  30.326  26.202  1.00  0.00     0.039 A 
ATOM     82  C   UNL A   1      31.921  29.411  27.218  1.00  0.00     0.016 A 
ATOM     83  C   UNL A   1      31.461  29.894  24.893  1.00  0.00     0.016 A 
ATOM     84  C   UNL A   1      31.919  28.043  26.928  1.00  0.00     0.027 A 
ATOM     85  C   UNL A   1      31.477  28.526  24.608  1.00  0.00     0.027 A 
ATOM     86  C   UNL A   1      31.697  27.575  25.620  1.00  0.00     0.052 A 
BRANCH  86  87
ATOM     87  N   UNL A   1      31.724  26.183  25.326  1.00  0.00    -0.245 N 
ATOM     88  C   UNL A   1      30.772  25.286  25.753  1.00  0.00     0.240 C 
ATOM     89  C   UNL A   1      32.710  25.559  24.585  1.00  0.00     0.292 C 
ATOM     90  O   UNL A   1      29.820  25.457  26.502  1.00  0.00    -0.274 OA
ATOM     91  C   UNL A   1      30.997  23.978  25.066  1.00  0.00     0.176 C 
ATOM     92  C   UNL A   1      32.424  24.057  24.572  1.00  0.00     0.284 C 
ATOM     93  O   UNL A   1      33.703  26.058  24.070  1.00  0.00    -0.267 OA
BRANCH  92  94
ATOM     94  N   UNL A   1      33.473  23.301  25.281  1.00  0.00    -0.321 N 
ATOM     95  C   UNL A   1      33.072  22.459  26.422  1.00  0.00     0.284 C 
ATOM     96  C   UNL A   1      34.391  22.554  24.401  1.00  0.00     0.284 C 
ATOM     97  H   UNL A   1      33.973  24.084  25.701  1.00  0.00     0.348 HD
ATOM     98  C   UNL A   1      32.571  21.036  26.086  1.00  0.00     0.178 C 
ATOM     99  C   UNL A   1      33.970  21.120  24.004  1.00  0.00     0.178 C 
ATOM    100  N   UNL A   1      33.489  20.356  25.165  1.00  0.00    -0.360 N 
BRANCH 100 101
ATOM    101  C   UNL A   1      33.452  18.972  25.063  1.00  0.00     0.037 A 
ATOM    102  C   UNL A   1      32.530  18.187  25.774  1.00  0.00     0.029 A 
ATOM    103  C   UNL A   1      34.388  18.305  24.256  1.00  0.00     0.029 A 
ATOM    104  C   UNL A   1      32.547  16.790  25.688  1.00  0.00     0.041 A 
ATOM    105  C   UNL A   1      34.418  16.910  24.174  1.00  0.00     0.041 A 
ATOM    106  C   UNL A   1      33.496  16.165  24.894  1.00  0.00     0.123 A 
ATOM    107  F   UNL A   1      33.528  14.829  24.825  1.00  0.00    -0.207 F 
ENDBRANCH 100 101
ENDBRANCH  92  94
ENDBRANCH  86  87
ENDBRANCH  78  81
ENDBRANCH  76  77
ENDBRANCH  75  76
ENDBRANCH   1  75
TORSDOF 17
ENDMDL
MODEL 3
REMARK VINA RESULT:     -10.8      3.471     10.307
REMARK SMILES O=C(NCCCCNC(=O)c1ccc(N2C(=O)C[C@H]([NH+]3CCN(c4ccc(F)cc4)CC3)C2=O)cc1)c1ccc(-c2c3nc(c(-c4c(F)cc(S(=O)(=O)[O-])cc4F)c4ccc([nH]4)c(-c4c(F)cc(S(=O)(=O)[O-])cc4F)c4nc(c(-c5c(F)cc(S(=O)(=O)[O-])cc5F)c5ccc2[nH]5)C=C4)C=C3)cc1
REMARK SMILES IDX 5 1 4 2 3 3 1 4 2 5 37 7 38 8 102 9 39 10 101 11 40 12 41 13
REMARK SMILES IDX 42 14 95 15 43 16 100 17 94 18 96 19 44 20 99 21 93 22 92 23
REMARK SMILES IDX 45 25 79 26 58 27 78 28 59 29 62 30 77 31 97 32 60 33 61 34
REMARK SMILES IDX 76 36 98 37 63 38 46 39 47 40 56 41 48 42 49 43 55 44 57 45
REMARK SMILES IDX 50 46 51 47 52 48 53 49 54 50 80 51 81 52 90 53 82 54 83 55
REMARK SMILES IDX 89 56 91 57 84 58 85 59 86 60 87 61 88 62 64 63 65 64 74 65
REMARK SMILES IDX 66 66 67 67 73 68 75 69 68 70 69 71 70 72 71 73 72 74 6 75
REMARK SMILES IDX 7 76 8 77 9 78 10 80 11 81 12 82 36 83 13 84 35 85 14 86
REMARK SMILES IDX 15 87 16 88 33 89 17 90 18 91 19 92 34 93 20 94 21 95 32 96
REMARK SMILES IDX 22 98 31 99 23 100 24 101 25 102 30 103 26 104 29 105 27 106
REMARK SMILES IDX 28 107
REMARK H PARENT 3 6 96 24 62 35 8 79 20 97
REMARK Flexibility Score: inf
ROOT
ATOM      1  C   UNL A   1      41.562  22.036  26.407  1.00  0.00     0.023 C 
ENDROOT
BRANCH   1   2
ATOM      2  C   UNL A   1      40.182  21.511  26.775  1.00  0.00     0.116 C 
BRANCH   2   3
ATOM      3  N   UNL A   1      39.123  22.001  25.904  1.00  0.00    -0.352 N 
ATOM      4  O   UNL A   1      37.623  23.496  25.115  1.00  0.00    -0.269 OA
ATOM      5  C   UNL A   1      38.590  23.269  25.836  1.00  0.00     0.251 C 
ATOM      6  H   UNL A   1      38.738  21.341  25.284  1.00  0.00     0.163 HD
BRANCH   5   7
ATOM      7  C   UNL A   1      39.174  24.344  26.670  1.00  0.00     0.039 A 
ATOM      8  C   UNL A   1      38.829  24.453  28.018  1.00  0.00     0.014 A 
ATOM      9  C   UNL A   1      40.036  25.277  26.086  1.00  0.00     0.014 A 
ATOM     10  C   UNL A   1      39.210  25.580  28.733  1.00  0.00     0.010 A 
ATOM     11  C   UNL A   1      40.497  26.364  26.840  1.00  0.00     0.010 A 
ATOM     12  C   UNL A   1      40.057  26.545  28.159  1.00  0.00    -0.014 A 
BRANCH  12  13
ATOM     13  C   UNL A   1      40.503  27.687  28.999  1.00  0.00     0.031 A 
ATOM     14  C   UNL A   1      39.621  28.882  29.239  1.00  0.00     0.074 A 
ATOM     15  C   UNL A   1      41.700  27.594  29.611  1.00  0.00     0.049 A 
ATOM     16  N   UNL A   1      39.835  29.916  30.014  1.00  0.00    -0.248 NA
ATOM     17  C   UNL A   1      38.340  28.935  28.516  1.00  0.00     0.031 C 
ATOM     18  C   UNL A   1      42.653  26.494  29.428  1.00  0.00     0.029 A 
ATOM     19  N   UNL A   1      42.305  28.403  30.535  1.00  0.00    -0.354 N 
ATOM     20  C   UNL A   1      38.728  30.745  29.866  1.00  0.00     0.074 A 
ATOM     21  C   UNL A   1      37.853  30.107  28.906  1.00  0.00     0.031 C 
ATOM     22  C   UNL A   1      43.688  26.664  30.261  1.00  0.00     0.029 A 
ATOM     23  C   UNL A   1      43.502  27.911  30.995  1.00  0.00     0.049 A 
ATOM     24  H   UNL A   1      41.919  29.256  30.842  1.00  0.00     0.167 HD
ATOM     25  C   UNL A   1      38.465  31.922  30.483  1.00  0.00     0.037 A 
ATOM     26  C   UNL A   1      44.364  28.405  31.903  1.00  0.00     0.037 A 
ATOM     27  C   UNL A   1      39.336  32.545  31.450  1.00  0.00     0.049 A 
ATOM     28  C   UNL A   1      44.032  29.695  32.591  1.00  0.00     0.074 A 
ATOM     29  C   UNL A   1      39.157  33.737  32.133  1.00  0.00     0.029 A 
ATOM     30  N   UNL A   1      40.547  32.021  31.880  1.00  0.00    -0.354 N 
ATOM     31  N   UNL A   1      42.977  30.459  32.439  1.00  0.00    -0.248 NA
ATOM     32  C   UNL A   1      45.005  30.193  33.571  1.00  0.00     0.031 C 
ATOM     33  C   UNL A   1      40.270  33.946  32.955  1.00  0.00     0.029 A 
ATOM     34  C   UNL A   1      41.127  32.867  32.813  1.00  0.00     0.049 A 
ATOM     35  H   UNL A   1      40.937  31.173  31.569  1.00  0.00     0.167 HD
ATOM     36  C   UNL A   1      43.163  31.535  33.298  1.00  0.00     0.074 A 
ATOM     37  C   UNL A   1      44.412  31.300  33.995  1.00  0.00     0.031 C 
ATOM     38  C   UNL A   1      42.378  32.625  33.483  1.00  0.00     0.037 A 
BRANCH  25  39
ATOM     39  C   UNL A   1      37.182  32.628  30.136  1.00  0.00     0.058 A 
ATOM     40  C   UNL A   1      36.001  32.403  30.860  1.00  0.00     0.135 A 
ATOM     41  C   UNL A   1      37.148  33.588  29.111  1.00  0.00     0.135 A 
ATOM     42  F   UNL A   1      35.975  31.485  31.839  1.00  0.00    -0.206 F 
ATOM     43  C   UNL A   1      34.829  33.095  30.575  1.00  0.00     0.059 A 
ATOM     44  C   UNL A   1      35.991  34.308  28.821  1.00  0.00     0.059 A 
ATOM     45  F   UNL A   1      38.249  33.843  28.387  1.00  0.00    -0.206 F 
ATOM     46  C   UNL A   1      34.834  34.048  29.554  1.00  0.00     0.060 A 
BRANCH  46  47
ATOM     47  S   UNL A   1      33.310  34.957  29.211  1.00  0.00     0.124 S 
ATOM     48  O   UNL A   1      32.674  34.092  28.221  1.00  0.00    -0.237 OA
ATOM     49  O   UNL A   1      32.668  34.998  30.520  1.00  0.00    -0.237 OA
ATOM     50  O   UNL A   1      33.787  36.241  28.708  1.00  0.00    -0.744 OA
ENDBRANCH  46  47
ENDBRANCH  25  39
BRANCH  26  51
ATOM     51  C   UNL A   1      45.624  27.676  32.196  1.00  0.00     0.058 A 
ATOM     52  C   UNL A   1      45.669  26.657  33.157  1.00  0.00     0.135 A 
ATOM     53  C   UNL A   1      46.802  27.968  31.492  1.00  0.00     0.135 A 
ATOM     54  F   UNL A   1      44.568  26.343  33.856  1.00  0.00    -0.206 F 
ATOM     55  C   UNL A   1      46.844  25.962  33.424  1.00  0.00     0.059 A 
ATOM     56  C   UNL A   1      47.981  27.270  31.722  1.00  0.00     0.059 A 
ATOM     57  F   UNL A   1      46.802  28.920  30.546  1.00  0.00    -0.206 F 
ATOM     58  C   UNL A   1      47.996  26.276  32.699  1.00  0.00     0.060 A 
BRANCH  58  59
ATOM     59  S   UNL A   1      49.507  25.338  33.007  1.00  0.00     0.124 S 
ATOM     60  O   UNL A   1      50.021  25.161  31.654  1.00  0.00    -0.237 OA
ATOM     61  O   UNL A   1      50.267  26.242  33.867  1.00  0.00    -0.237 OA
ATOM     62  O   UNL A   1      49.018  24.129  33.663  1.00  0.00    -0.744 OA
ENDBRANCH  58  59
ENDBRANCH  26  51
BRANCH  38  63
ATOM     63  C   UNL A   1      42.865  33.641  34.476  1.00  0.00     0.058 A 
ATOM     64  C   UNL A   1      42.503  33.565  35.831  1.00  0.00     0.135 A 
ATOM     65  C   UNL A   1      43.692  34.698  34.072  1.00  0.00     0.135 A 
ATOM     66  F   UNL A   1      41.708  32.575  36.264  1.00  0.00    -0.206 F 
ATOM     67  C   UNL A   1      42.916  34.527  36.745  1.00  0.00     0.059 A 
ATOM     68  C   UNL A   1      44.135  35.660  34.974  1.00  0.00     0.059 A 
ATOM     69  F   UNL A   1      44.071  34.809  32.789  1.00  0.00    -0.206 F 
ATOM     70  C   UNL A   1      43.725  35.576  36.306  1.00  0.00     0.060 A 
BRANCH  70  71
ATOM     71  S   UNL A   1      44.250  36.827  37.497  1.00  0.00     0.124 S 
ATOM     72  O   UNL A   1      43.507  36.427  38.687  1.00  0.00    -0.237 OA
ATOM     73  O   UNL A   1      45.695  36.623  37.553  1.00  0.00    -0.237 OA
ATOM     74  O   UNL A   1      43.825  38.080  36.880  1.00  0.00    -0.744 OA
ENDBRANCH  70  71
ENDBRANCH  38  63
ENDBRANCH  12  13
ENDBRANCH   5   7
ENDBRANCH   2   3
ENDBRANCH   1   2
BRANCH   1  75
ATOM     75  C   UNL A   1      42.441  22.448  27.587  1.00  0.00     0.023 C 
BRANCH  75  76
ATOM     76  C   UNL A   1      43.317  23.675  27.341  1.00  0.00     0.116 C 
BRANCH  76  77
ATOM     77  N   UNL A   1      44.669  23.316  26.943  1.00  0.00    -0.352 N 
ATOM     78  C   UNL A   1      45.688  24.139  26.540  1.00  0.00     0.251 C 
ATOM     79  H   UNL A   1      44.880  22.355  26.965  1.00  0.00     0.163 HD
ATOM     80  O   UNL A   1      46.739  23.691  26.097  1.00  0.00    -0.269 OA
BRANCH  78  81
ATOM     81  C   UNL A   1      45.504  25.593  26.642  1.00  0.00     0.039 A 
ATOM     82  C   UNL A   1      46.170  26.296  27.641  1.00  0.00     0.016 A 
ATOM     83  C   UNL A   1      44.669  26.256  25.744  1.00  0.00     0.016 A 
ATOM     84  C   UNL A   1      46.040  27.687  27.706  1.00  0.00     0.027 A 
ATOM     85  C   UNL A   1      44.531  27.643  25.826  1.00  0.00     0.027 A 
ATOM     86  C   UNL A   1      45.219  28.386  26.801  1.00  0.00     0.052 A 
BRANCH  86  87
ATOM     87  N   UNL A   1      45.069  29.799  26.890  1.00  0.00    -0.245 N 
ATOM     88  C   UNL A   1      45.965  30.705  26.371  1.00  0.00     0.240 C 
ATOM     89  C   UNL A   1      44.012  30.435  27.515  1.00  0.00     0.292 C 
ATOM     90  O   UNL A   1      47.052  30.511  25.845  1.00  0.00    -0.274 OA
ATOM     91  C   UNL A   1      45.369  32.072  26.446  1.00  0.00     0.176 C 
ATOM     92  C   UNL A   1      44.264  31.942  27.470  1.00  0.00     0.284 C 
ATOM     93  O   UNL A   1      43.054  29.930  28.088  1.00  0.00    -0.267 OA
BRANCH  92  94
ATOM     94  N   UNL A   1      44.468  32.497  28.821  1.00  0.00    -0.321 N 
ATOM     95  C   UNL A   1      45.566  33.459  29.019  1.00  0.00     0.284 C 
ATOM     96  C   UNL A   1      43.240  32.991  29.473  1.00  0.00     0.284 C 
ATOM     97  H   UNL A   1      44.779  31.648  29.292  1.00  0.00     0.348 HD
ATOM     98  C   UNL A   1      45.256  34.936  28.691  1.00  0.00     0.178 C 
ATOM     99  C   UNL A   1      42.844  34.461  29.197  1.00  0.00     0.178 C 
ATOM    100  N   UNL A   1      43.998  35.364  29.315  1.00  0.00    -0.360 N 
BRANCH 100 101
ATOM    101  C   UNL A   1      43.749  36.718  29.490  1.00  0.00     0.037 A 
ATOM    102  C   UNL A   1      43.173  37.515  28.487  1.00  0.00     0.029 A 
ATOM    103  C   UNL A   1      44.112  37.347  30.692  1.00  0.00     0.029 A 
ATOM    104  C   UNL A   1      42.976  38.888  28.674  1.00  0.00     0.041 A 
ATOM    105  C   UNL A   1      43.929  38.719  30.882  1.00  0.00     0.041 A 
ATOM    106  C   UNL A   1      43.363  39.478  29.868  1.00  0.00     0.123 A 
ATOM    107  F   UNL A   1      43.194  40.795  30.043  1.00  0.00    -0.207 F 
ENDBRANCH 100 101
ENDBRANCH  92  94
ENDBRANCH  86  87
ENDBRANCH  78  81
ENDBRANCH  76  77
ENDBRANCH  75  76
ENDBRANCH   1  75
TORSDOF 17
ENDMDL
