MODEL 1
REMARK VINA RESULT:     -12.0      0.000      0.000
REMARK SMILES CC(C)CN(C)c1cc2c(cc1Cl)C=C(C(=O)NCCCCNC(=O)c1ccc(-c3c4nc(c(-c5c(F)cc(S(=O)(=O)[O-])cc5F)c5ccc([nH]5)c(-c5c(F)cc(S(=O)(=O)[O-])cc5F)c5nc(c(-c6c(F)cc(S(=O)(=O)[O-])cc6F)c6ccc3[nH]6)C=C5)C=C4)cc1)[C@H](C(F)(F)F)O2
REMARK SMILES IDX 20 1 19 2 18 3 16 4 17 5 15 7 7 8 8 9 12 10 9 11 11 12 13 13
REMARK SMILES IDX 10 14 97 15 14 16 92 17 5 18 6 19 4 20 2 21 1 22 3 23 93 24
REMARK SMILES IDX 94 25 95 26 96 27 21 28 22 29 23 30 24 31 25 33 26 34 27 35
REMARK SMILES IDX 91 36 28 37 90 38 29 39 30 40 31 41 84 42 32 43 89 44 83 45
REMARK SMILES IDX 85 46 33 47 88 48 82 49 81 50 34 52 68 53 47 54 67 55 48 56
REMARK SMILES IDX 51 57 66 58 86 59 49 60 50 61 65 63 87 64 52 65 35 66 36 67
REMARK SMILES IDX 45 68 37 69 38 70 44 71 46 72 39 73 40 74 41 75 42 76 43 77
REMARK SMILES IDX 69 78 70 79 79 80 71 81 72 82 78 83 80 84 73 85 74 86 75 87
REMARK SMILES IDX 76 88 77 89 53 90 54 91 63 92 55 93 56 94 62 95 64 96 57 97
REMARK SMILES IDX 58 98 59 99 60 100 61 101
REMARK H PARENT 18 6 23 32 85 51 51 62
REMARK Flexibility Score: inf
ROOT
ATOM      1  C   UNL A   1      31.758  27.348  26.151  1.00  0.00     0.023 C 
ENDROOT
BRANCH   1   2
ATOM      2  C   UNL A   1      31.318  28.258  25.005  1.00  0.00     0.116 C 
BRANCH   2   3
ATOM      3  N   UNL A   1      32.461  28.743  24.255  1.00  0.00    -0.352 N 
ATOM      4  C   UNL A   1      33.461  28.148  23.563  1.00  0.00     0.251 C 
ATOM      5  O   UNL A   1      34.237  28.887  22.956  1.00  0.00    -0.270 OA
ATOM      6  H   UNL A   1      32.523  29.725  24.248  1.00  0.00     0.163 HD
BRANCH   4   7
ATOM      7  C   UNL A   1      33.643  26.672  23.491  1.00  0.00     0.067 C 
ATOM      8  C   UNL A   1      34.083  21.825  24.877  1.00  0.00     0.059 A 
ATOM      9  C   UNL A   1      33.848  22.496  23.665  1.00  0.00     0.074 A 
ATOM     10  C   UNL A   1      34.352  22.614  26.015  1.00  0.00     0.065 A 
ATOM     11  C   UNL A   1      33.835  23.891  23.596  1.00  0.00     0.130 A 
ATOM     12  C   UNL A   1      34.295  24.012  25.953  1.00  0.00     0.034 A 
ATOM     13  Cl  UNL A   1      34.793  21.911  27.534  1.00  0.00    -0.082 Cl
ATOM     14  C   UNL A   1      34.026  24.652  24.743  1.00  0.00     0.019 A 
ATOM     15  O   UNL A   1      33.651  24.427  22.357  1.00  0.00    -0.475 OA
ATOM     16  C   UNL A   1      33.940  26.099  24.669  1.00  0.00     0.025 C 
ATOM     17  C   UNL A   1      33.396  25.857  22.246  1.00  0.00     0.314 C 
BRANCH   8  18
ATOM     18  N   UNL A   1      34.034  20.422  24.928  1.00  0.00    -0.373 N 
ATOM     19  C   UNL A   1      35.335  19.765  24.838  1.00  0.00     0.143 C 
BRANCH  18  20
ATOM     20  C   UNL A   1      32.922  19.781  24.193  1.00  0.00     0.119 C 
BRANCH  20  21
ATOM     21  C   UNL A   1      33.124  18.262  24.023  1.00  0.00     0.002 C 
ATOM     22  C   UNL A   1      32.444  17.463  25.140  1.00  0.00     0.009 C 
ATOM     23  C   UNL A   1      32.580  17.785  22.673  1.00  0.00     0.009 C 
ENDBRANCH  20  21
ENDBRANCH  18  20
ENDBRANCH   8  18
BRANCH  17  24
ATOM     24  C   UNL A   1      32.006  26.037  21.612  1.00  0.00     0.429 C 
ATOM     25  F   UNL A   1      31.553  27.309  21.709  1.00  0.00    -0.167 F 
ATOM     26  F   UNL A   1      31.961  25.699  20.307  1.00  0.00    -0.167 F 
ATOM     27  F   UNL A   1      31.105  25.248  22.256  1.00  0.00    -0.167 F 
ENDBRANCH  17  24
ENDBRANCH   4   7
ENDBRANCH   2   3
ENDBRANCH   1   2
BRANCH   1  28
ATOM     28  C   UNL A   1      32.143  28.089  27.432  1.00  0.00     0.023 C 
BRANCH  28  29
ATOM     29  C   UNL A   1      33.515  28.748  27.402  1.00  0.00     0.116 C 
BRANCH  29  30
ATOM     30  N   UNL A   1      33.517  30.125  27.880  1.00  0.00    -0.352 N 
ATOM     31  C   UNL A   1      34.566  30.826  28.432  1.00  0.00     0.251 C 
ATOM     32  H   UNL A   1      32.665  30.612  27.801  1.00  0.00     0.163 HD
ATOM     33  O   UNL A   1      34.405  31.962  28.865  1.00  0.00    -0.269 OA
BRANCH  31  34
ATOM     34  C   UNL A   1      35.874  30.152  28.533  1.00  0.00     0.039 A 
ATOM     35  C   UNL A   1      36.306  29.668  29.768  1.00  0.00     0.014 A 
ATOM     36  C   UNL A   1      36.721  30.135  27.422  1.00  0.00     0.014 A 
ATOM     37  C   UNL A   1      37.645  29.349  29.939  1.00  0.00     0.010 A 
ATOM     38  C   UNL A   1      38.046  29.720  27.578  1.00  0.00     0.010 A 
ATOM     39  C   UNL A   1      38.534  29.383  28.850  1.00  0.00    -0.014 A 
BRANCH  39  40
ATOM     40  C   UNL A   1      39.970  29.085  29.083  1.00  0.00     0.031 A 
ATOM     41  C   UNL A   1      40.558  27.754  28.692  1.00  0.00     0.074 A 
ATOM     42  C   UNL A   1      40.764  30.059  29.569  1.00  0.00     0.049 A 
ATOM     43  N   UNL A   1      41.794  27.338  28.799  1.00  0.00    -0.248 NA
ATOM     44  C   UNL A   1      39.644  26.759  28.108  1.00  0.00     0.031 C 
ATOM     45  C   UNL A   1      40.309  31.396  29.959  1.00  0.00     0.029 A 
ATOM     46  N   UNL A   1      42.118  30.096  29.777  1.00  0.00    -0.354 N 
ATOM     47  C   UNL A   1      41.803  26.032  28.320  1.00  0.00     0.074 A 
ATOM     48  C   UNL A   1      40.444  25.713  27.942  1.00  0.00     0.031 C 
ATOM     49  C   UNL A   1      41.373  32.146  30.282  1.00  0.00     0.029 A 
ATOM     50  C   UNL A   1      42.574  31.323  30.196  1.00  0.00     0.049 A 
ATOM     51  H   UNL A   1      42.706  29.319  29.641  1.00  0.00     0.167 HD
ATOM     52  C   UNL A   1      42.851  25.183  28.198  1.00  0.00     0.037 A 
ATOM     53  C   UNL A   1      43.820  31.740  30.490  1.00  0.00     0.037 A 
ATOM     54  C   UNL A   1      44.208  25.518  28.549  1.00  0.00     0.049 A 
ATOM     55  C   UNL A   1      44.957  30.769  30.382  1.00  0.00     0.074 A 
ATOM     56  C   UNL A   1      45.341  24.727  28.462  1.00  0.00     0.029 A 
ATOM     57  N   UNL A   1      44.617  26.747  29.044  1.00  0.00    -0.354 N 
ATOM     58  N   UNL A   1      44.939  29.527  29.962  1.00  0.00    -0.248 NA
ATOM     59  C   UNL A   1      46.279  31.245  30.807  1.00  0.00     0.031 C 
ATOM     60  C   UNL A   1      46.430  25.468  28.934  1.00  0.00     0.029 A 
ATOM     61  C   UNL A   1      45.982  26.734  29.280  1.00  0.00     0.049 A 
ATOM     62  H   UNL A   1      44.025  27.518  29.204  1.00  0.00     0.167 HD
ATOM     63  C   UNL A   1      46.245  29.071  30.075  1.00  0.00     0.074 A 
ATOM     64  C   UNL A   1      47.033  30.178  30.580  1.00  0.00     0.031 C 
ATOM     65  C   UNL A   1      46.746  27.843  29.793  1.00  0.00     0.037 A 
BRANCH  52  66
ATOM     66  C   UNL A   1      42.578  23.800  27.672  1.00  0.00     0.058 A 
ATOM     67  C   UNL A   1      42.494  23.538  26.296  1.00  0.00     0.135 A 
ATOM     68  C   UNL A   1      42.442  22.715  28.554  1.00  0.00     0.135 A 
ATOM     69  F   UNL A   1      42.599  24.541  25.410  1.00  0.00    -0.206 F 
ATOM     70  C   UNL A   1      42.267  22.253  25.812  1.00  0.00     0.059 A 
ATOM     71  C   UNL A   1      42.235  21.418  28.093  1.00  0.00     0.059 A 
ATOM     72  F   UNL A   1      42.513  22.910  29.880  1.00  0.00    -0.206 F 
ATOM     73  C   UNL A   1      42.138  21.199  26.719  1.00  0.00     0.060 A 
BRANCH  73  74
ATOM     74  S   UNL A   1      41.845  19.538  26.075  1.00  0.00     0.124 S 
ATOM     75  O   UNL A   1      42.258  18.711  27.205  1.00  0.00    -0.237 OA
ATOM     76  O   UNL A   1      40.413  19.558  25.796  1.00  0.00    -0.237 OA
ATOM     77  O   UNL A   1      42.709  19.470  24.900  1.00  0.00    -0.744 OA
ENDBRANCH  73  74
ENDBRANCH  52  66
BRANCH  53  78
ATOM     78  C   UNL A   1      44.038  33.147  30.914  1.00  0.00     0.058 A 
ATOM     79  C   UNL A   1      44.000  33.504  32.268  1.00  0.00     0.135 A 
ATOM     80  C   UNL A   1      44.350  34.147  29.979  1.00  0.00     0.135 A 
ATOM     81  F   UNL A   1      43.700  32.582  33.197  1.00  0.00    -0.206 F 
ATOM     82  C   UNL A   1      44.272  34.802  32.685  1.00  0.00     0.059 A 
ATOM     83  C   UNL A   1      44.650  35.446  30.373  1.00  0.00     0.059 A 
ATOM     84  F   UNL A   1      44.414  33.849  28.672  1.00  0.00    -0.206 F 
ATOM     85  C   UNL A   1      44.606  35.764  31.730  1.00  0.00     0.060 A 
BRANCH  85  86
ATOM     86  S   UNL A   1      45.042  37.425  32.288  1.00  0.00     0.124 S 
ATOM     87  O   UNL A   1      46.377  37.583  31.722  1.00  0.00    -0.237 OA
ATOM     88  O   UNL A   1      43.992  38.239  31.684  1.00  0.00    -0.237 OA
ATOM     89  O   UNL A   1      44.981  37.316  33.742  1.00  0.00    -0.744 OA
ENDBRANCH  85  86
ENDBRANCH  53  78
BRANCH  65  90
ATOM     90  C   UNL A   1      48.213  27.629  30.028  1.00  0.00     0.058 A 
ATOM     91  C   UNL A   1      49.159  27.932  29.038  1.00  0.00     0.135 A 
ATOM     92  C   UNL A   1      48.680  27.180  31.273  1.00  0.00     0.135 A 
ATOM     93  F   UNL A   1      48.760  28.358  27.828  1.00  0.00    -0.206 F 
ATOM     94  C   UNL A   1      50.522  27.789  29.271  1.00  0.00     0.059 A 
ATOM     95  C   UNL A   1      50.039  27.047  31.534  1.00  0.00     0.059 A 
ATOM     96  F   UNL A   1      47.812  26.882  32.253  1.00  0.00    -0.206 F 
ATOM     97  C   UNL A   1      50.953  27.348  30.524  1.00  0.00     0.060 A 
BRANCH  97  98
ATOM     98  S   UNL A   1      52.727  27.212  30.828  1.00  0.00     0.124 S 
ATOM     99  O   UNL A   1      53.253  27.137  29.469  1.00  0.00    -0.237 OA
ATOM    100  O   UNL A   1      53.015  28.447  31.552  1.00  0.00    -0.237 OA
ATOM    101  O   UNL A   1      52.844  25.990  31.616  1.00  0.00    -0.744 OA
ENDBRANCH  97  98
ENDBRANCH  65  90
ENDBRANCH  39  40
ENDBRANCH  31  34
ENDBRANCH  29  30
ENDBRANCH  28  29
ENDBRANCH   1  28
TORSDOF 18
ENDMDL
MODEL 2
REMARK VINA RESULT:     -11.2      4.542     11.287
REMARK SMILES CC(C)CN(C)c1cc2c(cc1Cl)C=C(C(=O)NCCCCNC(=O)c1ccc(-c3c4nc(c(-c5c(F)cc(S(=O)(=O)[O-])cc5F)c5ccc([nH]5)c(-c5c(F)cc(S(=O)(=O)[O-])cc5F)c5nc(c(-c6c(F)cc(S(=O)(=O)[O-])cc6F)c6ccc3[nH]6)C=C5)C=C4)cc1)[C@H](C(F)(F)F)O2
REMARK SMILES IDX 20 1 19 2 18 3 16 4 17 5 15 7 7 8 8 9 12 10 9 11 11 12 13 13
REMARK SMILES IDX 10 14 97 15 14 16 92 17 5 18 6 19 4 20 2 21 1 22 3 23 93 24
REMARK SMILES IDX 94 25 95 26 96 27 21 28 22 29 23 30 24 31 25 33 26 34 27 35
REMARK SMILES IDX 91 36 28 37 90 38 29 39 30 40 31 41 84 42 32 43 89 44 83 45
REMARK SMILES IDX 85 46 33 47 88 48 82 49 81 50 34 52 68 53 47 54 67 55 48 56
REMARK SMILES IDX 51 57 66 58 86 59 49 60 50 61 65 63 87 64 52 65 35 66 36 67
REMARK SMILES IDX 45 68 37 69 38 70 44 71 46 72 39 73 40 74 41 75 42 76 43 77
REMARK SMILES IDX 69 78 70 79 79 80 71 81 72 82 78 83 80 84 73 85 74 86 75 87
REMARK SMILES IDX 76 88 77 89 53 90 54 91 63 92 55 93 56 94 62 95 64 96 57 97
REMARK SMILES IDX 58 98 59 99 60 100 61 101
REMARK H PARENT 18 6 23 32 85 51 51 62
REMARK Flexibility Score: inf
ROOT
ATOM      1  C   UNL A   1      34.406  33.136  32.391  1.00  0.00     0.023 C 
ENDROOT
BRANCH   1   2
ATOM      2  C   UNL A   1      35.579  32.665  33.251  1.00  0.00     0.116 C 
BRANCH   2   3
ATOM      3  N   UNL A   1      36.517  33.744  33.491  1.00  0.00    -0.352 N 
ATOM      4  C   UNL A   1      37.763  33.817  34.017  1.00  0.00     0.251 C 
ATOM      5  O   UNL A   1      38.319  34.917  33.987  1.00  0.00    -0.270 OA
ATOM      6  H   UNL A   1      36.170  34.621  33.209  1.00  0.00     0.163 HD
BRANCH   4   7
ATOM      7  C   UNL A   1      38.479  32.647  34.595  1.00  0.00     0.067 C 
ATOM      8  C   UNL A   1      41.633  28.719  35.074  1.00  0.00     0.059 A 
ATOM      9  C   UNL A   1      40.879  29.503  35.963  1.00  0.00     0.074 A 
ATOM     10  C   UNL A   1      41.470  28.962  33.694  1.00  0.00     0.065 A 
ATOM     11  C   UNL A   1      40.035  30.516  35.502  1.00  0.00     0.130 A 
ATOM     12  C   UNL A   1      40.658  30.006  33.236  1.00  0.00     0.034 A 
ATOM     13  Cl  UNL A   1      42.234  27.976  32.494  1.00  0.00    -0.082 Cl
ATOM     14  C   UNL A   1      39.946  30.792  34.143  1.00  0.00     0.019 A 
ATOM     15  O   UNL A   1      39.314  31.172  36.454  1.00  0.00    -0.475 OA
ATOM     16  C   UNL A   1      39.119  31.893  33.685  1.00  0.00     0.025 C 
ATOM     17  C   UNL A   1      38.596  32.383  36.075  1.00  0.00     0.314 C 
BRANCH   8  18
ATOM     18  N   UNL A   1      42.518  27.746  35.568  1.00  0.00    -0.373 N 
ATOM     19  C   UNL A   1      41.920  26.804  36.511  1.00  0.00     0.143 C 
BRANCH  18  20
ATOM     20  C   UNL A   1      43.887  28.207  35.880  1.00  0.00     0.119 C 
BRANCH  20  21
ATOM     21  C   UNL A   1      44.968  27.400  35.131  1.00  0.00     0.002 C 
ATOM     22  C   UNL A   1      44.376  26.198  34.387  1.00  0.00     0.009 C 
ATOM     23  C   UNL A   1      45.713  28.284  34.127  1.00  0.00     0.009 C 
ENDBRANCH  20  21
ENDBRANCH  18  20
ENDBRANCH   8  18
BRANCH  17  24
ATOM     24  C   UNL A   1      39.169  33.545  36.902  1.00  0.00     0.429 C 
ATOM     25  F   UNL A   1      40.237  34.127  36.309  1.00  0.00    -0.167 F 
ATOM     26  F   UNL A   1      38.273  34.523  37.151  1.00  0.00    -0.167 F 
ATOM     27  F   UNL A   1      39.592  33.081  38.108  1.00  0.00    -0.167 F 
ENDBRANCH  17  24
ENDBRANCH   4   7
ENDBRANCH   2   3
ENDBRANCH   1   2
BRANCH   1  28
ATOM     28  C   UNL A   1      34.778  33.464  30.945  1.00  0.00     0.023 C 
BRANCH  28  29
ATOM     29  C   UNL A   1      35.360  32.302  30.154  1.00  0.00     0.116 C 
BRANCH  29  30
ATOM     30  N   UNL A   1      34.430  31.714  29.199  1.00  0.00    -0.352 N 
ATOM     31  C   UNL A   1      34.661  30.678  28.321  1.00  0.00     0.251 C 
ATOM     32  H   UNL A   1      33.526  32.105  29.178  1.00  0.00     0.163 HD
ATOM     33  O   UNL A   1      33.804  30.334  27.515  1.00  0.00    -0.269 OA
BRANCH  31  34
ATOM     34  C   UNL A   1      35.987  30.032  28.345  1.00  0.00     0.039 A 
ATOM     35  C   UNL A   1      36.435  29.422  29.516  1.00  0.00     0.014 A 
ATOM     36  C   UNL A   1      36.829  30.163  27.238  1.00  0.00     0.014 A 
ATOM     37  C   UNL A   1      37.782  29.120  29.649  1.00  0.00     0.010 A 
ATOM     38  C   UNL A   1      38.165  29.767  27.345  1.00  0.00     0.010 A 
ATOM     39  C   UNL A   1      38.666  29.300  28.570  1.00  0.00    -0.014 A 
BRANCH  39  40
ATOM     40  C   UNL A   1      40.111  29.015  28.767  1.00  0.00     0.031 A 
ATOM     41  C   UNL A   1      41.003  30.000  29.477  1.00  0.00     0.074 A 
ATOM     42  C   UNL A   1      40.595  27.819  28.382  1.00  0.00     0.049 A 
ATOM     43  N   UNL A   1      42.278  29.900  29.758  1.00  0.00    -0.248 NA
ATOM     44  C   UNL A   1      40.392  31.262  29.927  1.00  0.00     0.031 C 
ATOM     45  C   UNL A   1      39.816  26.776  27.708  1.00  0.00     0.029 A 
ATOM     46  N   UNL A   1      41.835  27.258  28.536  1.00  0.00    -0.354 N 
ATOM     47  C   UNL A   1      42.625  31.086  30.395  1.00  0.00     0.074 A 
ATOM     48  C   UNL A   1      41.434  31.905  30.439  1.00  0.00     0.031 C 
ATOM     49  C   UNL A   1      40.572  25.677  27.580  1.00  0.00     0.029 A 
ATOM     50  C   UNL A   1      41.909  25.960  28.091  1.00  0.00     0.049 A 
ATOM     51  H   UNL A   1      42.600  27.738  28.928  1.00  0.00     0.167 HD
ATOM     52  C   UNL A   1      43.826  31.454  30.904  1.00  0.00     0.037 A 
ATOM     53  C   UNL A   1      42.939  25.094  28.083  1.00  0.00     0.037 A 
ATOM     54  C   UNL A   1      45.001  30.621  30.882  1.00  0.00     0.049 A 
ATOM     55  C   UNL A   1      44.267  25.537  28.619  1.00  0.00     0.074 A 
ATOM     56  C   UNL A   1      46.265  30.901  31.372  1.00  0.00     0.029 A 
ATOM     57  N   UNL A   1      45.055  29.340  30.351  1.00  0.00    -0.354 N 
ATOM     58  N   UNL A   1      44.585  26.678  29.183  1.00  0.00    -0.248 NA
ATOM     59  C   UNL A   1      45.382  24.590  28.498  1.00  0.00     0.031 C 
ATOM     60  C   UNL A   1      47.091  29.803  31.108  1.00  0.00     0.029 A 
ATOM     61  C   UNL A   1      46.333  28.822  30.488  1.00  0.00     0.049 A 
ATOM     62  H   UNL A   1      44.297  28.868  29.938  1.00  0.00     0.167 HD
ATOM     63  C   UNL A   1      45.937  26.587  29.483  1.00  0.00     0.074 A 
ATOM     64  C   UNL A   1      46.372  25.271  29.059  1.00  0.00     0.031 C 
ATOM     65  C   UNL A   1      46.748  27.514  30.051  1.00  0.00     0.037 A 
BRANCH  52  66
ATOM     66  C   UNL A   1      43.939  32.821  31.520  1.00  0.00     0.058 A 
ATOM     67  C   UNL A   1      44.347  33.936  30.772  1.00  0.00     0.135 A 
ATOM     68  C   UNL A   1      43.591  33.028  32.865  1.00  0.00     0.135 A 
ATOM     69  F   UNL A   1      44.708  33.791  29.487  1.00  0.00    -0.206 F 
ATOM     70  C   UNL A   1      44.425  35.205  31.339  1.00  0.00     0.059 A 
ATOM     71  C   UNL A   1      43.641  34.291  33.449  1.00  0.00     0.059 A 
ATOM     72  F   UNL A   1      43.195  31.996  33.627  1.00  0.00    -0.206 F 
ATOM     73  C   UNL A   1      44.071  35.371  32.679  1.00  0.00     0.060 A 
BRANCH  73  74
ATOM     74  S   UNL A   1      44.176  37.024  33.400  1.00  0.00     0.124 S 
ATOM     75  O   UNL A   1      43.096  36.983  34.381  1.00  0.00    -0.237 OA
ATOM     76  O   UNL A   1      45.529  37.041  33.948  1.00  0.00    -0.237 OA
ATOM     77  O   UNL A   1      43.954  37.908  32.260  1.00  0.00    -0.744 OA
ENDBRANCH  73  74
ENDBRANCH  52  66
BRANCH  53  78
ATOM     78  C   UNL A   1      42.737  23.724  27.546  1.00  0.00     0.058 A 
ATOM     79  C   UNL A   1      42.970  23.441  26.193  1.00  0.00     0.135 A 
ATOM     80  C   UNL A   1      42.371  22.661  28.387  1.00  0.00     0.135 A 
ATOM     81  F   UNL A   1      43.315  24.427  25.352  1.00  0.00    -0.206 F 
ATOM     82  C   UNL A   1      42.853  22.149  25.691  1.00  0.00     0.059 A 
ATOM     83  C   UNL A   1      42.273  21.357  27.913  1.00  0.00     0.059 A 
ATOM     84  F   UNL A   1      42.154  22.880  29.693  1.00  0.00    -0.206 F 
ATOM     85  C   UNL A   1      42.514  21.112  26.562  1.00  0.00     0.060 A 
BRANCH  85  86
ATOM     86  S   UNL A   1      42.451  19.426  25.919  1.00  0.00     0.124 S 
ATOM     87  O   UNL A   1      43.031  18.669  27.023  1.00  0.00    -0.237 OA
ATOM     88  O   UNL A   1      41.021  19.236  25.695  1.00  0.00    -0.237 OA
ATOM     89  O   UNL A   1      43.263  19.499  24.708  1.00  0.00    -0.744 OA
ENDBRANCH  85  86
ENDBRANCH  53  78
BRANCH  65  90
ATOM     90  C   UNL A   1      48.189  27.140  30.243  1.00  0.00     0.058 A 
ATOM     91  C   UNL A   1      49.156  27.453  29.278  1.00  0.00     0.135 A 
ATOM     92  C   UNL A   1      48.615  26.522  31.430  1.00  0.00     0.135 A 
ATOM     93  F   UNL A   1      48.796  28.036  28.123  1.00  0.00    -0.206 F 
ATOM     94  C   UNL A   1      50.500  27.158  29.477  1.00  0.00     0.059 A 
ATOM     95  C   UNL A   1      49.956  26.236  31.659  1.00  0.00     0.059 A 
ATOM     96  F   UNL A   1      47.725  26.208  32.385  1.00  0.00    -0.206 F 
ATOM     97  C   UNL A   1      50.891  26.552  30.674  1.00  0.00     0.060 A 
BRANCH  97  98
ATOM     98  S   UNL A   1      52.645  26.219  30.939  1.00  0.00     0.124 S 
ATOM     99  O   UNL A   1      53.122  26.048  29.571  1.00  0.00    -0.237 OA
ATOM    100  O   UNL A   1      53.093  27.430  31.620  1.00  0.00    -0.237 OA
ATOM    101  O   UNL A   1      52.641  25.012  31.759  1.00  0.00    -0.744 OA
ENDBRANCH  97  98
ENDBRANCH  65  90
ENDBRANCH  39  40
ENDBRANCH  31  34
ENDBRANCH  29  30
ENDBRANCH  28  29
ENDBRANCH   1  28
TORSDOF 18
ENDMDL
MODEL 3
REMARK VINA RESULT:     -10.8      5.999     10.087
REMARK SMILES CC(C)CN(C)c1cc2c(cc1Cl)C=C(C(=O)NCCCCNC(=O)c1ccc(-c3c4nc(c(-c5c(F)cc(S(=O)(=O)[O-])cc5F)c5ccc([nH]5)c(-c5c(F)cc(S(=O)(=O)[O-])cc5F)c5nc(c(-c6c(F)cc(S(=O)(=O)[O-])cc6F)c6ccc3[nH]6)C=C5)C=C4)cc1)[C@H](C(F)(F)F)O2
REMARK SMILES IDX 20 1 19 2 18 3 16 4 17 5 15 7 7 8 8 9 12 10 9 11 11 12 13 13
REMARK SMILES IDX 10 14 97 15 14 16 92 17 5 18 6 19 4 20 2 21 1 22 3 23 93 24
REMARK SMILES IDX 94 25 95 26 96 27 21 28 22 29 23 30 24 31 25 33 26 34 27 35
REMARK SMILES IDX 91 36 28 37 90 38 29 39 30 40 31 41 84 42 32 43 89 44 83 45
REMARK SMILES IDX 85 46 33 47 88 48 82 49 81 50 34 52 68 53 47 54 67 55 48 56
REMARK SMILES IDX 51 57 66 58 86 59 49 60 50 61 65 63 87 64 52 65 35 66 36 67
REMARK SMILES IDX 45 68 37 69 38 70 44 71 46 72 39 73 40 74 41 75 42 76 43 77
REMARK SMILES IDX 69 78 70 79 79 80 71 81 72 82 78 83 80 84 73 85 74 86 75 87
REMARK SMILES IDX 76 88 77 89 53 90 54 91 63 92 55 93 56 94 62 95 64 96 57 97
REMARK SMILES IDX 58 98 59 99 60 100 61 101
REMARK H PARENT 18 6 23 32 85 51 51 62
REMARK Flexibility Score: inf
ROOT
ATOM      1  C   UNL A   1      34.998  34.121  33.616  1.00  0.00     0.023 C 
ENDROOT
BRANCH   1   2
ATOM      2  C   UNL A   1      34.917  32.705  33.047  1.00  0.00     0.116 C 
BRANCH   2   3
ATOM      3  N   UNL A   1      34.512  32.724  31.654  1.00  0.00    -0.352 N 
ATOM      4  C   UNL A   1      35.086  32.321  30.496  1.00  0.00     0.251 C 
ATOM      5  O   UNL A   1      34.402  32.410  29.474  1.00  0.00    -0.270 OA
ATOM      6  H   UNL A   1      33.621  33.120  31.522  1.00  0.00     0.163 HD
BRANCH   4   7
ATOM      7  C   UNL A   1      36.465  31.768  30.412  1.00  0.00     0.067 C 
ATOM      8  C   UNL A   1      40.427  28.977  28.956  1.00  0.00     0.059 A 
ATOM      9  C   UNL A   1      40.261  30.158  29.699  1.00  0.00     0.074 A 
ATOM     10  C   UNL A   1      39.261  28.296  28.550  1.00  0.00     0.065 A 
ATOM     11  C   UNL A   1      38.992  30.666  29.985  1.00  0.00     0.130 A 
ATOM     12  C   UNL A   1      37.990  28.829  28.799  1.00  0.00     0.034 A 
ATOM     13  Cl  UNL A   1      39.327  26.762  27.751  1.00  0.00    -0.082 Cl
ATOM     14  C   UNL A   1      37.856  30.022  29.510  1.00  0.00     0.019 A 
ATOM     15  O   UNL A   1      38.956  31.787  30.759  1.00  0.00    -0.475 OA
ATOM     16  C   UNL A   1      36.547  30.599  29.755  1.00  0.00     0.025 C 
ATOM     17  C   UNL A   1      37.691  32.496  30.900  1.00  0.00     0.314 C 
BRANCH   8  18
ATOM     18  N   UNL A   1      41.716  28.521  28.635  1.00  0.00    -0.373 N 
ATOM     19  C   UNL A   1      42.272  27.555  29.580  1.00  0.00     0.143 C 
BRANCH  18  20
ATOM     20  C   UNL A   1      42.653  29.533  28.104  1.00  0.00     0.119 C 
BRANCH  20  21
ATOM     21  C   UNL A   1      43.096  29.229  26.659  1.00  0.00     0.002 C 
ATOM     22  C   UNL A   1      44.466  28.545  26.608  1.00  0.00     0.009 C 
ATOM     23  C   UNL A   1      42.072  28.339  25.949  1.00  0.00     0.009 C 
ENDBRANCH  20  21
ENDBRANCH  18  20
ENDBRANCH   8  18
BRANCH  17  24
ATOM     24  C   UNL A   1      37.882  33.911  30.329  1.00  0.00     0.429 C 
ATOM     25  F   UNL A   1      37.481  34.008  29.041  1.00  0.00    -0.167 F 
ATOM     26  F   UNL A   1      37.225  34.865  31.021  1.00  0.00    -0.167 F 
ATOM     27  F   UNL A   1      39.201  34.240  30.357  1.00  0.00    -0.167 F 
ENDBRANCH  17  24
ENDBRANCH   4   7
ENDBRANCH   2   3
ENDBRANCH   1   2
BRANCH   1  28
ATOM     28  C   UNL A   1      36.409  34.567  33.998  1.00  0.00     0.023 C 
BRANCH  28  29
ATOM     29  C   UNL A   1      37.336  33.446  34.446  1.00  0.00     0.116 C 
BRANCH  29  30
ATOM     30  N   UNL A   1      37.118  33.017  35.821  1.00  0.00    -0.352 N 
ATOM     31  C   UNL A   1      37.760  32.007  36.503  1.00  0.00     0.251 C 
ATOM     32  H   UNL A   1      36.428  33.507  36.324  1.00  0.00     0.163 HD
ATOM     33  O   UNL A   1      37.420  31.701  37.642  1.00  0.00    -0.269 OA
BRANCH  31  34
ATOM     34  C   UNL A   1      38.831  31.270  35.806  1.00  0.00     0.039 A 
ATOM     35  C   UNL A   1      40.153  31.416  36.226  1.00  0.00     0.014 A 
ATOM     36  C   UNL A   1      38.522  30.549  34.650  1.00  0.00     0.014 A 
ATOM     37  C   UNL A   1      41.178  31.009  35.385  1.00  0.00     0.010 A 
ATOM     38  C   UNL A   1      39.559  30.056  33.854  1.00  0.00     0.010 A 
ATOM     39  C   UNL A   1      40.895  30.336  34.183  1.00  0.00    -0.014 A 
BRANCH  39  40
ATOM     40  C   UNL A   1      42.017  29.962  33.285  1.00  0.00     0.031 A 
ATOM     41  C   UNL A   1      42.572  30.948  32.289  1.00  0.00     0.074 A 
ATOM     42  C   UNL A   1      42.595  28.755  33.435  1.00  0.00     0.049 A 
ATOM     43  N   UNL A   1      43.564  30.798  31.450  1.00  0.00    -0.248 NA
ATOM     44  C   UNL A   1      41.932  32.272  32.223  1.00  0.00     0.031 C 
ATOM     45  C   UNL A   1      42.158  27.728  34.385  1.00  0.00     0.029 A 
ATOM     46  N   UNL A   1      43.692  28.201  32.831  1.00  0.00    -0.354 N 
ATOM     47  C   UNL A   1      43.653  31.992  30.743  1.00  0.00     0.074 A 
ATOM     48  C   UNL A   1      42.599  32.852  31.234  1.00  0.00     0.031 C 
ATOM     49  C   UNL A   1      43.024  26.705  34.356  1.00  0.00     0.029 A 
ATOM     50  C   UNL A   1      44.031  26.968  33.334  1.00  0.00     0.049 A 
ATOM     51  H   UNL A   1      44.189  28.643  32.105  1.00  0.00     0.167 HD
ATOM     52  C   UNL A   1      44.540  32.342  29.779  1.00  0.00     0.037 A 
ATOM     53  C   UNL A   1      45.035  26.133  33.005  1.00  0.00     0.037 A 
ATOM     54  C   UNL A   1      45.606  31.490  29.316  1.00  0.00     0.049 A 
ATOM     55  C   UNL A   1      45.981  26.528  31.911  1.00  0.00     0.074 A 
ATOM     56  C   UNL A   1      46.557  31.752  28.345  1.00  0.00     0.029 A 
ATOM     57  N   UNL A   1      45.869  30.216  29.797  1.00  0.00    -0.354 N 
ATOM     58  N   UNL A   1      46.025  27.647  31.228  1.00  0.00    -0.248 NA
ATOM     59  C   UNL A   1      46.997  25.542  31.524  1.00  0.00     0.031 C 
ATOM     60  C   UNL A   1      47.375  30.624  28.217  1.00  0.00     0.029 A 
ATOM     61  C   UNL A   1      46.958  29.673  29.135  1.00  0.00     0.049 A 
ATOM     62  H   UNL A   1      45.357  29.764  30.507  1.00  0.00     0.167 HD
ATOM     63  C   UNL A   1      47.072  27.500  30.329  1.00  0.00     0.074 A 
ATOM     64  C   UNL A   1      47.649  26.192  30.569  1.00  0.00     0.031 C 
ATOM     65  C   UNL A   1      47.511  28.366  29.382  1.00  0.00     0.037 A 
BRANCH  52  66
ATOM     66  C   UNL A   1      44.394  33.699  29.150  1.00  0.00     0.058 A 
ATOM     67  C   UNL A   1      43.803  33.868  27.888  1.00  0.00     0.135 A 
ATOM     68  C   UNL A   1      44.809  34.853  29.836  1.00  0.00     0.135 A 
ATOM     69  F   UNL A   1      43.404  32.798  27.181  1.00  0.00    -0.206 F 
ATOM     70  C   UNL A   1      43.645  35.128  27.320  1.00  0.00     0.059 A 
ATOM     71  C   UNL A   1      44.643  36.125  29.296  1.00  0.00     0.059 A 
ATOM     72  F   UNL A   1      45.382  34.749  31.045  1.00  0.00    -0.206 F 
ATOM     73  C   UNL A   1      44.070  36.251  28.032  1.00  0.00     0.060 A 
BRANCH  73  74
ATOM     74  S   UNL A   1      43.857  37.880  27.281  1.00  0.00     0.124 S 
ATOM     75  O   UNL A   1      42.639  37.684  26.501  1.00  0.00    -0.237 OA
ATOM     76  O   UNL A   1      43.729  38.748  28.447  1.00  0.00    -0.237 OA
ATOM     77  O   UNL A   1      45.078  38.059  26.502  1.00  0.00    -0.744 OA
ENDBRANCH  73  74
ENDBRANCH  52  66
BRANCH  53  78
ATOM     78  C   UNL A   1      45.182  24.846  33.731  1.00  0.00     0.058 A 
ATOM     79  C   UNL A   1      44.575  23.677  33.252  1.00  0.00     0.135 A 
ATOM     80  C   UNL A   1      45.983  24.747  34.880  1.00  0.00     0.135 A 
ATOM     81  F   UNL A   1      43.795  23.726  32.161  1.00  0.00    -0.206 F 
ATOM     82  C   UNL A   1      44.761  22.452  33.881  1.00  0.00     0.059 A 
ATOM     83  C   UNL A   1      46.205  23.529  35.511  1.00  0.00     0.059 A 
ATOM     84  F   UNL A   1      46.598  25.836  35.366  1.00  0.00    -0.206 F 
ATOM     85  C   UNL A   1      45.586  22.386  35.005  1.00  0.00     0.060 A 
BRANCH  85  86
ATOM     86  S   UNL A   1      45.892  20.776  35.763  1.00  0.00     0.124 S 
ATOM     87  O   UNL A   1      47.280  20.533  35.385  1.00  0.00    -0.237 OA
ATOM     88  O   UNL A   1      45.654  21.051  37.177  1.00  0.00    -0.237 OA
ATOM     89  O   UNL A   1      44.903  19.912  35.126  1.00  0.00    -0.744 OA
ENDBRANCH  85  86
ENDBRANCH  53  78
BRANCH  65  90
ATOM     90  C   UNL A   1      48.668  27.927  28.534  1.00  0.00     0.058 A 
ATOM     91  C   UNL A   1      48.467  27.228  27.336  1.00  0.00     0.135 A 
ATOM     92  C   UNL A   1      49.984  28.265  28.888  1.00  0.00     0.135 A 
ATOM     93  F   UNL A   1      47.227  26.875  26.958  1.00  0.00    -0.206 F 
ATOM     94  C   UNL A   1      49.533  26.869  26.518  1.00  0.00     0.059 A 
ATOM     95  C   UNL A   1      51.063  27.934  28.077  1.00  0.00     0.059 A 
ATOM     96  F   UNL A   1      50.225  28.939  30.024  1.00  0.00    -0.206 F 
ATOM     97  C   UNL A   1      50.828  27.230  26.896  1.00  0.00     0.060 A 
BRANCH  97  98
ATOM     98  S   UNL A   1      52.198  26.799  25.802  1.00  0.00     0.124 S 
ATOM     99  O   UNL A   1      53.349  27.037  26.665  1.00  0.00    -0.237 OA
ATOM    100  O   UNL A   1      51.918  25.400  25.489  1.00  0.00    -0.237 OA
ATOM    101  O   UNL A   1      52.046  27.726  24.686  1.00  0.00    -0.744 OA
ENDBRANCH  97  98
ENDBRANCH  65  90
ENDBRANCH  39  40
ENDBRANCH  31  34
ENDBRANCH  29  30
ENDBRANCH  28  29
ENDBRANCH   1  28
TORSDOF 18
ENDMDL
