MODEL 1
REMARK VINA RESULT:     -13.1      0.000      0.000
REMARK SMILES Cc1ccc2c(c1)c(-c1ccnc3c(C)cccc13)c(C)n2CC(=O)NCCCCNC(=O)c1ccc(-c2c3nc(c(-c4c(F)cc(S(=O)(=O)[O-])cc4F)c4ccc([nH]4)c(-c4c(F)cc(S(=O)(=O)[O-])cc4F)c4nc(c(-c5c(F)cc(S(=O)(=O)[O-])cc5F)c5ccc2[nH]5)C=C4)C=C3)cc1
REMARK SMILES IDX 29 1 28 2 27 3 26 4 24 5 25 6 23 8 22 9 1 10 2 11 3 12 7 13
REMARK SMILES IDX 4 14 6 15 5 16 8 17 20 18 21 19 9 20 10 21 19 22 11 23 13 24
REMARK SMILES IDX 18 25 12 26 14 27 17 28 15 29 16 30 30 31 31 32 32 33 33 35
REMARK SMILES IDX 34 36 35 37 99 38 36 39 98 40 37 41 38 42 39 43 92 44 40 45
REMARK SMILES IDX 97 46 91 47 93 48 41 49 96 50 90 51 89 52 42 54 76 55 55 56
REMARK SMILES IDX 75 57 56 58 59 59 74 60 94 61 57 62 58 63 73 65 95 66 60 67
REMARK SMILES IDX 43 68 44 69 53 70 45 71 46 72 52 73 54 74 47 75 48 76 49 77
REMARK SMILES IDX 50 78 51 79 77 80 78 81 87 82 79 83 80 84 86 85 88 86 81 87
REMARK SMILES IDX 82 88 83 89 84 90 85 91 61 92 62 93 71 94 63 95 64 96 70 97
REMARK SMILES IDX 72 98 65 99 66 100 67 101 68 102 69 103
REMARK H PARENT 26 7 31 34 93 53 59 64
REMARK Flexibility Score: inf
ROOT
ATOM      1  C   UNL A   1      40.988  19.949  26.411  1.00  0.00     0.023 C 
ENDROOT
BRANCH   1   2
ATOM      2  C   UNL A   1      40.662  21.093  27.382  1.00  0.00     0.023 C 
BRANCH   2   3
ATOM      3  C   UNL A   1      39.647  22.107  26.861  1.00  0.00     0.116 C 
BRANCH   3   4
ATOM      4  N   UNL A   1      39.143  21.764  25.545  1.00  0.00    -0.355 N 
ATOM      5  C   UNL A   1      37.851  21.684  25.109  1.00  0.00     0.239 C 
ATOM      6  O   UNL A   1      37.662  21.443  23.914  1.00  0.00    -0.273 OA
ATOM      7  H   UNL A   1      39.830  21.561  24.870  1.00  0.00     0.163 HD
BRANCH   5   8
ATOM      8  C   UNL A   1      36.689  21.965  26.043  1.00  0.00     0.222 C 
BRANCH   8   9
ATOM      9  N   UNL A   1      35.408  22.114  25.361  1.00  0.00    -0.335 N 
ATOM     10  C   UNL A   1      31.989  18.398  22.820  1.00  0.00     0.044 C 
ATOM     11  C   UNL A   1      32.865  19.334  23.601  1.00  0.00    -0.050 A 
ATOM     12  C   UNL A   1      33.877  18.821  24.414  1.00  0.00     0.005 A 
ATOM     13  C   UNL A   1      32.718  20.724  23.474  1.00  0.00     0.014 A 
ATOM     14  C   UNL A   1      34.754  19.664  25.101  1.00  0.00     0.027 A 
ATOM     15  C   UNL A   1      33.600  21.598  24.148  1.00  0.00     0.008 A 
ATOM     16  C   UNL A   1      34.622  21.056  24.928  1.00  0.00     0.049 A 
ATOM     17  C   UNL A   1      33.722  23.017  24.222  1.00  0.00     0.011 A 
ATOM     18  C   UNL A   1      34.812  23.315  25.025  1.00  0.00     0.024 A 
ATOM     19  C   UNL A   1      35.344  24.653  25.426  1.00  0.00     0.065 C 
BRANCH  17  20
ATOM     20  C   UNL A   1      32.892  24.040  23.595  1.00  0.00    -0.005 A 
ATOM     21  C   UNL A   1      33.226  24.439  22.303  1.00  0.00     0.029 A 
ATOM     22  C   UNL A   1      31.776  24.618  24.255  1.00  0.00     0.008 A 
ATOM     23  C   UNL A   1      32.423  25.375  21.695  1.00  0.00     0.112 A 
ATOM     24  C   UNL A   1      31.015  25.573  23.541  1.00  0.00     0.074 A 
ATOM     25  C   UNL A   1      31.403  24.291  25.580  1.00  0.00     0.011 A 
ATOM     26  N   UNL A   1      31.338  25.923  22.275  1.00  0.00    -0.256 NA
ATOM     27  C   UNL A   1      29.910  26.158  24.181  1.00  0.00    -0.025 A 
ATOM     28  C   UNL A   1      30.319  24.893  26.205  1.00  0.00     0.001 A 
ATOM     29  C   UNL A   1      29.040  27.180  23.495  1.00  0.00     0.047 C 
ATOM     30  C   UNL A   1      29.577  25.828  25.507  1.00  0.00     0.005 A 
ENDBRANCH  17  20
ENDBRANCH   8   9
ENDBRANCH   5   8
ENDBRANCH   3   4
ENDBRANCH   2   3
ENDBRANCH   1   2
BRANCH   1  31
ATOM     31  C   UNL A   1      42.412  19.406  26.537  1.00  0.00     0.116 C 
BRANCH  31  32
ATOM     32  N   UNL A   1      43.312  19.917  25.526  1.00  0.00    -0.352 N 
ATOM     33  C   UNL A   1      43.851  21.140  25.240  1.00  0.00     0.251 C 
ATOM     34  H   UNL A   1      43.606  19.220  24.895  1.00  0.00     0.163 HD
ATOM     35  O   UNL A   1      44.701  21.149  24.344  1.00  0.00    -0.269 OA
BRANCH  33  36
ATOM     36  C   UNL A   1      43.459  22.427  25.876  1.00  0.00     0.039 A 
ATOM     37  C   UNL A   1      42.664  23.414  25.293  1.00  0.00     0.014 A 
ATOM     38  C   UNL A   1      44.006  22.671  27.151  1.00  0.00     0.014 A 
ATOM     39  C   UNL A   1      42.495  24.643  25.921  1.00  0.00     0.010 A 
ATOM     40  C   UNL A   1      43.831  23.894  27.788  1.00  0.00     0.010 A 
ATOM     41  C   UNL A   1      43.116  24.898  27.144  1.00  0.00    -0.014 A 
BRANCH  41  42
ATOM     42  C   UNL A   1      42.931  26.219  27.737  1.00  0.00     0.031 A 
ATOM     43  C   UNL A   1      43.995  27.215  27.410  1.00  0.00     0.074 A 
ATOM     44  C   UNL A   1      41.843  26.555  28.457  1.00  0.00     0.049 A 
ATOM     45  N   UNL A   1      44.812  27.807  28.218  1.00  0.00    -0.248 NA
ATOM     46  C   UNL A   1      44.258  27.489  25.989  1.00  0.00     0.031 C 
ATOM     47  C   UNL A   1      40.610  25.787  28.654  1.00  0.00     0.029 A 
ATOM     48  N   UNL A   1      41.575  27.725  29.102  1.00  0.00    -0.354 N 
ATOM     49  C   UNL A   1      45.570  28.678  27.434  1.00  0.00     0.074 A 
ATOM     50  C   UNL A   1      45.284  28.339  26.064  1.00  0.00     0.031 C 
ATOM     51  C   UNL A   1      39.655  26.599  29.159  1.00  0.00     0.029 A 
ATOM     52  C   UNL A   1      40.241  27.897  29.446  1.00  0.00     0.049 A 
ATOM     53  H   UNL A   1      42.270  28.391  29.307  1.00  0.00     0.167 HD
ATOM     54  C   UNL A   1      46.242  29.737  27.966  1.00  0.00     0.037 A 
ATOM     55  C   UNL A   1      39.655  29.048  29.866  1.00  0.00     0.037 A 
ATOM     56  C   UNL A   1      46.407  29.600  29.388  1.00  0.00     0.049 A 
ATOM     57  C   UNL A   1      40.739  29.924  30.388  1.00  0.00     0.074 A 
ATOM     58  C   UNL A   1      47.049  28.689  30.205  1.00  0.00     0.029 A 
ATOM     59  N   UNL A   1      45.564  30.308  30.210  1.00  0.00    -0.354 N 
ATOM     60  N   UNL A   1      41.430  29.662  31.464  1.00  0.00    -0.248 NA
ATOM     61  C   UNL A   1      41.362  30.858  29.461  1.00  0.00     0.031 C 
ATOM     62  C   UNL A   1      46.207  28.562  31.346  1.00  0.00     0.029 A 
ATOM     63  C   UNL A   1      45.134  29.440  31.181  1.00  0.00     0.049 A 
ATOM     64  H   UNL A   1      45.317  31.256  30.120  1.00  0.00     0.167 HD
ATOM     65  C   UNL A   1      42.727  30.050  31.158  1.00  0.00     0.074 A 
ATOM     66  C   UNL A   1      42.607  30.855  29.945  1.00  0.00     0.031 C 
ATOM     67  C   UNL A   1      43.806  29.460  31.753  1.00  0.00     0.037 A 
BRANCH  54  68
ATOM     68  C   UNL A   1      46.471  31.049  27.255  1.00  0.00     0.058 A 
ATOM     69  C   UNL A   1      47.786  31.530  27.080  1.00  0.00     0.135 A 
ATOM     70  C   UNL A   1      45.442  31.982  27.002  1.00  0.00     0.135 A 
ATOM     71  F   UNL A   1      48.843  30.730  27.297  1.00  0.00    -0.206 F 
ATOM     72  C   UNL A   1      48.058  32.859  26.755  1.00  0.00     0.059 A 
ATOM     73  C   UNL A   1      45.690  33.297  26.626  1.00  0.00     0.059 A 
ATOM     74  F   UNL A   1      44.152  31.690  27.205  1.00  0.00    -0.206 F 
ATOM     75  C   UNL A   1      47.001  33.741  26.549  1.00  0.00     0.060 A 
BRANCH  75  76
ATOM     76  S   UNL A   1      47.346  35.485  26.261  1.00  0.00     0.124 S 
ATOM     77  O   UNL A   1      46.074  35.947  25.717  1.00  0.00    -0.237 OA
ATOM     78  O   UNL A   1      47.678  35.953  27.602  1.00  0.00    -0.237 OA
ATOM     79  O   UNL A   1      48.462  35.456  25.319  1.00  0.00    -0.744 OA
ENDBRANCH  75  76
ENDBRANCH  54  68
BRANCH  55  80
ATOM     80  C   UNL A   1      38.305  29.565  29.509  1.00  0.00     0.058 A 
ATOM     81  C   UNL A   1      37.398  29.989  30.499  1.00  0.00     0.135 A 
ATOM     82  C   UNL A   1      37.977  29.920  28.184  1.00  0.00     0.135 A 
ATOM     83  F   UNL A   1      37.634  29.716  31.791  1.00  0.00    -0.206 F 
ATOM     84  C   UNL A   1      36.268  30.761  30.199  1.00  0.00     0.059 A 
ATOM     85  C   UNL A   1      36.851  30.677  27.860  1.00  0.00     0.059 A 
ATOM     86  F   UNL A   1      38.793  29.624  27.162  1.00  0.00    -0.206 F 
ATOM     87  C   UNL A   1      36.015  31.120  28.876  1.00  0.00     0.060 A 
BRANCH  87  88
ATOM     88  S   UNL A   1      34.668  32.266  28.501  1.00  0.00     0.124 S 
ATOM     89  O   UNL A   1      34.285  32.729  29.831  1.00  0.00    -0.237 OA
ATOM     90  O   UNL A   1      35.329  33.248  27.648  1.00  0.00    -0.237 OA
ATOM     91  O   UNL A   1      33.683  31.424  27.827  1.00  0.00    -0.744 OA
ENDBRANCH  87  88
ENDBRANCH  55  80
BRANCH  67  92
ATOM     92  C   UNL A   1      43.572  28.557  32.937  1.00  0.00     0.058 A 
ATOM     93  C   UNL A   1      43.391  29.015  34.254  1.00  0.00     0.135 A 
ATOM     94  C   UNL A   1      43.339  27.195  32.697  1.00  0.00     0.135 A 
ATOM     95  F   UNL A   1      43.492  30.318  34.551  1.00  0.00    -0.206 F 
ATOM     96  C   UNL A   1      43.021  28.154  35.290  1.00  0.00     0.059 A 
ATOM     97  C   UNL A   1      42.939  26.323  33.707  1.00  0.00     0.059 A 
ATOM     98  F   UNL A   1      43.434  26.706  31.449  1.00  0.00    -0.206 F 
ATOM     99  C   UNL A   1      42.788  26.810  35.004  1.00  0.00     0.060 A 
BRANCH  99 100
ATOM    100  S   UNL A   1      42.205  25.719  36.320  1.00  0.00     0.124 S 
ATOM    101  O   UNL A   1      42.452  26.522  37.517  1.00  0.00    -0.237 OA
ATOM    102  O   UNL A   1      40.798  25.526  35.966  1.00  0.00    -0.237 OA
ATOM    103  O   UNL A   1      43.039  24.534  36.182  1.00  0.00    -0.744 OA
ENDBRANCH  99 100
ENDBRANCH  67  92
ENDBRANCH  41  42
ENDBRANCH  33  36
ENDBRANCH  31  32
ENDBRANCH   1  31
TORSDOF 16
ENDMDL
MODEL 2
REMARK VINA RESULT:     -12.8      1.495      2.134
REMARK SMILES Cc1ccc2c(c1)c(-c1ccnc3c(C)cccc13)c(C)n2CC(=O)NCCCCNC(=O)c1ccc(-c2c3nc(c(-c4c(F)cc(S(=O)(=O)[O-])cc4F)c4ccc([nH]4)c(-c4c(F)cc(S(=O)(=O)[O-])cc4F)c4nc(c(-c5c(F)cc(S(=O)(=O)[O-])cc5F)c5ccc2[nH]5)C=C4)C=C3)cc1
REMARK SMILES IDX 29 1 28 2 27 3 26 4 24 5 25 6 23 8 22 9 1 10 2 11 3 12 7 13
REMARK SMILES IDX 4 14 6 15 5 16 8 17 20 18 21 19 9 20 10 21 19 22 11 23 13 24
REMARK SMILES IDX 18 25 12 26 14 27 17 28 15 29 16 30 30 31 31 32 32 33 33 35
REMARK SMILES IDX 34 36 35 37 99 38 36 39 98 40 37 41 38 42 39 43 92 44 40 45
REMARK SMILES IDX 97 46 91 47 93 48 41 49 96 50 90 51 89 52 42 54 76 55 55 56
REMARK SMILES IDX 75 57 56 58 59 59 74 60 94 61 57 62 58 63 73 65 95 66 60 67
REMARK SMILES IDX 43 68 44 69 53 70 45 71 46 72 52 73 54 74 47 75 48 76 49 77
REMARK SMILES IDX 50 78 51 79 77 80 78 81 87 82 79 83 80 84 86 85 88 86 81 87
REMARK SMILES IDX 82 88 83 89 84 90 85 91 61 92 62 93 71 94 63 95 64 96 70 97
REMARK SMILES IDX 72 98 65 99 66 100 67 101 68 102 69 103
REMARK H PARENT 26 7 31 34 93 53 59 64
REMARK Flexibility Score: inf
ROOT
ATOM      1  C   UNL A   1      40.748  21.187  26.388  1.00  0.00     0.023 C 
ENDROOT
BRANCH   1   2
ATOM      2  C   UNL A   1      40.190  22.239  27.358  1.00  0.00     0.023 C 
BRANCH   2   3
ATOM      3  C   UNL A   1      39.125  23.157  26.764  1.00  0.00     0.116 C 
BRANCH   3   4
ATOM      4  N   UNL A   1      38.707  22.742  25.439  1.00  0.00    -0.355 N 
ATOM      5  C   UNL A   1      37.640  21.973  25.071  1.00  0.00     0.239 C 
ATOM      6  O   UNL A   1      37.439  21.809  23.864  1.00  0.00    -0.273 OA
ATOM      7  H   UNL A   1      39.274  23.060  24.700  1.00  0.00     0.163 HD
BRANCH   5   8
ATOM      8  C   UNL A   1      36.686  21.408  26.106  1.00  0.00     0.222 C 
BRANCH   8   9
ATOM      9  N   UNL A   1      35.280  21.516  25.731  1.00  0.00    -0.335 N 
ATOM     10  C   UNL A   1      31.871  18.161  22.721  1.00  0.00     0.044 C 
ATOM     11  C   UNL A   1      32.774  18.967  23.608  1.00  0.00    -0.050 A 
ATOM     12  C   UNL A   1      33.991  18.430  24.030  1.00  0.00     0.005 A 
ATOM     13  C   UNL A   1      32.436  20.281  23.967  1.00  0.00     0.014 A 
ATOM     14  C   UNL A   1      34.887  19.177  24.799  1.00  0.00     0.027 A 
ATOM     15  C   UNL A   1      33.330  21.062  24.734  1.00  0.00     0.008 A 
ATOM     16  C   UNL A   1      34.553  20.509  25.113  1.00  0.00     0.049 A 
ATOM     17  C   UNL A   1      33.292  22.392  25.244  1.00  0.00     0.011 A 
ATOM     18  C   UNL A   1      34.486  22.634  25.909  1.00  0.00     0.024 A 
ATOM     19  C   UNL A   1      34.925  23.866  26.630  1.00  0.00     0.065 C 
BRANCH  17  20
ATOM     20  C   UNL A   1      32.230  23.386  25.132  1.00  0.00    -0.005 A 
ATOM     21  C   UNL A   1      31.242  23.388  26.113  1.00  0.00     0.029 A 
ATOM     22  C   UNL A   1      32.189  24.333  24.075  1.00  0.00     0.008 A 
ATOM     23  C   UNL A   1      30.261  24.349  26.030  1.00  0.00     0.112 A 
ATOM     24  C   UNL A   1      31.137  25.279  24.082  1.00  0.00     0.074 A 
ATOM     25  C   UNL A   1      33.136  24.364  23.024  1.00  0.00     0.011 A 
ATOM     26  N   UNL A   1      30.206  25.283  25.062  1.00  0.00    -0.256 NA
ATOM     27  C   UNL A   1      31.079  26.219  23.041  1.00  0.00    -0.025 A 
ATOM     28  C   UNL A   1      33.053  25.288  21.990  1.00  0.00     0.001 A 
ATOM     29  C   UNL A   1      29.997  27.267  22.972  1.00  0.00     0.047 C 
ATOM     30  C   UNL A   1      32.023  26.211  21.998  1.00  0.00     0.005 A 
ENDBRANCH  17  20
ENDBRANCH   8   9
ENDBRANCH   5   8
ENDBRANCH   3   4
ENDBRANCH   2   3
ENDBRANCH   1   2
BRANCH   1  31
ATOM     31  C   UNL A   1      42.266  21.013  26.457  1.00  0.00     0.116 C 
BRANCH  31  32
ATOM     32  N   UNL A   1      42.971  21.698  25.395  1.00  0.00    -0.352 N 
ATOM     33  C   UNL A   1      43.321  22.995  25.146  1.00  0.00     0.251 C 
ATOM     34  H   UNL A   1      43.268  21.085  24.684  1.00  0.00     0.163 HD
ATOM     35  O   UNL A   1      44.050  23.170  24.165  1.00  0.00    -0.269 OA
BRANCH  33  36
ATOM     36  C   UNL A   1      42.856  24.179  25.919  1.00  0.00     0.039 A 
ATOM     37  C   UNL A   1      41.995  25.171  25.450  1.00  0.00     0.014 A 
ATOM     38  C   UNL A   1      43.401  24.319  27.211  1.00  0.00     0.014 A 
ATOM     39  C   UNL A   1      41.756  26.312  26.208  1.00  0.00     0.010 A 
ATOM     40  C   UNL A   1      43.157  25.453  27.977  1.00  0.00     0.010 A 
ATOM     41  C   UNL A   1      42.374  26.472  27.449  1.00  0.00    -0.014 A 
BRANCH  41  42
ATOM     42  C   UNL A   1      42.113  27.707  28.182  1.00  0.00     0.031 A 
ATOM     43  C   UNL A   1      43.198  28.729  28.108  1.00  0.00     0.074 A 
ATOM     44  C   UNL A   1      40.947  27.955  28.812  1.00  0.00     0.049 A 
ATOM     45  N   UNL A   1      43.915  29.208  29.072  1.00  0.00    -0.248 NA
ATOM     46  C   UNL A   1      43.618  29.183  26.772  1.00  0.00     0.031 C 
ATOM     47  C   UNL A   1      39.706  27.177  28.768  1.00  0.00     0.029 A 
ATOM     48  N   UNL A   1      40.600  29.034  29.567  1.00  0.00    -0.354 N 
ATOM     49  C   UNL A   1      44.749  30.166  28.496  1.00  0.00     0.074 A 
ATOM     50  C   UNL A   1      44.622  30.008  27.071  1.00  0.00     0.031 C 
ATOM     51  C   UNL A   1      38.694  27.924  29.262  1.00  0.00     0.029 A 
ATOM     52  C   UNL A   1      39.234  29.171  29.778  1.00  0.00     0.049 A 
ATOM     53  H   UNL A   1      41.262  29.664  29.933  1.00  0.00     0.167 HD
ATOM     54  C   UNL A   1      45.350  31.144  29.233  1.00  0.00     0.037 A 
ATOM     55  C   UNL A   1      38.596  30.262  30.273  1.00  0.00     0.037 A 
ATOM     56  C   UNL A   1      45.354  30.824  30.635  1.00  0.00     0.049 A 
ATOM     57  C   UNL A   1      39.607  31.056  31.023  1.00  0.00     0.074 A 
ATOM     58  C   UNL A   1      45.907  29.811  31.395  1.00  0.00     0.029 A 
ATOM     59  N   UNL A   1      44.419  31.426  31.441  1.00  0.00    -0.354 N 
ATOM     60  N   UNL A   1      40.175  30.653  32.127  1.00  0.00    -0.248 NA
ATOM     61  C   UNL A   1      40.323  32.097  30.300  1.00  0.00     0.031 C 
ATOM     62  C   UNL A   1      44.942  29.544  32.409  1.00  0.00     0.029 A 
ATOM     63  C   UNL A   1      43.888  30.443  32.238  1.00  0.00     0.049 A 
ATOM     64  H   UNL A   1      44.176  32.380  31.446  1.00  0.00     0.167 HD
ATOM     65  C   UNL A   1      41.494  31.068  32.022  1.00  0.00     0.074 A 
ATOM     66  C   UNL A   1      41.506  32.024  30.917  1.00  0.00     0.031 C 
ATOM     67  C   UNL A   1      42.504  30.399  32.653  1.00  0.00     0.037 A 
BRANCH  54  68
ATOM     68  C   UNL A   1      45.647  32.534  28.727  1.00  0.00     0.058 A 
ATOM     69  C   UNL A   1      46.961  33.042  28.806  1.00  0.00     0.135 A 
ATOM     70  C   UNL A   1      44.643  33.485  28.440  1.00  0.00     0.135 A 
ATOM     71  F   UNL A   1      47.994  32.228  29.077  1.00  0.00    -0.206 F 
ATOM     72  C   UNL A   1      47.245  34.403  28.687  1.00  0.00     0.059 A 
ATOM     73  C   UNL A   1      44.911  34.838  28.265  1.00  0.00     0.059 A 
ATOM     74  F   UNL A   1      43.344  33.162  28.414  1.00  0.00    -0.206 F 
ATOM     75  C   UNL A   1      46.207  35.296  28.436  1.00  0.00     0.060 A 
BRANCH  75  76
ATOM     76  S   UNL A   1      46.549  37.065  28.414  1.00  0.00     0.124 S 
ATOM     77  O   UNL A   1      45.212  37.617  28.222  1.00  0.00    -0.237 OA
ATOM     78  O   UNL A   1      47.146  37.274  29.729  1.00  0.00    -0.237 OA
ATOM     79  O   UNL A   1      47.462  37.217  27.285  1.00  0.00    -0.744 OA
ENDBRANCH  75  76
ENDBRANCH  54  68
BRANCH  55  80
ATOM     80  C   UNL A   1      37.290  30.830  29.836  1.00  0.00     0.058 A 
ATOM     81  C   UNL A   1      36.436  31.486  30.743  1.00  0.00     0.135 A 
ATOM     82  C   UNL A   1      36.977  30.993  28.471  1.00  0.00     0.135 A 
ATOM     83  F   UNL A   1      36.666  31.407  32.063  1.00  0.00    -0.206 F 
ATOM     84  C   UNL A   1      35.373  32.294  30.321  1.00  0.00     0.059 A 
ATOM     85  C   UNL A   1      35.916  31.782  28.027  1.00  0.00     0.059 A 
ATOM     86  F   UNL A   1      37.751  30.465  27.512  1.00  0.00    -0.206 F 
ATOM     87  C   UNL A   1      35.135  32.455  28.956  1.00  0.00     0.060 A 
BRANCH  87  88
ATOM     88  S   UNL A   1      33.887  33.638  28.399  1.00  0.00     0.124 S 
ATOM     89  O   UNL A   1      33.444  34.228  29.658  1.00  0.00    -0.237 OA
ATOM     90  O   UNL A   1      34.661  34.511  27.523  1.00  0.00    -0.237 OA
ATOM     91  O   UNL A   1      32.900  32.799  27.723  1.00  0.00    -0.744 OA
ENDBRANCH  87  88
ENDBRANCH  55  80
BRANCH  67  92
ATOM     92  C   UNL A   1      42.145  29.354  33.678  1.00  0.00     0.058 A 
ATOM     93  C   UNL A   1      42.008  27.984  33.392  1.00  0.00     0.135 A 
ATOM     94  C   UNL A   1      42.124  29.729  35.030  1.00  0.00     0.135 A 
ATOM     95  F   UNL A   1      42.119  27.527  32.137  1.00  0.00    -0.206 F 
ATOM     96  C   UNL A   1      41.830  27.034  34.401  1.00  0.00     0.059 A 
ATOM     97  C   UNL A   1      41.979  28.797  36.055  1.00  0.00     0.059 A 
ATOM     98  F   UNL A   1      42.313  31.014  35.374  1.00  0.00    -0.206 F 
ATOM     99  C   UNL A   1      41.826  27.449  35.731  1.00  0.00     0.060 A 
BRANCH  99 100
ATOM    100  S   UNL A   1      41.706  26.211  37.040  1.00  0.00     0.124 S 
ATOM    101  O   UNL A   1      42.918  26.468  37.817  1.00  0.00    -0.237 OA
ATOM    102  O   UNL A   1      40.447  26.568  37.695  1.00  0.00    -0.237 OA
ATOM    103  O   UNL A   1      41.684  24.948  36.319  1.00  0.00    -0.744 OA
ENDBRANCH  99 100
ENDBRANCH  67  92
ENDBRANCH  41  42
ENDBRANCH  33  36
ENDBRANCH  31  32
ENDBRANCH   1  31
TORSDOF 16
ENDMDL
MODEL 3
REMARK VINA RESULT:     -12.7      2.518      9.247
REMARK SMILES Cc1ccc2c(c1)c(-c1ccnc3c(C)cccc13)c(C)n2CC(=O)NCCCCNC(=O)c1ccc(-c2c3nc(c(-c4c(F)cc(S(=O)(=O)[O-])cc4F)c4ccc([nH]4)c(-c4c(F)cc(S(=O)(=O)[O-])cc4F)c4nc(c(-c5c(F)cc(S(=O)(=O)[O-])cc5F)c5ccc2[nH]5)C=C4)C=C3)cc1
REMARK SMILES IDX 29 1 28 2 27 3 26 4 24 5 25 6 23 8 22 9 1 10 2 11 3 12 7 13
REMARK SMILES IDX 4 14 6 15 5 16 8 17 20 18 21 19 9 20 10 21 19 22 11 23 13 24
REMARK SMILES IDX 18 25 12 26 14 27 17 28 15 29 16 30 30 31 31 32 32 33 33 35
REMARK SMILES IDX 34 36 35 37 99 38 36 39 98 40 37 41 38 42 39 43 92 44 40 45
REMARK SMILES IDX 97 46 91 47 93 48 41 49 96 50 90 51 89 52 42 54 76 55 55 56
REMARK SMILES IDX 75 57 56 58 59 59 74 60 94 61 57 62 58 63 73 65 95 66 60 67
REMARK SMILES IDX 43 68 44 69 53 70 45 71 46 72 52 73 54 74 47 75 48 76 49 77
REMARK SMILES IDX 50 78 51 79 77 80 78 81 87 82 79 83 80 84 86 85 88 86 81 87
REMARK SMILES IDX 82 88 83 89 84 90 85 91 61 92 62 93 71 94 63 95 64 96 70 97
REMARK SMILES IDX 72 98 65 99 66 100 67 101 68 102 69 103
REMARK H PARENT 26 7 31 34 93 53 59 64
REMARK Flexibility Score: inf
ROOT
ATOM      1  C   UNL A   1      32.118  29.783  25.447  1.00  0.00     0.023 C 
ENDROOT
BRANCH   1   2
ATOM      2  C   UNL A   1      32.466  29.367  24.010  1.00  0.00     0.023 C 
BRANCH   2   3
ATOM      3  C   UNL A   1      31.543  28.312  23.407  1.00  0.00     0.116 C 
BRANCH   3   4
ATOM      4  N   UNL A   1      32.169  27.575  22.326  1.00  0.00    -0.355 N 
ATOM      5  C   UNL A   1      33.169  26.647  22.379  1.00  0.00     0.239 C 
ATOM      6  O   UNL A   1      33.495  26.092  21.326  1.00  0.00    -0.273 OA
ATOM      7  H   UNL A   1      31.824  27.773  21.426  1.00  0.00     0.163 HD
BRANCH   5   8
ATOM      8  C   UNL A   1      33.801  26.249  23.699  1.00  0.00     0.222 C 
BRANCH   8   9
ATOM      9  N   UNL A   1      33.509  24.877  24.103  1.00  0.00    -0.335 N 
ATOM     10  C   UNL A   1      29.528  22.655  27.443  1.00  0.00     0.044 C 
ATOM     11  C   UNL A   1      30.497  23.269  26.475  1.00  0.00    -0.050 A 
ATOM     12  C   UNL A   1      30.320  24.589  26.060  1.00  0.00     0.005 A 
ATOM     13  C   UNL A   1      31.615  22.547  26.029  1.00  0.00     0.014 A 
ATOM     14  C   UNL A   1      31.241  25.214  25.215  1.00  0.00     0.027 A 
ATOM     15  C   UNL A   1      32.567  23.160  25.183  1.00  0.00     0.008 A 
ATOM     16  C   UNL A   1      32.381  24.492  24.812  1.00  0.00     0.049 A 
ATOM     17  C   UNL A   1      33.780  22.719  24.577  1.00  0.00     0.011 A 
ATOM     18  C   UNL A   1      34.317  23.781  23.865  1.00  0.00     0.024 A 
ATOM     19  C   UNL A   1      35.565  23.824  23.043  1.00  0.00     0.065 C 
BRANCH  17  20
ATOM     20  C   UNL A   1      34.413  21.407  24.645  1.00  0.00    -0.005 A 
ATOM     21  C   UNL A   1      35.697  21.337  25.180  1.00  0.00     0.029 A 
ATOM     22  C   UNL A   1      33.761  20.228  24.197  1.00  0.00     0.008 A 
ATOM     23  C   UNL A   1      36.281  20.096  25.281  1.00  0.00     0.112 A 
ATOM     24  C   UNL A   1      34.449  19.001  24.346  1.00  0.00     0.074 A 
ATOM     25  C   UNL A   1      32.475  20.229  23.608  1.00  0.00     0.011 A 
ATOM     26  N   UNL A   1      35.683  18.952  24.897  1.00  0.00    -0.256 NA
ATOM     27  C   UNL A   1      33.820  17.826  23.903  1.00  0.00    -0.025 A 
ATOM     28  C   UNL A   1      31.875  19.061  23.157  1.00  0.00     0.001 A 
ATOM     29  C   UNL A   1      34.476  16.475  24.027  1.00  0.00     0.047 C 
ATOM     30  C   UNL A   1      32.549  17.862  23.302  1.00  0.00     0.005 A 
ENDBRANCH  17  20
ENDBRANCH   8   9
ENDBRANCH   5   8
ENDBRANCH   3   4
ENDBRANCH   2   3
ENDBRANCH   1   2
BRANCH   1  31
ATOM     31  C   UNL A   1      33.258  29.591  26.449  1.00  0.00     0.116 C 
BRANCH  31  32
ATOM     32  N   UNL A   1      33.420  30.709  27.353  1.00  0.00    -0.352 N 
ATOM     33  C   UNL A   1      34.477  31.281  28.003  1.00  0.00     0.251 C 
ATOM     34  H   UNL A   1      32.569  31.165  27.545  1.00  0.00     0.163 HD
ATOM     35  O   UNL A   1      34.225  32.331  28.604  1.00  0.00    -0.269 OA
BRANCH  33  36
ATOM     36  C   UNL A   1      35.853  30.718  28.079  1.00  0.00     0.039 A 
ATOM     37  C   UNL A   1      36.210  29.401  27.791  1.00  0.00     0.014 A 
ATOM     38  C   UNL A   1      36.847  31.597  28.550  1.00  0.00     0.014 A 
ATOM     39  C   UNL A   1      37.500  28.950  28.050  1.00  0.00     0.010 A 
ATOM     40  C   UNL A   1      38.141  31.153  28.800  1.00  0.00     0.010 A 
ATOM     41  C   UNL A   1      38.449  29.814  28.597  1.00  0.00    -0.014 A 
BRANCH  41  42
ATOM     42  C   UNL A   1      39.775  29.272  28.880  1.00  0.00     0.031 A 
ATOM     43  C   UNL A   1      40.114  29.153  30.329  1.00  0.00     0.074 A 
ATOM     44  C   UNL A   1      40.608  28.829  27.918  1.00  0.00     0.049 A 
ATOM     45  N   UNL A   1      41.056  29.751  30.983  1.00  0.00    -0.248 NA
ATOM     46  C   UNL A   1      39.211  28.360  31.178  1.00  0.00     0.031 C 
ATOM     47  C   UNL A   1      40.332  28.643  26.491  1.00  0.00     0.029 A 
ATOM     48  N   UNL A   1      41.879  28.354  28.045  1.00  0.00    -0.354 N 
ATOM     49  C   UNL A   1      40.990  29.266  32.290  1.00  0.00     0.074 A 
ATOM     50  C   UNL A   1      39.758  28.527  32.384  1.00  0.00     0.031 C 
ATOM     51  C   UNL A   1      41.308  27.885  25.944  1.00  0.00     0.029 A 
ATOM     52  C   UNL A   1      42.339  27.648  26.941  1.00  0.00     0.049 A 
ATOM     53  H   UNL A   1      42.425  28.500  28.850  1.00  0.00     0.167 HD
ATOM     54  C   UNL A   1      42.042  29.355  33.152  1.00  0.00     0.037 A 
ATOM     55  C   UNL A   1      43.449  26.868  26.883  1.00  0.00     0.037 A 
ATOM     56  C   UNL A   1      43.008  30.324  32.712  1.00  0.00     0.049 A 
ATOM     57  C   UNL A   1      44.346  27.304  27.988  1.00  0.00     0.074 A 
ATOM     58  C   UNL A   1      42.980  31.689  32.492  1.00  0.00     0.029 A 
ATOM     59  N   UNL A   1      44.146  29.871  32.091  1.00  0.00    -0.354 N 
ATOM     60  N   UNL A   1      44.935  28.467  28.030  1.00  0.00    -0.248 NA
ATOM     61  C   UNL A   1      44.223  26.622  29.269  1.00  0.00     0.031 C 
ATOM     62  C   UNL A   1      43.808  31.894  31.351  1.00  0.00     0.029 A 
ATOM     63  C   UNL A   1      44.333  30.654  30.980  1.00  0.00     0.049 A 
ATOM     64  H   UNL A   1      44.718  29.127  32.386  1.00  0.00     0.167 HD
ATOM     65  C   UNL A   1      44.875  28.850  29.362  1.00  0.00     0.074 A 
ATOM     66  C   UNL A   1      44.502  27.639  30.090  1.00  0.00     0.031 C 
ATOM     67  C   UNL A   1      44.862  30.166  29.727  1.00  0.00     0.037 A 
BRANCH  54  68
ATOM     68  C   UNL A   1      42.356  28.341  34.225  1.00  0.00     0.058 A 
ATOM     69  C   UNL A   1      42.212  28.692  35.584  1.00  0.00     0.135 A 
ATOM     70  C   UNL A   1      43.064  27.145  33.977  1.00  0.00     0.135 A 
ATOM     71  F   UNL A   1      41.559  29.811  35.937  1.00  0.00    -0.206 F 
ATOM     72  C   UNL A   1      42.797  27.952  36.613  1.00  0.00     0.059 A 
ATOM     73  C   UNL A   1      43.610  26.365  34.990  1.00  0.00     0.059 A 
ATOM     74  F   UNL A   1      43.347  26.731  32.736  1.00  0.00    -0.206 F 
ATOM     75  C   UNL A   1      43.512  26.800  36.302  1.00  0.00     0.060 A 
BRANCH  75  76
ATOM     76  S   UNL A   1      44.379  25.916  37.611  1.00  0.00     0.124 S 
ATOM     77  O   UNL A   1      43.705  26.424  38.800  1.00  0.00    -0.237 OA
ATOM     78  O   UNL A   1      44.110  24.525  37.266  1.00  0.00    -0.237 OA
ATOM     79  O   UNL A   1      45.767  26.342  37.442  1.00  0.00    -0.744 OA
ENDBRANCH  75  76
ENDBRANCH  54  68
BRANCH  55  80
ATOM     80  C   UNL A   1      43.610  25.564  26.183  1.00  0.00     0.058 A 
ATOM     81  C   UNL A   1      44.712  25.316  25.341  1.00  0.00     0.135 A 
ATOM     82  C   UNL A   1      42.845  24.435  26.540  1.00  0.00     0.135 A 
ATOM     83  F   UNL A   1      45.512  26.324  24.962  1.00  0.00    -0.206 F 
ATOM     84  C   UNL A   1      45.061  24.025  24.925  1.00  0.00     0.059 A 
ATOM     85  C   UNL A   1      43.166  23.142  26.129  1.00  0.00     0.059 A 
ATOM     86  F   UNL A   1      41.807  24.537  27.384  1.00  0.00    -0.206 F 
ATOM     87  C   UNL A   1      44.293  22.939  25.345  1.00  0.00     0.060 A 
BRANCH  87  88
ATOM     88  S   UNL A   1      44.841  21.257  24.968  1.00  0.00     0.124 S 
ATOM     89  O   UNL A   1      44.623  21.182  23.528  1.00  0.00    -0.237 OA
ATOM     90  O   UNL A   1      46.233  21.283  25.403  1.00  0.00    -0.237 OA
ATOM     91  O   UNL A   1      43.955  20.423  25.777  1.00  0.00    -0.744 OA
ENDBRANCH  87  88
ENDBRANCH  55  80
BRANCH  67  92
ATOM     92  C   UNL A   1      45.173  31.206  28.680  1.00  0.00     0.058 A 
ATOM     93  C   UNL A   1      44.238  31.692  27.749  1.00  0.00     0.135 A 
ATOM     94  C   UNL A   1      46.410  31.865  28.747  1.00  0.00     0.135 A 
ATOM     95  F   UNL A   1      42.997  31.189  27.691  1.00  0.00    -0.206 F 
ATOM     96  C   UNL A   1      44.529  32.766  26.905  1.00  0.00     0.059 A 
ATOM     97  C   UNL A   1      46.711  32.957  27.937  1.00  0.00     0.059 A 
ATOM     98  F   UNL A   1      47.324  31.489  29.657  1.00  0.00    -0.206 F 
ATOM     99  C   UNL A   1      45.766  33.399  27.012  1.00  0.00     0.060 A 
BRANCH  99 100
ATOM    100  S   UNL A   1      46.101  34.855  25.998  1.00  0.00     0.124 S 
ATOM    101  O   UNL A   1      45.545  34.461  24.704  1.00  0.00    -0.237 OA
ATOM    102  O   UNL A   1      45.371  35.906  26.707  1.00  0.00    -0.237 OA
ATOM    103  O   UNL A   1      47.550  34.980  26.041  1.00  0.00    -0.744 OA
ENDBRANCH  99 100
ENDBRANCH  67  92
ENDBRANCH  41  42
ENDBRANCH  33  36
ENDBRANCH  31  32
ENDBRANCH   1  31
TORSDOF 16
ENDMDL
