MODEL 1
REMARK VINA RESULT:     -10.9      0.000      0.000
REMARK SMILES COc1ccccc1N1CC[NH+]([C@@H](C(=O)NCCCCNC(=O)c2ccc(-c3c4nc(c(-c5c(F)cc(S(=O)(=O)[O-])cc5F)c5ccc([nH]5)c(-c5c(F)cc(S(=O)(=O)[O-])cc5F)c5nc(c(-c6c(F)cc(S(=O)(=O)[O-])cc6F)c6ccc3[nH]6)C=C5)C=C4)cc2)c2c[nH]c3ccc(OCC#N)cc23)CC1
REMARK SMILES IDX 18 1 17 2 16 3 14 4 15 5 13 7 12 8 9 9 10 10 104 11 11 12
REMARK SMILES IDX 103 13 8 15 3 16 4 17 5 18 7 19 6 20 2 21 1 22 90 23 91 24
REMARK SMILES IDX 102 25 92 26 93 27 101 28 94 30 96 31 95 32 97 33 98 34
REMARK SMILES IDX 99 35 100 36 19 37 20 38 21 39 22 40 23 42 24 43 25 44 89 45
REMARK SMILES IDX 26 46 88 47 27 48 28 49 29 50 82 51 30 52 87 53 81 54 83 55
REMARK SMILES IDX 31 56 86 57 80 58 79 59 32 61 66 62 45 63 65 64 46 65 49 66
REMARK SMILES IDX 64 67 84 68 47 69 48 70 63 72 85 73 50 74 33 75 34 76 43 77
REMARK SMILES IDX 35 78 36 79 42 80 44 81 37 82 38 83 39 84 40 85 41 86 67 87
REMARK SMILES IDX 68 88 77 89 69 90 70 91 76 92 78 93 71 94 72 95 73 96 74 97
REMARK SMILES IDX 75 98 51 99 52 100 61 101 53 102 54 103 60 104 62 105 55 106
REMARK SMILES IDX 56 107 57 108 58 109 59 110
REMARK H PARENT 16 6 12 14 92 29 21 41 83 60 49 71
REMARK Flexibility Score: inf
ROOT
ATOM      1  C   UNL A   1      34.333  29.082  27.325  1.00  0.00     0.023 C 
ENDROOT
BRANCH   1   2
ATOM      2  C   UNL A   1      33.851  27.931  26.368  1.00  0.00     0.116 C 
BRANCH   2   3
ATOM      3  N   UNL A   1      32.506  27.327  26.585  1.00  0.00    -0.351 N 
ATOM      4  C   UNL A   1      31.718  26.243  26.217  1.00  0.00     0.283 C 
ATOM      5  O   UNL A   1      30.683  26.157  26.899  1.00  0.00    -0.268 OA
ATOM      6  H   UNL A   1      31.998  27.896  27.206  1.00  0.00     0.163 HD
BRANCH   4   7
ATOM      7  C   UNL A   1      32.023  25.136  25.126  1.00  0.00     0.307 C 
BRANCH   7   8
ATOM      8  N   UNL A   1      31.467  25.297  23.713  1.00  0.00    -0.318 N 
ATOM      9  N   UNL A   1      30.357  28.001  23.302  1.00  0.00    -0.357 N 
ATOM     10  C   UNL A   1      29.584  26.971  24.011  1.00  0.00     0.178 C 
ATOM     11  C   UNL A   1      31.804  27.773  23.300  1.00  0.00     0.178 C 
ATOM     12  C   UNL A   1      30.037  25.597  23.498  1.00  0.00     0.284 C 
ATOM     13  C   UNL A   1      32.141  26.312  22.899  1.00  0.00     0.284 C 
ATOM     14  H   UNL A   1      31.644  24.330  23.440  1.00  0.00     0.349 HD
BRANCH   9  15
ATOM     15  C   UNL A   1      30.031  29.344  23.536  1.00  0.00     0.080 A 
ATOM     16  C   UNL A   1      29.201  30.091  22.676  1.00  0.00     0.142 A 
ATOM     17  C   UNL A   1      28.954  31.443  22.970  1.00  0.00     0.048 A 
ATOM     18  C   UNL A   1      29.525  32.070  24.077  1.00  0.00     0.004 A 
ATOM     19  C   UNL A   1      30.622  30.011  24.635  1.00  0.00     0.030 A 
ATOM     20  C   UNL A   1      30.372  31.354  24.907  1.00  0.00     0.002 A 
BRANCH  16  21
ATOM     21  O   UNL A   1      28.547  29.701  21.535  1.00  0.00    -0.495 OA
ATOM     22  C   UNL A   1      27.949  30.652  20.675  1.00  0.00     0.278 C 
ENDBRANCH  16  21
ENDBRANCH   9  15
ENDBRANCH   7   8
BRANCH   7  23
ATOM     23  C   UNL A   1      31.962  23.588  25.631  1.00  0.00     0.044 A 
ATOM     24  C   UNL A   1      31.904  23.302  26.999  1.00  0.00     0.094 A 
ATOM     25  C   UNL A   1      32.603  22.331  25.190  1.00  0.00     0.013 A 
ATOM     26  N   UNL A   1      33.188  22.852  27.252  1.00  0.00    -0.361 N 
ATOM     27  C   UNL A   1      33.580  22.107  26.163  1.00  0.00     0.046 A 
ATOM     28  C   UNL A   1      32.402  21.212  24.303  1.00  0.00     0.057 A 
ATOM     29  H   UNL A   1      33.721  23.030  28.061  1.00  0.00     0.166 HD
ATOM     30  C   UNL A   1      34.671  21.261  25.974  1.00  0.00     0.030 A 
ATOM     31  C   UNL A   1      33.328  20.111  24.323  1.00  0.00     0.121 A 
ATOM     32  C   UNL A   1      34.531  20.267  25.005  1.00  0.00     0.048 A 
BRANCH  31  33
ATOM     33  O   UNL A   1      33.017  18.903  23.698  1.00  0.00    -0.479 OA
BRANCH  33  34
ATOM     34  C   UNL A   1      32.318  17.819  24.493  1.00  0.00     0.349 C 
BRANCH  34  35
ATOM     35  C   UNL A   1      33.178  16.565  24.527  1.00  0.00     0.104 C 
ATOM     36  N   UNL A   1      33.890  15.527  24.554  1.00  0.00    -0.195 NA
ENDBRANCH  34  35
ENDBRANCH  33  34
ENDBRANCH  31  33
ENDBRANCH   7  23
ENDBRANCH   4   7
ENDBRANCH   2   3
ENDBRANCH   1   2
BRANCH   1  37
ATOM     37  C   UNL A   1      33.439  30.321  27.471  1.00  0.00     0.023 C 
BRANCH  37  38
ATOM     38  C   UNL A   1      34.157  31.649  27.320  1.00  0.00     0.116 C 
BRANCH  38  39
ATOM     39  N   UNL A   1      33.379  32.782  27.810  1.00  0.00    -0.352 N 
ATOM     40  C   UNL A   1      33.620  33.577  28.921  1.00  0.00     0.251 C 
ATOM     41  H   UNL A   1      32.579  33.011  27.285  1.00  0.00     0.163 HD
ATOM     42  O   UNL A   1      32.805  34.402  29.274  1.00  0.00    -0.269 OA
BRANCH  40  43
ATOM     43  C   UNL A   1      34.879  33.377  29.688  1.00  0.00     0.039 A 
ATOM     44  C   UNL A   1      34.931  32.405  30.692  1.00  0.00     0.014 A 
ATOM     45  C   UNL A   1      36.013  34.132  29.391  1.00  0.00     0.014 A 
ATOM     46  C   UNL A   1      36.140  32.151  31.348  1.00  0.00     0.010 A 
ATOM     47  C   UNL A   1      37.234  33.800  29.956  1.00  0.00     0.010 A 
ATOM     48  C   UNL A   1      37.309  32.825  30.960  1.00  0.00    -0.014 A 
BRANCH  48  49
ATOM     49  C   UNL A   1      38.620  32.603  31.621  1.00  0.00     0.031 A 
ATOM     50  C   UNL A   1      39.611  31.671  30.971  1.00  0.00     0.074 A 
ATOM     51  C   UNL A   1      38.875  33.144  32.828  1.00  0.00     0.049 A 
ATOM     52  N   UNL A   1      40.728  31.187  31.445  1.00  0.00    -0.248 NA
ATOM     53  C   UNL A   1      39.272  31.181  29.622  1.00  0.00     0.031 C 
ATOM     54  C   UNL A   1      37.972  34.026  33.572  1.00  0.00     0.029 A 
ATOM     55  N   UNL A   1      39.964  33.016  33.653  1.00  0.00    -0.354 N 
ATOM     56  C   UNL A   1      41.204  30.317  30.469  1.00  0.00     0.074 A 
ATOM     57  C   UNL A   1      40.224  30.287  29.408  1.00  0.00     0.031 C 
ATOM     58  C   UNL A   1      38.553  34.374  34.733  1.00  0.00     0.029 A 
ATOM     59  C   UNL A   1      39.846  33.704  34.839  1.00  0.00     0.049 A 
ATOM     60  H   UNL A   1      40.756  32.479  33.418  1.00  0.00     0.167 HD
ATOM     61  C   UNL A   1      42.371  29.632  30.444  1.00  0.00     0.037 A 
ATOM     62  C   UNL A   1      40.682  33.774  35.892  1.00  0.00     0.037 A 
ATOM     63  C   UNL A   1      43.360  29.712  31.486  1.00  0.00     0.049 A 
ATOM     64  C   UNL A   1      41.980  33.009  35.839  1.00  0.00     0.074 A 
ATOM     65  C   UNL A   1      44.600  29.102  31.545  1.00  0.00     0.029 A 
ATOM     66  N   UNL A   1      43.224  30.462  32.645  1.00  0.00    -0.354 N 
ATOM     67  N   UNL A   1      42.435  32.223  34.891  1.00  0.00    -0.248 NA
ATOM     68  C   UNL A   1      42.882  33.143  36.990  1.00  0.00     0.031 C 
ATOM     69  C   UNL A   1      45.199  29.453  32.758  1.00  0.00     0.029 A 
ATOM     70  C   UNL A   1      44.356  30.326  33.430  1.00  0.00     0.049 A 
ATOM     71  H   UNL A   1      42.439  31.010  32.876  1.00  0.00     0.167 HD
ATOM     72  C   UNL A   1      43.692  31.805  35.313  1.00  0.00     0.074 A 
ATOM     73  C   UNL A   1      43.927  32.426  36.600  1.00  0.00     0.031 C 
ATOM     74  C   UNL A   1      44.577  30.986  34.692  1.00  0.00     0.037 A 
BRANCH  61  75
ATOM     75  C   UNL A   1      42.649  28.760  29.251  1.00  0.00     0.058 A 
ATOM     76  C   UNL A   1      43.495  29.180  28.212  1.00  0.00     0.135 A 
ATOM     77  C   UNL A   1      42.095  27.472  29.160  1.00  0.00     0.135 A 
ATOM     78  F   UNL A   1      44.038  30.409  28.235  1.00  0.00    -0.206 F 
ATOM     79  C   UNL A   1      43.761  28.369  27.115  1.00  0.00     0.059 A 
ATOM     80  C   UNL A   1      42.373  26.630  28.086  1.00  0.00     0.059 A 
ATOM     81  F   UNL A   1      41.275  27.019  30.121  1.00  0.00    -0.206 F 
ATOM     82  C   UNL A   1      43.198  27.092  27.062  1.00  0.00     0.060 A 
BRANCH  82  83
ATOM     83  S   UNL A   1      43.574  26.045  25.641  1.00  0.00     0.124 S 
ATOM     84  O   UNL A   1      42.360  26.189  24.844  1.00  0.00    -0.237 OA
ATOM     85  O   UNL A   1      44.769  26.680  25.094  1.00  0.00    -0.237 OA
ATOM     86  O   UNL A   1      43.783  24.728  26.234  1.00  0.00    -0.744 OA
ENDBRANCH  82  83
ENDBRANCH  61  75
BRANCH  62  87
ATOM     87  C   UNL A   1      40.338  34.611  37.074  1.00  0.00     0.058 A 
ATOM     88  C   UNL A   1      39.690  34.054  38.187  1.00  0.00     0.135 A 
ATOM     89  C   UNL A   1      40.641  35.981  37.118  1.00  0.00     0.135 A 
ATOM     90  F   UNL A   1      39.375  32.749  38.195  1.00  0.00    -0.206 F 
ATOM     91  C   UNL A   1      39.326  34.827  39.285  1.00  0.00     0.059 A 
ATOM     92  C   UNL A   1      40.313  36.770  38.217  1.00  0.00     0.059 A 
ATOM     93  F   UNL A   1      41.278  36.562  36.090  1.00  0.00    -0.206 F 
ATOM     94  C   UNL A   1      39.640  36.186  39.290  1.00  0.00     0.060 A 
BRANCH  94  95
ATOM     95  S   UNL A   1      39.180  37.177  40.728  1.00  0.00     0.124 S 
ATOM     96  O   UNL A   1      38.481  36.195  41.549  1.00  0.00    -0.237 OA
ATOM     97  O   UNL A   1      40.479  37.617  41.226  1.00  0.00    -0.237 OA
ATOM     98  O   UNL A   1      38.346  38.230  40.156  1.00  0.00    -0.744 OA
ENDBRANCH  94  95
ENDBRANCH  62  87
BRANCH  74  99
ATOM     99  C   UNL A   1      45.907  30.766  35.354  1.00  0.00     0.058 A 
ATOM    100  C   UNL A   1      47.000  31.616  35.124  1.00  0.00     0.135 A 
ATOM    101  C   UNL A   1      46.060  29.736  36.297  1.00  0.00     0.135 A 
ATOM    102  F   UNL A   1      46.906  32.612  34.230  1.00  0.00    -0.206 F 
ATOM    103  C   UNL A   1      48.205  31.442  35.796  1.00  0.00     0.059 A 
ATOM    104  C   UNL A   1      47.246  29.562  37.001  1.00  0.00     0.059 A 
ATOM    105  F   UNL A   1      45.040  28.903  36.560  1.00  0.00    -0.206 F 
ATOM    106  C   UNL A   1      48.315  30.416  36.738  1.00  0.00     0.060 A 
BRANCH 106 107
ATOM    107  S   UNL A   1      49.867  30.238  37.643  1.00  0.00     0.124 S 
ATOM    108  O   UNL A   1      49.990  31.548  38.274  1.00  0.00    -0.237 OA
ATOM    109  O   UNL A   1      49.577  29.125  38.542  1.00  0.00    -0.237 OA
ATOM    110  O   UNL A   1      50.842  29.951  36.595  1.00  0.00    -0.744 OA
ENDBRANCH 106 107
ENDBRANCH  74  99
ENDBRANCH  48  49
ENDBRANCH  40  43
ENDBRANCH  38  39
ENDBRANCH  37  38
ENDBRANCH   1  37
TORSDOF 21
ENDMDL
MODEL 2
REMARK VINA RESULT:     -10.5      6.657     13.575
REMARK SMILES COc1ccccc1N1CC[NH+]([C@@H](C(=O)NCCCCNC(=O)c2ccc(-c3c4nc(c(-c5c(F)cc(S(=O)(=O)[O-])cc5F)c5ccc([nH]5)c(-c5c(F)cc(S(=O)(=O)[O-])cc5F)c5nc(c(-c6c(F)cc(S(=O)(=O)[O-])cc6F)c6ccc3[nH]6)C=C5)C=C4)cc2)c2c[nH]c3ccc(OCC#N)cc23)CC1
REMARK SMILES IDX 18 1 17 2 16 3 14 4 15 5 13 7 12 8 9 9 10 10 104 11 11 12
REMARK SMILES IDX 103 13 8 15 3 16 4 17 5 18 7 19 6 20 2 21 1 22 90 23 91 24
REMARK SMILES IDX 102 25 92 26 93 27 101 28 94 30 96 31 95 32 97 33 98 34
REMARK SMILES IDX 99 35 100 36 19 37 20 38 21 39 22 40 23 42 24 43 25 44 89 45
REMARK SMILES IDX 26 46 88 47 27 48 28 49 29 50 82 51 30 52 87 53 81 54 83 55
REMARK SMILES IDX 31 56 86 57 80 58 79 59 32 61 66 62 45 63 65 64 46 65 49 66
REMARK SMILES IDX 64 67 84 68 47 69 48 70 63 72 85 73 50 74 33 75 34 76 43 77
REMARK SMILES IDX 35 78 36 79 42 80 44 81 37 82 38 83 39 84 40 85 41 86 67 87
REMARK SMILES IDX 68 88 77 89 69 90 70 91 76 92 78 93 71 94 72 95 73 96 74 97
REMARK SMILES IDX 75 98 51 99 52 100 61 101 53 102 54 103 60 104 62 105 55 106
REMARK SMILES IDX 56 107 57 108 58 109 59 110
REMARK H PARENT 16 6 12 14 92 29 21 41 83 60 49 71
REMARK Flexibility Score: inf
ROOT
ATOM      1  C   UNL A   1      38.350  28.051  32.380  1.00  0.00     0.023 C 
ENDROOT
BRANCH   1   2
ATOM      2  C   UNL A   1      39.535  28.935  32.914  1.00  0.00     0.116 C 
BRANCH   2   3
ATOM      3  N   UNL A   1      39.251  29.984  33.935  1.00  0.00    -0.351 N 
ATOM      4  C   UNL A   1      39.706  31.210  34.404  1.00  0.00     0.283 C 
ATOM      5  O   UNL A   1      38.913  31.734  35.204  1.00  0.00    -0.268 OA
ATOM      6  H   UNL A   1      38.464  29.712  34.460  1.00  0.00     0.163 HD
BRANCH   4   7
ATOM      7  C   UNL A   1      41.024  31.987  33.995  1.00  0.00     0.307 C 
BRANCH   7   8
ATOM      8  N   UNL A   1      42.230  31.972  34.931  1.00  0.00    -0.318 N 
ATOM      9  N   UNL A   1      44.550  30.656  33.666  1.00  0.00    -0.357 N 
ATOM     10  C   UNL A   1      43.467  29.859  34.261  1.00  0.00     0.178 C 
ATOM     11  C   UNL A   1      44.162  32.018  33.294  1.00  0.00     0.178 C 
ATOM     12  C   UNL A   1      42.820  30.693  35.376  1.00  0.00     0.284 C 
ATOM     13  C   UNL A   1      43.394  32.718  34.447  1.00  0.00     0.284 C 
ATOM     14  H   UNL A   1      41.736  32.396  35.716  1.00  0.00     0.349 HD
BRANCH   9  15
ATOM     15  C   UNL A   1      45.354  30.048  32.693  1.00  0.00     0.080 A 
ATOM     16  C   UNL A   1      44.845  29.146  31.735  1.00  0.00     0.142 A 
ATOM     17  C   UNL A   1      45.729  28.555  30.816  1.00  0.00     0.048 A 
ATOM     18  C   UNL A   1      47.098  28.821  30.839  1.00  0.00     0.004 A 
ATOM     19  C   UNL A   1      46.749  30.277  32.714  1.00  0.00     0.030 A 
ATOM     20  C   UNL A   1      47.612  29.676  31.800  1.00  0.00     0.002 A 
BRANCH  16  21
ATOM     21  O   UNL A   1      43.556  28.725  31.530  1.00  0.00    -0.495 OA
ATOM     22  C   UNL A   1      43.186  27.375  31.743  1.00  0.00     0.278 C 
ENDBRANCH  16  21
ENDBRANCH   9  15
ENDBRANCH   7   8
BRANCH   7  23
ATOM     23  C   UNL A   1      40.816  33.444  33.296  1.00  0.00     0.044 A 
ATOM     24  C   UNL A   1      40.225  34.486  34.019  1.00  0.00     0.094 A 
ATOM     25  C   UNL A   1      40.430  33.895  31.942  1.00  0.00     0.013 A 
ATOM     26  N   UNL A   1      38.963  34.547  33.455  1.00  0.00    -0.361 N 
ATOM     27  C   UNL A   1      39.109  34.319  32.105  1.00  0.00     0.046 A 
ATOM     28  C   UNL A   1      41.000  34.256  30.667  1.00  0.00     0.057 A 
ATOM     29  H   UNL A   1      38.118  34.722  33.930  1.00  0.00     0.166 HD
ATOM     30  C   UNL A   1      38.216  34.470  31.046  1.00  0.00     0.030 A 
ATOM     31  C   UNL A   1      40.152  34.773  29.627  1.00  0.00     0.121 A 
ATOM     32  C   UNL A   1      38.773  34.670  29.783  1.00  0.00     0.048 A 
BRANCH  31  33
ATOM     33  O   UNL A   1      40.696  35.391  28.501  1.00  0.00    -0.479 OA
BRANCH  33  34
ATOM     34  C   UNL A   1      42.159  35.782  28.508  1.00  0.00     0.349 C 
BRANCH  34  35
ATOM     35  C   UNL A   1      42.384  36.966  27.580  1.00  0.00     0.104 C 
ATOM     36  N   UNL A   1      42.569  37.947  26.812  1.00  0.00    -0.195 NA
ENDBRANCH  34  35
ENDBRANCH  33  34
ENDBRANCH  31  33
ENDBRANCH   7  23
ENDBRANCH   4   7
ENDBRANCH   2   3
ENDBRANCH   1   2
BRANCH   1  37
ATOM     37  C   UNL A   1      37.385  28.675  31.362  1.00  0.00     0.023 C 
BRANCH  37  38
ATOM     38  C   UNL A   1      36.677  29.928  31.838  1.00  0.00     0.116 C 
BRANCH  38  39
ATOM     39  N   UNL A   1      36.072  30.694  30.753  1.00  0.00    -0.352 N 
ATOM     40  C   UNL A   1      36.667  31.158  29.589  1.00  0.00     0.251 C 
ATOM     41  H   UNL A   1      35.118  30.911  30.862  1.00  0.00     0.163 HD
ATOM     42  O   UNL A   1      36.063  31.897  28.843  1.00  0.00    -0.269 OA
BRANCH  40  43
ATOM     43  C   UNL A   1      38.069  30.758  29.291  1.00  0.00     0.039 A 
ATOM     44  C   UNL A   1      39.096  31.133  30.163  1.00  0.00     0.014 A 
ATOM     45  C   UNL A   1      38.358  29.990  28.164  1.00  0.00     0.014 A 
ATOM     46  C   UNL A   1      40.399  30.677  29.934  1.00  0.00     0.010 A 
ATOM     47  C   UNL A   1      39.621  29.443  28.003  1.00  0.00     0.010 A 
ATOM     48  C   UNL A   1      40.663  29.800  28.869  1.00  0.00    -0.014 A 
BRANCH  48  49
ATOM     49  C   UNL A   1      42.025  29.288  28.573  1.00  0.00     0.031 A 
ATOM     50  C   UNL A   1      43.172  30.265  28.521  1.00  0.00     0.074 A 
ATOM     51  C   UNL A   1      42.212  27.992  28.257  1.00  0.00     0.049 A 
ATOM     52  N   UNL A   1      44.399  30.084  28.109  1.00  0.00    -0.248 NA
ATOM     53  C   UNL A   1      42.883  31.647  28.947  1.00  0.00     0.031 C 
ATOM     54  C   UNL A   1      41.168  26.964  28.230  1.00  0.00     0.029 A 
ATOM     55  N   UNL A   1      43.346  27.319  27.876  1.00  0.00    -0.354 N 
ATOM     56  C   UNL A   1      45.013  31.329  28.197  1.00  0.00     0.074 A 
ATOM     57  C   UNL A   1      44.009  32.270  28.636  1.00  0.00     0.031 C 
ATOM     58  C   UNL A   1      41.715  25.789  27.874  1.00  0.00     0.029 A 
ATOM     59  C   UNL A   1      43.135  25.988  27.599  1.00  0.00     0.049 A 
ATOM     60  H   UNL A   1      44.228  27.750  27.806  1.00  0.00     0.167 HD
ATOM     61  C   UNL A   1      46.307  31.652  27.966  1.00  0.00     0.037 A 
ATOM     62  C   UNL A   1      43.990  25.043  27.162  1.00  0.00     0.037 A 
ATOM     63  C   UNL A   1      47.305  30.692  27.579  1.00  0.00     0.049 A 
ATOM     64  C   UNL A   1      45.428  25.423  26.920  1.00  0.00     0.074 A 
ATOM     65  C   UNL A   1      48.657  30.895  27.366  1.00  0.00     0.029 A 
ATOM     66  N   UNL A   1      47.061  29.345  27.360  1.00  0.00    -0.354 N 
ATOM     67  N   UNL A   1      46.002  26.597  27.047  1.00  0.00    -0.248 NA
ATOM     68  C   UNL A   1      46.336  24.356  26.483  1.00  0.00     0.031 C 
ATOM     69  C   UNL A   1      49.223  29.676  26.982  1.00  0.00     0.029 A 
ATOM     70  C   UNL A   1      48.236  28.703  27.009  1.00  0.00     0.049 A 
ATOM     71  H   UNL A   1      46.182  28.908  27.442  1.00  0.00     0.167 HD
ATOM     72  C   UNL A   1      47.346  26.397  26.748  1.00  0.00     0.074 A 
ATOM     73  C   UNL A   1      47.498  24.992  26.435  1.00  0.00     0.031 C 
ATOM     74  C   UNL A   1      48.364  27.293  26.737  1.00  0.00     0.037 A 
BRANCH  61  75
ATOM     75  C   UNL A   1      46.717  33.087  28.148  1.00  0.00     0.058 A 
ATOM     76  C   UNL A   1      46.630  34.018  27.100  1.00  0.00     0.135 A 
ATOM     77  C   UNL A   1      47.167  33.550  29.396  1.00  0.00     0.135 A 
ATOM     78  F   UNL A   1      46.226  33.627  25.880  1.00  0.00    -0.206 F 
ATOM     79  C   UNL A   1      46.998  35.347  27.273  1.00  0.00     0.059 A 
ATOM     80  C   UNL A   1      47.511  34.884  29.601  1.00  0.00     0.059 A 
ATOM     81  F   UNL A   1      47.275  32.705  30.433  1.00  0.00    -0.206 F 
ATOM     82  C   UNL A   1      47.435  35.772  28.529  1.00  0.00     0.060 A 
BRANCH  82  83
ATOM     83  S   UNL A   1      47.886  37.507  28.739  1.00  0.00     0.124 S 
ATOM     84  O   UNL A   1      46.714  38.030  29.436  1.00  0.00    -0.237 OA
ATOM     85  O   UNL A   1      49.106  37.418  29.534  1.00  0.00    -0.237 OA
ATOM     86  O   UNL A   1      48.065  37.981  27.371  1.00  0.00    -0.744 OA
ENDBRANCH  82  83
ENDBRANCH  61  75
BRANCH  62  87
ATOM     87  C   UNL A   1      43.523  23.646  26.947  1.00  0.00     0.058 A 
ATOM     88  C   UNL A   1      43.279  23.159  25.654  1.00  0.00     0.135 A 
ATOM     89  C   UNL A   1      43.305  22.770  28.022  1.00  0.00     0.135 A 
ATOM     90  F   UNL A   1      43.469  23.957  24.592  1.00  0.00    -0.206 F 
ATOM     91  C   UNL A   1      42.806  21.869  25.434  1.00  0.00     0.059 A 
ATOM     92  C   UNL A   1      42.861  21.465  27.827  1.00  0.00     0.059 A 
ATOM     93  F   UNL A   1      43.542  23.176  29.280  1.00  0.00    -0.206 F 
ATOM     94  C   UNL A   1      42.598  21.029  26.529  1.00  0.00     0.060 A 
BRANCH  94  95
ATOM     95  S   UNL A   1      42.002  19.350  26.232  1.00  0.00     0.124 S 
ATOM     96  O   UNL A   1      40.559  19.552  26.203  1.00  0.00    -0.237 OA
ATOM     97  O   UNL A   1      42.628  19.024  24.954  1.00  0.00    -0.237 OA
ATOM     98  O   UNL A   1      42.513  18.605  27.379  1.00  0.00    -0.744 OA
ENDBRANCH  94  95
ENDBRANCH  62  87
BRANCH  74  99
ATOM     99  C   UNL A   1      49.745  26.777  26.447  1.00  0.00     0.058 A 
ATOM    100  C   UNL A   1      50.528  26.158  27.432  1.00  0.00     0.135 A 
ATOM    101  C   UNL A   1      50.253  26.830  25.138  1.00  0.00     0.135 A 
ATOM    102  F   UNL A   1      50.089  26.086  28.699  1.00  0.00    -0.206 F 
ATOM    103  C   UNL A   1      51.776  25.622  27.133  1.00  0.00     0.059 A 
ATOM    104  C   UNL A   1      51.485  26.275  24.811  1.00  0.00     0.059 A 
ATOM    105  F   UNL A   1      49.536  27.402  24.157  1.00  0.00    -0.206 F 
ATOM    106  C   UNL A   1      52.242  25.680  25.818  1.00  0.00     0.060 A 
BRANCH 106 107
ATOM    107  S   UNL A   1      53.839  24.930  25.433  1.00  0.00     0.124 S 
ATOM    108  O   UNL A   1      53.473  23.527  25.273  1.00  0.00    -0.237 OA
ATOM    109  O   UNL A   1      54.225  25.630  24.211  1.00  0.00    -0.237 OA
ATOM    110  O   UNL A   1      54.651  25.238  26.607  1.00  0.00    -0.744 OA
ENDBRANCH 106 107
ENDBRANCH  74  99
ENDBRANCH  48  49
ENDBRANCH  40  43
ENDBRANCH  38  39
ENDBRANCH  37  38
ENDBRANCH   1  37
TORSDOF 21
ENDMDL
MODEL 3
REMARK VINA RESULT:     -10.5      9.905     17.327
REMARK SMILES COc1ccccc1N1CC[NH+]([C@@H](C(=O)NCCCCNC(=O)c2ccc(-c3c4nc(c(-c5c(F)cc(S(=O)(=O)[O-])cc5F)c5ccc([nH]5)c(-c5c(F)cc(S(=O)(=O)[O-])cc5F)c5nc(c(-c6c(F)cc(S(=O)(=O)[O-])cc6F)c6ccc3[nH]6)C=C5)C=C4)cc2)c2c[nH]c3ccc(OCC#N)cc23)CC1
REMARK SMILES IDX 18 1 17 2 16 3 14 4 15 5 13 7 12 8 9 9 10 10 104 11 11 12
REMARK SMILES IDX 103 13 8 15 3 16 4 17 5 18 7 19 6 20 2 21 1 22 90 23 91 24
REMARK SMILES IDX 102 25 92 26 93 27 101 28 94 30 96 31 95 32 97 33 98 34
REMARK SMILES IDX 99 35 100 36 19 37 20 38 21 39 22 40 23 42 24 43 25 44 89 45
REMARK SMILES IDX 26 46 88 47 27 48 28 49 29 50 82 51 30 52 87 53 81 54 83 55
REMARK SMILES IDX 31 56 86 57 80 58 79 59 32 61 66 62 45 63 65 64 46 65 49 66
REMARK SMILES IDX 64 67 84 68 47 69 48 70 63 72 85 73 50 74 33 75 34 76 43 77
REMARK SMILES IDX 35 78 36 79 42 80 44 81 37 82 38 83 39 84 40 85 41 86 67 87
REMARK SMILES IDX 68 88 77 89 69 90 70 91 76 92 78 93 71 94 72 95 73 96 74 97
REMARK SMILES IDX 75 98 51 99 52 100 61 101 53 102 54 103 60 104 62 105 55 106
REMARK SMILES IDX 56 107 57 108 58 109 59 110
REMARK H PARENT 16 6 12 14 92 29 21 41 83 60 49 71
REMARK Flexibility Score: inf
ROOT
ATOM      1  C   UNL A   1      45.156  39.719  27.715  1.00  0.00     0.023 C 
ENDROOT
BRANCH   1   2
ATOM      2  C   UNL A   1      44.086  40.859  27.883  1.00  0.00     0.116 C 
BRANCH   2   3
ATOM      3  N   UNL A   1      43.136  41.128  26.767  1.00  0.00    -0.351 N 
ATOM      4  C   UNL A   1      43.091  41.511  25.432  1.00  0.00     0.283 C 
ATOM      5  O   UNL A   1      41.958  41.381  24.940  1.00  0.00    -0.268 OA
ATOM      6  H   UNL A   1      42.217  40.983  27.089  1.00  0.00     0.163 HD
BRANCH   4   7
ATOM      7  C   UNL A   1      44.284  42.004  24.514  1.00  0.00     0.307 C 
BRANCH   7   8
ATOM      8  N   UNL A   1      45.683  42.147  25.110  1.00  0.00    -0.318 N 
ATOM      9  N   UNL A   1      47.613  43.105  23.091  1.00  0.00    -0.357 N 
ATOM     10  C   UNL A   1      47.211  41.691  23.135  1.00  0.00     0.178 C 
ATOM     11  C   UNL A   1      46.655  44.022  23.712  1.00  0.00     0.178 C 
ATOM     12  C   UNL A   1      46.810  41.354  24.579  1.00  0.00     0.284 C 
ATOM     13  C   UNL A   1      46.215  43.513  25.110  1.00  0.00     0.284 C 
ATOM     14  H   UNL A   1      45.426  41.779  26.025  1.00  0.00     0.349 HD
BRANCH   9  15
ATOM     15  C   UNL A   1      48.122  43.605  21.885  1.00  0.00     0.080 A 
ATOM     16  C   UNL A   1      49.018  44.692  21.825  1.00  0.00     0.142 A 
ATOM     17  C   UNL A   1      49.452  45.150  20.570  1.00  0.00     0.048 A 
ATOM     18  C   UNL A   1      49.005  44.572  19.382  1.00  0.00     0.004 A 
ATOM     19  C   UNL A   1      47.660  43.056  20.666  1.00  0.00     0.030 A 
ATOM     20  C   UNL A   1      48.095  43.528  19.430  1.00  0.00     0.002 A 
BRANCH  16  21
ATOM     21  O   UNL A   1      49.579  45.419  22.843  1.00  0.00    -0.495 OA
ATOM     22  C   UNL A   1      49.665  46.830  22.771  1.00  0.00     0.278 C 
ENDBRANCH  16  21
ENDBRANCH   9  15
ENDBRANCH   7   8
BRANCH   7  23
ATOM     23  C   UNL A   1      43.943  43.207  23.469  1.00  0.00     0.044 A 
ATOM     24  C   UNL A   1      43.070  44.233  23.848  1.00  0.00     0.094 A 
ATOM     25  C   UNL A   1      43.711  43.274  22.011  1.00  0.00     0.013 A 
ATOM     26  N   UNL A   1      41.926  43.912  23.139  1.00  0.00    -0.361 N 
ATOM     27  C   UNL A   1      42.327  43.440  21.910  1.00  0.00     0.046 A 
ATOM     28  C   UNL A   1      44.410  43.468  20.764  1.00  0.00     0.057 A 
ATOM     29  H   UNL A   1      40.997  44.005  23.454  1.00  0.00     0.166 HD
ATOM     30  C   UNL A   1      41.607  43.178  20.746  1.00  0.00     0.030 A 
ATOM     31  C   UNL A   1      43.665  43.568  19.537  1.00  0.00     0.121 A 
ATOM     32  C   UNL A   1      42.319  43.218  19.547  1.00  0.00     0.048 A 
BRANCH  31  33
ATOM     33  O   UNL A   1      44.270  44.035  18.370  1.00  0.00    -0.479 OA
BRANCH  33  34
ATOM     34  C   UNL A   1      43.402  44.397  17.182  1.00  0.00     0.349 C 
BRANCH  34  35
ATOM     35  C   UNL A   1      43.053  45.876  17.228  1.00  0.00     0.104 C 
ATOM     36  N   UNL A   1      42.764  47.102  17.266  1.00  0.00    -0.195 NA
ENDBRANCH  34  35
ENDBRANCH  33  34
ENDBRANCH  31  33
ENDBRANCH   7  23
ENDBRANCH   4   7
ENDBRANCH   2   3
ENDBRANCH   1   2
BRANCH   1  37
ATOM     37  C   UNL A   1      44.756  38.290  28.109  1.00  0.00     0.023 C 
BRANCH  37  38
ATOM     38  C   UNL A   1      45.425  37.761  29.362  1.00  0.00     0.116 C 
BRANCH  38  39
ATOM     39  N   UNL A   1      46.882  37.802  29.297  1.00  0.00    -0.352 N 
ATOM     40  C   UNL A   1      47.767  36.753  29.098  1.00  0.00     0.251 C 
ATOM     41  H   UNL A   1      47.290  38.691  29.411  1.00  0.00     0.163 HD
ATOM     42  O   UNL A   1      48.962  36.928  29.201  1.00  0.00    -0.269 OA
BRANCH  40  43
ATOM     43  C   UNL A   1      47.222  35.404  28.786  1.00  0.00     0.039 A 
ATOM     44  C   UNL A   1      46.832  35.100  27.478  1.00  0.00     0.014 A 
ATOM     45  C   UNL A   1      47.127  34.434  29.784  1.00  0.00     0.014 A 
ATOM     46  C   UNL A   1      46.410  33.803  27.165  1.00  0.00     0.010 A 
ATOM     47  C   UNL A   1      46.823  33.125  29.450  1.00  0.00     0.010 A 
ATOM     48  C   UNL A   1      46.435  32.798  28.144  1.00  0.00    -0.014 A 
BRANCH  48  49
ATOM     49  C   UNL A   1      45.994  31.405  27.874  1.00  0.00     0.031 A 
ATOM     50  C   UNL A   1      44.567  31.025  28.178  1.00  0.00     0.074 A 
ATOM     51  C   UNL A   1      46.879  30.478  27.462  1.00  0.00     0.049 A 
ATOM     52  N   UNL A   1      44.009  29.843  28.196  1.00  0.00    -0.248 NA
ATOM     53  C   UNL A   1      43.657  32.121  28.560  1.00  0.00     0.031 C 
ATOM     54  C   UNL A   1      48.296  30.721  27.178  1.00  0.00     0.029 A 
ATOM     55  N   UNL A   1      46.723  29.134  27.228  1.00  0.00    -0.354 N 
ATOM     56  C   UNL A   1      42.700  30.052  28.619  1.00  0.00     0.074 A 
ATOM     57  C   UNL A   1      42.565  31.461  28.911  1.00  0.00     0.031 C 
ATOM     58  C   UNL A   1      48.872  29.571  26.790  1.00  0.00     0.029 A 
ATOM     59  C   UNL A   1      47.881  28.500  26.842  1.00  0.00     0.049 A 
ATOM     60  H   UNL A   1      45.862  28.668  27.328  1.00  0.00     0.167 HD
ATOM     61  C   UNL A   1      41.692  29.156  28.721  1.00  0.00     0.037 A 
ATOM     62  C   UNL A   1      48.115  27.201  26.575  1.00  0.00     0.037 A 
ATOM     63  C   UNL A   1      41.829  27.766  28.377  1.00  0.00     0.049 A 
ATOM     64  C   UNL A   1      46.975  26.221  26.687  1.00  0.00     0.074 A 
ATOM     65  C   UNL A   1      40.863  26.776  28.392  1.00  0.00     0.029 A 
ATOM     66  N   UNL A   1      43.005  27.175  27.941  1.00  0.00    -0.354 N 
ATOM     67  N   UNL A   1      45.732  26.442  27.049  1.00  0.00    -0.248 NA
ATOM     68  C   UNL A   1      47.261  24.821  26.349  1.00  0.00     0.031 C 
ATOM     69  C   UNL A   1      41.466  25.577  28.001  1.00  0.00     0.029 A 
ATOM     70  C   UNL A   1      42.793  25.830  27.689  1.00  0.00     0.049 A 
ATOM     71  H   UNL A   1      43.866  27.641  27.827  1.00  0.00     0.167 HD
ATOM     72  C   UNL A   1      45.081  25.217  26.940  1.00  0.00     0.074 A 
ATOM     73  C   UNL A   1      46.066  24.262  26.478  1.00  0.00     0.031 C 
ATOM     74  C   UNL A   1      43.785  24.910  27.194  1.00  0.00     0.037 A 
BRANCH  61  75
ATOM     75  C   UNL A   1      40.355  29.652  29.199  1.00  0.00     0.058 A 
ATOM     76  C   UNL A   1      40.127  29.975  30.546  1.00  0.00     0.135 A 
ATOM     77  C   UNL A   1      39.297  29.845  28.294  1.00  0.00     0.135 A 
ATOM     78  F   UNL A   1      41.095  29.792  31.459  1.00  0.00    -0.206 F 
ATOM     79  C   UNL A   1      38.894  30.445  30.985  1.00  0.00     0.059 A 
ATOM     80  C   UNL A   1      38.065  30.345  28.705  1.00  0.00     0.059 A 
ATOM     81  F   UNL A   1      39.456  29.549  26.995  1.00  0.00    -0.206 F 
ATOM     82  C   UNL A   1      37.869  30.631  30.056  1.00  0.00     0.060 A 
BRANCH  82  83
ATOM     83  S   UNL A   1      36.284  31.264  30.641  1.00  0.00     0.124 S 
ATOM     84  O   UNL A   1      36.613  32.659  30.920  1.00  0.00    -0.237 OA
ATOM     85  O   UNL A   1      35.414  31.037  29.491  1.00  0.00    -0.237 OA
ATOM     86  O   UNL A   1      35.999  30.441  31.812  1.00  0.00    -0.744 OA
ENDBRANCH  82  83
ENDBRANCH  61  75
BRANCH  62  87
ATOM     87  C   UNL A   1      49.470  26.749  26.155  1.00  0.00     0.058 A 
ATOM     88  C   UNL A   1      50.378  26.228  27.090  1.00  0.00     0.135 A 
ATOM     89  C   UNL A   1      49.891  26.833  24.819  1.00  0.00     0.135 A 
ATOM     90  F   UNL A   1      50.026  26.129  28.381  1.00  0.00    -0.206 F 
ATOM     91  C   UNL A   1      51.662  25.836  26.724  1.00  0.00     0.059 A 
ATOM     92  C   UNL A   1      51.160  26.420  24.422  1.00  0.00     0.059 A 
ATOM     93  F   UNL A   1      49.057  27.304  23.878  1.00  0.00    -0.206 F 
ATOM     94  C   UNL A   1      52.045  25.938  25.386  1.00  0.00     0.060 A 
BRANCH  94  95
ATOM     95  S   UNL A   1      53.707  25.410  24.918  1.00  0.00     0.124 S 
ATOM     96  O   UNL A   1      54.486  25.830  26.077  1.00  0.00    -0.237 OA
ATOM     97  O   UNL A   1      53.536  23.969  24.752  1.00  0.00    -0.237 OA
ATOM     98  O   UNL A   1      53.960  26.150  23.685  1.00  0.00    -0.744 OA
ENDBRANCH  94  95
ENDBRANCH  62  87
BRANCH  74  99
ATOM     99  C   UNL A   1      43.334  23.505  26.913  1.00  0.00     0.058 A 
ATOM    100  C   UNL A   1      43.250  23.000  25.607  1.00  0.00     0.135 A 
ATOM    101  C   UNL A   1      43.061  22.629  27.977  1.00  0.00     0.135 A 
ATOM    102  F   UNL A   1      43.496  23.797  24.556  1.00  0.00    -0.206 F 
ATOM    103  C   UNL A   1      42.897  21.676  25.365  1.00  0.00     0.059 A 
ATOM    104  C   UNL A   1      42.736  21.295  27.759  1.00  0.00     0.059 A 
ATOM    105  F   UNL A   1      43.139  23.062  29.246  1.00  0.00    -0.206 F 
ATOM    106  C   UNL A   1      42.649  20.831  26.449  1.00  0.00     0.060 A 
BRANCH 106 107
ATOM    107  S   UNL A   1      42.247  19.102  26.121  1.00  0.00     0.124 S 
ATOM    108  O   UNL A   1      40.793  19.153  26.016  1.00  0.00    -0.237 OA
ATOM    109  O   UNL A   1      42.965  18.846  24.876  1.00  0.00    -0.237 OA
ATOM    110  O   UNL A   1      42.768  18.403  27.292  1.00  0.00    -0.744 OA
ENDBRANCH 106 107
ENDBRANCH  74  99
ENDBRANCH  48  49
ENDBRANCH  40  43
ENDBRANCH  38  39
ENDBRANCH  37  38
ENDBRANCH   1  37
TORSDOF 21
ENDMDL
