MODEL 1
REMARK VINA RESULT:      -9.2      0.000      0.000
REMARK SMILES O=C(CSC(=S)N1CCCCC1)NCCCCNC(=O)c1ccc(-c2c3nc(c(-c4c(F)cc(S(=O)(=O)[O-])cc4F)c4ccc([nH]4)c(-c4c(F)cc(S(=O)(=O)[O-])cc4F)c4nc(c(-c5c(F)cc(S(=O)(=O)[O-])cc5F)c5ccc2[nH]5)C=C4)C=C3)cc1
REMARK SMILES IDX 15 1 14 2 13 3 1 4 2 5 3 7 4 8 5 9 6 10 7 11 8 12 12 13 9 14
REMARK SMILES IDX 11 15 10 16 16 17 17 18 18 19 19 20 20 22 21 23 22 24 86 25
REMARK SMILES IDX 23 26 85 27 24 28 25 29 26 30 79 31 27 32 84 33 78 34 80 35
REMARK SMILES IDX 28 36 83 37 77 38 76 39 29 41 63 42 42 43 62 44 43 45 46 46
REMARK SMILES IDX 61 47 81 48 44 49 45 50 60 52 82 53 47 54 30 55 31 56 40 57
REMARK SMILES IDX 32 58 33 59 39 60 41 61 34 62 35 63 36 64 37 65 38 66 64 67
REMARK SMILES IDX 65 68 74 69 66 70 67 71 73 72 75 73 68 74 69 75 70 76 71 77
REMARK SMILES IDX 72 78 48 79 49 80 58 81 50 82 51 83 57 84 59 85 52 86 53 87
REMARK SMILES IDX 54 88 55 89 56 90
REMARK H PARENT 13 6 18 21 80 40 46 51
REMARK Flexibility Score: inf
ROOT
ATOM      1  C   UNL A   1      34.459  34.713  28.649  1.00  0.00     0.023 C 
ENDROOT
BRANCH   1   2
ATOM      2  C   UNL A   1      33.599  35.078  29.857  1.00  0.00     0.116 C 
BRANCH   2   3
ATOM      3  N   UNL A   1      34.378  35.497  31.005  1.00  0.00    -0.355 N 
ATOM      4  O   UNL A   1      33.307  34.143  32.512  1.00  0.00    -0.274 OA
ATOM      5  C   UNL A   1      34.219  34.927  32.251  1.00  0.00     0.230 C 
ATOM      6  H   UNL A   1      35.044  36.213  30.891  1.00  0.00     0.163 HD
BRANCH   5   7
ATOM      7  C   UNL A   1      35.183  35.398  33.330  1.00  0.00     0.177 C 
BRANCH   7   8
ATOM      8  S   UNL A   1      35.697  34.112  34.499  1.00  0.00    -0.087 SA
BRANCH   8   9
ATOM      9  C   UNL A   1      37.441  33.937  34.284  1.00  0.00     0.136 C 
ATOM     10  S   UNL A   1      38.613  34.135  35.465  1.00  0.00    -0.053 S 
BRANCH   9  11
ATOM     11  N   UNL A   1      37.763  33.513  32.997  1.00  0.00    -0.358 N 
ATOM     12  C   UNL A   1      38.619  34.311  32.117  1.00  0.00     0.118 C 
ATOM     13  C   UNL A   1      37.357  32.208  32.468  1.00  0.00     0.118 C 
ATOM     14  C   UNL A   1      37.997  34.496  30.739  1.00  0.00     0.021 C 
ATOM     15  C   UNL A   1      36.702  32.368  31.094  1.00  0.00     0.021 C 
ATOM     16  C   UNL A   1      37.596  33.151  30.134  1.00  0.00     0.004 C 
ENDBRANCH   9  11
ENDBRANCH   8   9
ENDBRANCH   7   8
ENDBRANCH   5   7
ENDBRANCH   2   3
ENDBRANCH   1   2
BRANCH   1  17
ATOM     17  C   UNL A   1      34.078  33.404  27.952  1.00  0.00     0.023 C 
BRANCH  17  18
ATOM     18  C   UNL A   1      34.252  32.135  28.781  1.00  0.00     0.116 C 
BRANCH  18  19
ATOM     19  N   UNL A   1      33.810  30.933  28.091  1.00  0.00    -0.352 N 
ATOM     20  C   UNL A   1      34.533  29.825  27.713  1.00  0.00     0.251 C 
ATOM     21  H   UNL A   1      32.854  30.909  27.860  1.00  0.00     0.163 HD
ATOM     22  O   UNL A   1      34.001  28.959  27.021  1.00  0.00    -0.269 OA
BRANCH  20  23
ATOM     23  C   UNL A   1      35.955  29.685  28.105  1.00  0.00     0.039 A 
ATOM     24  C   UNL A   1      36.259  29.224  29.389  1.00  0.00     0.014 A 
ATOM     25  C   UNL A   1      36.988  30.003  27.219  1.00  0.00     0.014 A 
ATOM     26  C   UNL A   1      37.591  29.011  29.757  1.00  0.00     0.010 A 
ATOM     27  C   UNL A   1      38.310  29.718  27.559  1.00  0.00     0.010 A 
ATOM     28  C   UNL A   1      38.627  29.214  28.830  1.00  0.00    -0.014 A 
BRANCH  28  29
ATOM     29  C   UNL A   1      40.040  28.891  29.168  1.00  0.00     0.031 A 
ATOM     30  C   UNL A   1      40.920  29.916  29.832  1.00  0.00     0.074 A 
ATOM     31  C   UNL A   1      40.553  27.694  28.817  1.00  0.00     0.049 A 
ATOM     32  N   UNL A   1      42.191  29.843  30.135  1.00  0.00    -0.248 NA
ATOM     33  C   UNL A   1      40.295  31.202  30.179  1.00  0.00     0.031 C 
ATOM     34  C   UNL A   1      39.820  26.629  28.127  1.00  0.00     0.029 A 
ATOM     35  N   UNL A   1      41.813  27.173  28.979  1.00  0.00    -0.354 N 
ATOM     36  C   UNL A   1      42.520  31.072  30.697  1.00  0.00     0.074 A 
ATOM     37  C   UNL A   1      41.329  31.892  30.642  1.00  0.00     0.031 C 
ATOM     38  C   UNL A   1      40.637  25.579  27.944  1.00  0.00     0.029 A 
ATOM     39  C   UNL A   1      41.961  25.906  28.462  1.00  0.00     0.049 A 
ATOM     40  H   UNL A   1      42.544  27.661  29.424  1.00  0.00     0.167 HD
ATOM     41  C   UNL A   1      43.699  31.472  31.233  1.00  0.00     0.037 A 
ATOM     42  C   UNL A   1      43.040  25.102  28.398  1.00  0.00     0.037 A 
ATOM     43  C   UNL A   1      44.877  30.646  31.301  1.00  0.00     0.049 A 
ATOM     44  C   UNL A   1      44.344  25.574  28.986  1.00  0.00     0.074 A 
ATOM     45  C   UNL A   1      46.104  30.944  31.869  1.00  0.00     0.029 A 
ATOM     46  N   UNL A   1      44.980  29.363  30.782  1.00  0.00    -0.354 N 
ATOM     47  N   UNL A   1      44.619  26.717  29.570  1.00  0.00    -0.248 NA
ATOM     48  C   UNL A   1      45.482  24.648  28.915  1.00  0.00     0.031 C 
ATOM     49  C   UNL A   1      46.963  29.863  31.648  1.00  0.00     0.029 A 
ATOM     50  C   UNL A   1      46.256  28.867  30.995  1.00  0.00     0.049 A 
ATOM     51  H   UNL A   1      44.254  28.878  30.328  1.00  0.00     0.167 HD
ATOM     52  C   UNL A   1      45.951  26.633  29.961  1.00  0.00     0.074 A 
ATOM     53  C   UNL A   1      46.422  25.325  29.558  1.00  0.00     0.031 C 
ATOM     54  C   UNL A   1      46.714  27.558  30.597  1.00  0.00     0.037 A 
BRANCH  41  55
ATOM     55  C   UNL A   1      43.774  32.868  31.793  1.00  0.00     0.058 A 
ATOM     56  C   UNL A   1      44.157  33.962  31.000  1.00  0.00     0.135 A 
ATOM     57  C   UNL A   1      43.422  33.123  33.129  1.00  0.00     0.135 A 
ATOM     58  F   UNL A   1      44.518  33.776  29.720  1.00  0.00    -0.206 F 
ATOM     59  C   UNL A   1      44.219  35.251  31.517  1.00  0.00     0.059 A 
ATOM     60  C   UNL A   1      43.446  34.410  33.659  1.00  0.00     0.059 A 
ATOM     61  F   UNL A   1      43.047  32.116  33.934  1.00  0.00    -0.206 F 
ATOM     62  C   UNL A   1      43.862  35.466  32.850  1.00  0.00     0.060 A 
BRANCH  62  63
ATOM     63  S   UNL A   1      43.946  37.147  33.503  1.00  0.00     0.124 S 
ATOM     64  O   UNL A   1      45.252  37.138  34.155  1.00  0.00    -0.237 OA
ATOM     65  O   UNL A   1      43.846  37.957  32.295  1.00  0.00    -0.237 OA
ATOM     66  O   UNL A   1      42.798  37.220  34.402  1.00  0.00    -0.744 OA
ENDBRANCH  62  63
ENDBRANCH  41  55
BRANCH  42  67
ATOM     67  C   UNL A   1      42.933  23.761  27.763  1.00  0.00     0.058 A 
ATOM     68  C   UNL A   1      42.531  22.639  28.503  1.00  0.00     0.135 A 
ATOM     69  C   UNL A   1      43.221  23.574  26.401  1.00  0.00     0.135 A 
ATOM     70  F   UNL A   1      42.252  22.763  29.810  1.00  0.00    -0.206 F 
ATOM     71  C   UNL A   1      42.435  21.378  27.923  1.00  0.00     0.059 A 
ATOM     72  C   UNL A   1      43.104  22.329  25.792  1.00  0.00     0.059 A 
ATOM     73  F   UNL A   1      43.595  24.617  25.644  1.00  0.00    -0.206 F 
ATOM     74  C   UNL A   1      42.721  21.233  26.565  1.00  0.00     0.060 A 
BRANCH  74  75
ATOM     75  S   UNL A   1      42.548  19.602  25.812  1.00  0.00     0.124 S 
ATOM     76  O   UNL A   1      42.958  18.729  26.905  1.00  0.00    -0.237 OA
ATOM     77  O   UNL A   1      41.130  19.573  25.468  1.00  0.00    -0.237 OA
ATOM     78  O   UNL A   1      43.460  19.659  24.674  1.00  0.00    -0.744 OA
ENDBRANCH  74  75
ENDBRANCH  42  67
BRANCH  54  79
ATOM     79  C   UNL A   1      48.130  27.178  30.934  1.00  0.00     0.058 A 
ATOM     80  C   UNL A   1      48.478  26.649  32.187  1.00  0.00     0.135 A 
ATOM     81  C   UNL A   1      49.144  27.294  29.969  1.00  0.00     0.135 A 
ATOM     82  F   UNL A   1      47.550  26.521  33.148  1.00  0.00    -0.206 F 
ATOM     83  C   UNL A   1      49.786  26.273  32.479  1.00  0.00     0.059 A 
ATOM     84  C   UNL A   1      50.451  26.896  30.228  1.00  0.00     0.059 A 
ATOM     85  F   UNL A   1      48.865  27.783  28.750  1.00  0.00    -0.206 F 
ATOM     86  C   UNL A   1      50.765  26.397  31.491  1.00  0.00     0.060 A 
BRANCH  86  87
ATOM     87  S   UNL A   1      52.450  25.872  31.873  1.00  0.00     0.124 S 
ATOM     88  O   UNL A   1      52.714  26.603  33.108  1.00  0.00    -0.237 OA
ATOM     89  O   UNL A   1      52.301  24.426  32.012  1.00  0.00    -0.237 OA
ATOM     90  O   UNL A   1      53.215  26.307  30.708  1.00  0.00    -0.744 OA
ENDBRANCH  86  87
ENDBRANCH  54  79
ENDBRANCH  28  29
ENDBRANCH  20  23
ENDBRANCH  18  19
ENDBRANCH  17  18
ENDBRANCH   1  17
TORSDOF 17
ENDMDL
MODEL 2
REMARK VINA RESULT:      -9.1      5.180     11.729
REMARK SMILES O=C(CSC(=S)N1CCCCC1)NCCCCNC(=O)c1ccc(-c2c3nc(c(-c4c(F)cc(S(=O)(=O)[O-])cc4F)c4ccc([nH]4)c(-c4c(F)cc(S(=O)(=O)[O-])cc4F)c4nc(c(-c5c(F)cc(S(=O)(=O)[O-])cc5F)c5ccc2[nH]5)C=C4)C=C3)cc1
REMARK SMILES IDX 15 1 14 2 13 3 1 4 2 5 3 7 4 8 5 9 6 10 7 11 8 12 12 13 9 14
REMARK SMILES IDX 11 15 10 16 16 17 17 18 18 19 19 20 20 22 21 23 22 24 86 25
REMARK SMILES IDX 23 26 85 27 24 28 25 29 26 30 79 31 27 32 84 33 78 34 80 35
REMARK SMILES IDX 28 36 83 37 77 38 76 39 29 41 63 42 42 43 62 44 43 45 46 46
REMARK SMILES IDX 61 47 81 48 44 49 45 50 60 52 82 53 47 54 30 55 31 56 40 57
REMARK SMILES IDX 32 58 33 59 39 60 41 61 34 62 35 63 36 64 37 65 38 66 64 67
REMARK SMILES IDX 65 68 74 69 66 70 67 71 73 72 75 73 68 74 69 75 70 76 71 77
REMARK SMILES IDX 72 78 48 79 49 80 58 81 50 82 51 83 57 84 59 85 52 86 53 87
REMARK SMILES IDX 54 88 55 89 56 90
REMARK H PARENT 13 6 18 21 80 40 46 51
REMARK Flexibility Score: inf
ROOT
ATOM      1  C   UNL A   1      35.775  24.035  25.261  1.00  0.00     0.023 C 
ENDROOT
BRANCH   1   2
ATOM      2  C   UNL A   1      35.115  24.038  23.884  1.00  0.00     0.116 C 
BRANCH   2   3
ATOM      3  N   UNL A   1      33.776  24.590  23.897  1.00  0.00    -0.355 N 
ATOM      4  O   UNL A   1      34.031  25.850  21.999  1.00  0.00    -0.274 OA
ATOM      5  C   UNL A   1      33.306  25.408  22.890  1.00  0.00     0.230 C 
ATOM      6  H   UNL A   1      33.180  24.375  24.650  1.00  0.00     0.163 HD
BRANCH   5   7
ATOM      7  C   UNL A   1      31.845  25.823  22.991  1.00  0.00     0.177 C 
BRANCH   7   8
ATOM      8  S   UNL A   1      31.343  26.432  24.621  1.00  0.00    -0.087 SA
BRANCH   8   9
ATOM      9  C   UNL A   1      31.071  28.165  24.424  1.00  0.00     0.136 C 
ATOM     10  S   UNL A   1      31.857  29.396  25.246  1.00  0.00    -0.053 S 
BRANCH   9  11
ATOM     11  N   UNL A   1      30.157  28.432  23.407  1.00  0.00    -0.358 N 
ATOM     12  C   UNL A   1      30.491  29.311  22.285  1.00  0.00     0.118 C 
ATOM     13  C   UNL A   1      28.845  27.782  23.330  1.00  0.00     0.118 C 
ATOM     14  C   UNL A   1      29.417  30.367  22.057  1.00  0.00     0.021 C 
ATOM     15  C   UNL A   1      27.744  28.825  23.130  1.00  0.00     0.021 C 
ATOM     16  C   UNL A   1      28.036  29.727  21.931  1.00  0.00     0.004 C 
ENDBRANCH   9  11
ENDBRANCH   8   9
ENDBRANCH   7   8
ENDBRANCH   5   7
ENDBRANCH   2   3
ENDBRANCH   1   2
BRANCH   1  17
ATOM     17  C   UNL A   1      37.214  23.514  25.290  1.00  0.00     0.023 C 
BRANCH  17  18
ATOM     18  C   UNL A   1      38.108  24.092  26.384  1.00  0.00     0.116 C 
BRANCH  18  19
ATOM     19  N   UNL A   1      39.520  23.810  26.181  1.00  0.00    -0.352 N 
ATOM     20  C   UNL A   1      40.624  24.477  26.661  1.00  0.00     0.251 C 
ATOM     21  H   UNL A   1      39.715  23.027  25.617  1.00  0.00     0.163 HD
ATOM     22  O   UNL A   1      41.745  24.156  26.273  1.00  0.00    -0.269 OA
BRANCH  20  23
ATOM     23  C   UNL A   1      40.467  25.599  27.616  1.00  0.00     0.039 A 
ATOM     24  C   UNL A   1      39.440  25.541  28.563  1.00  0.00     0.014 A 
ATOM     25  C   UNL A   1      41.323  26.703  27.587  1.00  0.00     0.014 A 
ATOM     26  C   UNL A   1      39.319  26.549  29.524  1.00  0.00     0.010 A 
ATOM     27  C   UNL A   1      41.250  27.668  28.591  1.00  0.00     0.010 A 
ATOM     28  C   UNL A   1      40.250  27.600  29.574  1.00  0.00    -0.014 A 
BRANCH  28  29
ATOM     29  C   UNL A   1      40.202  28.624  30.654  1.00  0.00     0.031 A 
ATOM     30  C   UNL A   1      41.082  28.495  31.868  1.00  0.00     0.074 A 
ATOM     31  C   UNL A   1      39.318  29.640  30.571  1.00  0.00     0.049 A 
ATOM     32  N   UNL A   1      41.127  29.245  32.940  1.00  0.00    -0.248 NA
ATOM     33  C   UNL A   1      42.016  27.359  31.894  1.00  0.00     0.031 C 
ATOM     34  C   UNL A   1      38.376  29.853  29.469  1.00  0.00     0.029 A 
ATOM     35  N   UNL A   1      39.055  30.675  31.433  1.00  0.00    -0.354 N 
ATOM     36  C   UNL A   1      42.084  28.669  33.769  1.00  0.00     0.074 A 
ATOM     37  C   UNL A   1      42.554  27.474  33.100  1.00  0.00     0.031 C 
ATOM     38  C   UNL A   1      37.656  30.959  29.713  1.00  0.00     0.029 A 
ATOM     39  C   UNL A   1      38.049  31.512  31.005  1.00  0.00     0.049 A 
ATOM     40  H   UNL A   1      39.541  30.808  32.279  1.00  0.00     0.167 HD
ATOM     41  C   UNL A   1      42.546  29.107  34.965  1.00  0.00     0.037 A 
ATOM     42  C   UNL A   1      37.496  32.592  31.589  1.00  0.00     0.037 A 
ATOM     43  C   UNL A   1      42.087  30.306  35.618  1.00  0.00     0.049 A 
ATOM     44  C   UNL A   1      38.015  33.052  32.926  1.00  0.00     0.074 A 
ATOM     45  C   UNL A   1      42.528  30.859  36.808  1.00  0.00     0.029 A 
ATOM     46  N   UNL A   1      41.079  31.134  35.144  1.00  0.00    -0.354 N 
ATOM     47  N   UNL A   1      38.964  32.528  33.666  1.00  0.00    -0.248 NA
ATOM     48  C   UNL A   1      37.396  34.252  33.505  1.00  0.00     0.031 C 
ATOM     49  C   UNL A   1      41.755  31.993  37.078  1.00  0.00     0.029 A 
ATOM     50  C   UNL A   1      40.870  32.180  36.028  1.00  0.00     0.049 A 
ATOM     51  H   UNL A   1      40.586  30.998  34.303  1.00  0.00     0.167 HD
ATOM     52  C   UNL A   1      39.074  33.352  34.782  1.00  0.00     0.074 A 
ATOM     53  C   UNL A   1      38.105  34.414  34.613  1.00  0.00     0.031 C 
ATOM     54  C   UNL A   1      39.906  33.238  35.848  1.00  0.00     0.037 A 
BRANCH  41  55
ATOM     55  C   UNL A   1      43.608  28.286  35.647  1.00  0.00     0.058 A 
ATOM     56  C   UNL A   1      44.975  28.497  35.402  1.00  0.00     0.135 A 
ATOM     57  C   UNL A   1      43.258  27.302  36.587  1.00  0.00     0.135 A 
ATOM     58  F   UNL A   1      45.368  29.414  34.504  1.00  0.00    -0.206 F 
ATOM     59  C   UNL A   1      45.955  27.742  36.039  1.00  0.00     0.059 A 
ATOM     60  C   UNL A   1      44.223  26.557  37.260  1.00  0.00     0.059 A 
ATOM     61  F   UNL A   1      41.968  27.058  36.861  1.00  0.00    -0.206 F 
ATOM     62  C   UNL A   1      45.568  26.773  36.967  1.00  0.00     0.060 A 
BRANCH  62  63
ATOM     63  S   UNL A   1      46.854  25.805  37.785  1.00  0.00     0.124 S 
ATOM     64  O   UNL A   1      48.048  26.578  37.463  1.00  0.00    -0.237 OA
ATOM     65  O   UNL A   1      46.432  25.842  39.181  1.00  0.00    -0.237 OA
ATOM     66  O   UNL A   1      46.759  24.499  37.138  1.00  0.00    -0.744 OA
ENDBRANCH  62  63
ENDBRANCH  41  55
BRANCH  42  67
ATOM     67  C   UNL A   1      36.393  33.324  30.908  1.00  0.00     0.058 A 
ATOM     68  C   UNL A   1      35.068  33.221  31.359  1.00  0.00     0.135 A 
ATOM     69  C   UNL A   1      36.642  34.148  29.798  1.00  0.00     0.135 A 
ATOM     70  F   UNL A   1      34.777  32.440  32.410  1.00  0.00    -0.206 F 
ATOM     71  C   UNL A   1      34.028  33.892  30.725  1.00  0.00     0.059 A 
ATOM     72  C   UNL A   1      35.623  34.852  29.166  1.00  0.00     0.059 A 
ATOM     73  F   UNL A   1      37.894  34.293  29.336  1.00  0.00    -0.206 F 
ATOM     74  C   UNL A   1      34.316  34.709  29.630  1.00  0.00     0.060 A 
BRANCH  74  75
ATOM     75  S   UNL A   1      32.964  35.612  28.844  1.00  0.00     0.124 S 
ATOM     76  O   UNL A   1      32.188  36.043  30.000  1.00  0.00    -0.237 OA
ATOM     77  O   UNL A   1      33.677  36.663  28.125  1.00  0.00    -0.237 OA
ATOM     78  O   UNL A   1      32.332  34.603  28.000  1.00  0.00    -0.744 OA
ENDBRANCH  74  75
ENDBRANCH  42  67
BRANCH  54  79
ATOM     79  C   UNL A   1      39.834  34.308  36.903  1.00  0.00     0.058 A 
ATOM     80  C   UNL A   1      40.579  35.494  36.809  1.00  0.00     0.135 A 
ATOM     81  C   UNL A   1      38.964  34.168  37.997  1.00  0.00     0.135 A 
ATOM     82  F   UNL A   1      41.431  35.678  35.789  1.00  0.00    -0.206 F 
ATOM     83  C   UNL A   1      40.483  36.491  37.776  1.00  0.00     0.059 A 
ATOM     84  C   UNL A   1      38.828  35.164  38.958  1.00  0.00     0.059 A 
ATOM     85  F   UNL A   1      38.218  33.058  38.130  1.00  0.00    -0.206 F 
ATOM     86  C   UNL A   1      39.602  36.318  38.845  1.00  0.00     0.060 A 
BRANCH  86  87
ATOM     87  S   UNL A   1      39.462  37.635  40.072  1.00  0.00     0.124 S 
ATOM     88  O   UNL A   1      38.257  38.326  39.626  1.00  0.00    -0.237 OA
ATOM     89  O   UNL A   1      39.339  36.887  41.319  1.00  0.00    -0.237 OA
ATOM     90  O   UNL A   1      40.708  38.381  39.916  1.00  0.00    -0.744 OA
ENDBRANCH  86  87
ENDBRANCH  54  79
ENDBRANCH  28  29
ENDBRANCH  20  23
ENDBRANCH  18  19
ENDBRANCH  17  18
ENDBRANCH   1  17
TORSDOF 17
ENDMDL
MODEL 3
REMARK VINA RESULT:      -8.9      1.014      8.583
REMARK SMILES O=C(CSC(=S)N1CCCCC1)NCCCCNC(=O)c1ccc(-c2c3nc(c(-c4c(F)cc(S(=O)(=O)[O-])cc4F)c4ccc([nH]4)c(-c4c(F)cc(S(=O)(=O)[O-])cc4F)c4nc(c(-c5c(F)cc(S(=O)(=O)[O-])cc5F)c5ccc2[nH]5)C=C4)C=C3)cc1
REMARK SMILES IDX 15 1 14 2 13 3 1 4 2 5 3 7 4 8 5 9 6 10 7 11 8 12 12 13 9 14
REMARK SMILES IDX 11 15 10 16 16 17 17 18 18 19 19 20 20 22 21 23 22 24 86 25
REMARK SMILES IDX 23 26 85 27 24 28 25 29 26 30 79 31 27 32 84 33 78 34 80 35
REMARK SMILES IDX 28 36 83 37 77 38 76 39 29 41 63 42 42 43 62 44 43 45 46 46
REMARK SMILES IDX 61 47 81 48 44 49 45 50 60 52 82 53 47 54 30 55 31 56 40 57
REMARK SMILES IDX 32 58 33 59 39 60 41 61 34 62 35 63 36 64 37 65 38 66 64 67
REMARK SMILES IDX 65 68 74 69 66 70 67 71 73 72 75 73 68 74 69 75 70 76 71 77
REMARK SMILES IDX 72 78 48 79 49 80 58 81 50 82 51 83 57 84 59 85 52 86 53 87
REMARK SMILES IDX 54 88 55 89 56 90
REMARK H PARENT 13 6 18 21 80 40 46 51
REMARK Flexibility Score: inf
ROOT
ATOM      1  C   UNL A   1      34.284  34.648  28.437  1.00  0.00     0.023 C 
ENDROOT
BRANCH   1   2
ATOM      2  C   UNL A   1      33.563  34.674  29.783  1.00  0.00     0.116 C 
BRANCH   2   3
ATOM      3  N   UNL A   1      34.405  35.132  30.870  1.00  0.00    -0.355 N 
ATOM      4  O   UNL A   1      34.017  33.330  32.232  1.00  0.00    -0.274 OA
ATOM      5  C   UNL A   1      34.631  34.371  31.998  1.00  0.00     0.230 C 
ATOM      6  H   UNL A   1      34.829  36.017  30.802  1.00  0.00     0.163 HD
BRANCH   5   7
ATOM      7  C   UNL A   1      35.621  34.941  33.003  1.00  0.00     0.177 C 
BRANCH   7   8
ATOM      8  S   UNL A   1      37.357  34.556  32.657  1.00  0.00    -0.087 SA
BRANCH   8   9
ATOM      9  C   UNL A   1      37.873  33.464  33.945  1.00  0.00     0.136 C 
ATOM     10  S   UNL A   1      37.335  33.472  35.532  1.00  0.00    -0.053 S 
BRANCH   9  11
ATOM     11  N   UNL A   1      38.750  32.489  33.474  1.00  0.00    -0.358 N 
ATOM     12  C   UNL A   1      38.281  31.355  32.675  1.00  0.00     0.118 C 
ATOM     13  C   UNL A   1      40.202  32.576  33.655  1.00  0.00     0.118 C 
ATOM     14  C   UNL A   1      38.802  30.030  33.216  1.00  0.00     0.021 C 
ATOM     15  C   UNL A   1      40.748  31.265  34.225  1.00  0.00     0.021 C 
ATOM     16  C   UNL A   1      40.321  30.065  33.381  1.00  0.00     0.004 C 
ENDBRANCH   9  11
ENDBRANCH   8   9
ENDBRANCH   7   8
ENDBRANCH   5   7
ENDBRANCH   2   3
ENDBRANCH   1   2
BRANCH   1  17
ATOM     17  C   UNL A   1      34.677  33.256  27.937  1.00  0.00     0.023 C 
BRANCH  17  18
ATOM     18  C   UNL A   1      34.556  32.125  28.954  1.00  0.00     0.116 C 
BRANCH  18  19
ATOM     19  N   UNL A   1      34.075  30.880  28.375  1.00  0.00    -0.352 N 
ATOM     20  C   UNL A   1      34.782  29.766  27.986  1.00  0.00     0.251 C 
ATOM     21  H   UNL A   1      33.101  30.828  28.241  1.00  0.00     0.163 HD
ATOM     22  O   UNL A   1      34.204  28.854  27.397  1.00  0.00    -0.269 OA
BRANCH  20  23
ATOM     23  C   UNL A   1      36.238  29.671  28.243  1.00  0.00     0.039 A 
ATOM     24  C   UNL A   1      36.675  29.282  29.513  1.00  0.00     0.014 A 
ATOM     25  C   UNL A   1      37.172  29.961  27.245  1.00  0.00     0.014 A 
ATOM     26  C   UNL A   1      38.041  29.111  29.758  1.00  0.00     0.010 A 
ATOM     27  C   UNL A   1      38.527  29.717  27.468  1.00  0.00     0.010 A 
ATOM     28  C   UNL A   1      38.977  29.285  28.725  1.00  0.00    -0.014 A 
BRANCH  28  29
ATOM     29  C   UNL A   1      40.424  29.004  28.937  1.00  0.00     0.031 A 
ATOM     30  C   UNL A   1      41.000  27.658  28.587  1.00  0.00     0.074 A 
ATOM     31  C   UNL A   1      41.208  29.942  29.507  1.00  0.00     0.049 A 
ATOM     32  N   UNL A   1      42.215  27.206  28.769  1.00  0.00    -0.248 NA
ATOM     33  C   UNL A   1      40.084  26.682  27.976  1.00  0.00     0.031 C 
ATOM     34  C   UNL A   1      40.763  31.271  29.937  1.00  0.00     0.029 A 
ATOM     35  N   UNL A   1      42.541  29.919  29.837  1.00  0.00    -0.354 N 
ATOM     36  C   UNL A   1      42.207  25.896  28.304  1.00  0.00     0.074 A 
ATOM     37  C   UNL A   1      40.852  25.606  27.885  1.00  0.00     0.031 C 
ATOM     38  C   UNL A   1      41.806  31.939  30.453  1.00  0.00     0.029 A 
ATOM     39  C   UNL A   1      42.984  31.078  30.434  1.00  0.00     0.049 A 
ATOM     40  H   UNL A   1      43.126  29.146  29.664  1.00  0.00     0.167 HD
ATOM     41  C   UNL A   1      43.239  25.021  28.212  1.00  0.00     0.037 A 
ATOM     42  C   UNL A   1      44.196  31.408  30.923  1.00  0.00     0.037 A 
ATOM     43  C   UNL A   1      44.589  25.321  28.615  1.00  0.00     0.049 A 
ATOM     44  C   UNL A   1      45.324  30.415  30.823  1.00  0.00     0.074 A 
ATOM     45  C   UNL A   1      45.713  24.518  28.515  1.00  0.00     0.029 A 
ATOM     46  N   UNL A   1      45.000  26.511  29.198  1.00  0.00    -0.354 N 
ATOM     47  N   UNL A   1      45.311  29.201  30.324  1.00  0.00    -0.248 NA
ATOM     48  C   UNL A   1      46.631  30.835  31.346  1.00  0.00     0.031 C 
ATOM     49  C   UNL A   1      46.792  25.203  29.084  1.00  0.00     0.029 A 
ATOM     50  C   UNL A   1      46.355  26.455  29.485  1.00  0.00     0.049 A 
ATOM     51  H   UNL A   1      44.415  27.281  29.381  1.00  0.00     0.167 HD
ATOM     52  C   UNL A   1      46.613  28.727  30.446  1.00  0.00     0.074 A 
ATOM     53  C   UNL A   1      47.388  29.787  31.054  1.00  0.00     0.031 C 
ATOM     54  C   UNL A   1      47.120  27.521  30.085  1.00  0.00     0.037 A 
BRANCH  41  55
ATOM     55  C   UNL A   1      42.949  23.655  27.650  1.00  0.00     0.058 A 
ATOM     56  C   UNL A   1      43.079  23.378  26.280  1.00  0.00     0.135 A 
ATOM     57  C   UNL A   1      42.574  22.598  28.497  1.00  0.00     0.135 A 
ATOM     58  F   UNL A   1      43.421  24.352  25.421  1.00  0.00    -0.206 F 
ATOM     59  C   UNL A   1      42.818  22.112  25.764  1.00  0.00     0.059 A 
ATOM     60  C   UNL A   1      42.339  21.316  28.006  1.00  0.00     0.059 A 
ATOM     61  F   UNL A   1      42.435  22.805  29.815  1.00  0.00    -0.206 F 
ATOM     62  C   UNL A   1      42.447  21.087  26.636  1.00  0.00     0.060 A 
BRANCH  62  63
ATOM     63  S   UNL A   1      42.114  19.451  25.949  1.00  0.00     0.124 S 
ATOM     64  O   UNL A   1      40.669  19.508  25.753  1.00  0.00    -0.237 OA
ATOM     65  O   UNL A   1      42.920  19.454  24.733  1.00  0.00    -0.237 OA
ATOM     66  O   UNL A   1      42.569  18.543  26.998  1.00  0.00    -0.744 OA
ENDBRANCH  62  63
ENDBRANCH  41  55
BRANCH  42  67
ATOM     67  C   UNL A   1      44.410  32.745  31.540  1.00  0.00     0.058 A 
ATOM     68  C   UNL A   1      44.809  33.845  30.766  1.00  0.00     0.135 A 
ATOM     69  C   UNL A   1      44.212  32.952  32.915  1.00  0.00     0.135 A 
ATOM     70  F   UNL A   1      45.020  33.696  29.449  1.00  0.00    -0.206 F 
ATOM     71  C   UNL A   1      45.022  35.097  31.333  1.00  0.00     0.059 A 
ATOM     72  C   UNL A   1      44.390  34.202  33.499  1.00  0.00     0.059 A 
ATOM     73  F   UNL A   1      43.816  31.937  33.698  1.00  0.00    -0.206 F 
ATOM     74  C   UNL A   1      44.806  35.267  32.701  1.00  0.00     0.060 A 
BRANCH  74  75
ATOM     75  S   UNL A   1      45.040  36.908  33.418  1.00  0.00     0.124 S 
ATOM     76  O   UNL A   1      43.785  37.562  33.067  1.00  0.00    -0.237 OA
ATOM     77  O   UNL A   1      45.226  36.599  34.832  1.00  0.00    -0.237 OA
ATOM     78  O   UNL A   1      46.227  37.408  32.732  1.00  0.00    -0.744 OA
ENDBRANCH  74  75
ENDBRANCH  42  67
BRANCH  54  79
ATOM     79  C   UNL A   1      48.591  27.292  30.301  1.00  0.00     0.058 A 
ATOM     80  C   UNL A   1      49.090  26.756  31.499  1.00  0.00     0.135 A 
ATOM     81  C   UNL A   1      49.510  27.563  29.273  1.00  0.00     0.135 A 
ATOM     82  F   UNL A   1      48.259  26.484  32.516  1.00  0.00    -0.206 F 
ATOM     83  C   UNL A   1      50.450  26.521  31.678  1.00  0.00     0.059 A 
ATOM     84  C   UNL A   1      50.869  27.306  29.419  1.00  0.00     0.059 A 
ATOM     85  F   UNL A   1      49.085  28.066  28.102  1.00  0.00    -0.206 F 
ATOM     86  C   UNL A   1      51.332  26.795  30.630  1.00  0.00     0.060 A 
BRANCH  86  87
ATOM     87  S   UNL A   1      53.088  26.451  30.865  1.00  0.00     0.124 S 
ATOM     88  O   UNL A   1      53.526  27.637  31.593  1.00  0.00    -0.237 OA
ATOM     89  O   UNL A   1      53.062  25.210  31.633  1.00  0.00    -0.237 OA
ATOM     90  O   UNL A   1      53.597  26.327  29.502  1.00  0.00    -0.744 OA
ENDBRANCH  86  87
ENDBRANCH  54  79
ENDBRANCH  28  29
ENDBRANCH  20  23
ENDBRANCH  18  19
ENDBRANCH  17  18
ENDBRANCH   1  17
TORSDOF 17
ENDMDL
