MODEL 1
REMARK VINA RESULT:     -10.8      0.000      0.000
REMARK SMILES CC(C)(Cn1ccc(=O)nc1SCC(=O)NCCCCNC(=O)c1ccc(-c2c3nc(c(-c4c(F)cc(S(=O)(=O)[O-])cc4F)c4ccc([nH]4)c(-c4c(F)cc(S(=O)(=O)[O-])cc4F)c4nc(c(-c5c(F)cc(S(=O)(=O)[O-])cc5F)c5ccc2[nH]5)C=C4)C=C3)cc1)S(C)(=O)=O
REMARK SMILES IDX 17 1 16 2 14 3 15 4 13 6 12 7 11 8 5 9 6 10 7 11 10 12 8 13
REMARK SMILES IDX 9 14 4 15 2 16 1 17 3 18 90 19 91 20 92 21 93 22 18 23 19 24
REMARK SMILES IDX 20 25 21 26 22 27 23 29 24 30 25 31 89 32 26 33 88 34 27 35
REMARK SMILES IDX 28 36 29 37 82 38 30 39 87 40 81 41 83 42 31 43 86 44 80 45
REMARK SMILES IDX 79 46 32 48 66 49 45 50 65 51 46 52 49 53 64 54 84 55 47 56
REMARK SMILES IDX 48 57 63 59 85 60 50 61 33 62 34 63 43 64 35 65 36 66 42 67
REMARK SMILES IDX 44 68 37 69 38 70 39 71 40 72 41 73 67 74 68 75 77 76 69 77
REMARK SMILES IDX 70 78 76 79 78 80 71 81 72 82 73 83 74 84 75 85 51 86 52 87
REMARK SMILES IDX 61 88 53 89 54 90 60 91 62 92 55 93 56 94 57 95 58 96 59 97
REMARK H PARENT 16 5 21 28 83 47 49 58
REMARK Flexibility Score: inf
ROOT
ATOM      1  C   UNL A   1      39.122  21.049  25.686  1.00  0.00     0.116 C 
ENDROOT
BRANCH   1   2
ATOM      2  N   UNL A   1      38.423  22.275  26.011  1.00  0.00    -0.355 N 
ATOM      3  C   UNL A   1      37.221  22.728  25.577  1.00  0.00     0.230 C 
ATOM      4  O   UNL A   1      36.681  23.634  26.223  1.00  0.00    -0.274 OA
ATOM      5  H   UNL A   1      38.891  22.869  26.641  1.00  0.00     0.163 HD
BRANCH   3   6
ATOM      6  C   UNL A   1      36.485  22.148  24.391  1.00  0.00     0.178 C 
BRANCH   6   7
ATOM      7  S   UNL A   1      35.212  23.117  23.624  1.00  0.00    -0.078 SA
BRANCH   7   8
ATOM      8  C   UNL A   1      33.553  22.716  24.052  1.00  0.00     0.172 A 
ATOM      9  N   UNL A   1      32.477  23.588  24.313  1.00  0.00    -0.326 N 
ATOM     10  C   UNL A   1      31.533  23.087  25.195  1.00  0.00     0.094 A 
ATOM     11  C   UNL A   1      31.431  21.789  25.483  1.00  0.00     0.091 A 
ATOM     12  N   UNL A   1      33.498  21.436  24.281  1.00  0.00    -0.185 NA
ATOM     13  C   UNL A   1      32.367  20.873  24.802  1.00  0.00     0.273 A 
ATOM     14  O   UNL A   1      32.145  19.671  24.825  1.00  0.00    -0.267 OA
BRANCH   9  15
ATOM     15  C   UNL A   1      32.415  24.948  23.754  1.00  0.00     0.146 C 
BRANCH  15  16
ATOM     16  C   UNL A   1      32.630  26.230  24.598  1.00  0.00     0.084 C 
ATOM     17  C   UNL A   1      33.664  26.135  25.726  1.00  0.00     0.030 C 
ATOM     18  C   UNL A   1      33.192  27.297  23.607  1.00  0.00     0.030 C 
BRANCH  16  19
ATOM     19  S   UNL A   1      31.049  26.927  25.210  1.00  0.00     0.154 S 
ATOM     20  C   UNL A   1      29.738  26.328  24.172  1.00  0.00     0.158 C 
ATOM     21  O   UNL A   1      30.820  26.358  26.526  1.00  0.00    -0.229 OA
ATOM     22  O   UNL A   1      31.087  28.366  25.035  1.00  0.00    -0.229 OA
ENDBRANCH  16  19
ENDBRANCH  15  16
ENDBRANCH   9  15
ENDBRANCH   7   8
ENDBRANCH   6   7
ENDBRANCH   3   6
ENDBRANCH   1   2
BRANCH   1  23
ATOM     23  C   UNL A   1      40.511  20.963  26.317  1.00  0.00     0.023 C 
BRANCH  23  24
ATOM     24  C   UNL A   1      40.774  21.928  27.473  1.00  0.00     0.023 C 
BRANCH  24  25
ATOM     25  C   UNL A   1      41.860  22.971  27.241  1.00  0.00     0.116 C 
BRANCH  25  26
ATOM     26  N   UNL A   1      41.572  23.890  26.148  1.00  0.00    -0.352 N 
ATOM     27  C   UNL A   1      41.308  25.241  26.195  1.00  0.00     0.251 C 
ATOM     28  H   UNL A   1      41.566  23.489  25.249  1.00  0.00     0.163 HD
ATOM     29  O   UNL A   1      41.024  25.848  25.168  1.00  0.00    -0.269 OA
BRANCH  27  30
ATOM     30  C   UNL A   1      41.314  25.940  27.498  1.00  0.00     0.039 A 
ATOM     31  C   UNL A   1      40.201  25.895  28.339  1.00  0.00     0.014 A 
ATOM     32  C   UNL A   1      42.430  26.707  27.850  1.00  0.00     0.014 A 
ATOM     33  C   UNL A   1      40.128  26.758  29.427  1.00  0.00     0.010 A 
ATOM     34  C   UNL A   1      42.386  27.510  28.994  1.00  0.00     0.010 A 
ATOM     35  C   UNL A   1      41.212  27.589  29.758  1.00  0.00    -0.014 A 
BRANCH  35  36
ATOM     36  C   UNL A   1      41.077  28.552  30.884  1.00  0.00     0.031 A 
ATOM     37  C   UNL A   1      39.999  29.606  30.870  1.00  0.00     0.074 A 
ATOM     38  C   UNL A   1      41.885  28.431  31.954  1.00  0.00     0.049 A 
ATOM     39  N   UNL A   1      39.715  30.506  31.777  1.00  0.00    -0.248 NA
ATOM     40  C   UNL A   1      39.127  29.660  29.685  1.00  0.00     0.031 C 
ATOM     41  C   UNL A   1      42.956  27.442  32.092  1.00  0.00     0.029 A 
ATOM     42  N   UNL A   1      41.916  29.120  33.140  1.00  0.00    -0.354 N 
ATOM     43  C   UNL A   1      38.648  31.240  31.270  1.00  0.00     0.074 A 
ATOM     44  C   UNL A   1      38.354  30.702  29.959  1.00  0.00     0.031 C 
ATOM     45  C   UNL A   1      43.498  27.548  33.315  1.00  0.00     0.029 A 
ATOM     46  C   UNL A   1      42.858  28.652  34.024  1.00  0.00     0.049 A 
ATOM     47  H   UNL A   1      41.319  29.878  33.339  1.00  0.00     0.167 HD
ATOM     48  C   UNL A   1      37.965  32.258  31.849  1.00  0.00     0.037 A 
ATOM     49  C   UNL A   1      43.180  29.066  35.265  1.00  0.00     0.037 A 
ATOM     50  C   UNL A   1      38.245  32.774  33.165  1.00  0.00     0.049 A 
ATOM     51  C   UNL A   1      42.439  30.223  35.867  1.00  0.00     0.074 A 
ATOM     52  C   UNL A   1      37.596  33.790  33.845  1.00  0.00     0.029 A 
ATOM     53  N   UNL A   1      39.251  32.313  34.002  1.00  0.00    -0.354 N 
ATOM     54  N   UNL A   1      41.436  30.906  35.370  1.00  0.00    -0.248 NA
ATOM     55  C   UNL A   1      42.878  30.675  37.195  1.00  0.00     0.031 C 
ATOM     56  C   UNL A   1      38.235  33.971  35.076  1.00  0.00     0.029 A 
ATOM     57  C   UNL A   1      39.255  33.038  35.182  1.00  0.00     0.049 A 
ATOM     58  H   UNL A   1      39.870  31.578  33.788  1.00  0.00     0.167 HD
ATOM     59  C   UNL A   1      41.119  31.865  36.324  1.00  0.00     0.074 A 
ATOM     60  C   UNL A   1      42.024  31.661  37.437  1.00  0.00     0.031 C 
ATOM     61  C   UNL A   1      40.168  32.829  36.279  1.00  0.00     0.037 A 
BRANCH  48  62
ATOM     62  C   UNL A   1      36.849  32.891  31.062  1.00  0.00     0.058 A 
ATOM     63  C   UNL A   1      37.105  33.782  30.008  1.00  0.00     0.135 A 
ATOM     64  C   UNL A   1      35.510  32.565  31.334  1.00  0.00     0.135 A 
ATOM     65  F   UNL A   1      38.365  34.140  29.714  1.00  0.00    -0.206 F 
ATOM     66  C   UNL A   1      36.071  34.346  29.266  1.00  0.00     0.059 A 
ATOM     67  C   UNL A   1      34.461  33.099  30.587  1.00  0.00     0.059 A 
ATOM     68  F   UNL A   1      35.210  31.717  32.329  1.00  0.00    -0.206 F 
ATOM     69  C   UNL A   1      34.752  33.997  29.563  1.00  0.00     0.060 A 
BRANCH  69  70
ATOM     70  S   UNL A   1      33.426  34.736  28.586  1.00  0.00     0.124 S 
ATOM     71  O   UNL A   1      34.105  35.881  27.989  1.00  0.00    -0.237 OA
ATOM     72  O   UNL A   1      33.077  33.658  27.667  1.00  0.00    -0.237 OA
ATOM     73  O   UNL A   1      32.409  35.061  29.581  1.00  0.00    -0.744 OA
ENDBRANCH  69  70
ENDBRANCH  48  62
BRANCH  49  74
ATOM     74  C   UNL A   1      44.260  28.367  36.010  1.00  0.00     0.058 A 
ATOM     75  C   UNL A   1      45.592  28.790  35.912  1.00  0.00     0.135 A 
ATOM     76  C   UNL A   1      43.972  27.301  36.877  1.00  0.00     0.135 A 
ATOM     77  F   UNL A   1      45.918  29.799  35.090  1.00  0.00    -0.206 F 
ATOM     78  C   UNL A   1      46.604  28.184  36.650  1.00  0.00     0.059 A 
ATOM     79  C   UNL A   1      44.961  26.695  37.644  1.00  0.00     0.059 A 
ATOM     80  F   UNL A   1      42.709  26.869  37.015  1.00  0.00    -0.206 F 
ATOM     81  C   UNL A   1      46.275  27.143  37.522  1.00  0.00     0.060 A 
BRANCH  81  82
ATOM     82  S   UNL A   1      47.582  26.419  38.536  1.00  0.00     0.124 S 
ATOM     83  O   UNL A   1      46.812  25.751  39.577  1.00  0.00    -0.237 OA
ATOM     84  O   UNL A   1      48.258  25.544  37.582  1.00  0.00    -0.237 OA
ATOM     85  O   UNL A   1      48.356  27.579  38.967  1.00  0.00    -0.744 OA
ENDBRANCH  81  82
ENDBRANCH  49  74
BRANCH  61  86
ATOM     86  C   UNL A   1      40.049  33.741  37.467  1.00  0.00     0.058 A 
ATOM     87  C   UNL A   1      40.857  34.881  37.597  1.00  0.00     0.135 A 
ATOM     88  C   UNL A   1      39.073  33.512  38.450  1.00  0.00     0.135 A 
ATOM     89  F   UNL A   1      41.811  35.139  36.688  1.00  0.00    -0.206 F 
ATOM     90  C   UNL A   1      40.711  35.756  38.668  1.00  0.00     0.059 A 
ATOM     91  C   UNL A   1      38.893  34.387  39.517  1.00  0.00     0.059 A 
ATOM     92  F   UNL A   1      38.269  32.440  38.368  1.00  0.00    -0.206 F 
ATOM     93  C   UNL A   1      39.722  35.504  39.621  1.00  0.00     0.060 A 
BRANCH  93  94
ATOM     94  S   UNL A   1      39.512  36.676  40.978  1.00  0.00     0.124 S 
ATOM     95  O   UNL A   1      38.696  35.904  41.909  1.00  0.00    -0.237 OA
ATOM     96  O   UNL A   1      40.889  36.920  41.394  1.00  0.00    -0.237 OA
ATOM     97  O   UNL A   1      38.844  37.810  40.349  1.00  0.00    -0.744 OA
ENDBRANCH  93  94
ENDBRANCH  61  86
ENDBRANCH  35  36
ENDBRANCH  27  30
ENDBRANCH  25  26
ENDBRANCH  24  25
ENDBRANCH  23  24
ENDBRANCH   1  23
TORSDOF 19
ENDMDL
MODEL 2
REMARK VINA RESULT:     -10.8      0.811      8.240
REMARK SMILES CC(C)(Cn1ccc(=O)nc1SCC(=O)NCCCCNC(=O)c1ccc(-c2c3nc(c(-c4c(F)cc(S(=O)(=O)[O-])cc4F)c4ccc([nH]4)c(-c4c(F)cc(S(=O)(=O)[O-])cc4F)c4nc(c(-c5c(F)cc(S(=O)(=O)[O-])cc5F)c5ccc2[nH]5)C=C4)C=C3)cc1)S(C)(=O)=O
REMARK SMILES IDX 17 1 16 2 14 3 15 4 13 6 12 7 11 8 5 9 6 10 7 11 10 12 8 13
REMARK SMILES IDX 9 14 4 15 2 16 1 17 3 18 90 19 91 20 92 21 93 22 18 23 19 24
REMARK SMILES IDX 20 25 21 26 22 27 23 29 24 30 25 31 89 32 26 33 88 34 27 35
REMARK SMILES IDX 28 36 29 37 82 38 30 39 87 40 81 41 83 42 31 43 86 44 80 45
REMARK SMILES IDX 79 46 32 48 66 49 45 50 65 51 46 52 49 53 64 54 84 55 47 56
REMARK SMILES IDX 48 57 63 59 85 60 50 61 33 62 34 63 43 64 35 65 36 66 42 67
REMARK SMILES IDX 44 68 37 69 38 70 39 71 40 72 41 73 67 74 68 75 77 76 69 77
REMARK SMILES IDX 70 78 76 79 78 80 71 81 72 82 73 83 74 84 75 85 51 86 52 87
REMARK SMILES IDX 61 88 53 89 54 90 60 91 62 92 55 93 56 94 57 95 58 96 59 97
REMARK H PARENT 16 5 21 28 83 47 49 58
REMARK Flexibility Score: inf
ROOT
ATOM      1  C   UNL A   1      39.096  21.060  26.103  1.00  0.00     0.116 C 
ENDROOT
BRANCH   1   2
ATOM      2  N   UNL A   1      38.414  22.325  26.288  1.00  0.00    -0.355 N 
ATOM      3  C   UNL A   1      37.366  22.851  25.608  1.00  0.00     0.230 C 
ATOM      4  O   UNL A   1      36.750  23.786  26.135  1.00  0.00    -0.274 OA
ATOM      5  H   UNL A   1      38.765  22.886  27.016  1.00  0.00     0.163 HD
BRANCH   3   6
ATOM      6  C   UNL A   1      36.878  22.322  24.279  1.00  0.00     0.178 C 
BRANCH   6   7
ATOM      7  S   UNL A   1      35.513  23.135  23.490  1.00  0.00    -0.078 SA
BRANCH   7   8
ATOM      8  C   UNL A   1      33.984  23.127  24.359  1.00  0.00     0.172 A 
ATOM      9  N   UNL A   1      33.382  24.171  25.091  1.00  0.00    -0.326 N 
ATOM     10  C   UNL A   1      32.578  23.749  26.137  1.00  0.00     0.094 A 
ATOM     11  C   UNL A   1      32.104  22.505  26.229  1.00  0.00     0.091 A 
ATOM     12  N   UNL A   1      33.545  21.902  24.384  1.00  0.00    -0.185 NA
ATOM     13  C   UNL A   1      32.459  21.569  25.143  1.00  0.00     0.273 A 
ATOM     14  O   UNL A   1      31.844  20.517  25.042  1.00  0.00    -0.267 OA
BRANCH   9  15
ATOM     15  C   UNL A   1      33.660  25.589  24.810  1.00  0.00     0.146 C 
BRANCH  15  16
ATOM     16  C   UNL A   1      32.965  26.388  23.677  1.00  0.00     0.084 C 
ATOM     17  C   UNL A   1      33.307  25.969  22.242  1.00  0.00     0.030 C 
ATOM     18  C   UNL A   1      31.438  26.105  23.840  1.00  0.00     0.030 C 
BRANCH  16  19
ATOM     19  S   UNL A   1      33.148  28.198  23.897  1.00  0.00     0.154 S 
ATOM     20  C   UNL A   1      33.928  28.492  25.465  1.00  0.00     0.158 C 
ATOM     21  O   UNL A   1      34.082  28.652  22.883  1.00  0.00    -0.229 OA
ATOM     22  O   UNL A   1      31.823  28.782  23.982  1.00  0.00    -0.229 OA
ENDBRANCH  16  19
ENDBRANCH  15  16
ENDBRANCH   9  15
ENDBRANCH   7   8
ENDBRANCH   6   7
ENDBRANCH   3   6
ENDBRANCH   1   2
BRANCH   1  23
ATOM     23  C   UNL A   1      40.597  21.140  26.376  1.00  0.00     0.023 C 
BRANCH  23  24
ATOM     24  C   UNL A   1      41.026  22.172  27.418  1.00  0.00     0.023 C 
BRANCH  24  25
ATOM     25  C   UNL A   1      42.158  23.108  27.009  1.00  0.00     0.116 C 
BRANCH  25  26
ATOM     26  N   UNL A   1      41.804  24.028  25.938  1.00  0.00    -0.352 N 
ATOM     27  C   UNL A   1      41.424  25.350  26.017  1.00  0.00     0.251 C 
ATOM     28  H   UNL A   1      41.841  23.653  25.028  1.00  0.00     0.163 HD
ATOM     29  O   UNL A   1      41.101  25.959  25.002  1.00  0.00    -0.269 OA
BRANCH  27  30
ATOM     30  C   UNL A   1      41.358  26.011  27.338  1.00  0.00     0.039 A 
ATOM     31  C   UNL A   1      40.235  25.866  28.154  1.00  0.00     0.014 A 
ATOM     32  C   UNL A   1      42.411  26.842  27.733  1.00  0.00     0.014 A 
ATOM     33  C   UNL A   1      40.081  26.692  29.263  1.00  0.00     0.010 A 
ATOM     34  C   UNL A   1      42.290  27.608  28.897  1.00  0.00     0.010 A 
ATOM     35  C   UNL A   1      41.099  27.585  29.638  1.00  0.00    -0.014 A 
BRANCH  35  36
ATOM     36  C   UNL A   1      40.876  28.505  30.786  1.00  0.00     0.031 A 
ATOM     37  C   UNL A   1      41.782  28.465  31.990  1.00  0.00     0.074 A 
ATOM     38  C   UNL A   1      39.897  29.426  30.712  1.00  0.00     0.049 A 
ATOM     39  N   UNL A   1      41.756  29.212  33.066  1.00  0.00    -0.248 NA
ATOM     40  C   UNL A   1      42.856  27.458  31.991  1.00  0.00     0.031 C 
ATOM     41  C   UNL A   1      38.964  29.573  29.592  1.00  0.00     0.029 A 
ATOM     42  N   UNL A   1      39.539  30.431  31.575  1.00  0.00    -0.354 N 
ATOM     43  C   UNL A   1      42.793  28.757  33.875  1.00  0.00     0.074 A 
ATOM     44  C   UNL A   1      43.410  27.647  33.181  1.00  0.00     0.031 C 
ATOM     45  C   UNL A   1      38.183  30.642  29.809  1.00  0.00     0.029 A 
ATOM     46  C   UNL A   1      38.514  31.217  31.109  1.00  0.00     0.049 A 
ATOM     47  H   UNL A   1      39.976  30.574  32.446  1.00  0.00     0.167 HD
ATOM     48  C   UNL A   1      43.204  29.231  35.076  1.00  0.00     0.037 A 
ATOM     49  C   UNL A   1      37.900  32.280  31.665  1.00  0.00     0.037 A 
ATOM     50  C   UNL A   1      42.602  30.353  35.751  1.00  0.00     0.049 A 
ATOM     51  C   UNL A   1      38.344  32.758  33.017  1.00  0.00     0.074 A 
ATOM     52  C   UNL A   1      42.959  30.918  36.963  1.00  0.00     0.029 A 
ATOM     53  N   UNL A   1      41.522  31.082  35.273  1.00  0.00    -0.354 N 
ATOM     54  N   UNL A   1      39.322  32.312  33.767  1.00  0.00    -0.248 NA
ATOM     55  C   UNL A   1      37.594  33.877  33.605  1.00  0.00     0.031 C 
ATOM     56  C   UNL A   1      42.071  31.964  37.238  1.00  0.00     0.029 A 
ATOM     57  C   UNL A   1      41.188  32.078  36.176  1.00  0.00     0.049 A 
ATOM     58  H   UNL A   1      41.064  30.916  34.419  1.00  0.00     0.167 HD
ATOM     59  C   UNL A   1      39.312  33.098  34.913  1.00  0.00     0.074 A 
ATOM     60  C   UNL A   1      38.241  34.061  34.748  1.00  0.00     0.031 C 
ATOM     61  C   UNL A   1      40.113  33.025  36.003  1.00  0.00     0.037 A 
BRANCH  48  62
ATOM     62  C   UNL A   1      44.356  28.535  35.748  1.00  0.00     0.058 A 
ATOM     63  C   UNL A   1      45.686  28.923  35.521  1.00  0.00     0.135 A 
ATOM     64  C   UNL A   1      44.125  27.498  36.669  1.00  0.00     0.135 A 
ATOM     65  F   UNL A   1      45.965  29.897  34.641  1.00  0.00    -0.206 F 
ATOM     66  C   UNL A   1      46.747  28.294  36.165  1.00  0.00     0.059 A 
ATOM     67  C   UNL A   1      45.171  26.872  37.343  1.00  0.00     0.059 A 
ATOM     68  F   UNL A   1      42.873  27.089  36.924  1.00  0.00    -0.206 F 
ATOM     69  C   UNL A   1      46.479  27.269  37.074  1.00  0.00     0.060 A 
BRANCH  69  70
ATOM     70  S   UNL A   1      47.869  26.468  37.902  1.00  0.00     0.124 S 
ATOM     71  O   UNL A   1      48.169  25.376  36.981  1.00  0.00    -0.237 OA
ATOM     72  O   UNL A   1      48.859  27.538  37.957  1.00  0.00    -0.237 OA
ATOM     73  O   UNL A   1      47.314  26.065  39.190  1.00  0.00    -0.744 OA
ENDBRANCH  69  70
ENDBRANCH  48  62
BRANCH  49  74
ATOM     74  C   UNL A   1      36.799  32.955  30.929  1.00  0.00     0.058 A 
ATOM     75  C   UNL A   1      35.460  32.737  31.278  1.00  0.00     0.135 A 
ATOM     76  C   UNL A   1      37.069  33.872  29.901  1.00  0.00     0.135 A 
ATOM     77  F   UNL A   1      35.152  31.864  32.249  1.00  0.00    -0.206 F 
ATOM     78  C   UNL A   1      34.423  33.409  30.638  1.00  0.00     0.059 A 
ATOM     79  C   UNL A   1      36.052  34.574  29.263  1.00  0.00     0.059 A 
ATOM     80  F   UNL A   1      38.337  34.124  29.540  1.00  0.00    -0.206 F 
ATOM     81  C   UNL A   1      34.732  34.334  29.638  1.00  0.00     0.060 A 
BRANCH  81  82
ATOM     82  S   UNL A   1      33.384  35.259  28.870  1.00  0.00     0.124 S 
ATOM     83  O   UNL A   1      34.113  36.193  28.021  1.00  0.00    -0.237 OA
ATOM     84  O   UNL A   1      32.648  34.206  28.176  1.00  0.00    -0.237 OA
ATOM     85  O   UNL A   1      32.689  35.850  30.010  1.00  0.00    -0.744 OA
ENDBRANCH  81  82
ENDBRANCH  49  74
BRANCH  61  86
ATOM     86  C   UNL A   1      39.869  34.013  37.109  1.00  0.00     0.058 A 
ATOM     87  C   UNL A   1      40.457  35.287  37.093  1.00  0.00     0.135 A 
ATOM     88  C   UNL A   1      38.988  33.709  38.158  1.00  0.00     0.135 A 
ATOM     89  F   UNL A   1      41.314  35.623  36.115  1.00  0.00    -0.206 F 
ATOM     90  C   UNL A   1      40.188  36.222  38.086  1.00  0.00     0.059 A 
ATOM     91  C   UNL A   1      38.686  34.637  39.150  1.00  0.00     0.059 A 
ATOM     92  F   UNL A   1      38.393  32.506  38.215  1.00  0.00    -0.206 F 
ATOM     93  C   UNL A   1      39.297  35.890  39.108  1.00  0.00     0.060 A 
BRANCH  93  94
ATOM     94  S   UNL A   1      38.921  37.133  40.364  1.00  0.00     0.124 S 
ATOM     95  O   UNL A   1      38.160  38.109  39.592  1.00  0.00    -0.237 OA
ATOM     96  O   UNL A   1      38.159  36.365  41.343  1.00  0.00    -0.237 OA
ATOM     97  O   UNL A   1      40.238  37.574  40.810  1.00  0.00    -0.744 OA
ENDBRANCH  93  94
ENDBRANCH  61  86
ENDBRANCH  35  36
ENDBRANCH  27  30
ENDBRANCH  25  26
ENDBRANCH  24  25
ENDBRANCH  23  24
ENDBRANCH   1  23
TORSDOF 19
ENDMDL
MODEL 3
REMARK VINA RESULT:     -10.6      6.359     11.738
REMARK SMILES CC(C)(Cn1ccc(=O)nc1SCC(=O)NCCCCNC(=O)c1ccc(-c2c3nc(c(-c4c(F)cc(S(=O)(=O)[O-])cc4F)c4ccc([nH]4)c(-c4c(F)cc(S(=O)(=O)[O-])cc4F)c4nc(c(-c5c(F)cc(S(=O)(=O)[O-])cc5F)c5ccc2[nH]5)C=C4)C=C3)cc1)S(C)(=O)=O
REMARK SMILES IDX 17 1 16 2 14 3 15 4 13 6 12 7 11 8 5 9 6 10 7 11 10 12 8 13
REMARK SMILES IDX 9 14 4 15 2 16 1 17 3 18 90 19 91 20 92 21 93 22 18 23 19 24
REMARK SMILES IDX 20 25 21 26 22 27 23 29 24 30 25 31 89 32 26 33 88 34 27 35
REMARK SMILES IDX 28 36 29 37 82 38 30 39 87 40 81 41 83 42 31 43 86 44 80 45
REMARK SMILES IDX 79 46 32 48 66 49 45 50 65 51 46 52 49 53 64 54 84 55 47 56
REMARK SMILES IDX 48 57 63 59 85 60 50 61 33 62 34 63 43 64 35 65 36 66 42 67
REMARK SMILES IDX 44 68 37 69 38 70 39 71 40 72 41 73 67 74 68 75 77 76 69 77
REMARK SMILES IDX 70 78 76 79 78 80 71 81 72 82 73 83 74 84 75 85 51 86 52 87
REMARK SMILES IDX 61 88 53 89 54 90 60 91 62 92 55 93 56 94 57 95 58 96 59 97
REMARK H PARENT 16 5 21 28 83 47 49 58
REMARK Flexibility Score: inf
ROOT
ATOM      1  C   UNL A   1      33.060  29.771  26.746  1.00  0.00     0.116 C 
ENDROOT
BRANCH   1   2
ATOM      2  N   UNL A   1      32.343  29.811  25.488  1.00  0.00    -0.355 N 
ATOM      3  C   UNL A   1      32.422  28.981  24.419  1.00  0.00     0.230 C 
ATOM      4  O   UNL A   1      31.499  29.015  23.595  1.00  0.00    -0.274 OA
ATOM      5  H   UNL A   1      31.702  30.552  25.396  1.00  0.00     0.163 HD
BRANCH   3   6
ATOM      6  C   UNL A   1      33.538  27.983  24.214  1.00  0.00     0.178 C 
BRANCH   6   7
ATOM      7  S   UNL A   1      33.190  26.492  23.316  1.00  0.00    -0.078 SA
BRANCH   7   8
ATOM      8  C   UNL A   1      32.612  25.124  24.258  1.00  0.00     0.172 A 
ATOM      9  N   UNL A   1      32.899  23.755  24.086  1.00  0.00    -0.326 N 
ATOM     10  C   UNL A   1      31.890  22.900  24.502  1.00  0.00     0.094 A 
ATOM     11  C   UNL A   1      30.911  23.284  25.322  1.00  0.00     0.091 A 
ATOM     12  N   UNL A   1      31.692  25.557  25.070  1.00  0.00    -0.185 NA
ATOM     13  C   UNL A   1      30.944  24.680  25.802  1.00  0.00     0.273 A 
ATOM     14  O   UNL A   1      30.237  25.000  26.747  1.00  0.00    -0.267 OA
BRANCH   9  15
ATOM     15  C   UNL A   1      34.136  23.285  23.441  1.00  0.00     0.146 C 
BRANCH  15  16
ATOM     16  C   UNL A   1      35.428  22.935  24.223  1.00  0.00     0.084 C 
ATOM     17  C   UNL A   1      36.736  22.972  23.425  1.00  0.00     0.030 C 
ATOM     18  C   UNL A   1      35.574  24.045  25.311  1.00  0.00     0.030 C 
BRANCH  16  19
ATOM     19  S   UNL A   1      35.267  21.365  25.153  1.00  0.00     0.154 S 
ATOM     20  C   UNL A   1      36.825  20.516  25.086  1.00  0.00     0.158 C 
ATOM     21  O   UNL A   1      35.054  21.720  26.544  1.00  0.00    -0.229 OA
ATOM     22  O   UNL A   1      34.310  20.521  24.461  1.00  0.00    -0.229 OA
ENDBRANCH  16  19
ENDBRANCH  15  16
ENDBRANCH   9  15
ENDBRANCH   7   8
ENDBRANCH   6   7
ENDBRANCH   3   6
ENDBRANCH   1   2
BRANCH   1  23
ATOM     23  C   UNL A   1      33.301  31.155  27.346  1.00  0.00     0.023 C 
BRANCH  23  24
ATOM     24  C   UNL A   1      34.762  31.515  27.616  1.00  0.00     0.023 C 
BRANCH  24  25
ATOM     25  C   UNL A   1      35.632  30.399  28.183  1.00  0.00     0.116 C 
BRANCH  25  26
ATOM     26  N   UNL A   1      35.505  30.225  29.623  1.00  0.00    -0.352 N 
ATOM     27  C   UNL A   1      36.489  30.010  30.563  1.00  0.00     0.251 C 
ATOM     28  H   UNL A   1      34.586  30.267  29.975  1.00  0.00     0.163 HD
ATOM     29  O   UNL A   1      36.187  29.825  31.738  1.00  0.00    -0.269 OA
BRANCH  27  30
ATOM     30  C   UNL A   1      37.904  29.951  30.137  1.00  0.00     0.039 A 
ATOM     31  C   UNL A   1      38.250  30.072  28.791  1.00  0.00     0.014 A 
ATOM     32  C   UNL A   1      38.890  29.705  31.097  1.00  0.00     0.014 A 
ATOM     33  C   UNL A   1      39.544  29.759  28.385  1.00  0.00     0.010 A 
ATOM     34  C   UNL A   1      40.209  29.477  30.693  1.00  0.00     0.010 A 
ATOM     35  C   UNL A   1      40.534  29.441  29.329  1.00  0.00    -0.014 A 
BRANCH  35  36
ATOM     36  C   UNL A   1      41.889  29.042  28.860  1.00  0.00     0.031 A 
ATOM     37  C   UNL A   1      43.048  30.002  28.950  1.00  0.00     0.074 A 
ATOM     38  C   UNL A   1      42.089  27.786  28.416  1.00  0.00     0.049 A 
ATOM     39  N   UNL A   1      44.301  29.814  28.619  1.00  0.00    -0.248 NA
ATOM     40  C   UNL A   1      42.767  31.347  29.479  1.00  0.00     0.031 C 
ATOM     41  C   UNL A   1      41.050  26.761  28.296  1.00  0.00     0.029 A 
ATOM     42  N   UNL A   1      43.234  27.146  28.013  1.00  0.00    -0.354 N 
ATOM     43  C   UNL A   1      44.952  31.015  28.882  1.00  0.00     0.074 A 
ATOM     44  C   UNL A   1      43.949  31.938  29.370  1.00  0.00     0.031 C 
ATOM     45  C   UNL A   1      41.614  25.607  27.908  1.00  0.00     0.029 A 
ATOM     46  C   UNL A   1      43.040  25.825  27.690  1.00  0.00     0.049 A 
ATOM     47  H   UNL A   1      44.111  27.592  27.960  1.00  0.00     0.167 HD
ATOM     48  C   UNL A   1      46.266  31.317  28.746  1.00  0.00     0.037 A 
ATOM     49  C   UNL A   1      43.910  24.890  27.259  1.00  0.00     0.037 A 
ATOM     50  C   UNL A   1      47.265  30.387  28.283  1.00  0.00     0.049 A 
ATOM     51  C   UNL A   1      45.353  25.261  27.073  1.00  0.00     0.074 A 
ATOM     52  C   UNL A   1      48.625  30.594  28.128  1.00  0.00     0.029 A 
ATOM     53  N   UNL A   1      47.015  29.076  27.904  1.00  0.00    -0.354 N 
ATOM     54  N   UNL A   1      45.947  26.402  27.323  1.00  0.00    -0.248 NA
ATOM     55  C   UNL A   1      46.242  24.222  26.536  1.00  0.00     0.031 C 
ATOM     56  C   UNL A   1      49.192  29.421  27.618  1.00  0.00     0.029 A 
ATOM     57  C   UNL A   1      48.192  28.469  27.497  1.00  0.00     0.049 A 
ATOM     58  H   UNL A   1      46.133  28.641  27.924  1.00  0.00     0.167 HD
ATOM     59  C   UNL A   1      47.281  26.219  26.981  1.00  0.00     0.074 A 
ATOM     60  C   UNL A   1      47.410  24.850  26.524  1.00  0.00     0.031 C 
ATOM     61  C   UNL A   1      48.304  27.106  27.036  1.00  0.00     0.037 A 
BRANCH  48  62
ATOM     62  C   UNL A   1      46.705  32.714  29.093  1.00  0.00     0.058 A 
ATOM     63  C   UNL A   1      47.159  33.045  30.379  1.00  0.00     0.135 A 
ATOM     64  C   UNL A   1      46.719  33.722  28.114  1.00  0.00     0.135 A 
ATOM     65  F   UNL A   1      47.153  32.125  31.357  1.00  0.00    -0.206 F 
ATOM     66  C   UNL A   1      47.589  34.332  30.690  1.00  0.00     0.059 A 
ATOM     67  C   UNL A   1      47.169  35.009  28.396  1.00  0.00     0.059 A 
ATOM     68  F   UNL A   1      46.298  33.458  26.867  1.00  0.00    -0.206 F 
ATOM     69  C   UNL A   1      47.590  35.307  29.690  1.00  0.00     0.060 A 
BRANCH  69  70
ATOM     70  S   UNL A   1      48.156  36.970  30.112  1.00  0.00     0.124 S 
ATOM     71  O   UNL A   1      46.924  37.741  29.974  1.00  0.00    -0.237 OA
ATOM     72  O   UNL A   1      48.645  36.797  31.476  1.00  0.00    -0.237 OA
ATOM     73  O   UNL A   1      49.182  37.245  29.111  1.00  0.00    -0.744 OA
ENDBRANCH  69  70
ENDBRANCH  48  62
BRANCH  49  74
ATOM     74  C   UNL A   1      43.424  23.514  26.979  1.00  0.00     0.058 A 
ATOM     75  C   UNL A   1      43.241  23.069  25.663  1.00  0.00     0.135 A 
ATOM     76  C   UNL A   1      43.185  22.602  28.020  1.00  0.00     0.135 A 
ATOM     77  F   UNL A   1      43.448  23.907  24.636  1.00  0.00    -0.206 F 
ATOM     78  C   UNL A   1      42.845  21.765  25.385  1.00  0.00     0.059 A 
ATOM     79  C   UNL A   1      42.812  21.287  27.767  1.00  0.00     0.059 A 
ATOM     80  F   UNL A   1      43.358  22.978  29.296  1.00  0.00    -0.206 F 
ATOM     81  C   UNL A   1      42.643  20.878  26.445  1.00  0.00     0.060 A 
BRANCH  81  82
ATOM     82  S   UNL A   1      42.207  19.166  26.070  1.00  0.00     0.124 S 
ATOM     83  O   UNL A   1      40.785  19.283  25.769  1.00  0.00    -0.237 OA
ATOM     84  O   UNL A   1      43.078  18.871  24.935  1.00  0.00    -0.237 OA
ATOM     85  O   UNL A   1      42.537  18.457  27.303  1.00  0.00    -0.744 OA
ENDBRANCH  81  82
ENDBRANCH  49  74
BRANCH  61  86
ATOM     86  C   UNL A   1      49.659  26.629  26.593  1.00  0.00     0.058 A 
ATOM     87  C   UNL A   1      50.563  26.054  27.499  1.00  0.00     0.135 A 
ATOM     88  C   UNL A   1      50.030  26.685  25.241  1.00  0.00     0.135 A 
ATOM     89  F   UNL A   1      50.258  25.985  28.805  1.00  0.00    -0.206 F 
ATOM     90  C   UNL A   1      51.794  25.560  27.082  1.00  0.00     0.059 A 
ATOM     91  C   UNL A   1      51.247  26.176  24.797  1.00  0.00     0.059 A 
ATOM     92  F   UNL A   1      49.198  27.218  24.332  1.00  0.00    -0.206 F 
ATOM     93  C   UNL A   1      52.125  25.622  25.727  1.00  0.00     0.060 A 
BRANCH  93  94
ATOM     94  S   UNL A   1      53.707  24.933  25.194  1.00  0.00     0.124 S 
ATOM     95  O   UNL A   1      54.572  25.278  26.317  1.00  0.00    -0.237 OA
ATOM     96  O   UNL A   1      53.396  23.515  25.046  1.00  0.00    -0.237 OA
ATOM     97  O   UNL A   1      53.984  25.641  23.948  1.00  0.00    -0.744 OA
ENDBRANCH  93  94
ENDBRANCH  61  86
ENDBRANCH  35  36
ENDBRANCH  27  30
ENDBRANCH  25  26
ENDBRANCH  24  25
ENDBRANCH  23  24
ENDBRANCH   1  23
TORSDOF 19
ENDMDL
