MODEL 1
REMARK VINA RESULT:     -12.5      0.000      0.000
REMARK SMILES C[NH+]1CCC(NC(=O)N[C@@H]2C=C[C@H](C(=O)NCCCCNC(=O)c3ccc(-c4c5nc(c(-c6c(F)cc(S(=O)(=O)[O-])cc6F)c6ccc([nH]6)c(-c6c(F)cc(S(=O)(=O)[O-])cc6F)c6nc(c(-c7c(F)cc(S(=O)(=O)[O-])cc7F)c7ccc4[nH]7)C=C6)C=C5)cc3)C2)CC1
REMARK SMILES IDX 19 1 18 2 17 3 16 4 14 5 15 6 13 8 10 9 11 10 90 11 12 12
REMARK SMILES IDX 9 13 6 14 7 15 8 17 5 19 1 20 2 21 3 22 92 23 4 25 91 26
REMARK SMILES IDX 20 27 21 28 22 29 23 31 24 32 25 33 89 34 26 35 88 36 27 37
REMARK SMILES IDX 28 38 29 39 82 40 30 41 87 42 81 43 83 44 31 45 86 46 80 47
REMARK SMILES IDX 79 48 32 50 66 51 45 52 65 53 46 54 49 55 64 56 84 57 47 58
REMARK SMILES IDX 48 59 63 61 85 62 50 63 33 64 34 65 43 66 35 67 36 68 42 69
REMARK SMILES IDX 44 70 37 71 38 72 39 73 40 74 41 75 67 76 68 77 77 78 69 79
REMARK SMILES IDX 70 80 76 81 78 82 71 83 72 84 73 85 74 86 75 87 51 88 52 89
REMARK SMILES IDX 61 90 53 91 54 92 60 93 62 94 55 95 56 96 57 97 58 98 59 99
REMARK H PARENT 16 7 6 16 9 18 2 24 21 30 83 49 49 60
REMARK Flexibility Score: inf
ROOT
ATOM      1  C   UNL A   1      39.561  22.544  26.550  1.00  0.00     0.023 C 
ENDROOT
BRANCH   1   2
ATOM      2  C   UNL A   1      38.407  23.491  26.206  1.00  0.00     0.023 C 
BRANCH   2   3
ATOM      3  C   UNL A   1      37.237  22.815  25.495  1.00  0.00     0.116 C 
BRANCH   3   4
ATOM      4  N   UNL A   1      36.410  22.076  26.430  1.00  0.00    -0.356 N 
ATOM      5  C   UNL A   1      35.050  21.958  26.455  1.00  0.00     0.227 C 
ATOM      6  O   UNL A   1      34.527  21.327  27.374  1.00  0.00    -0.274 OA
ATOM      7  H   UNL A   1      36.893  21.596  27.140  1.00  0.00     0.163 HD
BRANCH   5   8
ATOM      8  C   UNL A   1      34.252  22.559  25.308  1.00  0.00     0.103 C 
ATOM      9  C   UNL A   1      31.817  22.916  25.276  1.00  0.00     0.107 C 
ATOM     10  C   UNL A   1      32.208  21.628  24.628  1.00  0.00    -0.006 C 
ATOM     11  C   UNL A   1      33.135  23.488  25.803  1.00  0.00     0.047 C 
ATOM     12  C   UNL A   1      33.528  21.443  24.618  1.00  0.00    -0.016 C 
BRANCH   9  13
ATOM     13  N   UNL A   1      30.833  22.643  26.294  1.00  0.00    -0.332 N 
ATOM     14  N   UNL A   1      29.653  24.682  26.575  1.00  0.00    -0.335 N 
ATOM     15  C   UNL A   1      29.892  23.394  26.894  1.00  0.00     0.315 C 
ATOM     16  H   UNL A   1      28.934  25.099  27.103  1.00  0.00     0.165 HD
ATOM     17  O   UNL A   1      29.202  22.882  27.777  1.00  0.00    -0.249 OA
ATOM     18  H   UNL A   1      30.855  21.714  26.618  1.00  0.00     0.165 HD
BRANCH  14  19
ATOM     19  C   UNL A   1      30.258  25.567  25.602  1.00  0.00     0.095 C 
ATOM     20  C   UNL A   1      31.838  28.480  23.027  1.00  0.00     0.332 C 
ATOM     21  N   UNL A   1      30.982  27.906  24.070  1.00  0.00    -0.337 N 
ATOM     22  C   UNL A   1      31.822  27.448  25.190  1.00  0.00     0.264 C 
ATOM     23  C   UNL A   1      30.138  26.842  23.500  1.00  0.00     0.264 C 
ATOM     24  H   UNL A   1      30.346  28.611  24.442  1.00  0.00     0.347 HD
ATOM     25  C   UNL A   1      31.019  26.712  26.259  1.00  0.00     0.086 C 
ATOM     26  C   UNL A   1      29.294  26.134  24.569  1.00  0.00     0.086 C 
ENDBRANCH  14  19
ENDBRANCH   9  13
ENDBRANCH   5   8
ENDBRANCH   3   4
ENDBRANCH   2   3
ENDBRANCH   1   2
BRANCH   1  27
ATOM     27  C   UNL A   1      40.837  23.230  27.028  1.00  0.00     0.116 C 
BRANCH  27  28
ATOM     28  N   UNL A   1      41.475  24.012  25.983  1.00  0.00    -0.352 N 
ATOM     29  C   UNL A   1      41.776  25.353  25.969  1.00  0.00     0.251 C 
ATOM     30  H   UNL A   1      41.727  23.512  25.173  1.00  0.00     0.163 HD
ATOM     31  O   UNL A   1      42.181  25.872  24.936  1.00  0.00    -0.269 OA
BRANCH  29  32
ATOM     32  C   UNL A   1      41.581  26.166  27.189  1.00  0.00     0.039 A 
ATOM     33  C   UNL A   1      42.510  27.167  27.481  1.00  0.00     0.014 A 
ATOM     34  C   UNL A   1      40.492  25.949  28.040  1.00  0.00     0.014 A 
ATOM     35  C   UNL A   1      42.320  27.980  28.599  1.00  0.00     0.010 A 
ATOM     36  C   UNL A   1      40.262  26.813  29.107  1.00  0.00     0.010 A 
ATOM     37  C   UNL A   1      41.179  27.831  29.407  1.00  0.00    -0.014 A 
BRANCH  37  38
ATOM     38  C   UNL A   1      40.943  28.738  30.560  1.00  0.00     0.031 A 
ATOM     39  C   UNL A   1      41.764  28.607  31.815  1.00  0.00     0.074 A 
ATOM     40  C   UNL A   1      39.961  29.657  30.488  1.00  0.00     0.049 A 
ATOM     41  N   UNL A   1      41.706  29.313  32.915  1.00  0.00    -0.248 NA
ATOM     42  C   UNL A   1      42.762  27.525  31.850  1.00  0.00     0.031 C 
ATOM     43  C   UNL A   1      39.053  29.836  29.353  1.00  0.00     0.029 A 
ATOM     44  N   UNL A   1      39.558  30.613  31.386  1.00  0.00    -0.354 N 
ATOM     45  C   UNL A   1      42.648  28.758  33.774  1.00  0.00     0.074 A 
ATOM     46  C   UNL A   1      43.222  27.619  33.090  1.00  0.00     0.031 C 
ATOM     47  C   UNL A   1      38.221  30.858  29.610  1.00  0.00     0.029 A 
ATOM     48  C   UNL A   1      38.510  31.385  30.941  1.00  0.00     0.049 A 
ATOM     49  H   UNL A   1      39.980  30.735  32.268  1.00  0.00     0.167 HD
ATOM     50  C   UNL A   1      43.021  29.174  35.009  1.00  0.00     0.037 A 
ATOM     51  C   UNL A   1      37.854  32.400  31.535  1.00  0.00     0.037 A 
ATOM     52  C   UNL A   1      42.454  30.318  35.676  1.00  0.00     0.049 A 
ATOM     53  C   UNL A   1      38.296  32.855  32.899  1.00  0.00     0.074 A 
ATOM     54  C   UNL A   1      42.807  30.863  36.899  1.00  0.00     0.029 A 
ATOM     55  N   UNL A   1      41.411  31.089  35.183  1.00  0.00    -0.354 N 
ATOM     56  N   UNL A   1      39.249  32.373  33.662  1.00  0.00    -0.248 NA
ATOM     57  C   UNL A   1      37.585  34.003  33.478  1.00  0.00     0.031 C 
ATOM     58  C   UNL A   1      41.941  31.926  37.171  1.00  0.00     0.029 A 
ATOM     59  C   UNL A   1      41.090  32.088  36.089  1.00  0.00     0.049 A 
ATOM     60  H   UNL A   1      40.966  30.948  34.317  1.00  0.00     0.167 HD
ATOM     61  C   UNL A   1      39.269  33.174  34.798  1.00  0.00     0.074 A 
ATOM     62  C   UNL A   1      38.246  34.183  34.613  1.00  0.00     0.031 C 
ATOM     63  C   UNL A   1      40.064  33.084  35.895  1.00  0.00     0.037 A 
BRANCH  50  64
ATOM     64  C   UNL A   1      44.087  28.382  35.721  1.00  0.00     0.058 A 
ATOM     65  C   UNL A   1      45.454  28.649  35.539  1.00  0.00     0.135 A 
ATOM     66  C   UNL A   1      43.737  27.362  36.621  1.00  0.00     0.135 A 
ATOM     67  F   UNL A   1      45.850  29.603  34.682  1.00  0.00    -0.206 F 
ATOM     68  C   UNL A   1      46.435  27.910  36.195  1.00  0.00     0.059 A 
ATOM     69  C   UNL A   1      44.700  26.632  37.313  1.00  0.00     0.059 A 
ATOM     70  F   UNL A   1      42.446  27.063  36.835  1.00  0.00    -0.206 F 
ATOM     71  C   UNL A   1      46.047  26.902  37.080  1.00  0.00     0.060 A 
BRANCH  71  72
ATOM     72  S   UNL A   1      47.332  25.952  37.919  1.00  0.00     0.124 S 
ATOM     73  O   UNL A   1      47.590  24.892  36.950  1.00  0.00    -0.237 OA
ATOM     74  O   UNL A   1      48.395  26.939  38.077  1.00  0.00    -0.237 OA
ATOM     75  O   UNL A   1      46.687  25.526  39.157  1.00  0.00    -0.744 OA
ENDBRANCH  71  72
ENDBRANCH  50  64
BRANCH  51  76
ATOM     76  C   UNL A   1      36.726  33.065  30.830  1.00  0.00     0.058 A 
ATOM     77  C   UNL A   1      35.392  32.806  31.182  1.00  0.00     0.135 A 
ATOM     78  C   UNL A   1      36.961  33.994  29.804  1.00  0.00     0.135 A 
ATOM     79  F   UNL A   1      35.115  31.923  32.153  1.00  0.00    -0.206 F 
ATOM     80  C   UNL A   1      34.332  33.432  30.533  1.00  0.00     0.059 A 
ATOM     81  C   UNL A   1      35.919  34.654  29.159  1.00  0.00     0.059 A 
ATOM     82  F   UNL A   1      38.219  34.291  29.442  1.00  0.00    -0.206 F 
ATOM     83  C   UNL A   1      34.607  34.359  29.526  1.00  0.00     0.060 A 
BRANCH  83  84
ATOM     84  S   UNL A   1      33.226  35.208  28.731  1.00  0.00     0.124 S 
ATOM     85  O   UNL A   1      33.917  36.226  27.949  1.00  0.00    -0.237 OA
ATOM     86  O   UNL A   1      32.603  34.130  27.968  1.00  0.00    -0.237 OA
ATOM     87  O   UNL A   1      32.441  35.702  29.858  1.00  0.00    -0.744 OA
ENDBRANCH  83  84
ENDBRANCH  51  76
BRANCH  63  88
ATOM     88  C   UNL A   1      39.882  34.127  36.966  1.00  0.00     0.058 A 
ATOM     89  C   UNL A   1      40.482  35.394  36.880  1.00  0.00     0.135 A 
ATOM     90  C   UNL A   1      39.076  33.861  38.085  1.00  0.00     0.135 A 
ATOM     91  F   UNL A   1      41.266  35.700  35.834  1.00  0.00    -0.206 F 
ATOM     92  C   UNL A   1      40.324  36.343  37.884  1.00  0.00     0.059 A 
ATOM     93  C   UNL A   1      38.875  34.808  39.084  1.00  0.00     0.059 A 
ATOM     94  F   UNL A   1      38.465  32.672  38.211  1.00  0.00    -0.206 F 
ATOM     95  C   UNL A   1      39.520  36.039  38.985  1.00  0.00     0.060 A 
BRANCH  95  96
ATOM     96  S   UNL A   1      39.320  37.280  40.280  1.00  0.00     0.124 S 
ATOM     97  O   UNL A   1      38.609  36.523  41.304  1.00  0.00    -0.237 OA
ATOM     98  O   UNL A   1      40.701  37.629  40.595  1.00  0.00    -0.237 OA
ATOM     99  O   UNL A   1      38.546  38.332  39.627  1.00  0.00    -0.744 OA
ENDBRANCH  95  96
ENDBRANCH  63  88
ENDBRANCH  37  38
ENDBRANCH  29  32
ENDBRANCH  27  28
ENDBRANCH   1  27
TORSDOF 16
ENDMDL
MODEL 2
REMARK VINA RESULT:     -12.3      6.037      8.378
REMARK SMILES C[NH+]1CCC(NC(=O)N[C@@H]2C=C[C@H](C(=O)NCCCCNC(=O)c3ccc(-c4c5nc(c(-c6c(F)cc(S(=O)(=O)[O-])cc6F)c6ccc([nH]6)c(-c6c(F)cc(S(=O)(=O)[O-])cc6F)c6nc(c(-c7c(F)cc(S(=O)(=O)[O-])cc7F)c7ccc4[nH]7)C=C6)C=C5)cc3)C2)CC1
REMARK SMILES IDX 19 1 18 2 17 3 16 4 14 5 15 6 13 8 10 9 11 10 90 11 12 12
REMARK SMILES IDX 9 13 6 14 7 15 8 17 5 19 1 20 2 21 3 22 92 23 4 25 91 26
REMARK SMILES IDX 20 27 21 28 22 29 23 31 24 32 25 33 89 34 26 35 88 36 27 37
REMARK SMILES IDX 28 38 29 39 82 40 30 41 87 42 81 43 83 44 31 45 86 46 80 47
REMARK SMILES IDX 79 48 32 50 66 51 45 52 65 53 46 54 49 55 64 56 84 57 47 58
REMARK SMILES IDX 48 59 63 61 85 62 50 63 33 64 34 65 43 66 35 67 36 68 42 69
REMARK SMILES IDX 44 70 37 71 38 72 39 73 40 74 41 75 67 76 68 77 77 78 69 79
REMARK SMILES IDX 70 80 76 81 78 82 71 83 72 84 73 85 74 86 75 87 51 88 52 89
REMARK SMILES IDX 61 90 53 91 54 92 60 93 62 94 55 95 56 96 57 97 58 98 59 99
REMARK H PARENT 16 7 6 16 9 18 2 24 21 30 83 49 49 60
REMARK Flexibility Score: inf
ROOT
ATOM      1  C   UNL A   1      38.191  20.036  25.052  1.00  0.00     0.023 C 
ENDROOT
BRANCH   1   2
ATOM      2  C   UNL A   1      37.415  21.192  24.411  1.00  0.00     0.023 C 
BRANCH   2   3
ATOM      3  C   UNL A   1      37.122  22.349  25.363  1.00  0.00     0.116 C 
BRANCH   3   4
ATOM      4  N   UNL A   1      36.285  21.922  26.468  1.00  0.00    -0.356 N 
ATOM      5  C   UNL A   1      34.925  21.968  26.574  1.00  0.00     0.227 C 
ATOM      6  O   UNL A   1      34.400  21.607  27.627  1.00  0.00    -0.274 OA
ATOM      7  H   UNL A   1      36.761  21.549  27.244  1.00  0.00     0.163 HD
BRANCH   5   8
ATOM      8  C   UNL A   1      34.121  22.402  25.357  1.00  0.00     0.103 C 
ATOM      9  C   UNL A   1      31.675  22.656  25.261  1.00  0.00     0.107 C 
ATOM     10  C   UNL A   1      32.124  21.319  24.768  1.00  0.00    -0.006 C 
ATOM     11  C   UNL A   1      32.962  23.336  25.732  1.00  0.00     0.047 C 
ATOM     12  C   UNL A   1      33.450  21.187  24.792  1.00  0.00    -0.016 C 
BRANCH   9  13
ATOM     13  N   UNL A   1      30.687  22.461  26.294  1.00  0.00    -0.332 N 
ATOM     14  N   UNL A   1      29.731  24.604  26.645  1.00  0.00    -0.335 N 
ATOM     15  C   UNL A   1      29.841  23.291  26.930  1.00  0.00     0.315 C 
ATOM     16  H   UNL A   1      29.069  25.080  27.198  1.00  0.00     0.165 HD
ATOM     17  O   UNL A   1      29.119  22.832  27.817  1.00  0.00    -0.249 OA
ATOM     18  H   UNL A   1      30.619  21.528  26.597  1.00  0.00     0.165 HD
BRANCH  14  19
ATOM     19  C   UNL A   1      30.406  25.445  25.679  1.00  0.00     0.095 C 
ATOM     20  C   UNL A   1      32.194  28.242  23.110  1.00  0.00     0.332 C 
ATOM     21  N   UNL A   1      31.279  27.723  24.132  1.00  0.00    -0.337 N 
ATOM     22  C   UNL A   1      32.059  27.253  25.289  1.00  0.00     0.264 C 
ATOM     23  C   UNL A   1      30.413  26.683  23.551  1.00  0.00     0.264 C 
ATOM     24  H   UNL A   1      30.658  28.460  24.468  1.00  0.00     0.347 HD
ATOM     25  C   UNL A   1      31.189  26.572  26.343  1.00  0.00     0.086 C 
ATOM     26  C   UNL A   1      29.503  26.030  24.601  1.00  0.00     0.086 C 
ENDBRANCH  14  19
ENDBRANCH   9  13
ENDBRANCH   5   8
ENDBRANCH   3   4
ENDBRANCH   2   3
ENDBRANCH   1   2
BRANCH   1  27
ATOM     27  C   UNL A   1      39.412  20.452  25.866  1.00  0.00     0.116 C 
BRANCH  27  28
ATOM     28  N   UNL A   1      40.406  19.397  25.962  1.00  0.00    -0.352 N 
ATOM     29  C   UNL A   1      41.764  19.503  26.147  1.00  0.00     0.251 C 
ATOM     30  H   UNL A   1      40.059  18.479  25.885  1.00  0.00     0.163 HD
ATOM     31  O   UNL A   1      42.467  18.504  26.052  1.00  0.00    -0.269 OA
BRANCH  29  32
ATOM     32  C   UNL A   1      42.370  20.823  26.426  1.00  0.00     0.039 A 
ATOM     33  C   UNL A   1      42.689  21.653  25.349  1.00  0.00     0.014 A 
ATOM     34  C   UNL A   1      42.620  21.245  27.736  1.00  0.00     0.014 A 
ATOM     35  C   UNL A   1      43.215  22.923  25.589  1.00  0.00     0.010 A 
ATOM     36  C   UNL A   1      43.068  22.541  27.975  1.00  0.00     0.010 A 
ATOM     37  C   UNL A   1      43.382  23.391  26.904  1.00  0.00    -0.014 A 
BRANCH  37  38
ATOM     38  C   UNL A   1      43.881  24.767  27.161  1.00  0.00     0.031 A 
ATOM     39  C   UNL A   1      45.335  25.103  26.958  1.00  0.00     0.074 A 
ATOM     40  C   UNL A   1      43.028  25.707  27.614  1.00  0.00     0.049 A 
ATOM     41  N   UNL A   1      45.948  26.247  27.121  1.00  0.00    -0.248 NA
ATOM     42  C   UNL A   1      46.221  24.004  26.541  1.00  0.00     0.031 C 
ATOM     43  C   UNL A   1      41.612  25.487  27.915  1.00  0.00     0.029 A 
ATOM     44  N   UNL A   1      43.225  27.034  27.903  1.00  0.00    -0.354 N 
ATOM     45  C   UNL A   1      47.287  26.005  26.840  1.00  0.00     0.074 A 
ATOM     46  C   UNL A   1      47.409  24.593  26.552  1.00  0.00     0.031 C 
ATOM     47  C   UNL A   1      41.061  26.644  28.317  1.00  0.00     0.029 A 
ATOM     48  C   UNL A   1      42.091  27.679  28.337  1.00  0.00     0.049 A 
ATOM     49  H   UNL A   1      44.096  27.482  27.809  1.00  0.00     0.167 HD
ATOM     50  C   UNL A   1      48.318  26.885  26.798  1.00  0.00     0.037 A 
ATOM     51  C   UNL A   1      41.899  28.959  28.712  1.00  0.00     0.037 A 
ATOM     52  C   UNL A   1      48.184  28.293  27.072  1.00  0.00     0.049 A 
ATOM     53  C   UNL A   1      43.054  29.921  28.641  1.00  0.00     0.074 A 
ATOM     54  C   UNL A   1      49.152  29.280  26.992  1.00  0.00     0.029 A 
ATOM     55  N   UNL A   1      47.015  28.914  27.485  1.00  0.00    -0.354 N 
ATOM     56  N   UNL A   1      44.297  29.693  28.287  1.00  0.00    -0.248 NA
ATOM     57  C   UNL A   1      42.777  31.316  29.005  1.00  0.00     0.031 C 
ATOM     58  C   UNL A   1      48.582  30.486  27.413  1.00  0.00     0.029 A 
ATOM     59  C   UNL A   1      47.243  30.266  27.691  1.00  0.00     0.049 A 
ATOM     60  H   UNL A   1      46.150  28.462  27.612  1.00  0.00     0.167 HD
ATOM     61  C   UNL A   1      44.944  30.922  28.361  1.00  0.00     0.074 A 
ATOM     62  C   UNL A   1      43.950  31.891  28.775  1.00  0.00     0.031 C 
ATOM     63  C   UNL A   1      46.244  31.221  28.108  1.00  0.00     0.037 A 
BRANCH  50  64
ATOM     64  C   UNL A   1      49.682  26.347  26.450  1.00  0.00     0.058 A 
ATOM     65  C   UNL A   1      50.177  26.374  25.137  1.00  0.00     0.135 A 
ATOM     66  C   UNL A   1      50.518  25.823  27.450  1.00  0.00     0.135 A 
ATOM     67  F   UNL A   1      49.418  26.850  24.136  1.00  0.00    -0.206 F 
ATOM     68  C   UNL A   1      51.435  25.871  24.820  1.00  0.00     0.059 A 
ATOM     69  C   UNL A   1      51.794  25.344  27.163  1.00  0.00     0.059 A 
ATOM     70  F   UNL A   1      50.099  25.772  28.724  1.00  0.00    -0.206 F 
ATOM     71  C   UNL A   1      52.236  25.355  25.841  1.00  0.00     0.060 A 
BRANCH  71  72
ATOM     72  S   UNL A   1      53.863  24.703  25.413  1.00  0.00     0.124 S 
ATOM     73  O   UNL A   1      54.585  24.871  26.671  1.00  0.00    -0.237 OA
ATOM     74  O   UNL A   1      53.558  23.327  25.037  1.00  0.00    -0.237 OA
ATOM     75  O   UNL A   1      54.300  25.566  24.320  1.00  0.00    -0.744 OA
ENDBRANCH  71  72
ENDBRANCH  50  64
BRANCH  51  76
ATOM     76  C   UNL A   1      40.553  29.404  29.162  1.00  0.00     0.058 A 
ATOM     77  C   UNL A   1      39.504  29.593  28.249  1.00  0.00     0.135 A 
ATOM     78  C   UNL A   1      40.281  29.625  30.521  1.00  0.00     0.135 A 
ATOM     79  F   UNL A   1      39.715  29.398  26.938  1.00  0.00    -0.206 F 
ATOM     80  C   UNL A   1      38.240  29.999  28.664  1.00  0.00     0.059 A 
ATOM     81  C   UNL A   1      39.018  30.004  30.964  1.00  0.00     0.059 A 
ATOM     82  F   UNL A   1      41.244  29.440  31.438  1.00  0.00    -0.206 F 
ATOM     83  C   UNL A   1      38.005  30.198  30.025  1.00  0.00     0.060 A 
BRANCH  83  84
ATOM     84  S   UNL A   1      36.346  30.669  30.558  1.00  0.00     0.124 S 
ATOM     85  O   UNL A   1      36.579  31.999  31.109  1.00  0.00    -0.237 OA
ATOM     86  O   UNL A   1      35.597  30.618  29.306  1.00  0.00    -0.237 OA
ATOM     87  O   UNL A   1      35.999  29.635  31.529  1.00  0.00    -0.744 OA
ENDBRANCH  83  84
ENDBRANCH  51  76
BRANCH  63  88
ATOM     88  C   UNL A   1      46.657  32.663  28.237  1.00  0.00     0.058 A 
ATOM     89  C   UNL A   1      47.237  33.168  29.411  1.00  0.00     0.135 A 
ATOM     90  C   UNL A   1      46.492  33.547  27.158  1.00  0.00     0.135 A 
ATOM     91  F   UNL A   1      47.415  32.369  30.475  1.00  0.00    -0.206 F 
ATOM     92  C   UNL A   1      47.598  34.507  29.527  1.00  0.00     0.059 A 
ATOM     93  C   UNL A   1      46.877  34.881  27.239  1.00  0.00     0.059 A 
ATOM     94  F   UNL A   1      45.957  33.115  26.005  1.00  0.00    -0.206 F 
ATOM     95  C   UNL A   1      47.411  35.357  28.435  1.00  0.00     0.060 A 
BRANCH  95  96
ATOM     96  S   UNL A   1      47.885  37.090  28.596  1.00  0.00     0.124 S 
ATOM     97  O   UNL A   1      49.338  37.008  28.491  1.00  0.00    -0.237 OA
ATOM     98  O   UNL A   1      47.202  37.708  27.465  1.00  0.00    -0.237 OA
ATOM     99  O   UNL A   1      47.372  37.463  29.911  1.00  0.00    -0.744 OA
ENDBRANCH  95  96
ENDBRANCH  63  88
ENDBRANCH  37  38
ENDBRANCH  29  32
ENDBRANCH  27  28
ENDBRANCH   1  27
TORSDOF 16
ENDMDL
MODEL 3
REMARK VINA RESULT:     -12.2      1.402      2.154
REMARK SMILES C[NH+]1CCC(NC(=O)N[C@@H]2C=C[C@H](C(=O)NCCCCNC(=O)c3ccc(-c4c5nc(c(-c6c(F)cc(S(=O)(=O)[O-])cc6F)c6ccc([nH]6)c(-c6c(F)cc(S(=O)(=O)[O-])cc6F)c6nc(c(-c7c(F)cc(S(=O)(=O)[O-])cc7F)c7ccc4[nH]7)C=C6)C=C5)cc3)C2)CC1
REMARK SMILES IDX 19 1 18 2 17 3 16 4 14 5 15 6 13 8 10 9 11 10 90 11 12 12
REMARK SMILES IDX 9 13 6 14 7 15 8 17 5 19 1 20 2 21 3 22 92 23 4 25 91 26
REMARK SMILES IDX 20 27 21 28 22 29 23 31 24 32 25 33 89 34 26 35 88 36 27 37
REMARK SMILES IDX 28 38 29 39 82 40 30 41 87 42 81 43 83 44 31 45 86 46 80 47
REMARK SMILES IDX 79 48 32 50 66 51 45 52 65 53 46 54 49 55 64 56 84 57 47 58
REMARK SMILES IDX 48 59 63 61 85 62 50 63 33 64 34 65 43 66 35 67 36 68 42 69
REMARK SMILES IDX 44 70 37 71 38 72 39 73 40 74 41 75 67 76 68 77 77 78 69 79
REMARK SMILES IDX 70 80 76 81 78 82 71 83 72 84 73 85 74 86 75 87 51 88 52 89
REMARK SMILES IDX 61 90 53 91 54 92 60 93 62 94 55 95 56 96 57 97 58 98 59 99
REMARK H PARENT 16 7 6 16 9 18 2 24 21 30 83 49 49 60
REMARK Flexibility Score: inf
ROOT
ATOM      1  C   UNL A   1      41.371  22.435  27.721  1.00  0.00     0.023 C 
ENDROOT
BRANCH   1   2
ATOM      2  C   UNL A   1      40.736  21.726  26.520  1.00  0.00     0.023 C 
BRANCH   2   3
ATOM      3  C   UNL A   1      39.321  22.199  26.194  1.00  0.00     0.116 C 
BRANCH   3   4
ATOM      4  N   UNL A   1      38.504  21.110  25.697  1.00  0.00    -0.356 N 
ATOM      5  C   UNL A   1      37.205  21.141  25.278  1.00  0.00     0.227 C 
ATOM      6  O   UNL A   1      36.664  20.088  24.943  1.00  0.00    -0.274 OA
ATOM      7  H   UNL A   1      38.943  20.230  25.658  1.00  0.00     0.163 HD
BRANCH   5   8
ATOM      8  C   UNL A   1      36.511  22.492  25.182  1.00  0.00     0.103 C 
ATOM      9  C   UNL A   1      34.356  22.931  24.077  1.00  0.00     0.107 C 
ATOM     10  C   UNL A   1      35.517  23.211  23.181  1.00  0.00    -0.006 C 
ATOM     11  C   UNL A   1      34.991  22.375  25.354  1.00  0.00     0.047 C 
ATOM     12  C   UNL A   1      36.687  23.001  23.783  1.00  0.00    -0.016 C 
BRANCH   9  13
ATOM     13  N   UNL A   1      33.462  22.019  23.407  1.00  0.00    -0.332 N 
ATOM     14  N   UNL A   1      31.805  23.396  22.413  1.00  0.00    -0.335 N 
ATOM     15  C   UNL A   1      32.335  22.189  22.692  1.00  0.00     0.315 C 
ATOM     16  H   UNL A   1      30.977  23.357  21.881  1.00  0.00     0.165 HD
ATOM     17  O   UNL A   1      31.754  21.191  22.260  1.00  0.00    -0.249 OA
ATOM     18  H   UNL A   1      33.732  21.076  23.490  1.00  0.00     0.165 HD
BRANCH  14  19
ATOM     19  C   UNL A   1      32.227  24.740  22.750  1.00  0.00     0.095 C 
ATOM     20  C   UNL A   1      33.082  28.781  23.493  1.00  0.00     0.332 C 
ATOM     21  N   UNL A   1      32.469  27.616  22.846  1.00  0.00    -0.337 N 
ATOM     22  C   UNL A   1      31.640  26.896  23.827  1.00  0.00     0.264 C 
ATOM     23  C   UNL A   1      33.511  26.775  22.233  1.00  0.00     0.264 C 
ATOM     24  H   UNL A   1      31.851  27.909  22.088  1.00  0.00     0.347 HD
ATOM     25  C   UNL A   1      31.075  25.592  23.269  1.00  0.00     0.086 C 
ATOM     26  C   UNL A   1      32.937  25.486  21.628  1.00  0.00     0.086 C 
ENDBRANCH  14  19
ENDBRANCH   9  13
ENDBRANCH   5   8
ENDBRANCH   3   4
ENDBRANCH   2   3
ENDBRANCH   1   2
BRANCH   1  27
ATOM     27  C   UNL A   1      42.455  23.450  27.371  1.00  0.00     0.116 C 
BRANCH  27  28
ATOM     28  N   UNL A   1      42.130  24.228  26.188  1.00  0.00    -0.352 N 
ATOM     29  C   UNL A   1      41.599  25.493  26.105  1.00  0.00     0.251 C 
ATOM     30  H   UNL A   1      42.316  23.789  25.327  1.00  0.00     0.163 HD
ATOM     31  O   UNL A   1      41.251  25.933  25.015  1.00  0.00    -0.269 OA
BRANCH  29  32
ATOM     32  C   UNL A   1      41.423  26.301  27.331  1.00  0.00     0.039 A 
ATOM     33  C   UNL A   1      42.327  27.334  27.586  1.00  0.00     0.014 A 
ATOM     34  C   UNL A   1      40.374  26.050  28.222  1.00  0.00     0.014 A 
ATOM     35  C   UNL A   1      42.153  28.142  28.710  1.00  0.00     0.010 A 
ATOM     36  C   UNL A   1      40.155  26.908  29.297  1.00  0.00     0.010 A 
ATOM     37  C   UNL A   1      41.048  27.957  29.560  1.00  0.00    -0.014 A 
BRANCH  37  38
ATOM     38  C   UNL A   1      40.825  28.857  30.721  1.00  0.00     0.031 A 
ATOM     39  C   UNL A   1      41.645  28.705  31.975  1.00  0.00     0.074 A 
ATOM     40  C   UNL A   1      39.857  29.791  30.657  1.00  0.00     0.049 A 
ATOM     41  N   UNL A   1      41.598  29.403  33.080  1.00  0.00    -0.248 NA
ATOM     42  C   UNL A   1      42.627  27.609  32.001  1.00  0.00     0.031 C 
ATOM     43  C   UNL A   1      38.951  29.993  29.523  1.00  0.00     0.029 A 
ATOM     44  N   UNL A   1      39.468  30.746  31.563  1.00  0.00    -0.354 N 
ATOM     45  C   UNL A   1      42.532  28.827  33.934  1.00  0.00     0.074 A 
ATOM     46  C   UNL A   1      43.088  27.686  33.241  1.00  0.00     0.031 C 
ATOM     47  C   UNL A   1      38.134  31.025  29.789  1.00  0.00     0.029 A 
ATOM     48  C   UNL A   1      38.431  31.536  31.123  1.00  0.00     0.049 A 
ATOM     49  H   UNL A   1      39.891  30.855  32.445  1.00  0.00     0.167 HD
ATOM     50  C   UNL A   1      42.910  29.228  35.173  1.00  0.00     0.037 A 
ATOM     51  C   UNL A   1      37.790  32.556  31.726  1.00  0.00     0.037 A 
ATOM     52  C   UNL A   1      42.360  30.375  35.849  1.00  0.00     0.049 A 
ATOM     53  C   UNL A   1      38.239  32.994  33.094  1.00  0.00     0.074 A 
ATOM     54  C   UNL A   1      42.721  30.905  37.076  1.00  0.00     0.029 A 
ATOM     55  N   UNL A   1      41.328  31.165  35.362  1.00  0.00    -0.354 N 
ATOM     56  N   UNL A   1      39.185  32.492  33.852  1.00  0.00    -0.248 NA
ATOM     57  C   UNL A   1      37.544  34.147  33.681  1.00  0.00     0.031 C 
ATOM     58  C   UNL A   1      41.870  31.979  37.356  1.00  0.00     0.029 A 
ATOM     59  C   UNL A   1      41.021  32.161  36.277  1.00  0.00     0.049 A 
ATOM     60  H   UNL A   1      40.881  31.037  34.495  1.00  0.00     0.167 HD
ATOM     61  C   UNL A   1      39.216  33.284  34.995  1.00  0.00     0.074 A 
ATOM     62  C   UNL A   1      38.207  34.308  34.818  1.00  0.00     0.031 C 
ATOM     63  C   UNL A   1      40.010  33.174  36.090  1.00  0.00     0.037 A 
BRANCH  50  64
ATOM     64  C   UNL A   1      43.965  28.416  35.878  1.00  0.00     0.058 A 
ATOM     65  C   UNL A   1      45.334  28.693  35.733  1.00  0.00     0.135 A 
ATOM     66  C   UNL A   1      43.601  27.364  36.735  1.00  0.00     0.135 A 
ATOM     67  F   UNL A   1      45.744  29.678  34.917  1.00  0.00    -0.206 F 
ATOM     68  C   UNL A   1      46.305  27.935  36.383  1.00  0.00     0.059 A 
ATOM     69  C   UNL A   1      44.552  26.614  37.420  1.00  0.00     0.059 A 
ATOM     70  F   UNL A   1      42.307  27.054  36.913  1.00  0.00    -0.206 F 
ATOM     71  C   UNL A   1      45.903  26.895  37.224  1.00  0.00     0.060 A 
BRANCH  71  72
ATOM     72  S   UNL A   1      47.174  25.921  38.055  1.00  0.00     0.124 S 
ATOM     73  O   UNL A   1      46.512  24.627  38.182  1.00  0.00    -0.237 OA
ATOM     74  O   UNL A   1      48.280  25.977  37.105  1.00  0.00    -0.237 OA
ATOM     75  O   UNL A   1      47.391  26.640  39.306  1.00  0.00    -0.744 OA
ENDBRANCH  71  72
ENDBRANCH  50  64
BRANCH  51  76
ATOM     76  C   UNL A   1      36.672  33.243  31.026  1.00  0.00     0.058 A 
ATOM     77  C   UNL A   1      36.909  34.097  29.938  1.00  0.00     0.135 A 
ATOM     78  C   UNL A   1      35.339  33.040  31.416  1.00  0.00     0.135 A 
ATOM     79  F   UNL A   1      38.166  34.327  29.529  1.00  0.00    -0.206 F 
ATOM     80  C   UNL A   1      35.868  34.736  29.272  1.00  0.00     0.059 A 
ATOM     81  C   UNL A   1      34.279  33.645  30.748  1.00  0.00     0.059 A 
ATOM     82  F   UNL A   1      35.056  32.218  32.439  1.00  0.00    -0.206 F 
ATOM     83  C   UNL A   1      34.555  34.499  29.681  1.00  0.00     0.060 A 
BRANCH  83  84
ATOM     84  S   UNL A   1      33.209  35.288  28.773  1.00  0.00     0.124 S 
ATOM     85  O   UNL A   1      33.933  36.246  27.946  1.00  0.00    -0.237 OA
ATOM     86  O   UNL A   1      32.613  34.157  28.068  1.00  0.00    -0.237 OA
ATOM     87  O   UNL A   1      32.382  35.863  29.829  1.00  0.00    -0.744 OA
ENDBRANCH  83  84
ENDBRANCH  51  76
BRANCH  63  88
ATOM     88  C   UNL A   1      39.843  34.210  37.170  1.00  0.00     0.058 A 
ATOM     89  C   UNL A   1      39.035  33.988  38.296  1.00  0.00     0.135 A 
ATOM     90  C   UNL A   1      40.523  35.436  37.086  1.00  0.00     0.135 A 
ATOM     91  F   UNL A   1      38.359  32.835  38.425  1.00  0.00    -0.206 F 
ATOM     92  C   UNL A   1      38.872  34.959  39.278  1.00  0.00     0.059 A 
ATOM     93  C   UNL A   1      40.403  36.409  38.074  1.00  0.00     0.059 A 
ATOM     94  F   UNL A   1      41.322  35.697  36.039  1.00  0.00    -0.206 F 
ATOM     95  C   UNL A   1      39.558  36.169  39.157  1.00  0.00     0.060 A 
BRANCH  95  96
ATOM     96  S   UNL A   1      39.341  37.420  40.438  1.00  0.00     0.124 S 
ATOM     97  O   UNL A   1      38.342  38.292  39.830  1.00  0.00    -0.237 OA
ATOM     98  O   UNL A   1      38.885  36.628  41.575  1.00  0.00    -0.237 OA
ATOM     99  O   UNL A   1      40.675  37.998  40.579  1.00  0.00    -0.744 OA
ENDBRANCH  95  96
ENDBRANCH  63  88
ENDBRANCH  37  38
ENDBRANCH  29  32
ENDBRANCH  27  28
ENDBRANCH   1  27
TORSDOF 16
ENDMDL
