MODEL 1
REMARK VINA RESULT:     -12.0      0.000      0.000
REMARK SMILES O=C(NCc1ccc(C(=O)NCCCCNC(=O)c2ccc(-c3c4nc(c(-c5c(F)cc(S(=O)(=O)[O-])cc5F)c5ccc([nH]5)c(-c5c(F)cc(S(=O)(=O)[O-])cc5F)c5nc(c(-c6c(F)cc(S(=O)(=O)[O-])cc6F)c6ccc3[nH]6)C=C5)C=C4)cc2)cc1)Nc1ccccc1Br
REMARK SMILES IDX 13 1 12 2 11 3 9 4 10 5 8 7 5 8 6 9 86 10 7 11 85 12 4 13
REMARK SMILES IDX 3 14 1 15 2 16 87 17 88 20 89 21 93 22 90 23 92 24 94 25
REMARK SMILES IDX 91 26 14 27 15 28 16 29 17 30 18 32 19 33 20 34 84 35 21 36
REMARK SMILES IDX 83 37 22 38 23 39 24 40 77 41 25 42 82 43 76 44 78 45 26 46
REMARK SMILES IDX 81 47 75 48 74 49 27 51 61 52 40 53 60 54 41 55 44 56 59 57
REMARK SMILES IDX 79 58 42 59 43 60 58 62 80 63 45 64 28 65 29 66 38 67 30 68
REMARK SMILES IDX 31 69 37 70 39 71 32 72 33 73 34 74 35 75 36 76 62 77 63 78
REMARK SMILES IDX 72 79 64 80 65 81 71 82 73 83 66 84 67 85 68 86 69 87 70 88
REMARK SMILES IDX 46 89 47 90 56 91 48 92 49 93 55 94 57 95 50 96 51 97 52 98
REMARK SMILES IDX 53 99 54 100
REMARK H PARENT 11 6 3 18 87 19 16 31 78 50 44 61
REMARK Flexibility Score: inf
ROOT
ATOM      1  C   UNL A   1      33.014  29.321  24.844  1.00  0.00     0.023 C 
ENDROOT
BRANCH   1   2
ATOM      2  C   UNL A   1      33.200  29.106  23.340  1.00  0.00     0.116 C 
BRANCH   2   3
ATOM      3  N   UNL A   1      31.934  29.211  22.639  1.00  0.00    -0.352 N 
ATOM      4  C   UNL A   1      30.872  28.347  22.559  1.00  0.00     0.251 C 
ATOM      5  O   UNL A   1      29.861  28.711  21.961  1.00  0.00    -0.269 OA
ATOM      6  H   UNL A   1      31.816  30.048  22.135  1.00  0.00     0.163 HD
BRANCH   4   7
ATOM      7  C   UNL A   1      30.876  27.008  23.206  1.00  0.00     0.039 A 
ATOM      8  C   UNL A   1      30.992  24.419  24.315  1.00  0.00    -0.029 A 
ATOM      9  C   UNL A   1      31.586  24.687  23.076  1.00  0.00     0.006 A 
ATOM     10  C   UNL A   1      30.355  25.459  25.001  1.00  0.00     0.006 A 
ATOM     11  C   UNL A   1      31.534  25.972  22.531  1.00  0.00     0.014 A 
ATOM     12  C   UNL A   1      30.320  26.747  24.460  1.00  0.00     0.014 A 
BRANCH   8  13
ATOM     13  C   UNL A   1      31.012  23.028  24.888  1.00  0.00     0.153 C 
BRANCH  13  14
ATOM     14  N   UNL A   1      31.659  23.014  26.183  1.00  0.00    -0.334 N 
ATOM     15  O   UNL A   1      33.278  22.925  27.700  1.00  0.00    -0.248 OA
ATOM     16  C   UNL A   1      32.976  22.966  26.511  1.00  0.00     0.319 C 
ATOM     17  N   UNL A   1      33.857  23.038  25.471  1.00  0.00    -0.307 N 
ATOM     18  H   UNL A   1      31.042  23.042  26.950  1.00  0.00     0.165 HD
ATOM     19  H   UNL A   1      33.488  23.285  24.592  1.00  0.00     0.171 HD
BRANCH  17  20
ATOM     20  C   UNL A   1      35.247  22.794  25.533  1.00  0.00     0.057 A 
ATOM     21  C   UNL A   1      36.050  23.936  25.693  1.00  0.00     0.027 A 
ATOM     22  C   UNL A   1      35.878  21.542  25.417  1.00  0.00     0.041 A 
ATOM     23  C   UNL A   1      37.437  23.834  25.815  1.00  0.00     0.002 A 
ATOM     24  C   UNL A   1      37.272  21.447  25.551  1.00  0.00     0.018 A 
ATOM     25  Br  UNL A   1      35.002  19.950  24.849  1.00  0.00    -0.049 Br
ATOM     26  C   UNL A   1      38.046  22.586  25.762  1.00  0.00     0.001 A 
ENDBRANCH  17  20
ENDBRANCH  13  14
ENDBRANCH   8  13
ENDBRANCH   4   7
ENDBRANCH   2   3
ENDBRANCH   1   2
BRANCH   1  27
ATOM     27  C   UNL A   1      33.743  28.303  25.725  1.00  0.00     0.023 C 
BRANCH  27  28
ATOM     28  C   UNL A   1      33.521  28.479  27.220  1.00  0.00     0.116 C 
BRANCH  28  29
ATOM     29  N   UNL A   1      33.436  29.874  27.629  1.00  0.00    -0.352 N 
ATOM     30  C   UNL A   1      34.422  30.649  28.198  1.00  0.00     0.251 C 
ATOM     31  H   UNL A   1      32.569  30.316  27.479  1.00  0.00     0.163 HD
ATOM     32  O   UNL A   1      34.183  31.784  28.584  1.00  0.00    -0.269 OA
BRANCH  30  33
ATOM     33  C   UNL A   1      35.764  30.057  28.373  1.00  0.00     0.039 A 
ATOM     34  C   UNL A   1      36.656  30.075  27.298  1.00  0.00     0.014 A 
ATOM     35  C   UNL A   1      36.159  29.567  29.620  1.00  0.00     0.014 A 
ATOM     36  C   UNL A   1      37.978  29.672  27.497  1.00  0.00     0.010 A 
ATOM     37  C   UNL A   1      37.489  29.222  29.828  1.00  0.00     0.010 A 
ATOM     38  C   UNL A   1      38.413  29.284  28.773  1.00  0.00    -0.014 A 
BRANCH  38  39
ATOM     39  C   UNL A   1      39.830  28.946  29.049  1.00  0.00     0.031 A 
ATOM     40  C   UNL A   1      40.759  30.009  29.559  1.00  0.00     0.074 A 
ATOM     41  C   UNL A   1      40.300  27.722  28.736  1.00  0.00     0.049 A 
ATOM     42  N   UNL A   1      42.059  29.977  29.691  1.00  0.00    -0.248 NA
ATOM     43  C   UNL A   1      40.146  31.292  29.941  1.00  0.00     0.031 C 
ATOM     44  C   UNL A   1      39.500  26.617  28.202  1.00  0.00     0.029 A 
ATOM     45  N   UNL A   1      41.572  27.210  28.798  1.00  0.00    -0.354 N 
ATOM     46  C   UNL A   1      42.424  31.239  30.140  1.00  0.00     0.074 A 
ATOM     47  C   UNL A   1      41.211  32.025  30.227  1.00  0.00     0.031 C 
ATOM     48  C   UNL A   1      40.300  25.559  27.987  1.00  0.00     0.029 A 
ATOM     49  C   UNL A   1      41.672  25.921  28.330  1.00  0.00     0.049 A 
ATOM     50  H   UNL A   1      42.340  27.719  29.145  1.00  0.00     0.167 HD
ATOM     51  C   UNL A   1      43.656  31.698  30.460  1.00  0.00     0.037 A 
ATOM     52  C   UNL A   1      42.751  25.129  28.173  1.00  0.00     0.037 A 
ATOM     53  C   UNL A   1      44.851  30.899  30.407  1.00  0.00     0.049 A 
ATOM     54  C   UNL A   1      44.109  25.654  28.551  1.00  0.00     0.074 A 
ATOM     55  C   UNL A   1      46.140  31.253  30.764  1.00  0.00     0.029 A 
ATOM     56  N   UNL A   1      44.903  29.582  29.973  1.00  0.00    -0.354 N 
ATOM     57  N   UNL A   1      44.432  26.840  29.010  1.00  0.00    -0.248 NA
ATOM     58  C   UNL A   1      45.248  24.741  28.389  1.00  0.00     0.031 C 
ATOM     59  C   UNL A   1      46.976  30.157  30.523  1.00  0.00     0.029 A 
ATOM     60  C   UNL A   1      46.201  29.111  30.047  1.00  0.00     0.049 A 
ATOM     61  H   UNL A   1      44.129  29.060  29.660  1.00  0.00     0.167 HD
ATOM     62  C   UNL A   1      45.806  26.805  29.216  1.00  0.00     0.074 A 
ATOM     63  C   UNL A   1      46.254  25.482  28.835  1.00  0.00     0.031 C 
ATOM     64  C   UNL A   1      46.622  27.781  29.682  1.00  0.00     0.037 A 
BRANCH  51  65
ATOM     65  C   UNL A   1      43.770  33.129  30.899  1.00  0.00     0.058 A 
ATOM     66  C   UNL A   1      44.020  34.161  29.981  1.00  0.00     0.135 A 
ATOM     67  C   UNL A   1      43.608  33.477  32.250  1.00  0.00     0.135 A 
ATOM     68  F   UNL A   1      44.200  33.880  28.681  1.00  0.00    -0.206 F 
ATOM     69  C   UNL A   1      44.139  35.484  30.391  1.00  0.00     0.059 A 
ATOM     70  C   UNL A   1      43.699  34.797  32.679  1.00  0.00     0.059 A 
ATOM     71  F   UNL A   1      43.368  32.527  33.168  1.00  0.00    -0.206 F 
ATOM     72  C   UNL A   1      43.981  35.792  31.744  1.00  0.00     0.060 A 
BRANCH  72  73
ATOM     73  S   UNL A   1      44.144  37.513  32.264  1.00  0.00     0.124 S 
ATOM     74  O   UNL A   1      45.564  37.580  32.599  1.00  0.00    -0.237 OA
ATOM     75  O   UNL A   1      43.742  38.244  31.067  1.00  0.00    -0.237 OA
ATOM     76  O   UNL A   1      43.226  37.613  33.393  1.00  0.00    -0.744 OA
ENDBRANCH  72  73
ENDBRANCH  51  65
BRANCH  52  77
ATOM     77  C   UNL A   1      42.588  23.749  27.646  1.00  0.00     0.058 A 
ATOM     78  C   UNL A   1      42.460  22.660  28.520  1.00  0.00     0.135 A 
ATOM     79  C   UNL A   1      42.536  23.494  26.267  1.00  0.00     0.135 A 
ATOM     80  F   UNL A   1      42.511  22.854  29.845  1.00  0.00    -0.206 F 
ATOM     81  C   UNL A   1      42.300  21.362  28.046  1.00  0.00     0.059 A 
ATOM     82  C   UNL A   1      42.356  22.207  25.769  1.00  0.00     0.059 A 
ATOM     83  F   UNL A   1      42.636  24.506  25.392  1.00  0.00    -0.206 F 
ATOM     84  C   UNL A   1      42.247  21.145  26.668  1.00  0.00     0.060 A 
BRANCH  84  85
ATOM     85  S   UNL A   1      41.983  19.465  26.063  1.00  0.00     0.124 S 
ATOM     86  O   UNL A   1      40.545  19.465  25.816  1.00  0.00    -0.237 OA
ATOM     87  O   UNL A   1      42.834  19.425  24.877  1.00  0.00    -0.237 OA
ATOM     88  O   UNL A   1      42.434  18.635  27.175  1.00  0.00    -0.744 OA
ENDBRANCH  84  85
ENDBRANCH  52  77
BRANCH  64  89
ATOM     89  C   UNL A   1      48.077  27.452  29.849  1.00  0.00     0.058 A 
ATOM     90  C   UNL A   1      49.028  27.825  28.887  1.00  0.00     0.135 A 
ATOM     91  C   UNL A   1      48.534  26.840  31.027  1.00  0.00     0.135 A 
ATOM     92  F   UNL A   1      48.639  28.405  27.741  1.00  0.00    -0.206 F 
ATOM     93  C   UNL A   1      50.386  27.600  29.089  1.00  0.00     0.059 A 
ATOM     94  C   UNL A   1      49.888  26.624  31.257  1.00  0.00     0.059 A 
ATOM     95  F   UNL A   1      47.661  26.472  31.979  1.00  0.00    -0.206 F 
ATOM     96  C   UNL A   1      50.807  27.006  30.280  1.00  0.00     0.060 A 
BRANCH  96  97
ATOM     97  S   UNL A   1      52.577  26.787  30.564  1.00  0.00     0.124 S 
ATOM     98  O   UNL A   1      53.000  26.163  29.314  1.00  0.00    -0.237 OA
ATOM     99  O   UNL A   1      53.033  28.158  30.775  1.00  0.00    -0.237 OA
ATOM    100  O   UNL A   1      52.628  25.928  31.744  1.00  0.00    -0.744 OA
ENDBRANCH  96  97
ENDBRANCH  64  89
ENDBRANCH  38  39
ENDBRANCH  30  33
ENDBRANCH  28  29
ENDBRANCH  27  28
ENDBRANCH   1  27
TORSDOF 17
ENDMDL
MODEL 2
REMARK VINA RESULT:     -11.3      4.783     11.333
REMARK SMILES O=C(NCc1ccc(C(=O)NCCCCNC(=O)c2ccc(-c3c4nc(c(-c5c(F)cc(S(=O)(=O)[O-])cc5F)c5ccc([nH]5)c(-c5c(F)cc(S(=O)(=O)[O-])cc5F)c5nc(c(-c6c(F)cc(S(=O)(=O)[O-])cc6F)c6ccc3[nH]6)C=C5)C=C4)cc2)cc1)Nc1ccccc1Br
REMARK SMILES IDX 13 1 12 2 11 3 9 4 10 5 8 7 5 8 6 9 86 10 7 11 85 12 4 13
REMARK SMILES IDX 3 14 1 15 2 16 87 17 88 20 89 21 93 22 90 23 92 24 94 25
REMARK SMILES IDX 91 26 14 27 15 28 16 29 17 30 18 32 19 33 20 34 84 35 21 36
REMARK SMILES IDX 83 37 22 38 23 39 24 40 77 41 25 42 82 43 76 44 78 45 26 46
REMARK SMILES IDX 81 47 75 48 74 49 27 51 61 52 40 53 60 54 41 55 44 56 59 57
REMARK SMILES IDX 79 58 42 59 43 60 58 62 80 63 45 64 28 65 29 66 38 67 30 68
REMARK SMILES IDX 31 69 37 70 39 71 32 72 33 73 34 74 35 75 36 76 62 77 63 78
REMARK SMILES IDX 72 79 64 80 65 81 71 82 73 83 66 84 67 85 68 86 69 87 70 88
REMARK SMILES IDX 46 89 47 90 56 91 48 92 49 93 55 94 57 95 50 96 51 97 52 98
REMARK SMILES IDX 53 99 54 100
REMARK H PARENT 11 6 3 18 87 19 16 31 78 50 44 61
REMARK Flexibility Score: inf
ROOT
ATOM      1  C   UNL A   1      42.058  19.939  26.119  1.00  0.00     0.023 C 
ENDROOT
BRANCH   1   2
ATOM      2  C   UNL A   1      42.938  21.183  26.257  1.00  0.00     0.116 C 
BRANCH   2   3
ATOM      3  N   UNL A   1      44.270  20.939  25.736  1.00  0.00    -0.352 N 
ATOM      4  C   UNL A   1      45.345  21.776  25.575  1.00  0.00     0.251 C 
ATOM      5  O   UNL A   1      46.409  21.299  25.185  1.00  0.00    -0.269 OA
ATOM      6  H   UNL A   1      44.430  20.011  25.449  1.00  0.00     0.163 HD
BRANCH   4   7
ATOM      7  C   UNL A   1      45.287  23.226  25.899  1.00  0.00     0.039 A 
ATOM      8  C   UNL A   1      45.252  25.942  26.657  1.00  0.00    -0.029 A 
ATOM      9  C   UNL A   1      45.632  24.953  27.574  1.00  0.00     0.006 A 
ATOM     10  C   UNL A   1      44.907  25.561  25.355  1.00  0.00     0.006 A 
ATOM     11  C   UNL A   1      45.655  23.609  27.195  1.00  0.00     0.014 A 
ATOM     12  C   UNL A   1      44.948  24.217  24.975  1.00  0.00     0.014 A 
BRANCH   8  13
ATOM     13  C   UNL A   1      45.188  27.386  27.072  1.00  0.00     0.153 C 
BRANCH  13  14
ATOM     14  N   UNL A   1      43.877  27.939  26.807  1.00  0.00    -0.334 N 
ATOM     15  O   UNL A   1      42.279  29.450  26.492  1.00  0.00    -0.248 OA
ATOM     16  C   UNL A   1      43.471  29.230  26.684  1.00  0.00     0.319 C 
ATOM     17  N   UNL A   1      44.457  30.174  26.718  1.00  0.00    -0.307 N 
ATOM     18  H   UNL A   1      43.163  27.270  26.698  1.00  0.00     0.165 HD
ATOM     19  H   UNL A   1      45.385  29.851  26.660  1.00  0.00     0.171 HD
BRANCH  17  20
ATOM     20  C   UNL A   1      44.273  31.571  26.829  1.00  0.00     0.057 A 
ATOM     21  C   UNL A   1      44.211  32.266  25.609  1.00  0.00     0.027 A 
ATOM     22  C   UNL A   1      44.187  32.307  28.024  1.00  0.00     0.041 A 
ATOM     23  C   UNL A   1      43.987  33.643  25.572  1.00  0.00     0.002 A 
ATOM     24  C   UNL A   1      43.951  33.690  27.978  1.00  0.00     0.018 A 
ATOM     25  Br  UNL A   1      44.600  31.607  29.745  1.00  0.00    -0.049 Br
ATOM     26  C   UNL A   1      43.839  34.353  26.757  1.00  0.00     0.001 A 
ENDBRANCH  17  20
ENDBRANCH  13  14
ENDBRANCH   8  13
ENDBRANCH   4   7
ENDBRANCH   2   3
ENDBRANCH   1   2
BRANCH   1  27
ATOM     27  C   UNL A   1      40.556  20.210  26.225  1.00  0.00     0.023 C 
BRANCH  27  28
ATOM     28  C   UNL A   1      40.189  21.648  26.563  1.00  0.00     0.116 C 
BRANCH  28  29
ATOM     29  N   UNL A   1      39.088  22.164  25.761  1.00  0.00    -0.352 N 
ATOM     30  C   UNL A   1      38.550  23.432  25.783  1.00  0.00     0.251 C 
ATOM     31  H   UNL A   1      38.680  21.530  25.128  1.00  0.00     0.163 HD
ATOM     32  O   UNL A   1      37.558  23.702  25.123  1.00  0.00    -0.269 OA
BRANCH  30  33
ATOM     33  C   UNL A   1      39.175  24.443  26.659  1.00  0.00     0.039 A 
ATOM     34  C   UNL A   1      40.051  25.375  26.098  1.00  0.00     0.014 A 
ATOM     35  C   UNL A   1      38.825  24.515  28.010  1.00  0.00     0.014 A 
ATOM     36  C   UNL A   1      40.517  26.435  26.879  1.00  0.00     0.010 A 
ATOM     37  C   UNL A   1      39.245  25.602  28.767  1.00  0.00     0.010 A 
ATOM     38  C   UNL A   1      40.083  26.578  28.206  1.00  0.00    -0.014 A 
BRANCH  38  39
ATOM     39  C   UNL A   1      40.474  27.742  29.037  1.00  0.00     0.031 A 
ATOM     40  C   UNL A   1      41.732  27.680  29.853  1.00  0.00     0.074 A 
ATOM     41  C   UNL A   1      39.644  28.800  29.141  1.00  0.00     0.049 A 
ATOM     42  N   UNL A   1      42.160  28.501  30.776  1.00  0.00    -0.248 NA
ATOM     43  C   UNL A   1      42.611  26.521  29.622  1.00  0.00     0.031 C 
ATOM     44  C   UNL A   1      38.377  28.958  28.423  1.00  0.00     0.029 A 
ATOM     45  N   UNL A   1      39.731  29.931  29.913  1.00  0.00    -0.354 N 
ATOM     46  C   UNL A   1      43.338  27.945  31.259  1.00  0.00     0.074 A 
ATOM     47  C   UNL A   1      43.541  26.700  30.548  1.00  0.00     0.031 C 
ATOM     48  C   UNL A   1      37.807  30.119  28.788  1.00  0.00     0.029 A 
ATOM     49  C   UNL A   1      38.646  30.766  29.791  1.00  0.00     0.049 A 
ATOM     50  H   UNL A   1      40.498  30.125  30.499  1.00  0.00     0.167 HD
ATOM     51  C   UNL A   1      44.178  28.434  32.200  1.00  0.00     0.037 A 
ATOM     52  C   UNL A   1      38.350  31.914  30.433  1.00  0.00     0.037 A 
ATOM     53  C   UNL A   1      43.989  29.690  32.874  1.00  0.00     0.049 A 
ATOM     54  C   UNL A   1      39.307  32.447  31.464  1.00  0.00     0.074 A 
ATOM     55  C   UNL A   1      44.811  30.302  33.803  1.00  0.00     0.029 A 
ATOM     56  N   UNL A   1      42.901  30.532  32.686  1.00  0.00    -0.354 N 
ATOM     57  N   UNL A   1      40.437  31.928  31.882  1.00  0.00    -0.248 NA
ATOM     58  C   UNL A   1      38.953  33.717  32.112  1.00  0.00     0.031 C 
ATOM     59  C   UNL A   1      44.209  31.502  34.196  1.00  0.00     0.029 A 
ATOM     60  C   UNL A   1      43.028  31.653  33.487  1.00  0.00     0.049 A 
ATOM     61  H   UNL A   1      42.151  30.357  32.074  1.00  0.00     0.167 HD
ATOM     62  C   UNL A   1      40.940  32.820  32.822  1.00  0.00     0.074 A 
ATOM     63  C   UNL A   1      39.994  33.913  32.911  1.00  0.00     0.031 C 
ATOM     64  C   UNL A   1      42.084  32.741  33.544  1.00  0.00     0.037 A 
BRANCH  51  65
ATOM     65  C   UNL A   1      45.380  27.606  32.552  1.00  0.00     0.058 A 
ATOM     66  C   UNL A   1      45.348  26.672  33.598  1.00  0.00     0.135 A 
ATOM     67  C   UNL A   1      46.574  27.734  31.823  1.00  0.00     0.135 A 
ATOM     68  F   UNL A   1      44.237  26.523  34.337  1.00  0.00    -0.206 F 
ATOM     69  C   UNL A   1      46.466  25.916  33.932  1.00  0.00     0.059 A 
ATOM     70  C   UNL A   1      47.697  26.971  32.124  1.00  0.00     0.059 A 
ATOM     71  F   UNL A   1      46.657  28.615  30.813  1.00  0.00    -0.206 F 
ATOM     72  C   UNL A   1      47.638  26.076  33.192  1.00  0.00     0.060 A 
BRANCH  72  73
ATOM     73  S   UNL A   1      49.085  25.093  33.639  1.00  0.00     0.124 S 
ATOM     74  O   UNL A   1      48.468  23.979  34.352  1.00  0.00    -0.237 OA
ATOM     75  O   UNL A   1      49.661  24.770  32.338  1.00  0.00    -0.237 OA
ATOM     76  O   UNL A   1      49.873  26.006  34.460  1.00  0.00    -0.744 OA
ENDBRANCH  72  73
ENDBRANCH  51  65
BRANCH  52  77
ATOM     77  C   UNL A   1      37.098  32.644  30.107  1.00  0.00     0.058 A 
ATOM     78  C   UNL A   1      35.927  32.422  30.846  1.00  0.00     0.135 A 
ATOM     79  C   UNL A   1      37.049  33.589  29.071  1.00  0.00     0.135 A 
ATOM     80  F   UNL A   1      35.923  31.523  31.841  1.00  0.00    -0.206 F 
ATOM     81  C   UNL A   1      34.747  33.101  30.562  1.00  0.00     0.059 A 
ATOM     82  C   UNL A   1      35.886  34.296  28.780  1.00  0.00     0.059 A 
ATOM     83  F   UNL A   1      38.149  33.849  28.347  1.00  0.00    -0.206 F 
ATOM     84  C   UNL A   1      34.737  34.038  29.527  1.00  0.00     0.060 A 
BRANCH  84  85
ATOM     85  S   UNL A   1      33.216  34.955  29.201  1.00  0.00     0.124 S 
ATOM     86  O   UNL A   1      32.592  34.131  28.172  1.00  0.00    -0.237 OA
ATOM     87  O   UNL A   1      32.564  34.949  30.507  1.00  0.00    -0.237 OA
ATOM     88  O   UNL A   1      33.701  36.259  28.759  1.00  0.00    -0.744 OA
ENDBRANCH  84  85
ENDBRANCH  52  77
BRANCH  64  89
ATOM     89  C   UNL A   1      42.406  33.881  34.465  1.00  0.00     0.058 A 
ATOM     90  C   UNL A   1      42.087  33.834  35.830  1.00  0.00     0.135 A 
ATOM     91  C   UNL A   1      43.123  34.991  33.992  1.00  0.00     0.135 A 
ATOM     92  F   UNL A   1      41.395  32.797  36.327  1.00  0.00    -0.206 F 
ATOM     93  C   UNL A   1      42.470  34.852  36.698  1.00  0.00     0.059 A 
ATOM     94  C   UNL A   1      43.533  36.011  34.846  1.00  0.00     0.059 A 
ATOM     95  F   UNL A   1      43.457  35.078  32.694  1.00  0.00    -0.206 F 
ATOM     96  C   UNL A   1      43.199  35.933  36.198  1.00  0.00     0.060 A 
BRANCH  96  97
ATOM     97  S   UNL A   1      43.755  37.212  37.345  1.00  0.00     0.124 S 
ATOM     98  O   UNL A   1      44.012  38.327  36.439  1.00  0.00    -0.237 OA
ATOM     99  O   UNL A   1      42.601  37.365  38.227  1.00  0.00    -0.237 OA
ATOM    100  O   UNL A   1      44.936  36.620  37.966  1.00  0.00    -0.744 OA
ENDBRANCH  96  97
ENDBRANCH  64  89
ENDBRANCH  38  39
ENDBRANCH  30  33
ENDBRANCH  28  29
ENDBRANCH  27  28
ENDBRANCH   1  27
TORSDOF 17
ENDMDL
MODEL 3
REMARK VINA RESULT:     -11.2      3.440      6.659
REMARK SMILES O=C(NCc1ccc(C(=O)NCCCCNC(=O)c2ccc(-c3c4nc(c(-c5c(F)cc(S(=O)(=O)[O-])cc5F)c5ccc([nH]5)c(-c5c(F)cc(S(=O)(=O)[O-])cc5F)c5nc(c(-c6c(F)cc(S(=O)(=O)[O-])cc6F)c6ccc3[nH]6)C=C5)C=C4)cc2)cc1)Nc1ccccc1Br
REMARK SMILES IDX 13 1 12 2 11 3 9 4 10 5 8 7 5 8 6 9 86 10 7 11 85 12 4 13
REMARK SMILES IDX 3 14 1 15 2 16 87 17 88 20 89 21 93 22 90 23 92 24 94 25
REMARK SMILES IDX 91 26 14 27 15 28 16 29 17 30 18 32 19 33 20 34 84 35 21 36
REMARK SMILES IDX 83 37 22 38 23 39 24 40 77 41 25 42 82 43 76 44 78 45 26 46
REMARK SMILES IDX 81 47 75 48 74 49 27 51 61 52 40 53 60 54 41 55 44 56 59 57
REMARK SMILES IDX 79 58 42 59 43 60 58 62 80 63 45 64 28 65 29 66 38 67 30 68
REMARK SMILES IDX 31 69 37 70 39 71 32 72 33 73 34 74 35 75 36 76 62 77 63 78
REMARK SMILES IDX 72 79 64 80 65 81 71 82 73 83 66 84 67 85 68 86 69 87 70 88
REMARK SMILES IDX 46 89 47 90 56 91 48 92 49 93 55 94 57 95 50 96 51 97 52 98
REMARK SMILES IDX 53 99 54 100
REMARK H PARENT 11 6 3 18 87 19 16 31 78 50 44 61
REMARK Flexibility Score: inf
ROOT
ATOM      1  C   UNL A   1      35.437  33.940  29.845  1.00  0.00     0.023 C 
ENDROOT
BRANCH   1   2
ATOM      2  C   UNL A   1      36.812  33.698  30.473  1.00  0.00     0.116 C 
BRANCH   2   3
ATOM      3  N   UNL A   1      36.920  34.357  31.760  1.00  0.00    -0.352 N 
ATOM      4  C   UNL A   1      37.550  33.979  32.919  1.00  0.00     0.251 C 
ATOM      5  O   UNL A   1      37.569  34.766  33.863  1.00  0.00    -0.269 OA
ATOM      6  H   UNL A   1      36.463  35.227  31.811  1.00  0.00     0.163 HD
BRANCH   4   7
ATOM      7  C   UNL A   1      38.250  32.675  33.061  1.00  0.00     0.039 A 
ATOM      8  C   UNL A   1      39.708  30.284  33.397  1.00  0.00    -0.029 A 
ATOM      9  C   UNL A   1      40.321  31.526  33.608  1.00  0.00     0.006 A 
ATOM     10  C   UNL A   1      38.357  30.250  33.033  1.00  0.00     0.006 A 
ATOM     11  C   UNL A   1      39.596  32.709  33.448  1.00  0.00     0.014 A 
ATOM     12  C   UNL A   1      37.630  31.435  32.891  1.00  0.00     0.014 A 
BRANCH   8  13
ATOM     13  C   UNL A   1      40.494  29.010  33.530  1.00  0.00     0.153 C 
BRANCH  13  14
ATOM     14  N   UNL A   1      41.787  29.134  32.891  1.00  0.00    -0.334 N 
ATOM     15  O   UNL A   1      43.939  28.792  32.462  1.00  0.00    -0.248 OA
ATOM     16  C   UNL A   1      42.954  28.478  33.123  1.00  0.00     0.319 C 
ATOM     17  N   UNL A   1      42.901  27.465  34.037  1.00  0.00    -0.307 N 
ATOM     18  H   UNL A   1      41.827  29.804  32.171  1.00  0.00     0.165 HD
ATOM     19  H   UNL A   1      42.007  27.178  34.331  1.00  0.00     0.171 HD
BRANCH  17  20
ATOM     20  C   UNL A   1      44.007  26.790  34.602  1.00  0.00     0.057 A 
ATOM     21  C   UNL A   1      44.456  27.299  35.832  1.00  0.00     0.027 A 
ATOM     22  C   UNL A   1      44.697  25.705  34.033  1.00  0.00     0.041 A 
ATOM     23  C   UNL A   1      45.511  26.699  36.522  1.00  0.00     0.002 A 
ATOM     24  C   UNL A   1      45.750  25.100  34.738  1.00  0.00     0.018 A 
ATOM     25  Br  UNL A   1      44.471  25.112  32.239  1.00  0.00    -0.049 Br
ATOM     26  C   UNL A   1      46.146  25.587  35.983  1.00  0.00     0.001 A 
ENDBRANCH  17  20
ENDBRANCH  13  14
ENDBRANCH   8  13
ENDBRANCH   4   7
ENDBRANCH   2   3
ENDBRANCH   1   2
BRANCH   1  27
ATOM     27  C   UNL A   1      34.624  32.670  29.588  1.00  0.00     0.023 C 
BRANCH  27  28
ATOM     28  C   UNL A   1      34.413  32.334  28.118  1.00  0.00     0.116 C 
BRANCH  28  29
ATOM     29  N   UNL A   1      33.799  31.030  27.909  1.00  0.00    -0.352 N 
ATOM     30  C   UNL A   1      34.411  29.796  27.932  1.00  0.00     0.251 C 
ATOM     31  H   UNL A   1      32.831  31.032  27.730  1.00  0.00     0.163 HD
ATOM     32  O   UNL A   1      33.790  28.784  27.642  1.00  0.00    -0.269 OA
BRANCH  30  33
ATOM     33  C   UNL A   1      35.846  29.732  28.272  1.00  0.00     0.039 A 
ATOM     34  C   UNL A   1      36.219  29.347  29.563  1.00  0.00     0.014 A 
ATOM     35  C   UNL A   1      36.812  29.969  27.292  1.00  0.00     0.014 A 
ATOM     36  C   UNL A   1      37.567  29.122  29.849  1.00  0.00     0.010 A 
ATOM     37  C   UNL A   1      38.146  29.689  27.563  1.00  0.00     0.010 A 
ATOM     38  C   UNL A   1      38.534  29.250  28.839  1.00  0.00    -0.014 A 
BRANCH  38  39
ATOM     39  C   UNL A   1      39.961  28.923  29.075  1.00  0.00     0.031 A 
ATOM     40  C   UNL A   1      40.897  29.994  29.554  1.00  0.00     0.074 A 
ATOM     41  C   UNL A   1      40.430  27.701  28.751  1.00  0.00     0.049 A 
ATOM     42  N   UNL A   1      42.200  29.971  29.649  1.00  0.00    -0.248 NA
ATOM     43  C   UNL A   1      40.286  31.274  29.950  1.00  0.00     0.031 C 
ATOM     44  C   UNL A   1      39.623  26.589  28.243  1.00  0.00     0.029 A 
ATOM     45  N   UNL A   1      41.707  27.198  28.778  1.00  0.00    -0.354 N 
ATOM     46  C   UNL A   1      42.569  31.238  30.083  1.00  0.00     0.074 A 
ATOM     47  C   UNL A   1      41.354  32.015  30.204  1.00  0.00     0.031 C 
ATOM     48  C   UNL A   1      40.424  25.536  28.008  1.00  0.00     0.029 A 
ATOM     49  C   UNL A   1      41.802  25.909  28.310  1.00  0.00     0.049 A 
ATOM     50  H   UNL A   1      42.481  27.713  29.101  1.00  0.00     0.167 HD
ATOM     51  C   UNL A   1      43.807  31.705  30.366  1.00  0.00     0.037 A 
ATOM     52  C   UNL A   1      42.882  25.124  28.124  1.00  0.00     0.037 A 
ATOM     53  C   UNL A   1      45.006  30.915  30.280  1.00  0.00     0.049 A 
ATOM     54  C   UNL A   1      44.246  25.660  28.461  1.00  0.00     0.074 A 
ATOM     55  C   UNL A   1      46.302  31.279  30.599  1.00  0.00     0.029 A 
ATOM     56  N   UNL A   1      45.054  29.597  29.849  1.00  0.00    -0.354 N 
ATOM     57  N   UNL A   1      44.575  26.849  28.908  1.00  0.00    -0.248 NA
ATOM     58  C   UNL A   1      45.387  24.754  28.269  1.00  0.00     0.031 C 
ATOM     59  C   UNL A   1      47.138  30.188  30.337  1.00  0.00     0.029 A 
ATOM     60  C   UNL A   1      46.357  29.135  29.886  1.00  0.00     0.049 A 
ATOM     61  H   UNL A   1      44.275  29.069  29.560  1.00  0.00     0.167 HD
ATOM     62  C   UNL A   1      45.954  26.824  29.074  1.00  0.00     0.074 A 
ATOM     63  C   UNL A   1      46.400  25.503  28.683  1.00  0.00     0.031 C 
ATOM     64  C   UNL A   1      46.777  27.807  29.513  1.00  0.00     0.037 A 
BRANCH  51  65
ATOM     65  C   UNL A   1      43.923  33.138  30.798  1.00  0.00     0.058 A 
ATOM     66  C   UNL A   1      43.823  33.509  32.148  1.00  0.00     0.135 A 
ATOM     67  C   UNL A   1      44.155  34.153  29.854  1.00  0.00     0.135 A 
ATOM     68  F   UNL A   1      43.585  32.581  33.087  1.00  0.00    -0.206 F 
ATOM     69  C   UNL A   1      43.916  34.838  32.545  1.00  0.00     0.059 A 
ATOM     70  C   UNL A   1      44.276  35.486  30.232  1.00  0.00     0.059 A 
ATOM     71  F   UNL A   1      44.257  33.851  28.550  1.00  0.00    -0.206 F 
ATOM     72  C   UNL A   1      44.138  35.821  31.578  1.00  0.00     0.060 A 
BRANCH  72  73
ATOM     73  S   UNL A   1      44.251  37.544  32.106  1.00  0.00     0.124 S 
ATOM     74  O   UNL A   1      43.265  37.581  33.182  1.00  0.00    -0.237 OA
ATOM     75  O   UNL A   1      45.646  37.655  32.522  1.00  0.00    -0.237 OA
ATOM     76  O   UNL A   1      43.899  38.290  30.903  1.00  0.00    -0.744 OA
ENDBRANCH  72  73
ENDBRANCH  51  65
BRANCH  52  77
ATOM     77  C   UNL A   1      42.713  23.742  27.606  1.00  0.00     0.058 A 
ATOM     78  C   UNL A   1      42.565  22.660  28.486  1.00  0.00     0.135 A 
ATOM     79  C   UNL A   1      42.677  23.476  26.229  1.00  0.00     0.135 A 
ATOM     80  F   UNL A   1      42.601  22.865  29.811  1.00  0.00    -0.206 F 
ATOM     81  C   UNL A   1      42.399  21.360  28.021  1.00  0.00     0.059 A 
ATOM     82  C   UNL A   1      42.491  22.187  25.738  1.00  0.00     0.059 A 
ATOM     83  F   UNL A   1      42.797  24.481  25.347  1.00  0.00    -0.206 F 
ATOM     84  C   UNL A   1      42.361  21.133  26.644  1.00  0.00     0.060 A 
BRANCH  84  85
ATOM     85  S   UNL A   1      42.090  19.450  26.048  1.00  0.00     0.124 S 
ATOM     86  O   UNL A   1      42.535  18.660  27.190  1.00  0.00    -0.237 OA
ATOM     87  O   UNL A   1      40.654  19.442  25.787  1.00  0.00    -0.237 OA
ATOM     88  O   UNL A   1      42.934  19.377  24.859  1.00  0.00    -0.744 OA
ENDBRANCH  84  85
ENDBRANCH  52  77
BRANCH  64  89
ATOM     89  C   UNL A   1      48.238  27.489  29.638  1.00  0.00     0.058 A 
ATOM     90  C   UNL A   1      49.157  27.861  28.646  1.00  0.00     0.135 A 
ATOM     91  C   UNL A   1      48.733  26.887  30.806  1.00  0.00     0.135 A 
ATOM     92  F   UNL A   1      48.731  28.432  27.509  1.00  0.00    -0.206 F 
ATOM     93  C   UNL A   1      50.522  27.647  28.808  1.00  0.00     0.059 A 
ATOM     94  C   UNL A   1      50.096  26.681  30.997  1.00  0.00     0.059 A 
ATOM     95  F   UNL A   1      47.892  26.520  31.786  1.00  0.00    -0.206 F 
ATOM     96  C   UNL A   1      50.983  27.063  29.990  1.00  0.00     0.060 A 
BRANCH  96  97
ATOM     97  S   UNL A   1      52.762  26.857  30.223  1.00  0.00     0.124 S 
ATOM     98  O   UNL A   1      53.161  26.288  28.940  1.00  0.00    -0.237 OA
ATOM     99  O   UNL A   1      53.205  28.225  30.476  1.00  0.00    -0.237 OA
ATOM    100  O   UNL A   1      52.852  25.955  31.367  1.00  0.00    -0.744 OA
ENDBRANCH  96  97
ENDBRANCH  64  89
ENDBRANCH  38  39
ENDBRANCH  30  33
ENDBRANCH  28  29
ENDBRANCH  27  28
ENDBRANCH   1  27
TORSDOF 17
ENDMDL
