MODEL 1
REMARK VINA RESULT:     -11.6      0.000      0.000
REMARK SMILES C=CCOc1ccccc1/C=C1\SC(=S)N(CC(=O)NCCCCNC(=O)c2ccc(-c3c4nc(c(-c5c(F)cc(S(=O)(=O)[O-])cc5F)c5ccc([nH]5)c(-c5c(F)cc(S(=O)(=O)[O-])cc5F)c5nc(c(-c6c(F)cc(S(=O)(=O)[O-])cc6F)c6ccc3[nH]6)C=C5)C=C4)cc2)C1=O
REMARK SMILES IDX 21 1 20 2 18 3 19 4 17 6 16 7 11 8 12 9 13 10 94 11 14 12
REMARK SMILES IDX 95 13 15 14 10 15 5 16 6 17 7 18 9 19 8 20 4 21 3 22 2 23
REMARK SMILES IDX 1 24 22 25 23 26 24 27 25 28 26 29 27 31 28 32 29 33 93 34
REMARK SMILES IDX 30 35 92 36 31 37 32 38 33 39 86 40 34 41 91 42 85 43 87 44
REMARK SMILES IDX 35 45 90 46 84 47 83 48 36 50 70 51 49 52 69 53 50 54 53 55
REMARK SMILES IDX 68 56 88 57 51 58 52 59 67 61 89 62 54 63 37 64 38 65 47 66
REMARK SMILES IDX 39 67 40 68 46 69 48 70 41 71 42 72 43 73 44 74 45 75 71 76
REMARK SMILES IDX 72 77 81 78 73 79 74 80 80 81 82 82 75 83 76 84 77 85 78 86
REMARK SMILES IDX 79 87 55 88 56 89 65 90 57 91 58 92 64 93 66 94 59 95 60 96
REMARK SMILES IDX 61 97 62 98 63 99
REMARK H PARENT 20 5 25 30 87 49 53 60
REMARK Flexibility Score: inf
ROOT
ATOM      1  C   UNL A   1      32.019  29.983  25.935  1.00  0.00     0.116 C 
ENDROOT
BRANCH   1   2
ATOM      2  N   UNL A   1      32.835  29.769  24.759  1.00  0.00    -0.355 N 
ATOM      3  C   UNL A   1      32.811  28.763  23.840  1.00  0.00     0.240 C 
ATOM      4  O   UNL A   1      33.414  28.957  22.780  1.00  0.00    -0.273 OA
ATOM      5  H   UNL A   1      33.516  30.461  24.598  1.00  0.00     0.163 HD
BRANCH   3   6
ATOM      6  C   UNL A   1      31.919  27.526  23.996  1.00  0.00     0.227 C 
BRANCH   6   7
ATOM      7  N   UNL A   1      32.597  26.237  23.919  1.00  0.00    -0.283 N 
ATOM      8  C   UNL A   1      34.647  23.910  25.752  1.00  0.00     0.033 C 
ATOM      9  C   UNL A   1      33.885  24.482  24.810  1.00  0.00     0.081 C 
ATOM     10  S   UNL A   1      33.708  24.048  23.158  1.00  0.00    -0.054 SA
ATOM     11  C   UNL A   1      33.142  25.737  25.090  1.00  0.00     0.266 C 
ATOM     12  C   UNL A   1      32.884  25.546  22.761  1.00  0.00     0.148 C 
ATOM     13  O   UNL A   1      33.068  26.259  26.193  1.00  0.00    -0.268 OA
ATOM     14  S   UNL A   1      32.559  25.980  21.183  1.00  0.00    -0.052 S 
BRANCH   8  15
ATOM     15  C   UNL A   1      35.659  22.875  25.512  1.00  0.00     0.018 A 
ATOM     16  C   UNL A   1      35.311  21.522  25.341  1.00  0.00     0.127 A 
ATOM     17  C   UNL A   1      36.293  20.554  25.131  1.00  0.00     0.047 A 
ATOM     18  C   UNL A   1      37.629  20.939  25.017  1.00  0.00     0.004 A 
ATOM     19  C   UNL A   1      37.000  23.251  25.372  1.00  0.00     0.012 A 
ATOM     20  C   UNL A   1      37.980  22.285  25.125  1.00  0.00     0.001 A 
BRANCH  16  21
ATOM     21  O   UNL A   1      34.007  21.097  25.454  1.00  0.00    -0.489 OA
BRANCH  21  22
ATOM     22  C   UNL A   1      33.820  19.783  24.917  1.00  0.00     0.257 C 
BRANCH  22  23
ATOM     23  C   UNL A   1      32.564  19.748  24.094  1.00  0.00     0.006 C 
ATOM     24  C   UNL A   1      32.195  20.709  23.236  1.00  0.00     0.007 C 
ENDBRANCH  22  23
ENDBRANCH  21  22
ENDBRANCH  16  21
ENDBRANCH   8  15
ENDBRANCH   6   7
ENDBRANCH   3   6
ENDBRANCH   1   2
BRANCH   1  25
ATOM     25  C   UNL A   1      32.846  30.274  27.185  1.00  0.00     0.023 C 
BRANCH  25  26
ATOM     26  C   UNL A   1      33.898  29.222  27.528  1.00  0.00     0.023 C 
BRANCH  26  27
ATOM     27  C   UNL A   1      35.280  29.772  27.839  1.00  0.00     0.116 C 
BRANCH  27  28
ATOM     28  N   UNL A   1      35.339  30.500  29.097  1.00  0.00    -0.352 N 
ATOM     29  C   UNL A   1      36.400  30.621  29.965  1.00  0.00     0.251 C 
ATOM     30  H   UNL A   1      34.514  30.968  29.361  1.00  0.00     0.163 HD
ATOM     31  O   UNL A   1      36.256  31.185  31.041  1.00  0.00    -0.269 OA
BRANCH  29  32
ATOM     32  C   UNL A   1      37.699  30.020  29.596  1.00  0.00     0.039 A 
ATOM     33  C   UNL A   1      38.058  29.970  28.247  1.00  0.00     0.014 A 
ATOM     34  C   UNL A   1      38.577  29.561  30.582  1.00  0.00     0.014 A 
ATOM     35  C   UNL A   1      39.332  29.523  27.893  1.00  0.00     0.010 A 
ATOM     36  C   UNL A   1      39.869  29.190  30.233  1.00  0.00     0.010 A 
ATOM     37  C   UNL A   1      40.260  29.167  28.885  1.00  0.00    -0.014 A 
BRANCH  37  38
ATOM     38  C   UNL A   1      41.647  28.768  28.538  1.00  0.00     0.031 A 
ATOM     39  C   UNL A   1      42.735  29.805  28.495  1.00  0.00     0.074 A 
ATOM     40  C   UNL A   1      41.906  27.493  28.190  1.00  0.00     0.049 A 
ATOM     41  N   UNL A   1      43.986  29.673  28.137  1.00  0.00    -0.248 NA
ATOM     42  C   UNL A   1      42.362  31.176  28.877  1.00  0.00     0.031 C 
ATOM     43  C   UNL A   1      40.920  26.410  28.139  1.00  0.00     0.029 A 
ATOM     44  N   UNL A   1      43.076  26.892  27.800  1.00  0.00    -0.354 N 
ATOM     45  C   UNL A   1      44.541  30.944  28.227  1.00  0.00     0.074 A 
ATOM     46  C   UNL A   1      43.481  31.841  28.628  1.00  0.00     0.031 C 
ATOM     47  C   UNL A   1      41.531  25.275  27.763  1.00  0.00     0.029 A 
ATOM     48  C   UNL A   1      42.941  25.554  27.513  1.00  0.00     0.049 A 
ATOM     49  H   UNL A   1      43.932  27.374  27.732  1.00  0.00     0.167 HD
ATOM     50  C   UNL A   1      45.824  31.322  28.019  1.00  0.00     0.037 A 
ATOM     51  C   UNL A   1      43.852  24.655  27.091  1.00  0.00     0.037 A 
ATOM     52  C   UNL A   1      46.882  30.417  27.658  1.00  0.00     0.049 A 
ATOM     53  C   UNL A   1      45.275  25.096  26.887  1.00  0.00     0.074 A 
ATOM     54  C   UNL A   1      48.229  30.688  27.492  1.00  0.00     0.029 A 
ATOM     55  N   UNL A   1      46.714  29.062  27.409  1.00  0.00    -0.354 N 
ATOM     56  N   UNL A   1      45.798  26.290  27.042  1.00  0.00    -0.248 NA
ATOM     57  C   UNL A   1      46.236  24.070  26.459  1.00  0.00     0.031 C 
ATOM     58  C   UNL A   1      48.870  29.504  27.111  1.00  0.00     0.029 A 
ATOM     59  C   UNL A   1      47.929  28.487  27.078  1.00  0.00     0.049 A 
ATOM     60  H   UNL A   1      45.857  28.581  27.462  1.00  0.00     0.167 HD
ATOM     61  C   UNL A   1      47.151  26.153  26.755  1.00  0.00     0.074 A 
ATOM     62  C   UNL A   1      47.369  24.757  26.427  1.00  0.00     0.031 C 
ATOM     63  C   UNL A   1      48.126  27.094  26.764  1.00  0.00     0.037 A 
BRANCH  50  64
ATOM     64  C   UNL A   1      46.154  32.779  28.187  1.00  0.00     0.058 A 
ATOM     65  C   UNL A   1      46.076  33.680  27.112  1.00  0.00     0.135 A 
ATOM     66  C   UNL A   1      46.526  33.288  29.441  1.00  0.00     0.135 A 
ATOM     67  F   UNL A   1      45.742  33.243  25.887  1.00  0.00    -0.206 F 
ATOM     68  C   UNL A   1      46.386  35.026  27.267  1.00  0.00     0.059 A 
ATOM     69  C   UNL A   1      46.816  34.637  29.626  1.00  0.00     0.059 A 
ATOM     70  F   UNL A   1      46.617  32.471  30.502  1.00  0.00    -0.206 F 
ATOM     71  C   UNL A   1      46.757  35.495  28.528  1.00  0.00     0.060 A 
BRANCH  71  72
ATOM     72  S   UNL A   1      47.156  37.246  28.715  1.00  0.00     0.124 S 
ATOM     73  O   UNL A   1      47.245  37.674  27.322  1.00  0.00    -0.237 OA
ATOM     74  O   UNL A   1      46.006  37.751  29.460  1.00  0.00    -0.237 OA
ATOM     75  O   UNL A   1      48.416  37.230  29.450  1.00  0.00    -0.744 OA
ENDBRANCH  71  72
ENDBRANCH  50  64
BRANCH  51  76
ATOM     76  C   UNL A   1      43.452  23.242  26.864  1.00  0.00     0.058 A 
ATOM     77  C   UNL A   1      43.336  22.728  25.564  1.00  0.00     0.135 A 
ATOM     78  C   UNL A   1      43.194  22.374  27.936  1.00  0.00     0.135 A 
ATOM     79  F   UNL A   1      43.569  23.522  24.507  1.00  0.00    -0.206 F 
ATOM     80  C   UNL A   1      42.962  21.410  25.331  1.00  0.00     0.059 A 
ATOM     81  C   UNL A   1      42.840  21.043  27.729  1.00  0.00     0.059 A 
ATOM     82  F   UNL A   1      43.309  22.812  29.199  1.00  0.00    -0.206 F 
ATOM     83  C   UNL A   1      42.717  20.573  26.422  1.00  0.00     0.060 A 
BRANCH  83  84
ATOM     84  S   UNL A   1      42.281  18.849  26.111  1.00  0.00     0.124 S 
ATOM     85  O   UNL A   1      42.489  18.252  27.425  1.00  0.00    -0.237 OA
ATOM     86  O   UNL A   1      40.894  18.955  25.670  1.00  0.00    -0.237 OA
ATOM     87  O   UNL A   1      43.229  18.446  25.076  1.00  0.00    -0.744 OA
ENDBRANCH  83  84
ENDBRANCH  51  76
BRANCH  63  88
ATOM     88  C   UNL A   1      49.523  26.645  26.441  1.00  0.00     0.058 A 
ATOM     89  C   UNL A   1      50.321  25.986  27.389  1.00  0.00     0.135 A 
ATOM     90  C   UNL A   1      50.047  26.827  25.152  1.00  0.00     0.135 A 
ATOM     91  F   UNL A   1      49.867  25.793  28.637  1.00  0.00    -0.206 F 
ATOM     92  C   UNL A   1      51.600  25.541  27.075  1.00  0.00     0.059 A 
ATOM     93  C   UNL A   1      51.315  26.369  24.809  1.00  0.00     0.059 A 
ATOM     94  F   UNL A   1      49.320  27.443  24.207  1.00  0.00    -0.206 F 
ATOM     95  C   UNL A   1      52.089  25.736  25.781  1.00  0.00     0.060 A 
BRANCH  95  96
ATOM     96  S   UNL A   1      53.737  25.121  25.373  1.00  0.00     0.124 S 
ATOM     97  O   UNL A   1      54.555  25.786  26.382  1.00  0.00    -0.237 OA
ATOM     98  O   UNL A   1      53.582  23.678  25.533  1.00  0.00    -0.237 OA
ATOM     99  O   UNL A   1      53.938  25.576  24.001  1.00  0.00    -0.744 OA
ENDBRANCH  95  96
ENDBRANCH  63  88
ENDBRANCH  37  38
ENDBRANCH  29  32
ENDBRANCH  27  28
ENDBRANCH  26  27
ENDBRANCH  25  26
ENDBRANCH   1  25
TORSDOF 19
ENDMDL
MODEL 2
REMARK VINA RESULT:     -11.4      0.769      8.137
REMARK SMILES C=CCOc1ccccc1/C=C1\SC(=S)N(CC(=O)NCCCCNC(=O)c2ccc(-c3c4nc(c(-c5c(F)cc(S(=O)(=O)[O-])cc5F)c5ccc([nH]5)c(-c5c(F)cc(S(=O)(=O)[O-])cc5F)c5nc(c(-c6c(F)cc(S(=O)(=O)[O-])cc6F)c6ccc3[nH]6)C=C5)C=C4)cc2)C1=O
REMARK SMILES IDX 21 1 20 2 18 3 19 4 17 6 16 7 11 8 12 9 13 10 94 11 14 12
REMARK SMILES IDX 95 13 15 14 10 15 5 16 6 17 7 18 9 19 8 20 4 21 3 22 2 23
REMARK SMILES IDX 1 24 22 25 23 26 24 27 25 28 26 29 27 31 28 32 29 33 93 34
REMARK SMILES IDX 30 35 92 36 31 37 32 38 33 39 86 40 34 41 91 42 85 43 87 44
REMARK SMILES IDX 35 45 90 46 84 47 83 48 36 50 70 51 49 52 69 53 50 54 53 55
REMARK SMILES IDX 68 56 88 57 51 58 52 59 67 61 89 62 54 63 37 64 38 65 47 66
REMARK SMILES IDX 39 67 40 68 46 69 48 70 41 71 42 72 43 73 44 74 45 75 71 76
REMARK SMILES IDX 72 77 81 78 73 79 74 80 80 81 82 82 75 83 76 84 77 85 78 86
REMARK SMILES IDX 79 87 55 88 56 89 65 90 57 91 58 92 64 93 66 94 59 95 60 96
REMARK SMILES IDX 61 97 62 98 63 99
REMARK H PARENT 20 5 25 30 87 49 53 60
REMARK Flexibility Score: inf
ROOT
ATOM      1  C   UNL A   1      33.355  29.408  26.371  1.00  0.00     0.116 C 
ENDROOT
BRANCH   1   2
ATOM      2  N   UNL A   1      33.680  29.437  24.961  1.00  0.00    -0.355 N 
ATOM      3  C   UNL A   1      33.185  28.700  23.926  1.00  0.00     0.240 C 
ATOM      4  O   UNL A   1      33.418  29.109  22.785  1.00  0.00    -0.273 OA
ATOM      5  H   UNL A   1      34.370  30.092  24.709  1.00  0.00     0.163 HD
BRANCH   3   6
ATOM      6  C   UNL A   1      32.209  27.536  24.137  1.00  0.00     0.227 C 
BRANCH   6   7
ATOM      7  N   UNL A   1      32.778  26.198  24.013  1.00  0.00    -0.283 N 
ATOM      8  C   UNL A   1      34.644  23.654  25.748  1.00  0.00     0.033 C 
ATOM      9  C   UNL A   1      33.924  24.315  24.835  1.00  0.00     0.081 C 
ATOM     10  S   UNL A   1      33.695  23.949  23.172  1.00  0.00    -0.054 SA
ATOM     11  C   UNL A   1      33.291  25.618  25.161  1.00  0.00     0.266 C 
ATOM     12  C   UNL A   1      32.994  25.522  22.831  1.00  0.00     0.148 C 
ATOM     13  O   UNL A   1      33.272  26.110  26.281  1.00  0.00    -0.268 OA
ATOM     14  S   UNL A   1      32.691  26.031  21.271  1.00  0.00    -0.052 S 
BRANCH   8  15
ATOM     15  C   UNL A   1      35.565  22.546  25.464  1.00  0.00     0.018 A 
ATOM     16  C   UNL A   1      35.106  21.226  25.291  1.00  0.00     0.127 A 
ATOM     17  C   UNL A   1      36.003  20.188  25.038  1.00  0.00     0.047 A 
ATOM     18  C   UNL A   1      37.360  20.469  24.885  1.00  0.00     0.004 A 
ATOM     19  C   UNL A   1      36.926  22.818  25.285  1.00  0.00     0.012 A 
ATOM     20  C   UNL A   1      37.819  21.783  24.995  1.00  0.00     0.001 A 
BRANCH  16  21
ATOM     21  O   UNL A   1      33.778  20.903  25.442  1.00  0.00    -0.489 OA
BRANCH  21  22
ATOM     22  C   UNL A   1      33.204  20.402  24.230  1.00  0.00     0.257 C 
BRANCH  22  23
ATOM     23  C   UNL A   1      32.599  19.050  24.478  1.00  0.00     0.006 C 
ATOM     24  C   UNL A   1      32.755  18.348  25.608  1.00  0.00     0.007 C 
ENDBRANCH  22  23
ENDBRANCH  21  22
ENDBRANCH  16  21
ENDBRANCH   8  15
ENDBRANCH   6   7
ENDBRANCH   3   6
ENDBRANCH   1   2
BRANCH   1  25
ATOM     25  C   UNL A   1      34.558  29.706  27.263  1.00  0.00     0.023 C 
BRANCH  25  26
ATOM     26  C   UNL A   1      34.714  31.168  27.676  1.00  0.00     0.023 C 
BRANCH  26  27
ATOM     27  C   UNL A   1      35.845  31.443  28.653  1.00  0.00     0.116 C 
BRANCH  27  28
ATOM     28  N   UNL A   1      35.690  30.746  29.921  1.00  0.00    -0.352 N 
ATOM     29  C   UNL A   1      36.617  29.986  30.597  1.00  0.00     0.251 C 
ATOM     30  H   UNL A   1      34.809  30.828  30.351  1.00  0.00     0.163 HD
ATOM     31  O   UNL A   1      36.297  29.374  31.607  1.00  0.00    -0.269 OA
BRANCH  29  32
ATOM     32  C   UNL A   1      37.991  29.886  30.058  1.00  0.00     0.039 A 
ATOM     33  C   UNL A   1      39.067  29.944  30.946  1.00  0.00     0.014 A 
ATOM     34  C   UNL A   1      38.206  29.684  28.692  1.00  0.00     0.014 A 
ATOM     35  C   UNL A   1      40.360  29.724  30.470  1.00  0.00     0.010 A 
ATOM     36  C   UNL A   1      39.485  29.391  28.234  1.00  0.00     0.010 A 
ATOM     37  C   UNL A   1      40.575  29.408  29.118  1.00  0.00    -0.014 A 
BRANCH  37  38
ATOM     38  C   UNL A   1      41.930  29.090  28.604  1.00  0.00     0.031 A 
ATOM     39  C   UNL A   1      42.254  27.689  28.162  1.00  0.00     0.074 A 
ATOM     40  C   UNL A   1      42.885  30.041  28.609  1.00  0.00     0.049 A 
ATOM     41  N   UNL A   1      43.396  27.194  27.762  1.00  0.00    -0.248 NA
ATOM     42  C   UNL A   1      41.156  26.710  28.203  1.00  0.00     0.031 C 
ATOM     43  C   UNL A   1      42.705  31.421  29.068  1.00  0.00     0.029 A 
ATOM     44  N   UNL A   1      44.202  29.989  28.227  1.00  0.00    -0.354 N 
ATOM     45  C   UNL A   1      43.161  25.844  27.526  1.00  0.00     0.074 A 
ATOM     46  C   UNL A   1      41.781  25.588  27.873  1.00  0.00     0.031 C 
ATOM     47  C   UNL A   1      43.862  32.087  28.920  1.00  0.00     0.029 A 
ATOM     48  C   UNL A   1      44.871  31.178  28.389  1.00  0.00     0.049 A 
ATOM     49  H   UNL A   1      44.626  29.175  27.871  1.00  0.00     0.167 HD
ATOM     50  C   UNL A   1      44.012  24.910  27.041  1.00  0.00     0.037 A 
ATOM     51  C   UNL A   1      46.157  31.498  28.142  1.00  0.00     0.037 A 
ATOM     52  C   UNL A   1      45.373  25.181  26.662  1.00  0.00     0.049 A 
ATOM     53  C   UNL A   1      47.077  30.447  27.583  1.00  0.00     0.074 A 
ATOM     54  C   UNL A   1      46.297  24.321  26.095  1.00  0.00     0.029 A 
ATOM     55  N   UNL A   1      46.007  26.407  26.809  1.00  0.00    -0.354 N 
ATOM     56  N   UNL A   1      46.820  29.191  27.303  1.00  0.00    -0.248 NA
ATOM     57  C   UNL A   1      48.460  30.856  27.300  1.00  0.00     0.031 C 
ATOM     58  C   UNL A   1      47.499  25.017  25.930  1.00  0.00     0.029 A 
ATOM     59  C   UNL A   1      47.312  26.322  26.357  1.00  0.00     0.049 A 
ATOM     60  H   UNL A   1      45.588  27.218  27.179  1.00  0.00     0.167 HD
ATOM     61  C   UNL A   1      48.000  28.668  26.787  1.00  0.00     0.074 A 
ATOM     62  C   UNL A   1      48.969  29.746  26.785  1.00  0.00     0.031 C 
ATOM     63  C   UNL A   1      48.259  27.410  26.354  1.00  0.00     0.037 A 
BRANCH  50  64
ATOM     64  C   UNL A   1      43.490  23.510  26.885  1.00  0.00     0.058 A 
ATOM     65  C   UNL A   1      43.369  22.643  27.984  1.00  0.00     0.135 A 
ATOM     66  C   UNL A   1      43.080  23.035  25.629  1.00  0.00     0.135 A 
ATOM     67  F   UNL A   1      43.762  23.039  29.205  1.00  0.00    -0.206 F 
ATOM     68  C   UNL A   1      42.890  21.345  27.837  1.00  0.00     0.059 A 
ATOM     69  C   UNL A   1      42.574  21.749  25.464  1.00  0.00     0.059 A 
ATOM     70  F   UNL A   1      43.175  23.822  24.545  1.00  0.00    -0.206 F 
ATOM     71  C   UNL A   1      42.497  20.907  26.572  1.00  0.00     0.060 A 
BRANCH  71  72
ATOM     72  S   UNL A   1      41.877  19.221  26.397  1.00  0.00     0.124 S 
ATOM     73  O   UNL A   1      41.990  18.726  27.766  1.00  0.00    -0.237 OA
ATOM     74  O   UNL A   1      40.516  19.436  25.913  1.00  0.00    -0.237 OA
ATOM     75  O   UNL A   1      42.793  18.620  25.434  1.00  0.00    -0.744 OA
ENDBRANCH  71  72
ENDBRANCH  50  64
BRANCH  51  76
ATOM     76  C   UNL A   1      46.641  32.881  28.390  1.00  0.00     0.058 A 
ATOM     77  C   UNL A   1      46.527  33.870  27.402  1.00  0.00     0.135 A 
ATOM     78  C   UNL A   1      47.209  33.246  29.620  1.00  0.00     0.135 A 
ATOM     79  F   UNL A   1      45.993  33.566  26.209  1.00  0.00    -0.206 F 
ATOM     80  C   UNL A   1      46.975  35.168  27.615  1.00  0.00     0.059 A 
ATOM     81  C   UNL A   1      47.645  34.546  29.865  1.00  0.00     0.059 A 
ATOM     82  F   UNL A   1      47.324  32.342  30.604  1.00  0.00    -0.206 F 
ATOM     83  C   UNL A   1      47.533  35.498  28.852  1.00  0.00     0.060 A 
BRANCH  83  84
ATOM     84  S   UNL A   1      48.066  37.199  29.137  1.00  0.00     0.124 S 
ATOM     85  O   UNL A   1      46.992  37.954  28.502  1.00  0.00    -0.237 OA
ATOM     86  O   UNL A   1      48.118  37.266  30.594  1.00  0.00    -0.237 OA
ATOM     87  O   UNL A   1      49.363  37.260  28.470  1.00  0.00    -0.744 OA
ENDBRANCH  83  84
ENDBRANCH  51  76
BRANCH  63  88
ATOM     88  C   UNL A   1      49.632  27.136  25.808  1.00  0.00     0.058 A 
ATOM     89  C   UNL A   1      50.667  26.662  26.628  1.00  0.00     0.135 A 
ATOM     90  C   UNL A   1      49.896  27.298  24.439  1.00  0.00     0.135 A 
ATOM     91  F   UNL A   1      50.466  26.497  27.944  1.00  0.00    -0.206 F 
ATOM     92  C   UNL A   1      51.927  26.377  26.111  1.00  0.00     0.059 A 
ATOM     93  C   UNL A   1      51.141  26.996  23.897  1.00  0.00     0.059 A 
ATOM     94  F   UNL A   1      48.935  27.739  23.612  1.00  0.00    -0.206 F 
ATOM     95  C   UNL A   1      52.154  26.546  24.743  1.00  0.00     0.060 A 
BRANCH  95  96
ATOM     96  S   UNL A   1      53.782  26.137  24.077  1.00  0.00     0.124 S 
ATOM     97  O   UNL A   1      54.564  27.301  24.480  1.00  0.00    -0.237 OA
ATOM     98  O   UNL A   1      54.099  24.890  24.766  1.00  0.00    -0.237 OA
ATOM     99  O   UNL A   1      53.538  26.009  22.643  1.00  0.00    -0.744 OA
ENDBRANCH  95  96
ENDBRANCH  63  88
ENDBRANCH  37  38
ENDBRANCH  29  32
ENDBRANCH  27  28
ENDBRANCH  26  27
ENDBRANCH  25  26
ENDBRANCH   1  25
TORSDOF 19
ENDMDL
MODEL 3
REMARK VINA RESULT:     -11.3      6.468     12.199
REMARK SMILES C=CCOc1ccccc1/C=C1\SC(=S)N(CC(=O)NCCCCNC(=O)c2ccc(-c3c4nc(c(-c5c(F)cc(S(=O)(=O)[O-])cc5F)c5ccc([nH]5)c(-c5c(F)cc(S(=O)(=O)[O-])cc5F)c5nc(c(-c6c(F)cc(S(=O)(=O)[O-])cc6F)c6ccc3[nH]6)C=C5)C=C4)cc2)C1=O
REMARK SMILES IDX 21 1 20 2 18 3 19 4 17 6 16 7 11 8 12 9 13 10 94 11 14 12
REMARK SMILES IDX 95 13 15 14 10 15 5 16 6 17 7 18 9 19 8 20 4 21 3 22 2 23
REMARK SMILES IDX 1 24 22 25 23 26 24 27 25 28 26 29 27 31 28 32 29 33 93 34
REMARK SMILES IDX 30 35 92 36 31 37 32 38 33 39 86 40 34 41 91 42 85 43 87 44
REMARK SMILES IDX 35 45 90 46 84 47 83 48 36 50 70 51 49 52 69 53 50 54 53 55
REMARK SMILES IDX 68 56 88 57 51 58 52 59 67 61 89 62 54 63 37 64 38 65 47 66
REMARK SMILES IDX 39 67 40 68 46 69 48 70 41 71 42 72 43 73 44 74 45 75 71 76
REMARK SMILES IDX 72 77 81 78 73 79 74 80 80 81 82 82 75 83 76 84 77 85 78 86
REMARK SMILES IDX 79 87 55 88 56 89 65 90 57 91 58 92 64 93 66 94 59 95 60 96
REMARK SMILES IDX 61 97 62 98 63 99
REMARK H PARENT 20 5 25 30 87 49 53 60
REMARK Flexibility Score: inf
ROOT
ATOM      1  C   UNL A   1      35.976  21.894  25.466  1.00  0.00     0.116 C 
ENDROOT
BRANCH   1   2
ATOM      2  N   UNL A   1      35.227  21.934  26.702  1.00  0.00    -0.355 N 
ATOM      3  C   UNL A   1      33.881  21.983  26.918  1.00  0.00     0.240 C 
ATOM      4  O   UNL A   1      33.485  21.723  28.058  1.00  0.00    -0.273 OA
ATOM      5  H   UNL A   1      35.776  21.924  27.519  1.00  0.00     0.163 HD
BRANCH   3   6
ATOM      6  C   UNL A   1      32.870  22.146  25.776  1.00  0.00     0.227 C 
BRANCH   6   7
ATOM      7  N   UNL A   1      32.734  23.494  25.234  1.00  0.00    -0.283 N 
ATOM      8  C   UNL A   1      31.022  26.637  25.637  1.00  0.00     0.033 C 
ATOM      9  C   UNL A   1      31.853  25.675  25.217  1.00  0.00     0.081 C 
ATOM     10  S   UNL A   1      32.780  25.607  23.772  1.00  0.00    -0.054 SA
ATOM     11  C   UNL A   1      31.979  24.397  25.963  1.00  0.00     0.266 C 
ATOM     12  C   UNL A   1      33.154  23.906  23.988  1.00  0.00     0.148 C 
ATOM     13  O   UNL A   1      31.451  24.180  27.044  1.00  0.00    -0.268 OA
ATOM     14  S   UNL A   1      33.897  23.011  22.791  1.00  0.00    -0.052 S 
BRANCH   8  15
ATOM     15  C   UNL A   1      30.577  27.783  24.837  1.00  0.00     0.018 A 
ATOM     16  C   UNL A   1      31.045  29.088  25.084  1.00  0.00     0.127 A 
ATOM     17  C   UNL A   1      30.594  30.164  24.319  1.00  0.00     0.047 A 
ATOM     18  C   UNL A   1      29.724  29.937  23.253  1.00  0.00     0.004 A 
ATOM     19  C   UNL A   1      29.723  27.567  23.749  1.00  0.00     0.012 A 
ATOM     20  C   UNL A   1      29.300  28.640  22.961  1.00  0.00     0.001 A 
BRANCH  16  21
ATOM     21  O   UNL A   1      31.896  29.358  26.130  1.00  0.00    -0.489 OA
BRANCH  21  22
ATOM     22  C   UNL A   1      33.242  29.565  25.690  1.00  0.00     0.257 C 
BRANCH  22  23
ATOM     23  C   UNL A   1      34.184  28.783  26.560  1.00  0.00     0.006 C 
ATOM     24  C   UNL A   1      35.081  29.334  27.390  1.00  0.00     0.007 C 
ENDBRANCH  22  23
ENDBRANCH  21  22
ENDBRANCH  16  21
ENDBRANCH   8  15
ENDBRANCH   6   7
ENDBRANCH   3   6
ENDBRANCH   1   2
BRANCH   1  25
ATOM     25  C   UNL A   1      37.005  23.017  25.359  1.00  0.00     0.023 C 
BRANCH  25  26
ATOM     26  C   UNL A   1      38.321  22.764  26.093  1.00  0.00     0.023 C 
BRANCH  26  27
ATOM     27  C   UNL A   1      39.093  24.014  26.480  1.00  0.00     0.116 C 
BRANCH  27  28
ATOM     28  N   UNL A   1      40.512  23.932  26.169  1.00  0.00    -0.352 N 
ATOM     29  C   UNL A   1      41.529  24.756  26.595  1.00  0.00     0.251 C 
ATOM     30  H   UNL A   1      40.779  23.192  25.578  1.00  0.00     0.163 HD
ATOM     31  O   UNL A   1      42.662  24.617  26.157  1.00  0.00    -0.269 OA
BRANCH  29  32
ATOM     32  C   UNL A   1      41.219  25.838  27.554  1.00  0.00     0.039 A 
ATOM     33  C   UNL A   1      40.195  25.641  28.483  1.00  0.00     0.014 A 
ATOM     34  C   UNL A   1      41.974  27.014  27.568  1.00  0.00     0.014 A 
ATOM     35  C   UNL A   1      39.975  26.597  29.475  1.00  0.00     0.010 A 
ATOM     36  C   UNL A   1      41.803  27.928  28.601  1.00  0.00     0.010 A 
ATOM     37  C   UNL A   1      40.803  27.729  29.565  1.00  0.00    -0.014 A 
BRANCH  37  38
ATOM     38  C   UNL A   1      40.642  28.718  30.659  1.00  0.00     0.031 A 
ATOM     39  C   UNL A   1      41.482  28.604  31.901  1.00  0.00     0.074 A 
ATOM     40  C   UNL A   1      39.692  29.668  30.564  1.00  0.00     0.049 A 
ATOM     41  N   UNL A   1      41.435  29.316  32.997  1.00  0.00    -0.248 NA
ATOM     42  C   UNL A   1      42.486  27.528  31.927  1.00  0.00     0.031 C 
ATOM     43  C   UNL A   1      38.778  29.844  29.432  1.00  0.00     0.029 A 
ATOM     44  N   UNL A   1      39.326  30.659  31.440  1.00  0.00    -0.354 N 
ATOM     45  C   UNL A   1      42.384  28.762  33.848  1.00  0.00     0.074 A 
ATOM     46  C   UNL A   1      42.957  27.627  33.162  1.00  0.00     0.031 C 
ATOM     47  C   UNL A   1      37.974  30.892  29.674  1.00  0.00     0.029 A 
ATOM     48  C   UNL A   1      38.290  31.442  30.988  1.00  0.00     0.049 A 
ATOM     49  H   UNL A   1      39.766  30.797  32.310  1.00  0.00     0.167 HD
ATOM     50  C   UNL A   1      42.759  29.179  35.080  1.00  0.00     0.037 A 
ATOM     51  C   UNL A   1      37.662  32.482  31.571  1.00  0.00     0.037 A 
ATOM     52  C   UNL A   1      42.210  30.333  35.742  1.00  0.00     0.049 A 
ATOM     53  C   UNL A   1      38.112  32.939  32.932  1.00  0.00     0.074 A 
ATOM     54  C   UNL A   1      42.572  30.880  36.961  1.00  0.00     0.029 A 
ATOM     55  N   UNL A   1      41.186  31.121  35.238  1.00  0.00    -0.354 N 
ATOM     56  N   UNL A   1      39.057  32.444  33.696  1.00  0.00    -0.248 NA
ATOM     57  C   UNL A   1      37.417  34.098  33.509  1.00  0.00     0.031 C 
ATOM     58  C   UNL A   1      41.743  31.979  37.209  1.00  0.00     0.029 A 
ATOM     59  C   UNL A   1      40.892  32.141  36.127  1.00  0.00     0.049 A 
ATOM     60  H   UNL A   1      40.735  30.977  34.375  1.00  0.00     0.167 HD
ATOM     61  C   UNL A   1      39.088  33.246  34.831  1.00  0.00     0.074 A 
ATOM     62  C   UNL A   1      38.073  34.265  34.649  1.00  0.00     0.031 C 
ATOM     63  C   UNL A   1      39.884  33.151  35.923  1.00  0.00     0.037 A 
BRANCH  50  64
ATOM     64  C   UNL A   1      43.821  28.385  35.788  1.00  0.00     0.058 A 
ATOM     65  C   UNL A   1      45.186  28.667  35.618  1.00  0.00     0.135 A 
ATOM     66  C   UNL A   1      43.471  27.347  36.666  1.00  0.00     0.135 A 
ATOM     67  F   UNL A   1      45.577  29.637  34.777  1.00  0.00    -0.206 F 
ATOM     68  C   UNL A   1      46.168  27.928  36.269  1.00  0.00     0.059 A 
ATOM     69  C   UNL A   1      44.437  26.611  37.349  1.00  0.00     0.059 A 
ATOM     70  F   UNL A   1      42.181  27.035  36.864  1.00  0.00    -0.206 F 
ATOM     71  C   UNL A   1      45.783  26.900  37.132  1.00  0.00     0.060 A 
BRANCH  71  72
ATOM     72  S   UNL A   1      47.068  25.950  37.971  1.00  0.00     0.124 S 
ATOM     73  O   UNL A   1      46.343  25.441  39.130  1.00  0.00    -0.237 OA
ATOM     74  O   UNL A   1      47.430  24.956  36.964  1.00  0.00    -0.237 OA
ATOM     75  O   UNL A   1      48.094  26.947  38.259  1.00  0.00    -0.744 OA
ENDBRANCH  71  72
ENDBRANCH  50  64
BRANCH  51  76
ATOM     76  C   UNL A   1      36.563  33.182  30.857  1.00  0.00     0.058 A 
ATOM     77  C   UNL A   1      36.840  34.081  29.817  1.00  0.00     0.135 A 
ATOM     78  C   UNL A   1      35.218  32.957  31.186  1.00  0.00     0.135 A 
ATOM     79  F   UNL A   1      38.112  34.332  29.470  1.00  0.00    -0.206 F 
ATOM     80  C   UNL A   1      35.826  34.747  29.139  1.00  0.00     0.059 A 
ATOM     81  C   UNL A   1      34.183  33.594  30.507  1.00  0.00     0.059 A 
ATOM     82  F   UNL A   1      34.899  32.092  32.161  1.00  0.00    -0.206 F 
ATOM     83  C   UNL A   1      34.498  34.496  29.491  1.00  0.00     0.060 A 
BRANCH  83  84
ATOM     84  S   UNL A   1      33.185  35.327  28.570  1.00  0.00     0.124 S 
ATOM     85  O   UNL A   1      33.952  36.162  27.654  1.00  0.00    -0.237 OA
ATOM     86  O   UNL A   1      32.473  34.205  27.967  1.00  0.00    -0.237 OA
ATOM     87  O   UNL A   1      32.448  36.039  29.609  1.00  0.00    -0.744 OA
ENDBRANCH  83  84
ENDBRANCH  51  76
BRANCH  63  88
ATOM     88  C   UNL A   1      39.715  34.192  36.994  1.00  0.00     0.058 A 
ATOM     89  C   UNL A   1      38.876  33.981  38.098  1.00  0.00     0.135 A 
ATOM     90  C   UNL A   1      40.445  35.390  36.939  1.00  0.00     0.135 A 
ATOM     91  F   UNL A   1      38.153  32.855  38.193  1.00  0.00    -0.206 F 
ATOM     92  C   UNL A   1      38.751  34.934  39.104  1.00  0.00     0.059 A 
ATOM     93  C   UNL A   1      40.354  36.345  37.946  1.00  0.00     0.059 A 
ATOM     94  F   UNL A   1      41.269  35.634  35.908  1.00  0.00    -0.206 F 
ATOM     95  C   UNL A   1      39.495  36.113  39.019  1.00  0.00     0.060 A 
BRANCH  95  96
ATOM     96  S   UNL A   1      39.353  37.326  40.349  1.00  0.00     0.124 S 
ATOM     97  O   UNL A   1      40.715  37.846  40.418  1.00  0.00    -0.237 OA
ATOM     98  O   UNL A   1      38.348  38.249  39.827  1.00  0.00    -0.237 OA
ATOM     99  O   UNL A   1      38.926  36.526  41.492  1.00  0.00    -0.744 OA
ENDBRANCH  95  96
ENDBRANCH  63  88
ENDBRANCH  37  38
ENDBRANCH  29  32
ENDBRANCH  27  28
ENDBRANCH  26  27
ENDBRANCH  25  26
ENDBRANCH   1  25
TORSDOF 19
ENDMDL
