MODEL 1
REMARK VINA RESULT:     -10.8      0.000      0.000
REMARK SMILES C=CCNC(=O)C[NH2+][C@](C)(C(=O)NCCCCNC(=O)c1ccc(-c2c3nc(c(-c4c(F)cc(S(=O)(=O)[O-])cc4F)c4ccc([nH]4)c(-c4c(F)cc(S(=O)(=O)[O-])cc4F)c4nc(c(-c5c(F)cc(S(=O)(=O)[O-])cc5F)c5ccc2[nH]5)C=C4)C=C3)cc1)C(F)(F)F
REMARK SMILES IDX 14 1 13 2 11 3 12 4 9 6 10 7 8 8 7 11 5 12 4 13 6 15 3 16
REMARK SMILES IDX 2 17 1 18 87 19 88 20 89 21 90 22 15 23 16 24 17 25 18 26
REMARK SMILES IDX 19 27 20 29 21 30 22 31 86 32 23 33 85 34 24 35 25 36 26 37
REMARK SMILES IDX 79 38 27 39 84 40 78 41 80 42 28 43 83 44 77 45 76 46 29 48
REMARK SMILES IDX 63 49 42 50 62 51 43 52 46 53 61 54 81 55 44 56 45 57 60 59
REMARK SMILES IDX 82 60 47 61 30 62 31 63 40 64 32 65 33 66 39 67 41 68 34 69
REMARK SMILES IDX 35 70 36 71 37 72 38 73 64 74 65 75 74 76 66 77 67 78 73 79
REMARK SMILES IDX 75 80 68 81 69 82 70 83 71 84 72 85 48 86 49 87 58 88 50 89
REMARK SMILES IDX 51 90 57 91 59 92 52 93 53 94 54 95 55 96 56 97
REMARK H PARENT 13 5 8 9 8 10 4 14 18 28 80 47 46 58
REMARK Flexibility Score: inf
ROOT
ATOM      1  C   UNL A   1      37.934  21.756  25.773  1.00  0.00     0.116 C 
ENDROOT
BRANCH   1   2
ATOM      2  N   UNL A   1      37.477  22.129  24.448  1.00  0.00    -0.350 N 
ATOM      3  C   UNL A   1      36.259  22.503  23.952  1.00  0.00     0.290 C 
ATOM      4  O   UNL A   1      36.308  23.001  22.822  1.00  0.00    -0.267 OA
ATOM      5  H   UNL A   1      38.188  22.109  23.769  1.00  0.00     0.163 HD
BRANCH   3   6
ATOM      6  C   UNL A   1      34.924  22.365  24.731  1.00  0.00     0.268 C 
ATOM      7  C   UNL A   1      33.685  22.714  23.887  1.00  0.00     0.101 C 
BRANCH   6   8
ATOM      8  N   UNL A   1      34.774  21.037  25.422  1.00  0.00    -0.318 N 
ATOM      9  H   UNL A   1      35.647  20.857  25.917  1.00  0.00     0.347 HD
ATOM     10  H   UNL A   1      33.940  21.152  25.999  1.00  0.00     0.347 HD
BRANCH   8  11
ATOM     11  C   UNL A   1      34.485  19.856  24.618  1.00  0.00     0.362 C 
BRANCH  11  12
ATOM     12  C   UNL A   1      33.056  19.375  24.888  1.00  0.00     0.275 C 
ATOM     13  N   UNL A   1      32.587  18.268  24.245  1.00  0.00    -0.348 N 
ATOM     14  H   UNL A   1      31.633  18.066  24.379  1.00  0.00     0.163 HD
ATOM     15  O   UNL A   1      32.319  19.978  25.672  1.00  0.00    -0.268 OA
BRANCH  13  16
ATOM     16  C   UNL A   1      33.310  17.352  23.391  1.00  0.00     0.143 C 
BRANCH  16  17
ATOM     17  C   UNL A   1      33.728  16.198  24.245  1.00  0.00    -0.014 C 
ATOM     18  C   UNL A   1      34.824  16.174  25.014  1.00  0.00     0.006 C 
ENDBRANCH  16  17
ENDBRANCH  13  16
ENDBRANCH  11  12
ENDBRANCH   8  11
ENDBRANCH   6   8
BRANCH   6  19
ATOM     19  C   UNL A   1      35.002  23.488  25.827  1.00  0.00     0.453 C 
ATOM     20  F   UNL A   1      35.985  24.385  25.584  1.00  0.00    -0.164 F 
ATOM     21  F   UNL A   1      33.835  24.199  25.836  1.00  0.00    -0.164 F 
ATOM     22  F   UNL A   1      35.150  23.015  27.085  1.00  0.00    -0.164 F 
ENDBRANCH   6  19
ENDBRANCH   3   6
ENDBRANCH   1   2
BRANCH   1  23
ATOM     23  C   UNL A   1      38.904  22.758  26.386  1.00  0.00     0.023 C 
BRANCH  23  24
ATOM     24  C   UNL A   1      40.036  22.149  27.212  1.00  0.00     0.023 C 
BRANCH  24  25
ATOM     25  C   UNL A   1      41.350  22.927  27.223  1.00  0.00     0.116 C 
BRANCH  25  26
ATOM     26  N   UNL A   1      41.504  23.834  26.093  1.00  0.00    -0.352 N 
ATOM     27  C   UNL A   1      41.519  25.208  26.074  1.00  0.00     0.251 C 
ATOM     28  H   UNL A   1      41.612  23.399  25.218  1.00  0.00     0.163 HD
ATOM     29  O   UNL A   1      41.574  25.803  25.001  1.00  0.00    -0.269 OA
BRANCH  27  30
ATOM     30  C   UNL A   1      41.425  25.963  27.341  1.00  0.00     0.039 A 
ATOM     31  C   UNL A   1      42.497  26.773  27.722  1.00  0.00     0.014 A 
ATOM     32  C   UNL A   1      40.270  25.907  28.126  1.00  0.00     0.014 A 
ATOM     33  C   UNL A   1      42.376  27.596  28.843  1.00  0.00     0.010 A 
ATOM     34  C   UNL A   1      40.124  26.782  29.200  1.00  0.00     0.010 A 
ATOM     35  C   UNL A   1      41.171  27.643  29.563  1.00  0.00    -0.014 A 
BRANCH  35  36
ATOM     36  C   UNL A   1      40.977  28.604  30.679  1.00  0.00     0.031 A 
ATOM     37  C   UNL A   1      41.805  28.492  31.929  1.00  0.00     0.074 A 
ATOM     38  C   UNL A   1      40.003  29.532  30.594  1.00  0.00     0.049 A 
ATOM     39  N   UNL A   1      41.735  29.194  33.031  1.00  0.00    -0.248 NA
ATOM     40  C   UNL A   1      42.828  27.434  31.956  1.00  0.00     0.031 C 
ATOM     41  C   UNL A   1      39.091  29.701  29.460  1.00  0.00     0.029 A 
ATOM     42  N   UNL A   1      39.609  30.502  31.481  1.00  0.00    -0.354 N 
ATOM     43  C   UNL A   1      42.688  28.654  33.885  1.00  0.00     0.074 A 
ATOM     44  C   UNL A   1      43.289  27.534  33.194  1.00  0.00     0.031 C 
ATOM     45  C   UNL A   1      38.260  30.726  29.711  1.00  0.00     0.029 A 
ATOM     46  C   UNL A   1      38.556  31.267  31.034  1.00  0.00     0.049 A 
ATOM     47  H   UNL A   1      40.038  30.637  32.356  1.00  0.00     0.167 HD
ATOM     48  C   UNL A   1      43.046  29.068  35.125  1.00  0.00     0.037 A 
ATOM     49  C   UNL A   1      37.902  32.285  31.624  1.00  0.00     0.037 A 
ATOM     50  C   UNL A   1      42.468  30.202  35.795  1.00  0.00     0.049 A 
ATOM     51  C   UNL A   1      38.334  32.742  32.990  1.00  0.00     0.074 A 
ATOM     52  C   UNL A   1      42.809  30.742  37.024  1.00  0.00     0.029 A 
ATOM     53  N   UNL A   1      41.429  30.973  35.295  1.00  0.00    -0.354 N 
ATOM     54  N   UNL A   1      39.284  32.262  33.756  1.00  0.00    -0.248 NA
ATOM     55  C   UNL A   1      37.613  33.884  33.568  1.00  0.00     0.031 C 
ATOM     56  C   UNL A   1      41.954  31.819  37.281  1.00  0.00     0.029 A 
ATOM     57  C   UNL A   1      41.107  31.975  36.195  1.00  0.00     0.049 A 
ATOM     58  H   UNL A   1      40.986  30.830  34.428  1.00  0.00     0.167 HD
ATOM     59  C   UNL A   1      39.290  33.056  34.897  1.00  0.00     0.074 A 
ATOM     60  C   UNL A   1      38.257  34.056  34.715  1.00  0.00     0.031 C 
ATOM     61  C   UNL A   1      40.078  32.965  35.997  1.00  0.00     0.037 A 
BRANCH  48  62
ATOM     62  C   UNL A   1      44.126  28.293  35.829  1.00  0.00     0.058 A 
ATOM     63  C   UNL A   1      43.822  27.223  36.687  1.00  0.00     0.135 A 
ATOM     64  C   UNL A   1      45.479  28.606  35.627  1.00  0.00     0.135 A 
ATOM     65  F   UNL A   1      42.543  26.893  36.928  1.00  0.00    -0.206 F 
ATOM     66  C   UNL A   1      44.820  26.512  37.344  1.00  0.00     0.059 A 
ATOM     67  C   UNL A   1      46.496  27.890  36.254  1.00  0.00     0.059 A 
ATOM     68  F   UNL A   1      45.826  29.620  34.818  1.00  0.00    -0.206 F 
ATOM     69  C   UNL A   1      46.154  26.855  37.123  1.00  0.00     0.060 A 
BRANCH  69  70
ATOM     70  S   UNL A   1      47.438  25.923  37.984  1.00  0.00     0.124 S 
ATOM     71  O   UNL A   1      46.640  25.075  38.864  1.00  0.00    -0.237 OA
ATOM     72  O   UNL A   1      48.116  25.238  36.889  1.00  0.00    -0.237 OA
ATOM     73  O   UNL A   1      48.220  26.960  38.650  1.00  0.00    -0.744 OA
ENDBRANCH  69  70
ENDBRANCH  48  62
BRANCH  49  74
ATOM     74  C   UNL A   1      36.787  32.962  30.910  1.00  0.00     0.058 A 
ATOM     75  C   UNL A   1      35.450  32.693  31.244  1.00  0.00     0.135 A 
ATOM     76  C   UNL A   1      37.032  33.899  29.895  1.00  0.00     0.135 A 
ATOM     77  F   UNL A   1      35.166  31.801  32.204  1.00  0.00    -0.206 F 
ATOM     78  C   UNL A   1      34.395  33.320  30.588  1.00  0.00     0.059 A 
ATOM     79  C   UNL A   1      35.995  34.555  29.240  1.00  0.00     0.059 A 
ATOM     80  F   UNL A   1      38.293  34.204  29.551  1.00  0.00    -0.206 F 
ATOM     81  C   UNL A   1      34.679  34.251  29.588  1.00  0.00     0.060 A 
BRANCH  81  82
ATOM     82  S   UNL A   1      33.304  35.100  28.779  1.00  0.00     0.124 S 
ATOM     83  O   UNL A   1      32.702  34.017  28.010  1.00  0.00    -0.237 OA
ATOM     84  O   UNL A   1      32.528  35.583  29.917  1.00  0.00    -0.237 OA
ATOM     85  O   UNL A   1      33.967  36.139  27.997  1.00  0.00    -0.744 OA
ENDBRANCH  81  82
ENDBRANCH  49  74
BRANCH  61  86
ATOM     86  C   UNL A   1      39.873  33.990  37.077  1.00  0.00     0.058 A 
ATOM     87  C   UNL A   1      40.449  35.267  36.998  1.00  0.00     0.135 A 
ATOM     88  C   UNL A   1      39.053  33.705  38.181  1.00  0.00     0.135 A 
ATOM     89  F   UNL A   1      41.245  35.585  35.965  1.00  0.00    -0.206 F 
ATOM     90  C   UNL A   1      40.239  36.220  37.989  1.00  0.00     0.059 A 
ATOM     91  C   UNL A   1      38.809  34.651  39.171  1.00  0.00     0.059 A 
ATOM     92  F   UNL A   1      38.470  32.501  38.299  1.00  0.00    -0.206 F 
ATOM     93  C   UNL A   1      39.417  35.902  39.072  1.00  0.00     0.060 A 
BRANCH  93  94
ATOM     94  S   UNL A   1      39.127  37.156  40.339  1.00  0.00     0.124 S 
ATOM     95  O   UNL A   1      40.489  37.467  40.760  1.00  0.00    -0.237 OA
ATOM     96  O   UNL A   1      38.439  38.204  39.591  1.00  0.00    -0.237 OA
ATOM     97  O   UNL A   1      38.307  36.459  41.325  1.00  0.00    -0.744 OA
ENDBRANCH  93  94
ENDBRANCH  61  86
ENDBRANCH  35  36
ENDBRANCH  27  30
ENDBRANCH  25  26
ENDBRANCH  24  25
ENDBRANCH  23  24
ENDBRANCH   1  23
TORSDOF 20
ENDMDL
MODEL 2
REMARK VINA RESULT:     -10.3      5.023     10.559
REMARK SMILES C=CCNC(=O)C[NH2+][C@](C)(C(=O)NCCCCNC(=O)c1ccc(-c2c3nc(c(-c4c(F)cc(S(=O)(=O)[O-])cc4F)c4ccc([nH]4)c(-c4c(F)cc(S(=O)(=O)[O-])cc4F)c4nc(c(-c5c(F)cc(S(=O)(=O)[O-])cc5F)c5ccc2[nH]5)C=C4)C=C3)cc1)C(F)(F)F
REMARK SMILES IDX 14 1 13 2 11 3 12 4 9 6 10 7 8 8 7 11 5 12 4 13 6 15 3 16
REMARK SMILES IDX 2 17 1 18 87 19 88 20 89 21 90 22 15 23 16 24 17 25 18 26
REMARK SMILES IDX 19 27 20 29 21 30 22 31 86 32 23 33 85 34 24 35 25 36 26 37
REMARK SMILES IDX 79 38 27 39 84 40 78 41 80 42 28 43 83 44 77 45 76 46 29 48
REMARK SMILES IDX 63 49 42 50 62 51 43 52 46 53 61 54 81 55 44 56 45 57 60 59
REMARK SMILES IDX 82 60 47 61 30 62 31 63 40 64 32 65 33 66 39 67 41 68 34 69
REMARK SMILES IDX 35 70 36 71 37 72 38 73 64 74 65 75 74 76 66 77 67 78 73 79
REMARK SMILES IDX 75 80 68 81 69 82 70 83 71 84 72 85 48 86 49 87 58 88 50 89
REMARK SMILES IDX 51 90 57 91 59 92 52 93 53 94 54 95 55 96 56 97
REMARK H PARENT 13 5 8 9 8 10 4 14 18 28 80 47 46 58
REMARK Flexibility Score: inf
ROOT
ATOM      1  C   UNL A   1      32.145  25.880  26.533  1.00  0.00     0.116 C 
ENDROOT
BRANCH   1   2
ATOM      2  N   UNL A   1      31.189  24.831  26.830  1.00  0.00    -0.350 N 
ATOM      3  C   UNL A   1      31.221  23.472  26.692  1.00  0.00     0.290 C 
ATOM      4  O   UNL A   1      30.320  22.883  27.297  1.00  0.00    -0.267 OA
ATOM      5  H   UNL A   1      30.345  25.167  27.209  1.00  0.00     0.163 HD
BRANCH   3   6
ATOM      6  C   UNL A   1      32.304  22.706  25.886  1.00  0.00     0.268 C 
ATOM      7  C   UNL A   1      31.832  21.333  25.377  1.00  0.00     0.101 C 
BRANCH   6   8
ATOM      8  N   UNL A   1      32.919  23.528  24.786  1.00  0.00    -0.318 N 
ATOM      9  H   UNL A   1      33.114  24.450  25.174  1.00  0.00     0.347 HD
ATOM     10  H   UNL A   1      33.727  22.980  24.490  1.00  0.00     0.347 HD
BRANCH   8  11
ATOM     11  C   UNL A   1      32.162  23.731  23.555  1.00  0.00     0.362 C 
BRANCH  11  12
ATOM     12  C   UNL A   1      33.116  24.067  22.404  1.00  0.00     0.275 C 
ATOM     13  N   UNL A   1      33.325  25.370  22.064  1.00  0.00    -0.348 N 
ATOM     14  H   UNL A   1      33.864  25.521  21.254  1.00  0.00     0.163 HD
ATOM     15  O   UNL A   1      33.690  23.176  21.773  1.00  0.00    -0.268 OA
BRANCH  13  16
ATOM     16  C   UNL A   1      32.857  26.560  22.738  1.00  0.00     0.143 C 
BRANCH  16  17
ATOM     17  C   UNL A   1      33.656  27.706  22.204  1.00  0.00    -0.014 C 
ATOM     18  C   UNL A   1      33.990  28.796  22.906  1.00  0.00     0.006 C 
ENDBRANCH  16  17
ENDBRANCH  13  16
ENDBRANCH  11  12
ENDBRANCH   8  11
ENDBRANCH   6   8
BRANCH   6  19
ATOM     19  C   UNL A   1      33.418  22.388  26.947  1.00  0.00     0.453 C 
ATOM     20  F   UNL A   1      34.542  23.116  26.756  1.00  0.00    -0.164 F 
ATOM     21  F   UNL A   1      32.967  22.713  28.195  1.00  0.00    -0.164 F 
ATOM     22  F   UNL A   1      33.756  21.081  27.011  1.00  0.00    -0.164 F 
ENDBRANCH   6  19
ENDBRANCH   3   6
ENDBRANCH   1   2
BRANCH   1  23
ATOM     23  C   UNL A   1      31.572  27.283  26.675  1.00  0.00     0.023 C 
BRANCH  23  24
ATOM     24  C   UNL A   1      32.498  28.415  26.232  1.00  0.00     0.023 C 
BRANCH  24  25
ATOM     25  C   UNL A   1      33.662  28.734  27.167  1.00  0.00     0.116 C 
BRANCH  25  26
ATOM     26  N   UNL A   1      33.617  30.080  27.721  1.00  0.00    -0.352 N 
ATOM     27  C   UNL A   1      34.595  30.784  28.384  1.00  0.00     0.251 C 
ATOM     28  H   UNL A   1      32.763  30.554  27.605  1.00  0.00     0.163 HD
ATOM     29  O   UNL A   1      34.338  31.887  28.857  1.00  0.00    -0.269 OA
BRANCH  27  30
ATOM     30  C   UNL A   1      35.936  30.189  28.562  1.00  0.00     0.039 A 
ATOM     31  C   UNL A   1      36.822  30.196  27.482  1.00  0.00     0.014 A 
ATOM     32  C   UNL A   1      36.333  29.668  29.796  1.00  0.00     0.014 A 
ATOM     33  C   UNL A   1      38.137  29.763  27.665  1.00  0.00     0.010 A 
ATOM     34  C   UNL A   1      37.663  29.306  29.995  1.00  0.00     0.010 A 
ATOM     35  C   UNL A   1      38.581  29.359  28.935  1.00  0.00    -0.014 A 
BRANCH  35  36
ATOM     36  C   UNL A   1      40.005  29.018  29.179  1.00  0.00     0.031 A 
ATOM     37  C   UNL A   1      40.944  30.043  29.751  1.00  0.00     0.074 A 
ATOM     38  C   UNL A   1      40.469  27.805  28.815  1.00  0.00     0.049 A 
ATOM     39  N   UNL A   1      42.231  29.952  29.972  1.00  0.00    -0.248 NA
ATOM     40  C   UNL A   1      40.367  31.353  30.096  1.00  0.00     0.031 C 
ATOM     41  C   UNL A   1      39.672  26.745  28.191  1.00  0.00     0.029 A 
ATOM     42  N   UNL A   1      41.726  27.261  28.906  1.00  0.00    -0.354 N 
ATOM     43  C   UNL A   1      42.619  31.192  30.462  1.00  0.00     0.074 A 
ATOM     44  C   UNL A   1      41.443  32.035  30.460  1.00  0.00     0.031 C 
ATOM     45  C   UNL A   1      40.453  25.674  27.976  1.00  0.00     0.029 A 
ATOM     46  C   UNL A   1      41.811  25.978  28.416  1.00  0.00     0.049 A 
ATOM     47  H   UNL A   1      42.495  27.744  29.285  1.00  0.00     0.167 HD
ATOM     48  C   UNL A   1      43.841  31.587  30.897  1.00  0.00     0.037 A 
ATOM     49  C   UNL A   1      42.864  25.144  28.327  1.00  0.00     0.037 A 
ATOM     50  C   UNL A   1      45.000  30.735  30.928  1.00  0.00     0.049 A 
ATOM     51  C   UNL A   1      44.204  25.595  28.839  1.00  0.00     0.074 A 
ATOM     52  C   UNL A   1      46.266  31.020  31.411  1.00  0.00     0.029 A 
ATOM     53  N   UNL A   1      45.038  29.431  30.456  1.00  0.00    -0.354 N 
ATOM     54  N   UNL A   1      44.538  26.751  29.363  1.00  0.00    -0.248 NA
ATOM     55  C   UNL A   1      45.308  24.630  28.757  1.00  0.00     0.031 C 
ATOM     56  C   UNL A   1      47.077  29.900  31.202  1.00  0.00     0.029 A 
ATOM     57  C   UNL A   1      46.307  28.904  30.624  1.00  0.00     0.049 A 
ATOM     58  H   UNL A   1      44.275  28.952  30.060  1.00  0.00     0.167 HD
ATOM     59  C   UNL A   1      45.884  26.643  29.693  1.00  0.00     0.074 A 
ATOM     60  C   UNL A   1      46.300  25.305  29.321  1.00  0.00     0.031 C 
ATOM     61  C   UNL A   1      46.703  27.568  30.251  1.00  0.00     0.037 A 
BRANCH  48  62
ATOM     62  C   UNL A   1      43.978  33.002  31.388  1.00  0.00     0.058 A 
ATOM     63  C   UNL A   1      44.139  34.076  30.498  1.00  0.00     0.135 A 
ATOM     64  C   UNL A   1      43.925  33.291  32.760  1.00  0.00     0.135 A 
ATOM     65  F   UNL A   1      44.213  33.853  29.176  1.00  0.00    -0.206 F 
ATOM     66  C   UNL A   1      44.273  35.383  30.952  1.00  0.00     0.059 A 
ATOM     67  C   UNL A   1      44.030  34.595  33.236  1.00  0.00     0.059 A 
ATOM     68  F   UNL A   1      43.773  32.302  33.655  1.00  0.00    -0.206 F 
ATOM     69  C   UNL A   1      44.220  35.633  32.324  1.00  0.00     0.060 A 
BRANCH  69  70
ATOM     70  S   UNL A   1      44.398  37.335  32.899  1.00  0.00     0.124 S 
ATOM     71  O   UNL A   1      44.755  38.023  31.662  1.00  0.00    -0.237 OA
ATOM     72  O   UNL A   1      43.070  37.628  33.426  1.00  0.00    -0.237 OA
ATOM     73  O   UNL A   1      45.459  37.246  33.897  1.00  0.00    -0.744 OA
ENDBRANCH  69  70
ENDBRANCH  48  62
BRANCH  49  74
ATOM     74  C   UNL A   1      42.685  23.782  27.757  1.00  0.00     0.058 A 
ATOM     75  C   UNL A   1      42.490  22.672  28.593  1.00  0.00     0.135 A 
ATOM     76  C   UNL A   1      42.689  23.565  26.371  1.00  0.00     0.135 A 
ATOM     77  F   UNL A   1      42.484  22.829  29.925  1.00  0.00    -0.206 F 
ATOM     78  C   UNL A   1      42.319  21.392  28.077  1.00  0.00     0.059 A 
ATOM     79  C   UNL A   1      42.497  22.298  25.830  1.00  0.00     0.059 A 
ATOM     80  F   UNL A   1      42.854  24.596  25.529  1.00  0.00    -0.206 F 
ATOM     81  C   UNL A   1      42.322  21.215  26.692  1.00  0.00     0.060 A 
BRANCH  81  82
ATOM     82  S   UNL A   1      42.044  19.559  26.029  1.00  0.00     0.124 S 
ATOM     83  O   UNL A   1      42.428  18.721  27.159  1.00  0.00    -0.237 OA
ATOM     84  O   UNL A   1      40.620  19.588  25.711  1.00  0.00    -0.237 OA
ATOM     85  O   UNL A   1      42.934  19.508  24.872  1.00  0.00    -0.744 OA
ENDBRANCH  81  82
ENDBRANCH  49  74
BRANCH  61  86
ATOM     86  C   UNL A   1      48.123  27.157  30.520  1.00  0.00     0.058 A 
ATOM     87  C   UNL A   1      49.148  27.399  29.593  1.00  0.00     0.135 A 
ATOM     88  C   UNL A   1      48.470  26.555  31.741  1.00  0.00     0.135 A 
ATOM     89  F   UNL A   1      48.866  27.967  28.409  1.00  0.00    -0.206 F 
ATOM     90  C   UNL A   1      50.464  27.037  29.855  1.00  0.00     0.059 A 
ATOM     91  C   UNL A   1      49.784  26.207  32.035  1.00  0.00     0.059 A 
ATOM     92  F   UNL A   1      47.529  26.311  32.667  1.00  0.00    -0.206 F 
ATOM     93  C   UNL A   1      50.773  26.441  31.079  1.00  0.00     0.060 A 
BRANCH  93  94
ATOM     94  S   UNL A   1      52.490  26.001  31.422  1.00  0.00     0.124 S 
ATOM     95  O   UNL A   1      53.074  26.034  30.085  1.00  0.00    -0.237 OA
ATOM     96  O   UNL A   1      52.913  27.067  32.325  1.00  0.00    -0.237 OA
ATOM     97  O   UNL A   1      52.387  24.678  32.031  1.00  0.00    -0.744 OA
ENDBRANCH  93  94
ENDBRANCH  61  86
ENDBRANCH  35  36
ENDBRANCH  27  30
ENDBRANCH  25  26
ENDBRANCH  24  25
ENDBRANCH  23  24
ENDBRANCH   1  23
TORSDOF 20
ENDMDL
MODEL 3
REMARK VINA RESULT:     -10.2      2.995      8.924
REMARK SMILES C=CCNC(=O)C[NH2+][C@](C)(C(=O)NCCCCNC(=O)c1ccc(-c2c3nc(c(-c4c(F)cc(S(=O)(=O)[O-])cc4F)c4ccc([nH]4)c(-c4c(F)cc(S(=O)(=O)[O-])cc4F)c4nc(c(-c5c(F)cc(S(=O)(=O)[O-])cc5F)c5ccc2[nH]5)C=C4)C=C3)cc1)C(F)(F)F
REMARK SMILES IDX 14 1 13 2 11 3 12 4 9 6 10 7 8 8 7 11 5 12 4 13 6 15 3 16
REMARK SMILES IDX 2 17 1 18 87 19 88 20 89 21 90 22 15 23 16 24 17 25 18 26
REMARK SMILES IDX 19 27 20 29 21 30 22 31 86 32 23 33 85 34 24 35 25 36 26 37
REMARK SMILES IDX 79 38 27 39 84 40 78 41 80 42 28 43 83 44 77 45 76 46 29 48
REMARK SMILES IDX 63 49 42 50 62 51 43 52 46 53 61 54 81 55 44 56 45 57 60 59
REMARK SMILES IDX 82 60 47 61 30 62 31 63 40 64 32 65 33 66 39 67 41 68 34 69
REMARK SMILES IDX 35 70 36 71 37 72 38 73 64 74 65 75 74 76 66 77 67 78 73 79
REMARK SMILES IDX 75 80 68 81 69 82 70 83 71 84 72 85 48 86 49 87 58 88 50 89
REMARK SMILES IDX 51 90 57 91 59 92 52 93 53 94 54 95 55 96 56 97
REMARK H PARENT 13 5 8 9 8 10 4 14 18 28 80 47 46 58
REMARK Flexibility Score: inf
ROOT
ATOM      1  C   UNL A   1      31.581  30.024  25.394  1.00  0.00     0.116 C 
ENDROOT
BRANCH   1   2
ATOM      2  N   UNL A   1      32.808  29.663  24.713  1.00  0.00    -0.350 N 
ATOM      3  C   UNL A   1      33.291  28.482  24.222  1.00  0.00     0.290 C 
ATOM      4  O   UNL A   1      34.263  28.610  23.471  1.00  0.00    -0.267 OA
ATOM      5  H   UNL A   1      33.418  30.424  24.577  1.00  0.00     0.163 HD
BRANCH   3   6
ATOM      6  C   UNL A   1      32.670  27.095  24.532  1.00  0.00     0.268 C 
ATOM      7  C   UNL A   1      31.148  27.141  24.754  1.00  0.00     0.101 C 
BRANCH   6   8
ATOM      8  N   UNL A   1      33.058  26.034  23.538  1.00  0.00    -0.318 N 
ATOM      9  H   UNL A   1      33.880  26.376  23.041  1.00  0.00     0.347 HD
ATOM     10  H   UNL A   1      33.187  25.197  24.108  1.00  0.00     0.347 HD
BRANCH   8  11
ATOM     11  C   UNL A   1      32.085  25.627  22.530  1.00  0.00     0.362 C 
BRANCH  11  12
ATOM     12  C   UNL A   1      32.775  24.802  21.440  1.00  0.00     0.275 C 
ATOM     13  N   UNL A   1      32.990  23.471  21.641  1.00  0.00    -0.348 N 
ATOM     14  H   UNL A   1      33.527  23.014  20.954  1.00  0.00     0.163 HD
ATOM     15  O   UNL A   1      33.148  25.323  20.387  1.00  0.00    -0.268 OA
BRANCH  13  16
ATOM     16  C   UNL A   1      32.532  22.642  22.734  1.00  0.00     0.143 C 
BRANCH  16  17
ATOM     17  C   UNL A   1      33.572  22.719  23.805  1.00  0.00    -0.014 C 
ATOM     18  C   UNL A   1      34.866  22.415  23.637  1.00  0.00     0.006 C 
ENDBRANCH  16  17
ENDBRANCH  13  16
ENDBRANCH  11  12
ENDBRANCH   8  11
ENDBRANCH   6   8
BRANCH   6  19
ATOM     19  C   UNL A   1      33.275  26.708  25.930  1.00  0.00     0.453 C 
ATOM     20  F   UNL A   1      32.468  25.884  26.636  1.00  0.00    -0.164 F 
ATOM     21  F   UNL A   1      34.445  26.025  25.748  1.00  0.00    -0.164 F 
ATOM     22  F   UNL A   1      33.590  27.770  26.703  1.00  0.00    -0.164 F 
ENDBRANCH   6  19
ENDBRANCH   3   6
ENDBRANCH   1   2
BRANCH   1  23
ATOM     23  C   UNL A   1      31.806  30.653  26.763  1.00  0.00     0.023 C 
BRANCH  23  24
ATOM     24  C   UNL A   1      31.726  32.178  26.803  1.00  0.00     0.023 C 
BRANCH  24  25
ATOM     25  C   UNL A   1      32.844  32.889  27.562  1.00  0.00     0.116 C 
BRANCH  25  26
ATOM     26  N   UNL A   1      32.555  34.285  27.860  1.00  0.00    -0.352 N 
ATOM     27  C   UNL A   1      33.141  35.119  28.782  1.00  0.00     0.251 C 
ATOM     28  H   UNL A   1      31.836  34.689  27.324  1.00  0.00     0.163 HD
ATOM     29  O   UNL A   1      32.698  36.252  28.949  1.00  0.00    -0.269 OA
BRANCH  27  30
ATOM     30  C   UNL A   1      34.272  34.632  29.600  1.00  0.00     0.039 A 
ATOM     31  C   UNL A   1      34.003  34.065  30.848  1.00  0.00     0.014 A 
ATOM     32  C   UNL A   1      35.583  34.695  29.122  1.00  0.00     0.014 A 
ATOM     33  C   UNL A   1      35.040  33.479  31.577  1.00  0.00     0.010 A 
ATOM     34  C   UNL A   1      36.601  34.046  29.816  1.00  0.00     0.010 A 
ATOM     35  C   UNL A   1      36.338  33.422  31.046  1.00  0.00    -0.014 A 
BRANCH  35  36
ATOM     36  C   UNL A   1      37.425  32.692  31.746  1.00  0.00     0.031 A 
ATOM     37  C   UNL A   1      37.945  33.189  33.066  1.00  0.00     0.074 A 
ATOM     38  C   UNL A   1      37.994  31.622  31.155  1.00  0.00     0.049 A 
ATOM     39  N   UNL A   1      38.930  32.725  33.792  1.00  0.00    -0.248 NA
ATOM     40  C   UNL A   1      37.292  34.380  33.631  1.00  0.00     0.031 C 
ATOM     41  C   UNL A   1      37.621  31.079  29.846  1.00  0.00     0.029 A 
ATOM     42  N   UNL A   1      39.014  30.803  31.572  1.00  0.00    -0.354 N 
ATOM     43  C   UNL A   1      39.025  33.575  34.887  1.00  0.00     0.074 A 
ATOM     44  C   UNL A   1      38.032  34.611  34.706  1.00  0.00     0.031 C 
ATOM     45  C   UNL A   1      38.385  30.008  29.578  1.00  0.00     0.029 A 
ATOM     46  C   UNL A   1      39.323  29.804  30.678  1.00  0.00     0.049 A 
ATOM     47  H   UNL A   1      39.481  30.921  32.430  1.00  0.00     0.167 HD
ATOM     48  C   UNL A   1      39.850  33.486  35.959  1.00  0.00     0.037 A 
ATOM     49  C   UNL A   1      40.258  28.837  30.736  1.00  0.00     0.037 A 
ATOM     50  C   UNL A   1      40.814  32.436  36.151  1.00  0.00     0.049 A 
ATOM     51  C   UNL A   1      41.145  28.745  31.946  1.00  0.00     0.074 A 
ATOM     52  C   UNL A   1      41.650  32.221  37.234  1.00  0.00     0.029 A 
ATOM     53  N   UNL A   1      41.073  31.422  35.240  1.00  0.00    -0.354 N 
ATOM     54  N   UNL A   1      41.175  29.518  33.006  1.00  0.00    -0.248 NA
ATOM     55  C   UNL A   1      42.118  27.645  31.976  1.00  0.00     0.031 C 
ATOM     56  C   UNL A   1      42.436  31.096  36.963  1.00  0.00     0.029 A 
ATOM     57  C   UNL A   1      42.064  30.588  35.730  1.00  0.00     0.049 A 
ATOM     58  H   UNL A   1      40.619  31.312  34.374  1.00  0.00     0.167 HD
ATOM     59  C   UNL A   1      42.154  28.986  33.837  1.00  0.00     0.074 A 
ATOM     60  C   UNL A   1      42.683  27.817  33.164  1.00  0.00     0.031 C 
ATOM     61  C   UNL A   1      42.578  29.425  35.048  1.00  0.00     0.037 A 
BRANCH  48  62
ATOM     62  C   UNL A   1      39.733  34.552  37.014  1.00  0.00     0.058 A 
ATOM     63  C   UNL A   1      40.429  35.767  36.911  1.00  0.00     0.135 A 
ATOM     64  C   UNL A   1      38.898  34.368  38.127  1.00  0.00     0.135 A 
ATOM     65  F   UNL A   1      41.254  35.988  35.875  1.00  0.00    -0.206 F 
ATOM     66  C   UNL A   1      40.326  36.749  37.890  1.00  0.00     0.059 A 
ATOM     67  C   UNL A   1      38.759  35.349  39.106  1.00  0.00     0.059 A 
ATOM     68  F   UNL A   1      38.210  33.225  38.275  1.00  0.00    -0.206 F 
ATOM     69  C   UNL A   1      39.490  36.530  38.985  1.00  0.00     0.060 A 
BRANCH  69  70
ATOM     70  S   UNL A   1      39.368  37.814  40.249  1.00  0.00     0.124 S 
ATOM     71  O   UNL A   1      40.598  38.565  40.018  1.00  0.00    -0.237 OA
ATOM     72  O   UNL A   1      38.131  38.496  39.884  1.00  0.00    -0.237 OA
ATOM     73  O   UNL A   1      39.318  37.058  41.496  1.00  0.00    -0.744 OA
ENDBRANCH  69  70
ENDBRANCH  48  62
BRANCH  49  74
ATOM     74  C   UNL A   1      40.381  27.858  29.623  1.00  0.00     0.058 A 
ATOM     75  C   UNL A   1      39.554  26.726  29.566  1.00  0.00     0.135 A 
ATOM     76  C   UNL A   1      41.314  28.040  28.591  1.00  0.00     0.135 A 
ATOM     77  F   UNL A   1      38.651  26.506  30.534  1.00  0.00    -0.206 F 
ATOM     78  C   UNL A   1      39.654  25.801  28.532  1.00  0.00     0.059 A 
ATOM     79  C   UNL A   1      41.418  27.141  27.534  1.00  0.00     0.059 A 
ATOM     80  F   UNL A   1      42.116  29.115  28.591  1.00  0.00    -0.206 F 
ATOM     81  C   UNL A   1      40.589  26.019  27.518  1.00  0.00     0.060 A 
BRANCH  81  82
ATOM     82  S   UNL A   1      40.675  24.842  26.151  1.00  0.00     0.124 S 
ATOM     83  O   UNL A   1      41.488  23.779  26.729  1.00  0.00    -0.237 OA
ATOM     84  O   UNL A   1      39.269  24.523  25.930  1.00  0.00    -0.237 OA
ATOM     85  O   UNL A   1      41.308  25.614  25.085  1.00  0.00    -0.744 OA
ENDBRANCH  81  82
ENDBRANCH  49  74
BRANCH  61  86
ATOM     86  C   UNL A   1      43.647  28.625  35.735  1.00  0.00     0.058 A 
ATOM     87  C   UNL A   1      45.007  28.930  35.583  1.00  0.00     0.135 A 
ATOM     88  C   UNL A   1      43.302  27.567  36.593  1.00  0.00     0.135 A 
ATOM     89  F   UNL A   1      45.388  29.928  34.769  1.00  0.00    -0.206 F 
ATOM     90  C   UNL A   1      45.993  28.200  36.238  1.00  0.00     0.059 A 
ATOM     91  C   UNL A   1      44.270  26.839  37.277  1.00  0.00     0.059 A 
ATOM     92  F   UNL A   1      42.013  27.241  36.781  1.00  0.00    -0.206 F 
ATOM     93  C   UNL A   1      45.614  27.156  37.083  1.00  0.00     0.060 A 
BRANCH  93  94
ATOM     94  S   UNL A   1      46.899  26.232  37.953  1.00  0.00     0.124 S 
ATOM     95  O   UNL A   1      47.131  25.120  37.037  1.00  0.00    -0.237 OA
ATOM     96  O   UNL A   1      47.979  27.210  38.048  1.00  0.00    -0.237 OA
ATOM     97  O   UNL A   1      46.267  25.882  39.221  1.00  0.00    -0.744 OA
ENDBRANCH  93  94
ENDBRANCH  61  86
ENDBRANCH  35  36
ENDBRANCH  27  30
ENDBRANCH  25  26
ENDBRANCH  24  25
ENDBRANCH  23  24
ENDBRANCH   1  23
TORSDOF 20
ENDMDL
