MODEL 1
REMARK VINA RESULT:     -11.8      0.000      0.000
REMARK SMILES CC(C)CN(C)c1cc2c(cc1Cl)C=C(C(=O)NCCCCNC(=O)c1ccc(-c3c4nc(c(-c5c(F)cc(S(=O)(=O)[O-])cc5F)c5ccc([nH]5)c(-c5c(F)cc(S(=O)(=O)[O-])cc5F)c5nc(c(-c6c(F)cc(S(=O)(=O)[O-])cc6F)c6ccc3[nH]6)C=C5)C=C4)cc1)[C@@H](C(F)(F)F)O2
REMARK SMILES IDX 20 1 19 2 18 3 16 4 17 5 15 7 7 8 8 9 12 10 9 11 11 12 13 13
REMARK SMILES IDX 10 14 97 15 14 16 92 17 5 18 6 19 4 20 2 21 1 22 3 23 93 24
REMARK SMILES IDX 94 25 95 26 96 27 21 28 22 29 23 30 24 31 25 33 26 34 27 35
REMARK SMILES IDX 91 36 28 37 90 38 29 39 30 40 31 41 84 42 32 43 89 44 83 45
REMARK SMILES IDX 85 46 33 47 88 48 82 49 81 50 34 52 68 53 47 54 67 55 48 56
REMARK SMILES IDX 51 57 66 58 86 59 49 60 50 61 65 63 87 64 52 65 35 66 36 67
REMARK SMILES IDX 45 68 37 69 38 70 44 71 46 72 39 73 40 74 41 75 42 76 43 77
REMARK SMILES IDX 69 78 70 79 79 80 71 81 72 82 78 83 80 84 73 85 74 86 75 87
REMARK SMILES IDX 76 88 77 89 53 90 54 91 63 92 55 93 56 94 62 95 64 96 57 97
REMARK SMILES IDX 58 98 59 99 60 100 61 101
REMARK H PARENT 18 6 23 32 85 51 51 62
REMARK Flexibility Score: inf
ROOT
ATOM      1  C   UNL A   1      37.823  22.470  25.717  1.00  0.00     0.023 C 
ENDROOT
BRANCH   1   2
ATOM      2  C   UNL A   1      37.373  21.540  24.595  1.00  0.00     0.116 C 
BRANCH   2   3
ATOM      3  N   UNL A   1      36.121  20.879  24.915  1.00  0.00    -0.352 N 
ATOM      4  C   UNL A   1      34.814  21.224  24.957  1.00  0.00     0.251 C 
ATOM      5  O   UNL A   1      34.033  20.314  25.254  1.00  0.00    -0.270 OA
ATOM      6  H   UNL A   1      36.260  19.937  25.164  1.00  0.00     0.163 HD
BRANCH   4   7
ATOM      7  C   UNL A   1      34.280  22.588  24.691  1.00  0.00     0.067 C 
ATOM      8  C   UNL A   1      32.713  27.363  25.145  1.00  0.00     0.059 A 
ATOM      9  C   UNL A   1      33.451  26.657  24.182  1.00  0.00     0.074 A 
ATOM     10  C   UNL A   1      32.279  26.655  26.290  1.00  0.00     0.065 A 
ATOM     11  C   UNL A   1      33.762  25.313  24.375  1.00  0.00     0.130 A 
ATOM     12  C   UNL A   1      32.674  25.331  26.519  1.00  0.00     0.034 A 
ATOM     13  Cl  UNL A   1      31.219  27.368  27.459  1.00  0.00    -0.082 Cl
ATOM     14  C   UNL A   1      33.430  24.661  25.564  1.00  0.00     0.019 A 
ATOM     15  O   UNL A   1      34.406  24.661  23.356  1.00  0.00    -0.475 OA
ATOM     16  C   UNL A   1      33.907  23.298  25.773  1.00  0.00     0.025 C 
ATOM     17  C   UNL A   1      34.153  23.222  23.334  1.00  0.00     0.314 C 
BRANCH   8  18
ATOM     18  N   UNL A   1      32.445  28.731  24.966  1.00  0.00    -0.373 N 
ATOM     19  C   UNL A   1      31.710  29.056  23.745  1.00  0.00     0.143 C 
BRANCH  18  20
ATOM     20  C   UNL A   1      33.529  29.660  25.346  1.00  0.00     0.119 C 
BRANCH  20  21
ATOM     21  C   UNL A   1      33.763  29.710  26.871  1.00  0.00     0.002 C 
ATOM     22  C   UNL A   1      35.166  29.232  27.258  1.00  0.00     0.009 C 
ATOM     23  C   UNL A   1      33.558  31.128  27.410  1.00  0.00     0.009 C 
ENDBRANCH  20  21
ENDBRANCH  18  20
ENDBRANCH   8  18
BRANCH  17  24
ATOM     24  C   UNL A   1      32.785  22.917  22.675  1.00  0.00     0.429 C 
ATOM     25  F   UNL A   1      32.954  22.550  21.380  1.00  0.00    -0.167 F 
ATOM     26  F   UNL A   1      32.136  21.897  23.285  1.00  0.00    -0.167 F 
ATOM     27  F   UNL A   1      31.940  23.972  22.686  1.00  0.00    -0.167 F 
ENDBRANCH  17  24
ENDBRANCH   4   7
ENDBRANCH   2   3
ENDBRANCH   1   2
BRANCH   1  28
ATOM     28  C   UNL A   1      39.138  22.059  26.381  1.00  0.00     0.023 C 
BRANCH  28  29
ATOM     29  C   UNL A   1      39.967  23.207  26.947  1.00  0.00     0.116 C 
BRANCH  29  30
ATOM     30  N   UNL A   1      41.072  23.621  26.091  1.00  0.00    -0.352 N 
ATOM     31  C   UNL A   1      41.720  24.841  26.081  1.00  0.00     0.251 C 
ATOM     32  H   UNL A   1      41.394  22.952  25.444  1.00  0.00     0.163 HD
ATOM     33  O   UNL A   1      42.590  25.085  25.270  1.00  0.00    -0.269 OA
BRANCH  31  34
ATOM     34  C   UNL A   1      41.278  25.854  27.062  1.00  0.00     0.039 A 
ATOM     35  C   UNL A   1      41.766  27.158  26.978  1.00  0.00     0.014 A 
ATOM     36  C   UNL A   1      40.481  25.450  28.135  1.00  0.00     0.014 A 
ATOM     37  C   UNL A   1      41.592  28.017  28.055  1.00  0.00     0.010 A 
ATOM     38  C   UNL A   1      40.245  26.343  29.183  1.00  0.00     0.010 A 
ATOM     39  C   UNL A   1      40.841  27.614  29.173  1.00  0.00    -0.014 A 
BRANCH  39  40
ATOM     40  C   UNL A   1      40.698  28.539  30.324  1.00  0.00     0.031 A 
ATOM     41  C   UNL A   1      41.672  28.499  31.470  1.00  0.00     0.074 A 
ATOM     42  C   UNL A   1      39.714  29.457  30.299  1.00  0.00     0.049 A 
ATOM     43  N   UNL A   1      41.690  29.224  32.559  1.00  0.00    -0.248 NA
ATOM     44  C   UNL A   1      42.768  27.519  31.386  1.00  0.00     0.031 C 
ATOM     45  C   UNL A   1      38.728  29.601  29.226  1.00  0.00     0.029 A 
ATOM     46  N   UNL A   1      39.396  30.455  31.181  1.00  0.00    -0.354 N 
ATOM     47  C   UNL A   1      42.778  28.777  33.300  1.00  0.00     0.074 A 
ATOM     48  C   UNL A   1      43.389  27.705  32.543  1.00  0.00     0.031 C 
ATOM     49  C   UNL A   1      37.953  30.664  29.483  1.00  0.00     0.029 A 
ATOM     50  C   UNL A   1      38.342  31.233  30.769  1.00  0.00     0.049 A 
ATOM     51  H   UNL A   1      39.877  30.600  32.028  1.00  0.00     0.167 HD
ATOM     52  C   UNL A   1      43.225  29.223  34.498  1.00  0.00     0.037 A 
ATOM     53  C   UNL A   1      37.744  32.281  31.365  1.00  0.00     0.037 A 
ATOM     54  C   UNL A   1      42.620  30.304  35.234  1.00  0.00     0.049 A 
ATOM     55  C   UNL A   1      38.244  32.743  32.700  1.00  0.00     0.074 A 
ATOM     56  C   UNL A   1      42.992  30.826  36.462  1.00  0.00     0.029 A 
ATOM     57  N   UNL A   1      41.523  31.038  34.806  1.00  0.00    -0.354 N 
ATOM     58  N   UNL A   1      39.246  32.277  33.407  1.00  0.00    -0.248 NA
ATOM     59  C   UNL A   1      37.525  33.859  33.328  1.00  0.00     0.031 C 
ATOM     60  C   UNL A   1      42.103  31.856  36.787  1.00  0.00     0.029 A 
ATOM     61  C   UNL A   1      41.200  32.002  35.746  1.00  0.00     0.049 A 
ATOM     62  H   UNL A   1      41.044  30.894  33.957  1.00  0.00     0.167 HD
ATOM     63  C   UNL A   1      39.283  33.048  34.562  1.00  0.00     0.074 A 
ATOM     64  C   UNL A   1      38.213  34.020  34.450  1.00  0.00     0.031 C 
ATOM     65  C   UNL A   1      40.125  32.954  35.621  1.00  0.00     0.037 A 
BRANCH  52  66
ATOM     66  C   UNL A   1      44.415  28.530  35.102  1.00  0.00     0.058 A 
ATOM     67  C   UNL A   1      45.721  29.007  34.910  1.00  0.00     0.135 A 
ATOM     68  C   UNL A   1      44.244  27.398  35.915  1.00  0.00     0.135 A 
ATOM     69  F   UNL A   1      45.943  30.074  34.127  1.00  0.00    -0.206 F 
ATOM     70  C   UNL A   1      46.818  28.374  35.487  1.00  0.00     0.059 A 
ATOM     71  C   UNL A   1      45.325  26.761  36.519  1.00  0.00     0.059 A 
ATOM     72  F   UNL A   1      43.016  26.900  36.130  1.00  0.00    -0.206 F 
ATOM     73  C   UNL A   1      46.610  27.249  36.288  1.00  0.00     0.060 A 
BRANCH  73  74
ATOM     74  S   UNL A   1      48.042  26.436  37.028  1.00  0.00     0.124 S 
ATOM     75  O   UNL A   1      47.973  25.112  36.417  1.00  0.00    -0.237 OA
ATOM     76  O   UNL A   1      49.147  27.280  36.583  1.00  0.00    -0.237 OA
ATOM     77  O   UNL A   1      47.760  26.482  38.459  1.00  0.00    -0.744 OA
ENDBRANCH  73  74
ENDBRANCH  52  66
BRANCH  53  78
ATOM     78  C   UNL A   1      36.612  32.952  30.679  1.00  0.00     0.058 A 
ATOM     79  C   UNL A   1      35.294  32.759  31.116  1.00  0.00     0.135 A 
ATOM     80  C   UNL A   1      36.834  33.863  29.635  1.00  0.00     0.135 A 
ATOM     81  F   UNL A   1      35.035  31.894  32.107  1.00  0.00    -0.206 F 
ATOM     82  C   UNL A   1      34.234  33.460  30.551  1.00  0.00     0.059 A 
ATOM     83  C   UNL A   1      35.794  34.591  29.070  1.00  0.00     0.059 A 
ATOM     84  F   UNL A   1      38.082  34.091  29.197  1.00  0.00    -0.206 F 
ATOM     85  C   UNL A   1      34.496  34.383  29.537  1.00  0.00     0.060 A 
BRANCH  85  86
ATOM     86  S   UNL A   1      33.129  35.366  28.884  1.00  0.00     0.124 S 
ATOM     87  O   UNL A   1      32.472  34.408  28.003  1.00  0.00    -0.237 OA
ATOM     88  O   UNL A   1      32.400  35.723  30.098  1.00  0.00    -0.237 OA
ATOM     89  O   UNL A   1      33.804  36.478  28.220  1.00  0.00    -0.744 OA
ENDBRANCH  85  86
ENDBRANCH  53  78
BRANCH  65  90
ATOM     90  C   UNL A   1      39.926  33.937  36.737  1.00  0.00     0.058 A 
ATOM     91  C   UNL A   1      40.630  35.150  36.776  1.00  0.00     0.135 A 
ATOM     92  C   UNL A   1      38.994  33.682  37.754  1.00  0.00     0.135 A 
ATOM     93  F   UNL A   1      41.537  35.435  35.829  1.00  0.00    -0.206 F 
ATOM     94  C   UNL A   1      40.430  36.070  37.799  1.00  0.00     0.059 A 
ATOM     95  C   UNL A   1      38.764  34.596  38.776  1.00  0.00     0.059 A 
ATOM     96  F   UNL A   1      38.291  32.537  37.755  1.00  0.00    -0.206 F 
ATOM     97  C   UNL A   1      39.496  35.783  38.795  1.00  0.00     0.060 A 
BRANCH  97  98
ATOM     98  S   UNL A   1      39.225  36.997  40.104  1.00  0.00     0.124 S 
ATOM     99  O   UNL A   1      38.450  36.221  41.067  1.00  0.00    -0.237 OA
ATOM    100  O   UNL A   1      40.587  37.331  40.509  1.00  0.00    -0.237 OA
ATOM    101  O   UNL A   1      38.498  38.068  39.429  1.00  0.00    -0.744 OA
ENDBRANCH  97  98
ENDBRANCH  65  90
ENDBRANCH  39  40
ENDBRANCH  31  34
ENDBRANCH  29  30
ENDBRANCH  28  29
ENDBRANCH   1  28
TORSDOF 18
ENDMDL
MODEL 2
REMARK VINA RESULT:     -11.6      5.931     11.448
REMARK SMILES CC(C)CN(C)c1cc2c(cc1Cl)C=C(C(=O)NCCCCNC(=O)c1ccc(-c3c4nc(c(-c5c(F)cc(S(=O)(=O)[O-])cc5F)c5ccc([nH]5)c(-c5c(F)cc(S(=O)(=O)[O-])cc5F)c5nc(c(-c6c(F)cc(S(=O)(=O)[O-])cc6F)c6ccc3[nH]6)C=C5)C=C4)cc1)[C@@H](C(F)(F)F)O2
REMARK SMILES IDX 20 1 19 2 18 3 16 4 17 5 15 7 7 8 8 9 12 10 9 11 11 12 13 13
REMARK SMILES IDX 10 14 97 15 14 16 92 17 5 18 6 19 4 20 2 21 1 22 3 23 93 24
REMARK SMILES IDX 94 25 95 26 96 27 21 28 22 29 23 30 24 31 25 33 26 34 27 35
REMARK SMILES IDX 91 36 28 37 90 38 29 39 30 40 31 41 84 42 32 43 89 44 83 45
REMARK SMILES IDX 85 46 33 47 88 48 82 49 81 50 34 52 68 53 47 54 67 55 48 56
REMARK SMILES IDX 51 57 66 58 86 59 49 60 50 61 65 63 87 64 52 65 35 66 36 67
REMARK SMILES IDX 45 68 37 69 38 70 44 71 46 72 39 73 40 74 41 75 42 76 43 77
REMARK SMILES IDX 69 78 70 79 79 80 71 81 72 82 78 83 80 84 73 85 74 86 75 87
REMARK SMILES IDX 76 88 77 89 53 90 54 91 63 92 55 93 56 94 62 95 64 96 57 97
REMARK SMILES IDX 58 98 59 99 60 100 61 101
REMARK H PARENT 18 6 23 32 85 51 51 62
REMARK Flexibility Score: inf
ROOT
ATOM      1  C   UNL A   1      33.505  30.450  26.772  1.00  0.00     0.023 C 
ENDROOT
BRANCH   1   2
ATOM      2  C   UNL A   1      31.999  30.213  26.790  1.00  0.00     0.116 C 
BRANCH   2   3
ATOM      3  N   UNL A   1      31.440  30.199  25.450  1.00  0.00    -0.352 N 
ATOM      4  C   UNL A   1      31.123  29.259  24.531  1.00  0.00     0.251 C 
ATOM      5  O   UNL A   1      30.614  29.684  23.489  1.00  0.00    -0.270 OA
ATOM      6  H   UNL A   1      31.241  31.108  25.129  1.00  0.00     0.163 HD
BRANCH   4   7
ATOM      7  C   UNL A   1      31.355  27.796  24.687  1.00  0.00     0.067 C 
ATOM      8  C   UNL A   1      33.466  23.247  25.244  1.00  0.00     0.059 A 
ATOM      9  C   UNL A   1      32.330  23.877  25.777  1.00  0.00     0.074 A 
ATOM     10  C   UNL A   1      34.267  23.988  24.345  1.00  0.00     0.065 A 
ATOM     11  C   UNL A   1      32.032  25.196  25.445  1.00  0.00     0.130 A 
ATOM     12  C   UNL A   1      34.012  25.342  24.090  1.00  0.00     0.034 A 
ATOM     13  Cl  UNL A   1      35.590  23.268  23.491  1.00  0.00    -0.082 Cl
ATOM     14  C   UNL A   1      32.898  25.952  24.653  1.00  0.00     0.019 A 
ATOM     15  O   UNL A   1      30.861  25.720  25.929  1.00  0.00    -0.475 OA
ATOM     16  C   UNL A   1      32.612  27.369  24.457  1.00  0.00     0.025 C 
ATOM     17  C   UNL A   1      30.315  26.791  25.097  1.00  0.00     0.314 C 
BRANCH   8  18
ATOM     18  N   UNL A   1      33.786  21.932  25.622  1.00  0.00    -0.373 N 
ATOM     19  C   UNL A   1      34.770  21.825  26.697  1.00  0.00     0.143 C 
BRANCH  18  20
ATOM     20  C   UNL A   1      33.907  20.952  24.522  1.00  0.00     0.119 C 
BRANCH  20  21
ATOM     21  C   UNL A   1      32.539  20.550  23.929  1.00  0.00     0.002 C 
ATOM     22  C   UNL A   1      32.170  21.393  22.705  1.00  0.00     0.009 C 
ATOM     23  C   UNL A   1      32.528  19.071  23.533  1.00  0.00     0.009 C 
ENDBRANCH  20  21
ENDBRANCH  18  20
ENDBRANCH   8  18
BRANCH  17  24
ATOM     24  C   UNL A   1      29.559  26.205  23.880  1.00  0.00     0.429 C 
ATOM     25  F   UNL A   1      29.898  26.869  22.747  1.00  0.00    -0.167 F 
ATOM     26  F   UNL A   1      29.858  24.901  23.668  1.00  0.00    -0.167 F 
ATOM     27  F   UNL A   1      28.215  26.276  24.000  1.00  0.00    -0.167 F 
ENDBRANCH  17  24
ENDBRANCH   4   7
ENDBRANCH   2   3
ENDBRANCH   1   2
BRANCH   1  28
ATOM     28  C   UNL A   1      33.994  31.442  27.829  1.00  0.00     0.023 C 
BRANCH  28  29
ATOM     29  C   UNL A   1      35.314  31.076  28.500  1.00  0.00     0.116 C 
BRANCH  29  30
ATOM     30  N   UNL A   1      35.325  31.281  29.943  1.00  0.00    -0.352 N 
ATOM     31  C   UNL A   1      36.304  30.906  30.841  1.00  0.00     0.251 C 
ATOM     32  H   UNL A   1      34.540  31.741  30.322  1.00  0.00     0.163 HD
ATOM     33  O   UNL A   1      36.164  31.079  32.035  1.00  0.00    -0.269 OA
BRANCH  31  34
ATOM     34  C   UNL A   1      37.507  30.241  30.298  1.00  0.00     0.039 A 
ATOM     35  C   UNL A   1      38.265  29.403  31.117  1.00  0.00     0.014 A 
ATOM     36  C   UNL A   1      37.935  30.570  29.010  1.00  0.00     0.014 A 
ATOM     37  C   UNL A   1      39.536  29.025  30.707  1.00  0.00     0.010 A 
ATOM     38  C   UNL A   1      39.184  30.124  28.572  1.00  0.00     0.010 A 
ATOM     39  C   UNL A   1      40.013  29.393  29.437  1.00  0.00    -0.014 A 
BRANCH  39  40
ATOM     40  C   UNL A   1      41.388  29.003  29.037  1.00  0.00     0.031 A 
ATOM     41  C   UNL A   1      42.537  29.960  29.196  1.00  0.00     0.074 A 
ATOM     42  C   UNL A   1      41.601  27.754  28.581  1.00  0.00     0.049 A 
ATOM     43  N   UNL A   1      43.797  29.790  28.888  1.00  0.00    -0.248 NA
ATOM     44  C   UNL A   1      42.236  31.280  29.775  1.00  0.00     0.031 C 
ATOM     45  C   UNL A   1      40.563  26.735  28.409  1.00  0.00     0.029 A 
ATOM     46  N   UNL A   1      42.756  27.121  28.207  1.00  0.00    -0.354 N 
ATOM     47  C   UNL A   1      44.436  30.982  29.211  1.00  0.00     0.074 A 
ATOM     48  C   UNL A   1      43.420  31.876  29.726  1.00  0.00     0.031 C 
ATOM     49  C   UNL A   1      41.136  25.587  28.020  1.00  0.00     0.029 A 
ATOM     50  C   UNL A   1      42.568  25.807  27.850  1.00  0.00     0.049 A 
ATOM     51  H   UNL A   1      43.635  27.564  28.196  1.00  0.00     0.167 HD
ATOM     52  C   UNL A   1      45.747  31.298  29.091  1.00  0.00     0.037 A 
ATOM     53  C   UNL A   1      43.448  24.885  27.421  1.00  0.00     0.037 A 
ATOM     54  C   UNL A   1      46.753  30.394  28.595  1.00  0.00     0.049 A 
ATOM     55  C   UNL A   1      44.891  25.264  27.276  1.00  0.00     0.074 A 
ATOM     56  C   UNL A   1      48.109  30.620  28.425  1.00  0.00     0.029 A 
ATOM     57  N   UNL A   1      46.517  29.085  28.198  1.00  0.00    -0.354 N 
ATOM     58  N   UNL A   1      45.468  26.411  27.544  1.00  0.00    -0.248 NA
ATOM     59  C   UNL A   1      45.799  24.234  26.758  1.00  0.00     0.031 C 
ATOM     60  C   UNL A   1      48.686  29.458  27.901  1.00  0.00     0.029 A 
ATOM     61  C   UNL A   1      47.697  28.495  27.778  1.00  0.00     0.049 A 
ATOM     62  H   UNL A   1      45.637  28.642  28.212  1.00  0.00     0.167 HD
ATOM     63  C   UNL A   1      46.810  26.240  27.231  1.00  0.00     0.074 A 
ATOM     64  C   UNL A   1      46.961  24.873  26.771  1.00  0.00     0.031 C 
ATOM     65  C   UNL A   1      47.825  27.136  27.314  1.00  0.00     0.037 A 
BRANCH  52  66
ATOM     66  C   UNL A   1      46.171  32.686  29.484  1.00  0.00     0.058 A 
ATOM     67  C   UNL A   1      46.158  33.749  28.568  1.00  0.00     0.135 A 
ATOM     68  C   UNL A   1      46.555  32.965  30.806  1.00  0.00     0.135 A 
ATOM     69  F   UNL A   1      45.817  33.533  27.288  1.00  0.00    -0.206 F 
ATOM     70  C   UNL A   1      46.533  35.036  28.943  1.00  0.00     0.059 A 
ATOM     71  C   UNL A   1      46.914  34.250  31.208  1.00  0.00     0.059 A 
ATOM     72  F   UNL A   1      46.586  31.985  31.723  1.00  0.00    -0.206 F 
ATOM     73  C   UNL A   1      46.912  35.276  30.265  1.00  0.00     0.060 A 
BRANCH  73  74
ATOM     74  S   UNL A   1      47.397  36.950  30.736  1.00  0.00     0.124 S 
ATOM     75  O   UNL A   1      46.480  37.754  29.934  1.00  0.00    -0.237 OA
ATOM     76  O   UNL A   1      47.149  36.956  32.175  1.00  0.00    -0.237 OA
ATOM     77  O   UNL A   1      48.801  37.022  30.345  1.00  0.00    -0.744 OA
ENDBRANCH  73  74
ENDBRANCH  52  66
BRANCH  53  78
ATOM     78  C   UNL A   1      42.965  23.517  27.109  1.00  0.00     0.058 A 
ATOM     79  C   UNL A   1      42.885  23.070  25.783  1.00  0.00     0.135 A 
ATOM     80  C   UNL A   1      42.658  22.606  28.132  1.00  0.00     0.135 A 
ATOM     81  F   UNL A   1      43.164  23.908  24.774  1.00  0.00    -0.206 F 
ATOM     82  C   UNL A   1      42.534  21.759  25.480  1.00  0.00     0.059 A 
ATOM     83  C   UNL A   1      42.325  21.285  27.854  1.00  0.00     0.059 A 
ATOM     84  F   UNL A   1      42.737  22.986  29.416  1.00  0.00    -0.206 F 
ATOM     85  C   UNL A   1      42.268  20.870  26.524  1.00  0.00     0.060 A 
BRANCH  85  86
ATOM     86  S   UNL A   1      41.918  19.144  26.126  1.00  0.00     0.124 S 
ATOM     87  O   UNL A   1      42.253  18.479  27.380  1.00  0.00    -0.237 OA
ATOM     88  O   UNL A   1      40.499  19.188  25.785  1.00  0.00    -0.237 OA
ATOM     89  O   UNL A   1      42.813  18.872  25.005  1.00  0.00    -0.744 OA
ENDBRANCH  85  86
ENDBRANCH  53  78
BRANCH  65  90
ATOM     90  C   UNL A   1      49.189  26.660  26.908  1.00  0.00     0.058 A 
ATOM     91  C   UNL A   1      49.632  26.762  25.581  1.00  0.00     0.135 A 
ATOM     92  C   UNL A   1      50.074  26.137  27.862  1.00  0.00     0.135 A 
ATOM     93  F   UNL A   1      48.817  27.249  24.632  1.00  0.00    -0.206 F 
ATOM     94  C   UNL A   1      50.903  26.340  25.209  1.00  0.00     0.059 A 
ATOM     95  C   UNL A   1      51.357  25.727  27.516  1.00  0.00     0.059 A 
ATOM     96  F   UNL A   1      49.697  26.027  29.146  1.00  0.00    -0.206 F 
ATOM     97  C   UNL A   1      51.758  25.823  26.183  1.00  0.00     0.060 A 
BRANCH  97  98
ATOM     98  S   UNL A   1      53.416  25.304  25.693  1.00  0.00     0.124 S 
ATOM     99  O   UNL A   1      53.200  23.897  25.375  1.00  0.00    -0.237 OA
ATOM    100  O   UNL A   1      53.696  26.176  24.557  1.00  0.00    -0.237 OA
ATOM    101  O   UNL A   1      54.219  25.562  26.885  1.00  0.00    -0.744 OA
ENDBRANCH  97  98
ENDBRANCH  65  90
ENDBRANCH  39  40
ENDBRANCH  31  34
ENDBRANCH  29  30
ENDBRANCH  28  29
ENDBRANCH   1  28
TORSDOF 18
ENDMDL
MODEL 3
REMARK VINA RESULT:     -11.6      5.976      8.045
REMARK SMILES CC(C)CN(C)c1cc2c(cc1Cl)C=C(C(=O)NCCCCNC(=O)c1ccc(-c3c4nc(c(-c5c(F)cc(S(=O)(=O)[O-])cc5F)c5ccc([nH]5)c(-c5c(F)cc(S(=O)(=O)[O-])cc5F)c5nc(c(-c6c(F)cc(S(=O)(=O)[O-])cc6F)c6ccc3[nH]6)C=C5)C=C4)cc1)[C@@H](C(F)(F)F)O2
REMARK SMILES IDX 20 1 19 2 18 3 16 4 17 5 15 7 7 8 8 9 12 10 9 11 11 12 13 13
REMARK SMILES IDX 10 14 97 15 14 16 92 17 5 18 6 19 4 20 2 21 1 22 3 23 93 24
REMARK SMILES IDX 94 25 95 26 96 27 21 28 22 29 23 30 24 31 25 33 26 34 27 35
REMARK SMILES IDX 91 36 28 37 90 38 29 39 30 40 31 41 84 42 32 43 89 44 83 45
REMARK SMILES IDX 85 46 33 47 88 48 82 49 81 50 34 52 68 53 47 54 67 55 48 56
REMARK SMILES IDX 51 57 66 58 86 59 49 60 50 61 65 63 87 64 52 65 35 66 36 67
REMARK SMILES IDX 45 68 37 69 38 70 44 71 46 72 39 73 40 74 41 75 42 76 43 77
REMARK SMILES IDX 69 78 70 79 79 80 71 81 72 82 78 83 80 84 73 85 74 86 75 87
REMARK SMILES IDX 76 88 77 89 53 90 54 91 63 92 55 93 56 94 62 95 64 96 57 97
REMARK SMILES IDX 58 98 59 99 60 100 61 101
REMARK H PARENT 18 6 23 32 85 51 51 62
REMARK Flexibility Score: inf
ROOT
ATOM      1  C   UNL A   1      37.599  21.703  25.200  1.00  0.00     0.023 C 
ENDROOT
BRANCH   1   2
ATOM      2  C   UNL A   1      36.128  21.452  24.883  1.00  0.00     0.116 C 
BRANCH   2   3
ATOM      3  N   UNL A   1      35.336  21.302  26.089  1.00  0.00    -0.352 N 
ATOM      4  C   UNL A   1      34.237  21.888  26.619  1.00  0.00     0.251 C 
ATOM      5  O   UNL A   1      33.849  21.418  27.693  1.00  0.00    -0.270 OA
ATOM      6  H   UNL A   1      35.688  20.591  26.672  1.00  0.00     0.163 HD
BRANCH   4   7
ATOM      7  C   UNL A   1      33.502  23.033  26.013  1.00  0.00     0.067 C 
ATOM      8  C   UNL A   1      32.241  27.533  24.112  1.00  0.00     0.059 A 
ATOM      9  C   UNL A   1      31.953  26.204  23.767  1.00  0.00     0.074 A 
ATOM     10  C   UNL A   1      33.080  27.756  25.228  1.00  0.00     0.065 A 
ATOM     11  C   UNL A   1      32.505  25.150  24.491  1.00  0.00     0.130 A 
ATOM     12  C   UNL A   1      33.704  26.691  25.892  1.00  0.00     0.034 A 
ATOM     13  Cl  UNL A   1      33.367  29.344  25.855  1.00  0.00    -0.082 Cl
ATOM     14  C   UNL A   1      33.426  25.384  25.513  1.00  0.00     0.019 A 
ATOM     15  O   UNL A   1      32.110  23.880  24.158  1.00  0.00    -0.475 OA
ATOM     16  C   UNL A   1      34.083  24.241  26.140  1.00  0.00     0.025 C 
ATOM     17  C   UNL A   1      32.201  22.932  25.267  1.00  0.00     0.314 C 
BRANCH   8  18
ATOM     18  N   UNL A   1      31.719  28.590  23.347  1.00  0.00    -0.373 N 
ATOM     19  C   UNL A   1      32.691  29.264  22.488  1.00  0.00     0.143 C 
BRANCH  18  20
ATOM     20  C   UNL A   1      30.731  29.456  24.024  1.00  0.00     0.119 C 
BRANCH  20  21
ATOM     21  C   UNL A   1      29.371  29.492  23.294  1.00  0.00     0.002 C 
ATOM     22  C   UNL A   1      29.472  30.153  21.916  1.00  0.00     0.009 C 
ATOM     23  C   UNL A   1      28.804  28.080  23.124  1.00  0.00     0.009 C 
ENDBRANCH  20  21
ENDBRANCH  18  20
ENDBRANCH   8  18
BRANCH  17  24
ATOM     24  C   UNL A   1      30.978  23.074  26.206  1.00  0.00     0.429 C 
ATOM     25  F   UNL A   1      30.213  24.129  25.835  1.00  0.00    -0.167 F 
ATOM     26  F   UNL A   1      30.175  21.983  26.173  1.00  0.00    -0.167 F 
ATOM     27  F   UNL A   1      31.318  23.260  27.501  1.00  0.00    -0.167 F 
ENDBRANCH  17  24
ENDBRANCH   4   7
ENDBRANCH   2   3
ENDBRANCH   1   2
BRANCH   1  28
ATOM     28  C   UNL A   1      38.459  20.438  25.222  1.00  0.00     0.023 C 
BRANCH  28  29
ATOM     29  C   UNL A   1      39.734  20.534  26.054  1.00  0.00     0.116 C 
BRANCH  29  30
ATOM     30  N   UNL A   1      40.552  19.329  26.029  1.00  0.00    -0.352 N 
ATOM     31  C   UNL A   1      41.919  19.234  26.209  1.00  0.00     0.251 C 
ATOM     32  H   UNL A   1      40.075  18.483  25.865  1.00  0.00     0.163 HD
ATOM     33  O   UNL A   1      42.495  18.170  26.101  1.00  0.00    -0.269 OA
BRANCH  31  34
ATOM     34  C   UNL A   1      42.657  20.483  26.487  1.00  0.00     0.039 A 
ATOM     35  C   UNL A   1      42.660  21.013  27.778  1.00  0.00     0.014 A 
ATOM     36  C   UNL A   1      43.229  21.179  25.420  1.00  0.00     0.014 A 
ATOM     37  C   UNL A   1      43.090  22.319  27.972  1.00  0.00     0.010 A 
ATOM     38  C   UNL A   1      43.730  22.465  25.636  1.00  0.00     0.010 A 
ATOM     39  C   UNL A   1      43.617  23.062  26.901  1.00  0.00    -0.014 A 
BRANCH  39  40
ATOM     40  C   UNL A   1      44.039  24.466  27.130  1.00  0.00     0.031 A 
ATOM     41  C   UNL A   1      45.455  24.898  26.859  1.00  0.00     0.074 A 
ATOM     42  C   UNL A   1      43.119  25.362  27.529  1.00  0.00     0.049 A 
ATOM     43  N   UNL A   1      45.998  26.078  27.014  1.00  0.00    -0.248 NA
ATOM     44  C   UNL A   1      46.383  23.875  26.349  1.00  0.00     0.031 C 
ATOM     45  C   UNL A   1      41.711  25.058  27.798  1.00  0.00     0.029 A 
ATOM     46  N   UNL A   1      43.217  26.710  27.753  1.00  0.00    -0.354 N 
ATOM     47  C   UNL A   1      47.331  25.939  26.647  1.00  0.00     0.074 A 
ATOM     48  C   UNL A   1      47.521  24.553  26.273  1.00  0.00     0.031 C 
ATOM     49  C   UNL A   1      41.065  26.195  28.092  1.00  0.00     0.029 A 
ATOM     50  C   UNL A   1      42.023  27.295  28.099  1.00  0.00     0.049 A 
ATOM     51  H   UNL A   1      44.061  27.211  27.671  1.00  0.00     0.167 HD
ATOM     52  C   UNL A   1      48.303  26.881  26.621  1.00  0.00     0.037 A 
ATOM     53  C   UNL A   1      41.733  28.573  28.402  1.00  0.00     0.037 A 
ATOM     54  C   UNL A   1      48.099  28.262  26.976  1.00  0.00     0.049 A 
ATOM     55  C   UNL A   1      42.830  29.594  28.386  1.00  0.00     0.074 A 
ATOM     56  C   UNL A   1      49.022  29.295  26.992  1.00  0.00     0.029 A 
ATOM     57  N   UNL A   1      46.885  28.808  27.368  1.00  0.00    -0.354 N 
ATOM     58  N   UNL A   1      44.095  29.434  28.079  1.00  0.00    -0.248 NA
ATOM     59  C   UNL A   1      42.468  30.964  28.772  1.00  0.00     0.031 C 
ATOM     60  C   UNL A   1      48.371  30.458  27.419  1.00  0.00     0.029 A 
ATOM     61  C   UNL A   1      47.035  30.159  27.634  1.00  0.00     0.049 A 
ATOM     62  H   UNL A   1      46.040  28.308  27.446  1.00  0.00     0.167 HD
ATOM     63  C   UNL A   1      44.681  30.685  28.230  1.00  0.00     0.074 A 
ATOM     64  C   UNL A   1      43.627  31.593  28.638  1.00  0.00     0.031 C 
ATOM     65  C   UNL A   1      45.976  31.045  28.049  1.00  0.00     0.037 A 
BRANCH  52  66
ATOM     66  C   UNL A   1      49.684  26.449  26.212  1.00  0.00     0.058 A 
ATOM     67  C   UNL A   1      50.187  26.704  24.927  1.00  0.00     0.135 A 
ATOM     68  C   UNL A   1      50.531  25.807  27.131  1.00  0.00     0.135 A 
ATOM     69  F   UNL A   1      49.414  27.297  24.004  1.00  0.00    -0.206 F 
ATOM     70  C   UNL A   1      51.473  26.319  24.560  1.00  0.00     0.059 A 
ATOM     71  C   UNL A   1      51.828  25.432  26.792  1.00  0.00     0.059 A 
ATOM     72  F   UNL A   1      50.100  25.538  28.374  1.00  0.00    -0.206 F 
ATOM     73  C   UNL A   1      52.286  25.681  25.499  1.00  0.00     0.060 A 
BRANCH  73  74
ATOM     74  S   UNL A   1      53.951  25.185  25.008  1.00  0.00     0.124 S 
ATOM     75  O   UNL A   1      54.745  25.693  26.123  1.00  0.00    -0.237 OA
ATOM     76  O   UNL A   1      53.835  23.732  24.925  1.00  0.00    -0.237 OA
ATOM     77  O   UNL A   1      54.150  25.869  23.734  1.00  0.00    -0.744 OA
ENDBRANCH  73  74
ENDBRANCH  52  66
BRANCH  53  78
ATOM     78  C   UNL A   1      40.333  28.936  28.737  1.00  0.00     0.058 A 
ATOM     79  C   UNL A   1      39.916  29.024  30.073  1.00  0.00     0.135 A 
ATOM     80  C   UNL A   1      39.415  29.283  27.735  1.00  0.00     0.135 A 
ATOM     81  F   UNL A   1      40.759  28.696  31.062  1.00  0.00    -0.206 F 
ATOM     82  C   UNL A   1      38.639  29.462  30.405  1.00  0.00     0.059 A 
ATOM     83  C   UNL A   1      38.140  29.744  28.043  1.00  0.00     0.059 A 
ATOM     84  F   UNL A   1      39.777  29.230  26.444  1.00  0.00    -0.206 F 
ATOM     85  C   UNL A   1      37.762  29.832  29.383  1.00  0.00     0.060 A 
BRANCH  85  86
ATOM     86  S   UNL A   1      36.145  30.501  29.827  1.00  0.00     0.124 S 
ATOM     87  O   UNL A   1      36.452  31.915  30.012  1.00  0.00    -0.237 OA
ATOM     88  O   UNL A   1      35.341  30.169  28.654  1.00  0.00    -0.237 OA
ATOM     89  O   UNL A   1      35.800  29.764  31.040  1.00  0.00    -0.744 OA
ENDBRANCH  85  86
ENDBRANCH  53  78
BRANCH  65  90
ATOM     90  C   UNL A   1      46.320  32.487  28.284  1.00  0.00     0.058 A 
ATOM     91  C   UNL A   1      46.201  33.441  27.262  1.00  0.00     0.135 A 
ATOM     92  C   UNL A   1      46.732  32.923  29.552  1.00  0.00     0.135 A 
ATOM     93  F   UNL A   1      45.817  33.069  26.031  1.00  0.00    -0.206 F 
ATOM     94  C   UNL A   1      46.500  34.780  27.486  1.00  0.00     0.059 A 
ATOM     95  C   UNL A   1      47.017  34.261  29.802  1.00  0.00     0.059 A 
ATOM     96  F   UNL A   1      46.853  32.048  30.562  1.00  0.00    -0.206 F 
ATOM     97  C   UNL A   1      46.908  35.181  28.759  1.00  0.00     0.060 A 
BRANCH  97  98
ATOM     98  S   UNL A   1      47.268  36.926  29.044  1.00  0.00     0.124 S 
ATOM     99  O   UNL A   1      46.022  37.555  28.617  1.00  0.00    -0.237 OA
ATOM    100  O   UNL A   1      47.537  36.962  30.478  1.00  0.00    -0.237 OA
ATOM    101  O   UNL A   1      48.424  37.179  28.190  1.00  0.00    -0.744 OA
ENDBRANCH  97  98
ENDBRANCH  65  90
ENDBRANCH  39  40
ENDBRANCH  31  34
ENDBRANCH  29  30
ENDBRANCH  28  29
ENDBRANCH   1  28
TORSDOF 18
ENDMDL
