MODEL 1
REMARK VINA RESULT:     -13.0      0.000      0.000
REMARK SMILES CCOc1ccccc1[C@H]1CC(C(=O)NCCCCNC(=O)c2ccc(-c3c4nc(c(-c5c(F)cc(S(=O)(=O)[O-])cc5F)c5ccc([nH]5)c(-c5c(F)cc(S(=O)(=O)[O-])cc5F)c5nc(c(-c6c(F)cc(S(=O)(=O)[O-])cc6F)c6ccc3[nH]6)C=C5)C=C4)cc2)=Nc2c(C(=O)Nc3ccccc3)cnn21
REMARK SMILES IDX 17 1 16 2 15 3 13 4 14 5 12 7 10 8 11 9 103 10 90 11 102 12
REMARK SMILES IDX 89 13 91 14 101 15 9 16 4 17 5 18 6 19 8 20 7 21 3 22 2 23
REMARK SMILES IDX 1 24 92 25 93 26 94 27 95 29 96 30 100 31 97 32 99 33 98 34
REMARK SMILES IDX 18 35 19 36 20 37 21 38 22 40 23 41 24 42 88 43 25 44 87 45
REMARK SMILES IDX 26 46 27 47 28 48 81 49 29 50 86 51 80 52 82 53 30 54 85 55
REMARK SMILES IDX 79 56 78 57 31 59 65 60 44 61 64 62 45 63 48 64 63 65 83 66
REMARK SMILES IDX 46 67 47 68 62 70 84 71 49 72 32 73 33 74 42 75 34 76 35 77
REMARK SMILES IDX 41 78 43 79 36 80 37 81 38 82 39 83 40 84 66 85 67 86 76 87
REMARK SMILES IDX 68 88 69 89 75 90 77 91 70 92 71 93 72 94 73 95 74 96 50 97
REMARK SMILES IDX 51 98 60 99 52 100 53 101 59 102 61 103 54 104 55 105 56 106
REMARK SMILES IDX 57 107 58 108
REMARK H PARENT 15 6 94 28 20 39 82 58 48 69
REMARK Flexibility Score: inf
ROOT
ATOM      1  C   UNL A   1      36.040  29.409  27.737  1.00  0.00     0.023 C 
ENDROOT
BRANCH   1   2
ATOM      2  C   UNL A   1      34.930  29.150  26.731  1.00  0.00     0.116 C 
BRANCH   2   3
ATOM      3  N   UNL A   1      33.915  30.179  26.712  1.00  0.00    -0.351 N 
ATOM      4  C   UNL A   1      32.556  30.097  26.544  1.00  0.00     0.265 C 
ATOM      5  O   UNL A   1      31.851  30.916  27.123  1.00  0.00    -0.268 OA
ATOM      6  H   UNL A   1      34.256  31.093  26.844  1.00  0.00     0.163 HD
BRANCH   4   7
ATOM      7  C   UNL A   1      31.895  29.056  25.628  1.00  0.00     0.110 C 
ATOM      8  C   UNL A   1      30.835  28.620  23.243  1.00  0.00     0.150 C 
ATOM      9  C   UNL A   1      31.143  29.549  24.405  1.00  0.00     0.094 C 
ATOM     10  N   UNL A   1      31.572  27.382  23.351  1.00  0.00    -0.239 N 
ATOM     11  C   UNL A   1      31.655  26.863  25.135  1.00  0.00     0.164 A 
ATOM     12  N   UNL A   1      31.304  25.865  22.270  1.00  0.00    -0.178 NA
ATOM     13  N   UNL A   1      32.066  27.819  25.985  1.00  0.00    -0.227 NA
ATOM     14  C   UNL A   1      31.422  25.091  25.200  1.00  0.00     0.104 A 
ATOM     15  C   UNL A   1      31.201  24.503  23.361  1.00  0.00     0.151 A 
BRANCH   8  16
ATOM     16  C   UNL A   1      29.443  28.133  23.201  1.00  0.00     0.019 A 
ATOM     17  C   UNL A   1      28.552  29.107  22.747  1.00  0.00     0.124 A 
ATOM     18  C   UNL A   1      27.188  28.939  22.952  1.00  0.00     0.047 A 
ATOM     19  C   UNL A   1      26.742  27.770  23.594  1.00  0.00     0.004 A 
ATOM     20  C   UNL A   1      29.002  26.920  23.725  1.00  0.00     0.010 A 
ATOM     21  C   UNL A   1      27.638  26.746  23.935  1.00  0.00     0.001 A 
BRANCH  17  22
ATOM     22  O   UNL A   1      29.112  30.318  22.143  1.00  0.00    -0.494 OA
BRANCH  22  23
ATOM     23  C   UNL A   1      28.726  32.345  21.647  1.00  0.00     0.226 C 
ATOM     24  C   UNL A   1      27.654  32.978  20.501  1.00  0.00     0.049 C 
ENDBRANCH  22  23
ENDBRANCH  17  22
ENDBRANCH   8  16
BRANCH  14  25
ATOM     25  C   UNL A   1      31.770  24.154  26.277  1.00  0.00     0.261 C 
ATOM     26  O   UNL A   1      31.022  24.044  27.251  1.00  0.00    -0.269 OA
ATOM     27  N   UNL A   1      32.767  23.216  26.092  1.00  0.00    -0.322 N 
ATOM     28  H   UNL A   1      32.641  22.360  26.560  1.00  0.00     0.170 HD
BRANCH  27  29
ATOM     29  C   UNL A   1      33.933  23.324  25.325  1.00  0.00     0.041 A 
ATOM     30  C   UNL A   1      34.987  24.105  25.808  1.00  0.00     0.026 A 
ATOM     31  C   UNL A   1      34.074  22.629  24.119  1.00  0.00     0.026 A 
ATOM     32  C   UNL A   1      36.221  24.078  25.154  1.00  0.00     0.002 A 
ATOM     33  C   UNL A   1      35.303  22.622  23.457  1.00  0.00     0.002 A 
ATOM     34  C   UNL A   1      36.384  23.325  23.989  1.00  0.00     0.000 A 
ENDBRANCH  27  29
ENDBRANCH  14  25
ENDBRANCH   4   7
ENDBRANCH   2   3
ENDBRANCH   1   2
BRANCH   1  35
ATOM     35  C   UNL A   1      35.596  30.181  28.982  1.00  0.00     0.023 C 
BRANCH  35  36
ATOM     36  C   UNL A   1      36.178  31.586  29.094  1.00  0.00     0.116 C 
BRANCH  36  37
ATOM     37  N   UNL A   1      35.996  32.177  30.419  1.00  0.00    -0.352 N 
ATOM     38  C   UNL A   1      36.355  31.632  31.640  1.00  0.00     0.251 C 
ATOM     39  H   UNL A   1      35.570  33.065  30.446  1.00  0.00     0.163 HD
ATOM     40  O   UNL A   1      35.763  31.975  32.658  1.00  0.00    -0.269 OA
BRANCH  38  41
ATOM     41  C   UNL A   1      37.509  30.702  31.702  1.00  0.00     0.039 A 
ATOM     42  C   UNL A   1      37.376  29.327  31.911  1.00  0.00     0.014 A 
ATOM     43  C   UNL A   1      38.780  31.246  31.542  1.00  0.00     0.014 A 
ATOM     44  C   UNL A   1      38.540  28.536  31.995  1.00  0.00     0.010 A 
ATOM     45  C   UNL A   1      39.885  30.435  31.402  1.00  0.00     0.010 A 
ATOM     46  C   UNL A   1      39.819  29.104  31.772  1.00  0.00    -0.014 A 
BRANCH  46  47
ATOM     47  C   UNL A   1      41.041  28.302  31.506  1.00  0.00     0.031 A 
ATOM     48  C   UNL A   1      41.605  27.932  32.847  1.00  0.00     0.074 A 
ATOM     49  C   UNL A   1      41.472  27.828  30.287  1.00  0.00     0.049 A 
ATOM     50  N   UNL A   1      42.553  28.562  33.461  1.00  0.00    -0.248 NA
ATOM     51  C   UNL A   1      40.847  27.050  33.771  1.00  0.00     0.031 C 
ATOM     52  C   UNL A   1      40.846  28.006  28.964  1.00  0.00     0.029 A 
ATOM     53  N   UNL A   1      42.576  27.046  29.942  1.00  0.00    -0.354 N 
ATOM     54  C   UNL A   1      42.779  27.837  34.629  1.00  0.00     0.074 A 
ATOM     55  C   UNL A   1      41.546  27.171  34.906  1.00  0.00     0.031 C 
ATOM     56  C   UNL A   1      41.411  27.185  28.035  1.00  0.00     0.029 A 
ATOM     57  C   UNL A   1      42.551  26.495  28.613  1.00  0.00     0.049 A 
ATOM     58  H   UNL A   1      43.322  26.884  30.565  1.00  0.00     0.167 HD
ATOM     59  C   UNL A   1      44.065  27.519  34.958  1.00  0.00     0.037 A 
ATOM     60  C   UNL A   1      43.455  25.628  28.021  1.00  0.00     0.037 A 
ATOM     61  C   UNL A   1      44.952  28.338  34.162  1.00  0.00     0.049 A 
ATOM     62  C   UNL A   1      44.701  25.758  28.803  1.00  0.00     0.074 A 
ATOM     63  C   UNL A   1      45.244  29.682  34.059  1.00  0.00     0.029 A 
ATOM     64  N   UNL A   1      45.228  27.764  32.950  1.00  0.00    -0.354 N 
ATOM     65  N   UNL A   1      45.417  26.845  28.810  1.00  0.00    -0.248 NA
ATOM     66  C   UNL A   1      44.838  24.884  29.953  1.00  0.00     0.031 C 
ATOM     67  C   UNL A   1      45.531  29.912  32.680  1.00  0.00     0.029 A 
ATOM     68  C   UNL A   1      45.580  28.689  32.017  1.00  0.00     0.049 A 
ATOM     69  H   UNL A   1      45.177  26.797  32.774  1.00  0.00     0.167 HD
ATOM     70  C   UNL A   1      45.682  27.045  30.152  1.00  0.00     0.074 A 
ATOM     71  C   UNL A   1      45.394  25.756  30.796  1.00  0.00     0.031 C 
ATOM     72  C   UNL A   1      45.764  28.318  30.638  1.00  0.00     0.037 A 
BRANCH  59  73
ATOM     73  C   UNL A   1      44.538  26.160  35.470  1.00  0.00     0.058 A 
ATOM     74  C   UNL A   1      45.422  26.135  36.576  1.00  0.00     0.135 A 
ATOM     75  C   UNL A   1      44.410  24.928  34.788  1.00  0.00     0.135 A 
ATOM     76  F   UNL A   1      45.639  27.243  37.301  1.00  0.00    -0.206 F 
ATOM     77  C   UNL A   1      46.149  25.001  36.941  1.00  0.00     0.059 A 
ATOM     78  C   UNL A   1      45.099  23.774  35.160  1.00  0.00     0.059 A 
ATOM     79  F   UNL A   1      43.666  24.784  33.687  1.00  0.00    -0.206 F 
ATOM     80  C   UNL A   1      45.978  23.821  36.228  1.00  0.00     0.060 A 
BRANCH  80  81
ATOM     81  S   UNL A   1      46.884  22.348  36.734  1.00  0.00     0.124 S 
ATOM     82  O   UNL A   1      46.946  22.518  38.181  1.00  0.00    -0.237 OA
ATOM     83  O   UNL A   1      46.010  21.284  36.250  1.00  0.00    -0.237 OA
ATOM     84  O   UNL A   1      48.154  22.477  36.027  1.00  0.00    -0.744 OA
ENDBRANCH  80  81
ENDBRANCH  59  73
BRANCH  60  85
ATOM     85  C   UNL A   1      43.347  24.464  27.049  1.00  0.00     0.058 A 
ATOM     86  C   UNL A   1      44.018  24.402  25.790  1.00  0.00     0.135 A 
ATOM     87  C   UNL A   1      42.884  23.227  27.518  1.00  0.00     0.135 A 
ATOM     88  F   UNL A   1      44.530  25.516  25.241  1.00  0.00    -0.206 F 
ATOM     89  C   UNL A   1      44.251  23.191  25.089  1.00  0.00     0.059 A 
ATOM     90  C   UNL A   1      43.113  22.014  26.846  1.00  0.00     0.059 A 
ATOM     91  F   UNL A   1      42.280  23.150  28.712  1.00  0.00    -0.206 F 
ATOM     92  C   UNL A   1      43.815  21.992  25.644  1.00  0.00     0.060 A 
BRANCH  92  93
ATOM     93  S   UNL A   1      44.252  20.393  24.882  1.00  0.00     0.124 S 
ATOM     94  O   UNL A   1      43.046  19.603  25.099  1.00  0.00    -0.237 OA
ATOM     95  O   UNL A   1      44.528  20.762  23.497  1.00  0.00    -0.237 OA
ATOM     96  O   UNL A   1      45.420  19.964  25.650  1.00  0.00    -0.744 OA
ENDBRANCH  92  93
ENDBRANCH  60  85
BRANCH  72  97
ATOM     97  C   UNL A   1      46.038  29.433  29.672  1.00  0.00     0.058 A 
ATOM     98  C   UNL A   1      47.269  29.731  29.062  1.00  0.00     0.135 A 
ATOM     99  C   UNL A   1      44.915  30.162  29.258  1.00  0.00     0.135 A 
ATOM    100  F   UNL A   1      48.368  29.012  29.337  1.00  0.00    -0.206 F 
ATOM    101  C   UNL A   1      47.376  30.749  28.107  1.00  0.00     0.059 A 
ATOM    102  C   UNL A   1      44.992  31.148  28.290  1.00  0.00     0.059 A 
ATOM    103  F   UNL A   1      43.704  29.874  29.763  1.00  0.00    -0.206 F 
ATOM    104  C   UNL A   1      46.229  31.455  27.735  1.00  0.00     0.060 A 
BRANCH 104 105
ATOM    105  S   UNL A   1      46.339  32.773  26.507  1.00  0.00     0.124 S 
ATOM    106  O   UNL A   1      47.745  32.716  26.123  1.00  0.00    -0.237 OA
ATOM    107  O   UNL A   1      45.384  32.338  25.493  1.00  0.00    -0.237 OA
ATOM    108  O   UNL A   1      45.944  33.967  27.251  1.00  0.00    -0.744 OA
ENDBRANCH 104 105
ENDBRANCH  72  97
ENDBRANCH  46  47
ENDBRANCH  38  41
ENDBRANCH  36  37
ENDBRANCH  35  36
ENDBRANCH   1  35
TORSDOF 19
ENDMDL
MODEL 2
REMARK VINA RESULT:     -12.6      8.488     14.909
REMARK SMILES CCOc1ccccc1[C@H]1CC(C(=O)NCCCCNC(=O)c2ccc(-c3c4nc(c(-c5c(F)cc(S(=O)(=O)[O-])cc5F)c5ccc([nH]5)c(-c5c(F)cc(S(=O)(=O)[O-])cc5F)c5nc(c(-c6c(F)cc(S(=O)(=O)[O-])cc6F)c6ccc3[nH]6)C=C5)C=C4)cc2)=Nc2c(C(=O)Nc3ccccc3)cnn21
REMARK SMILES IDX 17 1 16 2 15 3 13 4 14 5 12 7 10 8 11 9 103 10 90 11 102 12
REMARK SMILES IDX 89 13 91 14 101 15 9 16 4 17 5 18 6 19 8 20 7 21 3 22 2 23
REMARK SMILES IDX 1 24 92 25 93 26 94 27 95 29 96 30 100 31 97 32 99 33 98 34
REMARK SMILES IDX 18 35 19 36 20 37 21 38 22 40 23 41 24 42 88 43 25 44 87 45
REMARK SMILES IDX 26 46 27 47 28 48 81 49 29 50 86 51 80 52 82 53 30 54 85 55
REMARK SMILES IDX 79 56 78 57 31 59 65 60 44 61 64 62 45 63 48 64 63 65 83 66
REMARK SMILES IDX 46 67 47 68 62 70 84 71 49 72 32 73 33 74 42 75 34 76 35 77
REMARK SMILES IDX 41 78 43 79 36 80 37 81 38 82 39 83 40 84 66 85 67 86 76 87
REMARK SMILES IDX 68 88 69 89 75 90 77 91 70 92 71 93 72 94 73 95 74 96 50 97
REMARK SMILES IDX 51 98 60 99 52 100 53 101 59 102 61 103 54 104 55 105 56 106
REMARK SMILES IDX 57 107 58 108
REMARK H PARENT 15 6 94 28 20 39 82 58 48 69
REMARK Flexibility Score: inf
ROOT
ATOM      1  C   UNL A   1      44.597  43.001  30.887  1.00  0.00     0.023 C 
ENDROOT
BRANCH   1   2
ATOM      2  C   UNL A   1      44.347  44.213  30.006  1.00  0.00     0.116 C 
BRANCH   2   3
ATOM      3  N   UNL A   1      45.558  44.848  29.538  1.00  0.00    -0.351 N 
ATOM      4  C   UNL A   1      46.047  45.026  28.269  1.00  0.00     0.265 C 
ATOM      5  O   UNL A   1      46.709  46.033  28.039  1.00  0.00    -0.268 OA
ATOM      6  H   UNL A   1      46.128  45.217  30.250  1.00  0.00     0.163 HD
BRANCH   4   7
ATOM      7  C   UNL A   1      45.838  43.997  27.147  1.00  0.00     0.110 C 
ATOM      8  C   UNL A   1      45.248  43.658  24.591  1.00  0.00     0.150 C 
ATOM      9  C   UNL A   1      45.125  44.445  25.884  1.00  0.00     0.094 C 
ATOM     10  N   UNL A   1      46.300  42.671  24.675  1.00  0.00    -0.239 N 
ATOM     11  C   UNL A   1      46.317  41.926  26.378  1.00  0.00     0.164 A 
ATOM     12  N   UNL A   1      46.624  41.325  23.399  1.00  0.00    -0.178 NA
ATOM     13  N   UNL A   1      46.322  42.816  27.386  1.00  0.00    -0.227 NA
ATOM     14  C   UNL A   1      46.613  40.171  26.204  1.00  0.00     0.104 A 
ATOM     15  C   UNL A   1      46.798  39.836  24.299  1.00  0.00     0.151 A 
BRANCH   8  16
ATOM     16  C   UNL A   1      44.078  42.818  24.273  1.00  0.00     0.019 A 
ATOM     17  C   UNL A   1      43.453  43.203  23.085  1.00  0.00     0.124 A 
ATOM     18  C   UNL A   1      42.169  42.750  22.806  1.00  0.00     0.047 A 
ATOM     19  C   UNL A   1      41.545  41.887  23.725  1.00  0.00     0.004 A 
ATOM     20  C   UNL A   1      43.516  41.870  25.126  1.00  0.00     0.010 A 
ATOM     21  C   UNL A   1      42.231  41.413  24.853  1.00  0.00     0.001 A 
BRANCH  17  22
ATOM     22  O   UNL A   1      44.157  44.150  22.218  1.00  0.00    -0.494 OA
BRANCH  22  23
ATOM     23  C   UNL A   1      45.191  44.377  20.379  1.00  0.00     0.226 C 
ATOM     24  C   UNL A   1      44.639  44.103  18.803  1.00  0.00     0.049 C 
ENDBRANCH  22  23
ENDBRANCH  17  22
ENDBRANCH   8  16
BRANCH  14  25
ATOM     25  C   UNL A   1      47.090  39.212  27.210  1.00  0.00     0.261 C 
ATOM     26  O   UNL A   1      48.292  39.163  27.482  1.00  0.00    -0.269 OA
ATOM     27  N   UNL A   1      46.193  38.559  28.032  1.00  0.00    -0.322 N 
ATOM     28  H   UNL A   1      46.516  38.353  28.939  1.00  0.00     0.170 HD
BRANCH  27  29
ATOM     29  C   UNL A   1      44.884  38.153  27.747  1.00  0.00     0.041 A 
ATOM     30  C   UNL A   1      44.666  36.841  27.315  1.00  0.00     0.026 A 
ATOM     31  C   UNL A   1      43.801  39.018  27.931  1.00  0.00     0.026 A 
ATOM     32  C   UNL A   1      43.358  36.361  27.203  1.00  0.00     0.002 A 
ATOM     33  C   UNL A   1      42.496  38.540  27.798  1.00  0.00     0.002 A 
ATOM     34  C   UNL A   1      42.275  37.206  27.460  1.00  0.00     0.000 A 
ENDBRANCH  27  29
ENDBRANCH  14  25
ENDBRANCH   4   7
ENDBRANCH   2   3
ENDBRANCH   1   2
BRANCH   1  35
ATOM     35  C   UNL A   1      43.837  41.742  30.458  1.00  0.00     0.023 C 
BRANCH  35  36
ATOM     36  C   UNL A   1      44.016  40.549  31.391  1.00  0.00     0.116 C 
BRANCH  36  37
ATOM     37  N   UNL A   1      45.258  39.815  31.150  1.00  0.00    -0.352 N 
ATOM     38  C   UNL A   1      45.621  38.582  31.664  1.00  0.00     0.251 C 
ATOM     39  H   UNL A   1      45.911  40.248  30.552  1.00  0.00     0.163 HD
ATOM     40  O   UNL A   1      46.808  38.294  31.776  1.00  0.00    -0.269 OA
BRANCH  38  41
ATOM     41  C   UNL A   1      44.560  37.600  31.996  1.00  0.00     0.039 A 
ATOM     42  C   UNL A   1      43.916  36.813  31.038  1.00  0.00     0.014 A 
ATOM     43  C   UNL A   1      44.200  37.472  33.335  1.00  0.00     0.014 A 
ATOM     44  C   UNL A   1      42.890  35.940  31.453  1.00  0.00     0.010 A 
ATOM     45  C   UNL A   1      43.362  36.461  33.749  1.00  0.00     0.010 A 
ATOM     46  C   UNL A   1      42.582  35.786  32.828  1.00  0.00    -0.014 A 
BRANCH  46  47
ATOM     47  C   UNL A   1      41.774  34.663  33.369  1.00  0.00     0.031 A 
ATOM     48  C   UNL A   1      42.286  33.416  32.709  1.00  0.00     0.074 A 
ATOM     49  C   UNL A   1      40.869  34.717  34.405  1.00  0.00     0.049 A 
ATOM     50  N   UNL A   1      41.767  32.852  31.667  1.00  0.00    -0.248 NA
ATOM     51  C   UNL A   1      43.675  32.947  32.949  1.00  0.00     0.031 C 
ATOM     52  C   UNL A   1      40.472  35.886  35.213  1.00  0.00     0.029 A 
ATOM     53  N   UNL A   1      40.093  33.722  35.003  1.00  0.00    -0.354 N 
ATOM     54  C   UNL A   1      42.532  31.709  31.448  1.00  0.00     0.074 A 
ATOM     55  C   UNL A   1      43.811  31.995  32.018  1.00  0.00     0.031 C 
ATOM     56  C   UNL A   1      39.752  35.510  36.306  1.00  0.00     0.029 A 
ATOM     57  C   UNL A   1      39.480  34.085  36.253  1.00  0.00     0.049 A 
ATOM     58  H   UNL A   1      39.974  32.832  34.597  1.00  0.00     0.167 HD
ATOM     59  C   UNL A   1      41.887  30.525  31.240  1.00  0.00     0.037 A 
ATOM     60  C   UNL A   1      38.728  33.294  37.107  1.00  0.00     0.037 A 
ATOM     61  C   UNL A   1      40.501  30.810  30.944  1.00  0.00     0.049 A 
ATOM     62  C   UNL A   1      38.246  32.166  36.284  1.00  0.00     0.074 A 
ATOM     63  C   UNL A   1      39.806  31.439  29.932  1.00  0.00     0.029 A 
ATOM     64  N   UNL A   1      39.744  30.905  32.081  1.00  0.00    -0.354 N 
ATOM     65  N   UNL A   1      37.388  32.317  35.318  1.00  0.00    -0.248 NA
ATOM     66  C   UNL A   1      39.113  31.006  36.206  1.00  0.00     0.031 C 
ATOM     67  C   UNL A   1      38.691  32.069  30.560  1.00  0.00     0.029 A 
ATOM     68  C   UNL A   1      38.634  31.668  31.891  1.00  0.00     0.049 A 
ATOM     69  H   UNL A   1      39.975  30.473  32.935  1.00  0.00     0.167 HD
ATOM     70  C   UNL A   1      37.943  31.590  34.281  1.00  0.00     0.074 A 
ATOM     71  C   UNL A   1      38.944  30.721  34.914  1.00  0.00     0.031 C 
ATOM     72  C   UNL A   1      37.781  32.023  32.996  1.00  0.00     0.037 A 
BRANCH  59  73
ATOM     73  C   UNL A   1      42.272  29.185  31.864  1.00  0.00     0.058 A 
ATOM     74  C   UNL A   1      42.409  29.120  33.272  1.00  0.00     0.135 A 
ATOM     75  C   UNL A   1      42.778  28.062  31.169  1.00  0.00     0.135 A 
ATOM     76  F   UNL A   1      41.978  30.127  34.047  1.00  0.00    -0.206 F 
ATOM     77  C   UNL A   1      43.038  28.057  33.925  1.00  0.00     0.059 A 
ATOM     78  C   UNL A   1      43.375  26.974  31.805  1.00  0.00     0.059 A 
ATOM     79  F   UNL A   1      42.785  27.981  29.835  1.00  0.00    -0.206 F 
ATOM     80  C   UNL A   1      43.514  26.985  33.182  1.00  0.00     0.060 A 
BRANCH  80  81
ATOM     81  S   UNL A   1      44.280  25.596  34.035  1.00  0.00     0.124 S 
ATOM     82  O   UNL A   1      45.623  26.104  34.289  1.00  0.00    -0.237 OA
ATOM     83  O   UNL A   1      43.416  25.454  35.203  1.00  0.00    -0.237 OA
ATOM     84  O   UNL A   1      44.188  24.512  33.062  1.00  0.00    -0.744 OA
ENDBRANCH  80  81
ENDBRANCH  59  73
BRANCH  60  85
ATOM     85  C   UNL A   1      38.581  33.184  38.616  1.00  0.00     0.058 A 
ATOM     86  C   UNL A   1      39.619  33.484  39.550  1.00  0.00     0.135 A 
ATOM     87  C   UNL A   1      37.296  33.149  39.174  1.00  0.00     0.135 A 
ATOM     88  F   UNL A   1      40.895  33.570  39.138  1.00  0.00    -0.206 F 
ATOM     89  C   UNL A   1      39.379  33.778  40.917  1.00  0.00     0.059 A 
ATOM     90  C   UNL A   1      37.033  33.447  40.522  1.00  0.00     0.059 A 
ATOM     91  F   UNL A   1      36.234  32.924  38.388  1.00  0.00    -0.206 F 
ATOM     92  C   UNL A   1      38.070  33.783  41.388  1.00  0.00     0.060 A 
BRANCH  92  93
ATOM     93  S   UNL A   1      37.687  34.336  43.084  1.00  0.00     0.124 S 
ATOM     94  O   UNL A   1      38.356  33.329  43.900  1.00  0.00    -0.237 OA
ATOM     95  O   UNL A   1      38.269  35.674  43.125  1.00  0.00    -0.237 OA
ATOM     96  O   UNL A   1      36.227  34.298  43.127  1.00  0.00    -0.744 OA
ENDBRANCH  92  93
ENDBRANCH  60  85
BRANCH  72  97
ATOM     97  C   UNL A   1      36.650  32.962  32.697  1.00  0.00     0.058 A 
ATOM     98  C   UNL A   1      36.659  34.360  32.843  1.00  0.00     0.135 A 
ATOM     99  C   UNL A   1      35.525  32.379  32.098  1.00  0.00     0.135 A 
ATOM    100  F   UNL A   1      37.740  34.998  33.319  1.00  0.00    -0.206 F 
ATOM    101  C   UNL A   1      35.564  35.137  32.445  1.00  0.00     0.059 A 
ATOM    102  C   UNL A   1      34.447  33.132  31.666  1.00  0.00     0.059 A 
ATOM    103  F   UNL A   1      35.492  31.055  31.877  1.00  0.00    -0.206 F 
ATOM    104  C   UNL A   1      34.461  34.509  31.863  1.00  0.00     0.060 A 
BRANCH 104 105
ATOM    105  S   UNL A   1      33.036  35.486  31.342  1.00  0.00     0.124 S 
ATOM    106  O   UNL A   1      33.590  36.834  31.297  1.00  0.00    -0.237 OA
ATOM    107  O   UNL A   1      32.702  34.892  30.051  1.00  0.00    -0.237 OA
ATOM    108  O   UNL A   1      32.054  35.249  32.399  1.00  0.00    -0.744 OA
ENDBRANCH 104 105
ENDBRANCH  72  97
ENDBRANCH  46  47
ENDBRANCH  38  41
ENDBRANCH  36  37
ENDBRANCH  35  36
ENDBRANCH   1  35
TORSDOF 19
ENDMDL
MODEL 3
REMARK VINA RESULT:     -12.4      5.940     13.960
REMARK SMILES CCOc1ccccc1[C@H]1CC(C(=O)NCCCCNC(=O)c2ccc(-c3c4nc(c(-c5c(F)cc(S(=O)(=O)[O-])cc5F)c5ccc([nH]5)c(-c5c(F)cc(S(=O)(=O)[O-])cc5F)c5nc(c(-c6c(F)cc(S(=O)(=O)[O-])cc6F)c6ccc3[nH]6)C=C5)C=C4)cc2)=Nc2c(C(=O)Nc3ccccc3)cnn21
REMARK SMILES IDX 17 1 16 2 15 3 13 4 14 5 12 7 10 8 11 9 103 10 90 11 102 12
REMARK SMILES IDX 89 13 91 14 101 15 9 16 4 17 5 18 6 19 8 20 7 21 3 22 2 23
REMARK SMILES IDX 1 24 92 25 93 26 94 27 95 29 96 30 100 31 97 32 99 33 98 34
REMARK SMILES IDX 18 35 19 36 20 37 21 38 22 40 23 41 24 42 88 43 25 44 87 45
REMARK SMILES IDX 26 46 27 47 28 48 81 49 29 50 86 51 80 52 82 53 30 54 85 55
REMARK SMILES IDX 79 56 78 57 31 59 65 60 44 61 64 62 45 63 48 64 63 65 83 66
REMARK SMILES IDX 46 67 47 68 62 70 84 71 49 72 32 73 33 74 42 75 34 76 35 77
REMARK SMILES IDX 41 78 43 79 36 80 37 81 38 82 39 83 40 84 66 85 67 86 76 87
REMARK SMILES IDX 68 88 69 89 75 90 77 91 70 92 71 93 72 94 73 95 74 96 50 97
REMARK SMILES IDX 51 98 60 99 52 100 53 101 59 102 61 103 54 104 55 105 56 106
REMARK SMILES IDX 57 107 58 108
REMARK H PARENT 15 6 94 28 20 39 82 58 48 69
REMARK Flexibility Score: inf
ROOT
ATOM      1  C   UNL A   1      44.342  24.462  25.187  1.00  0.00     0.023 C 
ENDROOT
BRANCH   1   2
ATOM      2  C   UNL A   1      45.740  24.019  25.583  1.00  0.00     0.116 C 
BRANCH   2   3
ATOM      3  N   UNL A   1      45.935  23.925  27.012  1.00  0.00    -0.351 N 
ATOM      4  C   UNL A   1      46.480  24.812  27.905  1.00  0.00     0.265 C 
ATOM      5  O   UNL A   1      46.039  24.826  29.049  1.00  0.00    -0.268 OA
ATOM      6  H   UNL A   1      45.621  23.082  27.413  1.00  0.00     0.163 HD
BRANCH   4   7
ATOM      7  C   UNL A   1      47.645  25.745  27.541  1.00  0.00     0.110 C 
ATOM      8  C   UNL A   1      49.253  26.561  25.605  1.00  0.00     0.150 C 
ATOM      9  C   UNL A   1      48.401  25.482  26.251  1.00  0.00     0.094 C 
ATOM     10  N   UNL A   1      49.007  27.853  26.203  1.00  0.00    -0.239 N 
ATOM     11  C   UNL A   1      48.755  27.651  28.034  1.00  0.00     0.164 A 
ATOM     12  N   UNL A   1      50.019  29.406  25.878  1.00  0.00    -0.178 NA
ATOM     13  N   UNL A   1      47.862  26.709  28.384  1.00  0.00    -0.227 NA
ATOM     14  C   UNL A   1      49.592  29.002  28.853  1.00  0.00     0.104 A 
ATOM     15  C   UNL A   1      50.381  30.087  27.447  1.00  0.00     0.151 A 
BRANCH   8  16
ATOM     16  C   UNL A   1      50.704  26.406  25.822  1.00  0.00     0.019 A 
ATOM     17  C   UNL A   1      51.433  26.488  24.634  1.00  0.00     0.124 A 
ATOM     18  C   UNL A   1      52.748  26.043  24.603  1.00  0.00     0.047 A 
ATOM     19  C   UNL A   1      53.319  25.544  25.787  1.00  0.00     0.004 A 
ATOM     20  C   UNL A   1      51.299  26.028  27.025  1.00  0.00     0.010 A 
ATOM     21  C   UNL A   1      52.615  25.581  27.000  1.00  0.00     0.001 A 
BRANCH  17  22
ATOM     22  O   UNL A   1      50.736  26.967  23.438  1.00  0.00    -0.494 OA
BRANCH  22  23
ATOM     23  C   UNL A   1      50.967  27.511  21.400  1.00  0.00     0.226 C 
ATOM     24  C   UNL A   1      52.389  27.784  20.522  1.00  0.00     0.049 C 
ENDBRANCH  22  23
ENDBRANCH  17  22
ENDBRANCH   8  16
BRANCH  14  25
ATOM     25  C   UNL A   1      49.395  29.522  30.214  1.00  0.00     0.261 C 
ATOM     26  O   UNL A   1      48.980  30.672  30.371  1.00  0.00    -0.269 OA
ATOM     27  N   UNL A   1      49.413  28.666  31.297  1.00  0.00    -0.322 N 
ATOM     28  H   UNL A   1      48.825  28.911  32.046  1.00  0.00     0.170 HD
BRANCH  27  29
ATOM     29  C   UNL A   1      50.159  27.493  31.469  1.00  0.00     0.041 A 
ATOM     30  C   UNL A   1      49.487  26.267  31.503  1.00  0.00     0.026 A 
ATOM     31  C   UNL A   1      51.554  27.528  31.558  1.00  0.00     0.026 A 
ATOM     32  C   UNL A   1      50.221  25.078  31.488  1.00  0.00     0.002 A 
ATOM     33  C   UNL A   1      52.283  26.338  31.565  1.00  0.00     0.002 A 
ATOM     34  C   UNL A   1      51.618  25.114  31.503  1.00  0.00     0.000 A 
ENDBRANCH  27  29
ENDBRANCH  14  25
ENDBRANCH   4   7
ENDBRANCH   2   3
ENDBRANCH   1   2
BRANCH   1  35
ATOM     35  C   UNL A   1      43.441  23.331  24.682  1.00  0.00     0.023 C 
BRANCH  35  36
ATOM     36  C   UNL A   1      43.163  22.239  25.711  1.00  0.00     0.116 C 
BRANCH  36  37
ATOM     37  N   UNL A   1      41.753  21.859  25.775  1.00  0.00    -0.352 N 
ATOM     38  C   UNL A   1      40.776  22.388  26.603  1.00  0.00     0.251 C 
ATOM     39  H   UNL A   1      41.464  21.146  25.160  1.00  0.00     0.163 HD
ATOM     40  O   UNL A   1      39.796  21.712  26.897  1.00  0.00    -0.269 OA
BRANCH  38  41
ATOM     41  C   UNL A   1      40.898  23.797  27.051  1.00  0.00     0.039 A 
ATOM     42  C   UNL A   1      40.190  24.851  26.470  1.00  0.00     0.014 A 
ATOM     43  C   UNL A   1      41.768  24.061  28.106  1.00  0.00     0.014 A 
ATOM     44  C   UNL A   1      40.411  26.161  26.943  1.00  0.00     0.010 A 
ATOM     45  C   UNL A   1      41.802  25.301  28.702  1.00  0.00     0.010 A 
ATOM     46  C   UNL A   1      41.257  26.396  28.055  1.00  0.00    -0.014 A 
BRANCH  46  47
ATOM     47  C   UNL A   1      41.277  27.670  28.820  1.00  0.00     0.031 A 
ATOM     48  C   UNL A   1      42.421  28.473  28.275  1.00  0.00     0.074 A 
ATOM     49  C   UNL A   1      40.330  28.114  29.715  1.00  0.00     0.049 A 
ATOM     50  N   UNL A   1      43.607  28.531  28.787  1.00  0.00    -0.248 NA
ATOM     51  C   UNL A   1      42.409  28.952  26.869  1.00  0.00     0.031 C 
ATOM     52  C   UNL A   1      39.088  27.442  30.141  1.00  0.00     0.029 A 
ATOM     53  N   UNL A   1      40.243  29.297  30.451  1.00  0.00    -0.354 N 
ATOM     54  C   UNL A   1      44.310  29.431  27.987  1.00  0.00     0.074 A 
ATOM     55  C   UNL A   1      43.666  29.385  26.712  1.00  0.00     0.031 C 
ATOM     56  C   UNL A   1      38.280  28.290  30.837  1.00  0.00     0.029 A 
ATOM     57  C   UNL A   1      38.965  29.550  31.062  1.00  0.00     0.049 A 
ATOM     58  H   UNL A   1      41.003  29.916  30.546  1.00  0.00     0.167 HD
ATOM     59  C   UNL A   1      45.027  30.419  28.596  1.00  0.00     0.037 A 
ATOM     60  C   UNL A   1      38.555  30.664  31.778  1.00  0.00     0.037 A 
ATOM     61  C   UNL A   1      45.172  30.079  29.993  1.00  0.00     0.049 A 
ATOM     62  C   UNL A   1      39.798  31.323  32.232  1.00  0.00     0.074 A 
ATOM     63  C   UNL A   1      45.800  29.089  30.719  1.00  0.00     0.029 A 
ATOM     64  N   UNL A   1      44.115  30.527  30.740  1.00  0.00    -0.354 N 
ATOM     65  N   UNL A   1      40.599  30.786  33.106  1.00  0.00    -0.248 NA
ATOM     66  C   UNL A   1      40.380  32.297  31.329  1.00  0.00     0.031 C 
ATOM     67  C   UNL A   1      44.963  28.843  31.847  1.00  0.00     0.029 A 
ATOM     68  C   UNL A   1      43.950  29.798  31.876  1.00  0.00     0.049 A 
ATOM     69  H   UNL A   1      43.543  31.286  30.486  1.00  0.00     0.167 HD
ATOM     70  C   UNL A   1      41.849  30.955  32.538  1.00  0.00     0.074 A 
ATOM     71  C   UNL A   1      41.665  31.981  31.503  1.00  0.00     0.031 C 
ATOM     72  C   UNL A   1      42.807  30.001  32.729  1.00  0.00     0.037 A 
BRANCH  59  73
ATOM     73  C   UNL A   1      45.064  31.882  28.160  1.00  0.00     0.058 A 
ATOM     74  C   UNL A   1      46.327  32.467  27.894  1.00  0.00     0.135 A 
ATOM     75  C   UNL A   1      43.996  32.803  28.258  1.00  0.00     0.135 A 
ATOM     76  F   UNL A   1      47.424  31.702  27.788  1.00  0.00    -0.206 F 
ATOM     77  C   UNL A   1      46.517  33.846  27.785  1.00  0.00     0.059 A 
ATOM     78  C   UNL A   1      44.159  34.181  28.115  1.00  0.00     0.059 A 
ATOM     79  F   UNL A   1      42.748  32.434  28.563  1.00  0.00    -0.206 F 
ATOM     80  C   UNL A   1      45.424  34.696  27.892  1.00  0.00     0.060 A 
BRANCH  80  81
ATOM     81  S   UNL A   1      45.669  36.471  27.702  1.00  0.00     0.124 S 
ATOM     82  O   UNL A   1      45.694  36.920  29.090  1.00  0.00    -0.237 OA
ATOM     83  O   UNL A   1      46.942  36.518  26.990  1.00  0.00    -0.237 OA
ATOM     84  O   UNL A   1      44.508  36.889  26.923  1.00  0.00    -0.744 OA
ENDBRANCH  80  81
ENDBRANCH  59  73
BRANCH  60  85
ATOM     85  C   UNL A   1      37.255  31.440  31.905  1.00  0.00     0.058 A 
ATOM     86  C   UNL A   1      36.711  31.904  33.141  1.00  0.00     0.135 A 
ATOM     87  C   UNL A   1      36.725  32.070  30.770  1.00  0.00     0.135 A 
ATOM     88  F   UNL A   1      37.152  31.398  34.305  1.00  0.00    -0.206 F 
ATOM     89  C   UNL A   1      35.756  32.949  33.231  1.00  0.00     0.059 A 
ATOM     90  C   UNL A   1      35.786  33.113  30.835  1.00  0.00     0.059 A 
ATOM     91  F   UNL A   1      37.192  31.753  29.553  1.00  0.00    -0.206 F 
ATOM     92  C   UNL A   1      35.318  33.568  32.065  1.00  0.00     0.060 A 
BRANCH  92  93
ATOM     93  S   UNL A   1      34.238  35.037  32.132  1.00  0.00     0.124 S 
ATOM     94  O   UNL A   1      34.054  35.356  30.721  1.00  0.00    -0.237 OA
ATOM     95  O   UNL A   1      33.057  34.535  32.827  1.00  0.00    -0.237 OA
ATOM     96  O   UNL A   1      35.033  36.003  32.887  1.00  0.00    -0.744 OA
ENDBRANCH  92  93
ENDBRANCH  60  85
BRANCH  72  97
ATOM     97  C   UNL A   1      42.661  29.067  33.893  1.00  0.00     0.058 A 
ATOM     98  C   UNL A   1      42.844  29.384  35.251  1.00  0.00     0.135 A 
ATOM     99  C   UNL A   1      42.176  27.789  33.584  1.00  0.00     0.135 A 
ATOM    100  F   UNL A   1      43.214  30.617  35.629  1.00  0.00    -0.206 F 
ATOM    101  C   UNL A   1      42.592  28.441  36.254  1.00  0.00     0.059 A 
ATOM    102  C   UNL A   1      41.886  26.854  34.562  1.00  0.00     0.059 A 
ATOM    103  F   UNL A   1      41.924  27.458  32.307  1.00  0.00    -0.206 F 
ATOM    104  C   UNL A   1      42.119  27.176  35.895  1.00  0.00     0.060 A 
BRANCH 104 105
ATOM    105  S   UNL A   1      41.787  25.941  37.168  1.00  0.00     0.124 S 
ATOM    106  O   UNL A   1      42.794  26.260  38.173  1.00  0.00    -0.237 OA
ATOM    107  O   UNL A   1      40.405  26.234  37.537  1.00  0.00    -0.237 OA
ATOM    108  O   UNL A   1      41.980  24.671  36.472  1.00  0.00    -0.744 OA
ENDBRANCH 104 105
ENDBRANCH  72  97
ENDBRANCH  46  47
ENDBRANCH  38  41
ENDBRANCH  36  37
ENDBRANCH  35  36
ENDBRANCH   1  35
TORSDOF 19
ENDMDL
