MODEL 1
REMARK VINA RESULT:     -12.5      0.000      0.000
REMARK SMILES CC(C)Nc1ncc(C(=O)N2CCC[C@H](c3cccc(C(=O)NCCCCNC(=O)c4ccc(-c5c6nc(c(-c7c(F)cc(S(=O)(=O)[O-])cc7F)c7ccc([nH]7)c(-c7c(F)cc(S(=O)(=O)[O-])cc7F)c7nc(c(-c8c(F)cc(S(=O)(=O)[O-])cc8F)c8ccc5[nH]8)C=C7)C=C6)cc4)c3)C2)cn1
REMARK SMILES IDX 24 1 23 2 21 3 22 4 20 6 16 7 17 8 97 9 18 10 19 11 15 12
REMARK SMILES IDX 11 13 12 14 98 15 13 16 14 17 9 18 10 19 8 20 5 21 6 22
REMARK SMILES IDX 100 23 7 24 99 25 4 26 2 28 1 29 3 30 25 31 26 32 27 33
REMARK SMILES IDX 28 34 29 35 30 37 31 38 32 39 96 40 33 41 95 42 34 43 35 44
REMARK SMILES IDX 36 45 89 46 37 47 94 48 88 49 90 50 38 51 93 52 87 53 86 54
REMARK SMILES IDX 39 56 73 57 52 58 72 59 53 60 56 61 71 62 91 63 54 64 55 65
REMARK SMILES IDX 70 67 92 68 57 69 40 70 41 71 50 72 42 73 43 74 49 75 51 76
REMARK SMILES IDX 44 77 45 78 46 79 47 80 48 81 74 82 75 83 84 84 76 85 77 86
REMARK SMILES IDX 83 87 85 88 78 89 79 90 80 91 81 92 82 93 58 94 59 95 68 96
REMARK SMILES IDX 60 97 61 98 67 99 69 100 62 101 63 102 64 103 65 104 66 105
REMARK H PARENT 23 5 4 27 28 36 90 55 56 66
REMARK Flexibility Score: inf
ROOT
ATOM      1  C   UNL A   1      39.072  21.959  25.959  1.00  0.00     0.116 C 
ENDROOT
BRANCH   1   2
ATOM      2  N   UNL A   1      38.220  20.839  25.586  1.00  0.00    -0.352 N 
ATOM      3  C   UNL A   1      36.908  20.785  25.160  1.00  0.00     0.251 C 
ATOM      4  O   UNL A   1      36.411  19.687  24.910  1.00  0.00    -0.269 OA
ATOM      5  H   UNL A   1      38.659  19.959  25.649  1.00  0.00     0.163 HD
BRANCH   3   6
ATOM      6  C   UNL A   1      36.056  22.002  25.062  1.00  0.00     0.040 A 
ATOM      7  C   UNL A   1      34.401  23.323  23.828  1.00  0.00    -0.042 A 
ATOM      8  C   UNL A   1      34.751  24.429  24.613  1.00  0.00     0.004 A 
ATOM      9  C   UNL A   1      34.990  22.092  24.166  1.00  0.00     0.018 A 
ATOM     10  C   UNL A   1      35.686  24.311  25.651  1.00  0.00     0.001 A 
ATOM     11  C   UNL A   1      36.366  23.110  25.850  1.00  0.00     0.014 A 
BRANCH   7  12
ATOM     12  C   UNL A   1      33.591  23.440  22.528  1.00  0.00     0.039 C 
ATOM     13  N   UNL A   1      31.707  24.932  23.156  1.00  0.00    -0.338 N 
ATOM     14  C   UNL A   1      30.736  23.842  23.142  1.00  0.00     0.120 C 
ATOM     15  C   UNL A   1      32.876  24.789  22.284  1.00  0.00     0.128 C 
ATOM     16  C   UNL A   1      31.384  22.473  23.289  1.00  0.00     0.022 C 
ATOM     17  C   UNL A   1      32.544  22.323  22.309  1.00  0.00     0.012 C 
BRANCH  13  18
ATOM     18  C   UNL A   1      31.509  25.993  24.027  1.00  0.00     0.257 C 
ATOM     19  O   UNL A   1      31.837  25.964  25.210  1.00  0.00    -0.269 OA
BRANCH  18  20
ATOM     20  C   UNL A   1      30.737  27.154  23.560  1.00  0.00     0.076 A 
ATOM     21  C   UNL A   1      29.251  29.094  22.360  1.00  0.00     0.222 A 
ATOM     22  N   UNL A   1      30.582  29.131  22.203  1.00  0.00    -0.221 NA
ATOM     23  N   UNL A   1      28.610  28.169  23.089  1.00  0.00    -0.221 NA
ATOM     24  C   UNL A   1      31.297  28.158  22.805  1.00  0.00     0.130 A 
ATOM     25  C   UNL A   1      29.367  27.197  23.653  1.00  0.00     0.130 A 
BRANCH  21  26
ATOM     26  N   UNL A   1      28.566  30.069  21.695  1.00  0.00    -0.352 N 
ATOM     27  H   UNL A   1      28.051  29.816  20.895  1.00  0.00     0.163 HD
BRANCH  26  28
ATOM     28  C   UNL A   1      28.560  31.450  22.110  1.00  0.00     0.076 C 
ATOM     29  C   UNL A   1      27.999  32.282  20.957  1.00  0.00     0.030 C 
ATOM     30  C   UNL A   1      27.702  31.614  23.360  1.00  0.00     0.030 C 
ENDBRANCH  26  28
ENDBRANCH  21  26
ENDBRANCH  18  20
ENDBRANCH  13  18
ENDBRANCH   7  12
ENDBRANCH   3   6
ENDBRANCH   1   2
BRANCH   1  31
ATOM     31  C   UNL A   1      40.445  21.576  26.491  1.00  0.00     0.023 C 
BRANCH  31  32
ATOM     32  C   UNL A   1      40.876  22.235  27.794  1.00  0.00     0.023 C 
BRANCH  32  33
ATOM     33  C   UNL A   1      42.137  23.085  27.730  1.00  0.00     0.116 C 
BRANCH  33  34
ATOM     34  N   UNL A   1      42.338  23.756  26.455  1.00  0.00    -0.352 N 
ATOM     35  C   UNL A   1      42.220  25.092  26.139  1.00  0.00     0.251 C 
ATOM     36  H   UNL A   1      42.597  23.169  25.708  1.00  0.00     0.163 HD
ATOM     37  O   UNL A   1      42.364  25.455  24.980  1.00  0.00    -0.269 OA
BRANCH  35  38
ATOM     38  C   UNL A   1      41.876  26.074  27.194  1.00  0.00     0.039 A 
ATOM     39  C   UNL A   1      40.746  25.846  27.984  1.00  0.00     0.014 A 
ATOM     40  C   UNL A   1      42.670  27.202  27.421  1.00  0.00     0.014 A 
ATOM     41  C   UNL A   1      40.455  26.709  29.043  1.00  0.00     0.010 A 
ATOM     42  C   UNL A   1      42.431  28.006  28.531  1.00  0.00     0.010 A 
ATOM     43  C   UNL A   1      41.316  27.777  29.348  1.00  0.00    -0.014 A 
BRANCH  43  44
ATOM     44  C   UNL A   1      41.050  28.673  30.504  1.00  0.00     0.031 A 
ATOM     45  C   UNL A   1      41.868  28.545  31.762  1.00  0.00     0.074 A 
ATOM     46  C   UNL A   1      40.042  29.566  30.443  1.00  0.00     0.049 A 
ATOM     47  N   UNL A   1      41.771  29.212  32.884  1.00  0.00    -0.248 NA
ATOM     48  C   UNL A   1      42.916  27.510  31.771  1.00  0.00     0.031 C 
ATOM     49  C   UNL A   1      39.135  29.745  29.306  1.00  0.00     0.029 A 
ATOM     50  N   UNL A   1      39.608  30.492  31.358  1.00  0.00    -0.354 N 
ATOM     51  C   UNL A   1      42.730  28.670  33.732  1.00  0.00     0.074 A 
ATOM     52  C   UNL A   1      43.354  27.577  33.019  1.00  0.00     0.031 C 
ATOM     53  C   UNL A   1      38.276  30.741  29.579  1.00  0.00     0.029 A 
ATOM     54  C   UNL A   1      38.550  31.253  30.918  1.00  0.00     0.049 A 
ATOM     55  H   UNL A   1      40.016  30.602  32.248  1.00  0.00     0.167 HD
ATOM     56  C   UNL A   1      43.083  29.063  34.979  1.00  0.00     0.037 A 
ATOM     57  C   UNL A   1      37.882  32.255  31.522  1.00  0.00     0.037 A 
ATOM     58  C   UNL A   1      42.479  30.171  35.672  1.00  0.00     0.049 A 
ATOM     59  C   UNL A   1      38.310  32.696  32.896  1.00  0.00     0.074 A 
ATOM     60  C   UNL A   1      42.797  30.685  36.918  1.00  0.00     0.029 A 
ATOM     61  N   UNL A   1      41.436  30.940  35.178  1.00  0.00    -0.354 N 
ATOM     62  N   UNL A   1      39.262  32.212  33.659  1.00  0.00    -0.248 NA
ATOM     63  C   UNL A   1      37.584  33.828  33.487  1.00  0.00     0.031 C 
ATOM     64  C   UNL A   1      41.923  31.744  37.189  1.00  0.00     0.029 A 
ATOM     65  C   UNL A   1      41.092  31.920  36.095  1.00  0.00     0.049 A 
ATOM     66  H   UNL A   1      41.003  30.809  34.303  1.00  0.00     0.167 HD
ATOM     67  C   UNL A   1      39.271  33.002  34.803  1.00  0.00     0.074 A 
ATOM     68  C   UNL A   1      38.237  34.002  34.627  1.00  0.00     0.031 C 
ATOM     69  C   UNL A   1      40.066  32.913  35.898  1.00  0.00     0.037 A 
BRANCH  56  70
ATOM     70  C   UNL A   1      44.182  28.297  35.663  1.00  0.00     0.058 A 
ATOM     71  C   UNL A   1      45.536  28.617  35.463  1.00  0.00     0.135 A 
ATOM     72  C   UNL A   1      43.883  27.244  36.542  1.00  0.00     0.135 A 
ATOM     73  F   UNL A   1      45.880  29.603  34.621  1.00  0.00    -0.206 F 
ATOM     74  C   UNL A   1      46.553  27.896  36.079  1.00  0.00     0.059 A 
ATOM     75  C   UNL A   1      44.884  26.529  37.194  1.00  0.00     0.059 A 
ATOM     76  F   UNL A   1      42.608  26.896  36.772  1.00  0.00    -0.206 F 
ATOM     77  C   UNL A   1      46.218  26.851  36.941  1.00  0.00     0.060 A 
BRANCH  77  78
ATOM     78  S   UNL A   1      47.549  25.924  37.730  1.00  0.00     0.124 S 
ATOM     79  O   UNL A   1      48.710  26.747  37.402  1.00  0.00    -0.237 OA
ATOM     80  O   UNL A   1      47.147  25.930  39.133  1.00  0.00    -0.237 OA
ATOM     81  O   UNL A   1      47.496  24.623  37.071  1.00  0.00    -0.744 OA
ENDBRANCH  77  78
ENDBRANCH  56  70
BRANCH  57  82
ATOM     82  C   UNL A   1      36.771  32.945  30.812  1.00  0.00     0.058 A 
ATOM     83  C   UNL A   1      35.434  32.599  31.060  1.00  0.00     0.135 A 
ATOM     84  C   UNL A   1      37.020  33.965  29.881  1.00  0.00     0.135 A 
ATOM     85  F   UNL A   1      35.146  31.627  31.939  1.00  0.00    -0.206 F 
ATOM     86  C   UNL A   1      34.383  33.224  30.397  1.00  0.00     0.059 A 
ATOM     87  C   UNL A   1      35.984  34.622  29.223  1.00  0.00     0.059 A 
ATOM     88  F   UNL A   1      38.280  34.346  29.621  1.00  0.00    -0.206 F 
ATOM     89  C   UNL A   1      34.669  34.237  29.480  1.00  0.00     0.060 A 
BRANCH  89  90
ATOM     90  S   UNL A   1      33.295  35.074  28.660  1.00  0.00     0.124 S 
ATOM     91  O   UNL A   1      32.645  33.965  27.969  1.00  0.00    -0.237 OA
ATOM     92  O   UNL A   1      32.562  35.642  29.788  1.00  0.00    -0.237 OA
ATOM     93  O   UNL A   1      33.962  36.049  27.803  1.00  0.00    -0.744 OA
ENDBRANCH  89  90
ENDBRANCH  57  82
BRANCH  69  94
ATOM     94  C   UNL A   1      39.880  33.951  36.970  1.00  0.00     0.058 A 
ATOM     95  C   UNL A   1      39.098  33.709  38.110  1.00  0.00     0.135 A 
ATOM     96  C   UNL A   1      40.518  35.198  36.865  1.00  0.00     0.135 A 
ATOM     97  F   UNL A   1      38.466  32.534  38.258  1.00  0.00    -0.206 F 
ATOM     98  C   UNL A   1      38.925  34.679  39.091  1.00  0.00     0.059 A 
ATOM     99  C   UNL A   1      40.381  36.173  37.848  1.00  0.00     0.059 A 
ATOM    100  F   UNL A   1      41.289  35.477  35.801  1.00  0.00    -0.206 F 
ATOM    101  C   UNL A   1      39.568  35.911  38.949  1.00  0.00     0.060 A 
BRANCH 101 102
ATOM    102  S   UNL A   1      39.343  37.161  40.231  1.00  0.00     0.124 S 
ATOM    103  O   UNL A   1      38.481  36.459  41.176  1.00  0.00    -0.237 OA
ATOM    104  O   UNL A   1      40.711  37.402  40.679  1.00  0.00    -0.237 OA
ATOM    105  O   UNL A   1      38.719  38.271  39.517  1.00  0.00    -0.744 OA
ENDBRANCH 101 102
ENDBRANCH  69  94
ENDBRANCH  43  44
ENDBRANCH  35  38
ENDBRANCH  33  34
ENDBRANCH  32  33
ENDBRANCH  31  32
ENDBRANCH   1  31
TORSDOF 19
ENDMDL
MODEL 2
REMARK VINA RESULT:     -12.5      5.762      8.092
REMARK SMILES CC(C)Nc1ncc(C(=O)N2CCC[C@H](c3cccc(C(=O)NCCCCNC(=O)c4ccc(-c5c6nc(c(-c7c(F)cc(S(=O)(=O)[O-])cc7F)c7ccc([nH]7)c(-c7c(F)cc(S(=O)(=O)[O-])cc7F)c7nc(c(-c8c(F)cc(S(=O)(=O)[O-])cc8F)c8ccc5[nH]8)C=C7)C=C6)cc4)c3)C2)cn1
REMARK SMILES IDX 24 1 23 2 21 3 22 4 20 6 16 7 17 8 97 9 18 10 19 11 15 12
REMARK SMILES IDX 11 13 12 14 98 15 13 16 14 17 9 18 10 19 8 20 5 21 6 22
REMARK SMILES IDX 100 23 7 24 99 25 4 26 2 28 1 29 3 30 25 31 26 32 27 33
REMARK SMILES IDX 28 34 29 35 30 37 31 38 32 39 96 40 33 41 95 42 34 43 35 44
REMARK SMILES IDX 36 45 89 46 37 47 94 48 88 49 90 50 38 51 93 52 87 53 86 54
REMARK SMILES IDX 39 56 73 57 52 58 72 59 53 60 56 61 71 62 91 63 54 64 55 65
REMARK SMILES IDX 70 67 92 68 57 69 40 70 41 71 50 72 42 73 43 74 49 75 51 76
REMARK SMILES IDX 44 77 45 78 46 79 47 80 48 81 74 82 75 83 84 84 76 85 77 86
REMARK SMILES IDX 83 87 85 88 78 89 79 90 80 91 81 92 82 93 58 94 59 95 68 96
REMARK SMILES IDX 60 97 61 98 67 99 69 100 62 101 63 102 64 103 65 104 66 105
REMARK H PARENT 23 5 4 27 28 36 90 55 56 66
REMARK Flexibility Score: inf
ROOT
ATOM      1  C   UNL A   1      35.968  19.944  24.990  1.00  0.00     0.116 C 
ENDROOT
BRANCH   1   2
ATOM      2  N   UNL A   1      34.929  18.924  24.996  1.00  0.00    -0.352 N 
ATOM      3  C   UNL A   1      33.607  18.957  24.599  1.00  0.00     0.251 C 
ATOM      4  O   UNL A   1      32.928  17.938  24.718  1.00  0.00    -0.269 OA
ATOM      5  H   UNL A   1      35.222  18.051  25.347  1.00  0.00     0.163 HD
BRANCH   3   6
ATOM      6  C   UNL A   1      32.960  20.203  24.102  1.00  0.00     0.040 A 
ATOM      7  C   UNL A   1      31.818  22.318  24.579  1.00  0.00    -0.042 A 
ATOM      8  C   UNL A   1      31.383  22.341  23.247  1.00  0.00     0.004 A 
ATOM      9  C   UNL A   1      32.709  21.293  24.937  1.00  0.00     0.018 A 
ATOM     10  C   UNL A   1      31.783  21.352  22.339  1.00  0.00     0.001 A 
ATOM     11  C   UNL A   1      32.539  20.264  22.774  1.00  0.00     0.014 A 
BRANCH   7  12
ATOM     12  C   UNL A   1      31.217  23.212  25.673  1.00  0.00     0.039 C 
ATOM     13  N   UNL A   1      31.937  25.496  25.013  1.00  0.00    -0.338 N 
ATOM     14  C   UNL A   1      32.913  25.585  26.095  1.00  0.00     0.120 C 
ATOM     15  C   UNL A   1      30.778  24.630  25.238  1.00  0.00     0.128 C 
ATOM     16  C   UNL A   1      33.325  24.223  26.633  1.00  0.00     0.022 C 
ATOM     17  C   UNL A   1      32.092  23.375  26.938  1.00  0.00     0.012 C 
BRANCH  13  18
ATOM     18  C   UNL A   1      32.189  26.169  23.827  1.00  0.00     0.257 C 
ATOM     19  O   UNL A   1      33.121  25.889  23.078  1.00  0.00    -0.269 OA
BRANCH  18  20
ATOM     20  C   UNL A   1      31.401  27.372  23.519  1.00  0.00     0.076 A 
ATOM     21  C   UNL A   1      30.251  29.706  22.719  1.00  0.00     0.222 A 
ATOM     22  N   UNL A   1      30.984  29.716  23.842  1.00  0.00    -0.221 NA
ATOM     23  N   UNL A   1      30.036  28.610  21.977  1.00  0.00    -0.221 NA
ATOM     24  C   UNL A   1      31.545  28.548  24.217  1.00  0.00     0.130 A 
ATOM     25  C   UNL A   1      30.642  27.467  22.378  1.00  0.00     0.130 A 
BRANCH  21  26
ATOM     26  N   UNL A   1      29.743  30.918  22.353  1.00  0.00    -0.352 N 
ATOM     27  H   UNL A   1      30.017  31.299  21.487  1.00  0.00     0.163 HD
BRANCH  26  28
ATOM     28  C   UNL A   1      28.824  31.667  23.174  1.00  0.00     0.076 C 
ATOM     29  C   UNL A   1      28.441  32.935  22.411  1.00  0.00     0.030 C 
ATOM     30  C   UNL A   1      27.588  30.825  23.473  1.00  0.00     0.030 C 
ENDBRANCH  26  28
ENDBRANCH  21  26
ENDBRANCH  18  20
ENDBRANCH  13  18
ENDBRANCH   7  12
ENDBRANCH   3   6
ENDBRANCH   1   2
BRANCH   1  31
ATOM     31  C   UNL A   1      37.394  19.413  24.995  1.00  0.00     0.023 C 
BRANCH  31  32
ATOM     32  C   UNL A   1      38.505  20.453  24.994  1.00  0.00     0.023 C 
BRANCH  32  33
ATOM     33  C   UNL A   1      39.475  20.399  26.167  1.00  0.00     0.116 C 
BRANCH  33  34
ATOM     34  N   UNL A   1      40.505  19.380  26.039  1.00  0.00    -0.352 N 
ATOM     35  C   UNL A   1      41.876  19.506  26.109  1.00  0.00     0.251 C 
ATOM     36  H   UNL A   1      40.175  18.466  25.881  1.00  0.00     0.163 HD
ATOM     37  O   UNL A   1      42.585  18.530  25.905  1.00  0.00    -0.269 OA
BRANCH  35  38
ATOM     38  C   UNL A   1      42.485  20.828  26.388  1.00  0.00     0.039 A 
ATOM     39  C   UNL A   1      42.804  21.661  25.312  1.00  0.00     0.014 A 
ATOM     40  C   UNL A   1      42.722  21.256  27.696  1.00  0.00     0.014 A 
ATOM     41  C   UNL A   1      43.293  22.947  25.553  1.00  0.00     0.010 A 
ATOM     42  C   UNL A   1      43.121  22.567  27.935  1.00  0.00     0.010 A 
ATOM     43  C   UNL A   1      43.422  23.425  26.868  1.00  0.00    -0.014 A 
BRANCH  43  44
ATOM     44  C   UNL A   1      43.891  24.809  27.141  1.00  0.00     0.031 A 
ATOM     45  C   UNL A   1      45.340  25.168  26.942  1.00  0.00     0.074 A 
ATOM     46  C   UNL A   1      43.026  25.729  27.615  1.00  0.00     0.049 A 
ATOM     47  N   UNL A   1      45.946  26.309  27.152  1.00  0.00    -0.248 NA
ATOM     48  C   UNL A   1      46.232  24.095  26.473  1.00  0.00     0.031 C 
ATOM     49  C   UNL A   1      41.611  25.490  27.911  1.00  0.00     0.029 A 
ATOM     50  N   UNL A   1      43.210  27.051  27.934  1.00  0.00    -0.354 N 
ATOM     51  C   UNL A   1      47.286  26.087  26.856  1.00  0.00     0.074 A 
ATOM     52  C   UNL A   1      47.416  24.688  26.514  1.00  0.00     0.031 C 
ATOM     53  C   UNL A   1      41.050  26.634  28.335  1.00  0.00     0.029 A 
ATOM     54  C   UNL A   1      42.068  27.680  28.370  1.00  0.00     0.049 A 
ATOM     55  H   UNL A   1      44.080  27.507  27.858  1.00  0.00     0.167 HD
ATOM     56  C   UNL A   1      48.311  26.971  26.838  1.00  0.00     0.037 A 
ATOM     57  C   UNL A   1      41.861  28.957  28.746  1.00  0.00     0.037 A 
ATOM     58  C   UNL A   1      48.170  28.370  27.150  1.00  0.00     0.049 A 
ATOM     59  C   UNL A   1      43.008  29.930  28.691  1.00  0.00     0.074 A 
ATOM     60  C   UNL A   1      49.135  29.362  27.113  1.00  0.00     0.029 A 
ATOM     61  N   UNL A   1      46.989  28.976  27.552  1.00  0.00    -0.354 N 
ATOM     62  N   UNL A   1      44.256  29.717  28.348  1.00  0.00    -0.248 NA
ATOM     63  C   UNL A   1      42.716  31.322  29.061  1.00  0.00     0.031 C 
ATOM     64  C   UNL A   1      48.543  30.562  27.525  1.00  0.00     0.029 A 
ATOM     65  C   UNL A   1      47.200  30.326  27.773  1.00  0.00     0.049 A 
ATOM     66  H   UNL A   1      46.127  28.513  27.662  1.00  0.00     0.167 HD
ATOM     67  C   UNL A   1      44.889  30.952  28.426  1.00  0.00     0.074 A 
ATOM     68  C   UNL A   1      43.884  31.910  28.840  1.00  0.00     0.031 C 
ATOM     69  C   UNL A   1      46.184  31.267  28.174  1.00  0.00     0.037 A 
BRANCH  56  70
ATOM     70  C   UNL A   1      49.670  26.451  26.455  1.00  0.00     0.058 A 
ATOM     71  C   UNL A   1      50.114  26.467  25.122  1.00  0.00     0.135 A 
ATOM     72  C   UNL A   1      50.547  25.948  27.429  1.00  0.00     0.135 A 
ATOM     73  F   UNL A   1      49.311  26.921  24.147  1.00  0.00    -0.206 F 
ATOM     74  C   UNL A   1      51.362  25.967  24.764  1.00  0.00     0.059 A 
ATOM     75  C   UNL A   1      51.812  25.471  27.098  1.00  0.00     0.059 A 
ATOM     76  F   UNL A   1      50.175  25.910  28.718  1.00  0.00    -0.206 F 
ATOM     77  C   UNL A   1      52.203  25.469  25.759  1.00  0.00     0.060 A 
BRANCH  77  78
ATOM     78  S   UNL A   1      53.818  24.822  25.278  1.00  0.00     0.124 S 
ATOM     79  O   UNL A   1      54.634  25.191  26.431  1.00  0.00    -0.237 OA
ATOM     80  O   UNL A   1      53.550  23.396  25.124  1.00  0.00    -0.237 OA
ATOM     81  O   UNL A   1      54.117  25.537  24.042  1.00  0.00    -0.744 OA
ENDBRANCH  77  78
ENDBRANCH  56  70
BRANCH  57  82
ATOM     82  C   UNL A   1      40.504  29.402  29.161  1.00  0.00     0.058 A 
ATOM     83  C   UNL A   1      40.204  29.638  30.512  1.00  0.00     0.135 A 
ATOM     84  C   UNL A   1      39.482  29.607  28.221  1.00  0.00     0.135 A 
ATOM     85  F   UNL A   1      41.146  29.451  31.449  1.00  0.00    -0.206 F 
ATOM     86  C   UNL A   1      38.938  30.042  30.920  1.00  0.00     0.059 A 
ATOM     87  C   UNL A   1      38.213  30.035  28.602  1.00  0.00     0.059 A 
ATOM     88  F   UNL A   1      39.721  29.412  26.915  1.00  0.00    -0.206 F 
ATOM     89  C   UNL A   1      37.948  30.240  29.955  1.00  0.00     0.060 A 
BRANCH  89  90
ATOM     90  S   UNL A   1      36.320  30.810  30.491  1.00  0.00     0.124 S 
ATOM     91  O   UNL A   1      36.586  32.212  30.795  1.00  0.00    -0.237 OA
ATOM     92  O   UNL A   1      35.501  30.557  29.309  1.00  0.00    -0.237 OA
ATOM     93  O   UNL A   1      36.029  29.959  31.640  1.00  0.00    -0.744 OA
ENDBRANCH  89  90
ENDBRANCH  57  82
BRANCH  69  94
ATOM     94  C   UNL A   1      46.576  32.714  28.294  1.00  0.00     0.058 A 
ATOM     95  C   UNL A   1      46.448  33.609  27.221  1.00  0.00     0.135 A 
ATOM     96  C   UNL A   1      47.061  33.216  29.513  1.00  0.00     0.135 A 
ATOM     97  F   UNL A   1      45.992  33.179  26.034  1.00  0.00    -0.206 F 
ATOM     98  C   UNL A   1      46.823  34.944  27.339  1.00  0.00     0.059 A 
ATOM     99  C   UNL A   1      47.415  34.553  29.662  1.00  0.00     0.059 A 
ATOM    100  F   UNL A   1      47.190  32.406  30.576  1.00  0.00    -0.206 F 
ATOM    101  C   UNL A   1      47.309  35.405  28.564  1.00  0.00     0.060 A 
BRANCH 101 102
ATOM    102  S   UNL A   1      47.784  37.141  28.711  1.00  0.00     0.124 S 
ATOM    103  O   UNL A   1      46.506  37.768  29.031  1.00  0.00    -0.237 OA
ATOM    104  O   UNL A   1      48.764  37.108  29.793  1.00  0.00    -0.237 OA
ATOM    105  O   UNL A   1      48.326  37.457  27.392  1.00  0.00    -0.744 OA
ENDBRANCH 101 102
ENDBRANCH  69  94
ENDBRANCH  43  44
ENDBRANCH  35  38
ENDBRANCH  33  34
ENDBRANCH  32  33
ENDBRANCH  31  32
ENDBRANCH   1  31
TORSDOF 19
ENDMDL
MODEL 3
REMARK VINA RESULT:     -12.4      6.083     12.038
REMARK SMILES CC(C)Nc1ncc(C(=O)N2CCC[C@H](c3cccc(C(=O)NCCCCNC(=O)c4ccc(-c5c6nc(c(-c7c(F)cc(S(=O)(=O)[O-])cc7F)c7ccc([nH]7)c(-c7c(F)cc(S(=O)(=O)[O-])cc7F)c7nc(c(-c8c(F)cc(S(=O)(=O)[O-])cc8F)c8ccc5[nH]8)C=C7)C=C6)cc4)c3)C2)cn1
REMARK SMILES IDX 24 1 23 2 21 3 22 4 20 6 16 7 17 8 97 9 18 10 19 11 15 12
REMARK SMILES IDX 11 13 12 14 98 15 13 16 14 17 9 18 10 19 8 20 5 21 6 22
REMARK SMILES IDX 100 23 7 24 99 25 4 26 2 28 1 29 3 30 25 31 26 32 27 33
REMARK SMILES IDX 28 34 29 35 30 37 31 38 32 39 96 40 33 41 95 42 34 43 35 44
REMARK SMILES IDX 36 45 89 46 37 47 94 48 88 49 90 50 38 51 93 52 87 53 86 54
REMARK SMILES IDX 39 56 73 57 52 58 72 59 53 60 56 61 71 62 91 63 54 64 55 65
REMARK SMILES IDX 70 67 92 68 57 69 40 70 41 71 50 72 42 73 43 74 49 75 51 76
REMARK SMILES IDX 44 77 45 78 46 79 47 80 48 81 74 82 75 83 84 84 76 85 77 86
REMARK SMILES IDX 83 87 85 88 78 89 79 90 80 91 81 92 82 93 58 94 59 95 68 96
REMARK SMILES IDX 60 97 61 98 67 99 69 100 62 101 63 102 64 103 65 104 66 105
REMARK H PARENT 23 5 4 27 28 36 90 55 56 66
REMARK Flexibility Score: inf
ROOT
ATOM      1  C   UNL A   1      34.904  31.752  28.016  1.00  0.00     0.116 C 
ENDROOT
BRANCH   1   2
ATOM      2  N   UNL A   1      33.532  32.024  27.609  1.00  0.00    -0.352 N 
ATOM      3  C   UNL A   1      32.597  31.249  26.953  1.00  0.00     0.251 C 
ATOM      4  O   UNL A   1      31.489  31.729  26.719  1.00  0.00    -0.269 OA
ATOM      5  H   UNL A   1      33.213  32.926  27.845  1.00  0.00     0.163 HD
BRANCH   3   6
ATOM      6  C   UNL A   1      32.912  29.880  26.456  1.00  0.00     0.040 A 
ATOM      7  C   UNL A   1      32.156  27.783  25.438  1.00  0.00    -0.042 A 
ATOM      8  C   UNL A   1      33.338  27.181  25.889  1.00  0.00     0.004 A 
ATOM      9  C   UNL A   1      32.035  29.169  25.636  1.00  0.00     0.018 A 
ATOM     10  C   UNL A   1      34.322  27.927  26.551  1.00  0.00     0.001 A 
ATOM     11  C   UNL A   1      34.093  29.265  26.869  1.00  0.00     0.014 A 
BRANCH   7  12
ATOM     12  C   UNL A   1      30.942  26.982  24.944  1.00  0.00     0.039 C 
ATOM     13  N   UNL A   1      31.940  25.323  23.387  1.00  0.00    -0.338 N 
ATOM     14  C   UNL A   1      31.416  26.002  22.206  1.00  0.00     0.120 C 
ATOM     15  C   UNL A   1      31.187  25.487  24.633  1.00  0.00     0.128 C 
ATOM     16  C   UNL A   1      31.069  27.460  22.466  1.00  0.00     0.022 C 
ATOM     17  C   UNL A   1      30.213  27.589  23.723  1.00  0.00     0.012 C 
BRANCH  13  18
ATOM     18  C   UNL A   1      33.136  24.631  23.286  1.00  0.00     0.257 C 
ATOM     19  O   UNL A   1      34.102  25.042  22.648  1.00  0.00    -0.269 OA
BRANCH  18  20
ATOM     20  C   UNL A   1      33.212  23.270  23.839  1.00  0.00     0.076 A 
ATOM     21  C   UNL A   1      33.654  20.696  24.608  1.00  0.00     0.222 A 
ATOM     22  N   UNL A   1      32.772  20.918  23.623  1.00  0.00    -0.221 NA
ATOM     23  N   UNL A   1      34.317  21.670  25.250  1.00  0.00    -0.221 NA
ATOM     24  C   UNL A   1      32.571  22.201  23.257  1.00  0.00     0.130 A 
ATOM     25  C   UNL A   1      34.103  22.940  24.831  1.00  0.00     0.130 A 
BRANCH  21  26
ATOM     26  N   UNL A   1      33.861  19.382  24.912  1.00  0.00    -0.352 N 
ATOM     27  H   UNL A   1      34.687  19.136  25.386  1.00  0.00     0.163 HD
BRANCH  26  28
ATOM     28  C   UNL A   1      32.926  18.338  24.569  1.00  0.00     0.076 C 
ATOM     29  C   UNL A   1      33.527  17.532  23.418  1.00  0.00     0.030 C 
ATOM     30  C   UNL A   1      32.676  17.446  25.780  1.00  0.00     0.030 C 
ENDBRANCH  26  28
ENDBRANCH  21  26
ENDBRANCH  18  20
ENDBRANCH  13  18
ENDBRANCH   7  12
ENDBRANCH   3   6
ENDBRANCH   1   2
BRANCH   1  31
ATOM     31  C   UNL A   1      35.858  32.931  27.896  1.00  0.00     0.023 C 
BRANCH  31  32
ATOM     32  C   UNL A   1      36.035  33.789  29.140  1.00  0.00     0.023 C 
BRANCH  32  33
ATOM     33  C   UNL A   1      36.971  33.238  30.208  1.00  0.00     0.116 C 
BRANCH  33  34
ATOM     34  N   UNL A   1      36.348  32.277  31.104  1.00  0.00    -0.352 N 
ATOM     35  C   UNL A   1      36.749  31.001  31.436  1.00  0.00     0.251 C 
ATOM     36  H   UNL A   1      35.519  32.582  31.538  1.00  0.00     0.163 HD
ATOM     37  O   UNL A   1      36.045  30.315  32.165  1.00  0.00    -0.269 OA
BRANCH  35  38
ATOM     38  C   UNL A   1      38.007  30.451  30.878  1.00  0.00     0.039 A 
ATOM     39  C   UNL A   1      38.138  30.350  29.490  1.00  0.00     0.014 A 
ATOM     40  C   UNL A   1      39.058  30.058  31.709  1.00  0.00     0.014 A 
ATOM     41  C   UNL A   1      39.348  29.921  28.939  1.00  0.00     0.010 A 
ATOM     42  C   UNL A   1      40.290  29.719  31.157  1.00  0.00     0.010 A 
ATOM     43  C   UNL A   1      40.447  29.637  29.766  1.00  0.00    -0.014 A 
BRANCH  43  44
ATOM     44  C   UNL A   1      41.757  29.231  29.193  1.00  0.00     0.031 A 
ATOM     45  C   UNL A   1      42.875  30.234  29.080  1.00  0.00     0.074 A 
ATOM     46  C   UNL A   1      41.927  27.976  28.729  1.00  0.00     0.049 A 
ATOM     47  N   UNL A   1      44.077  30.082  28.585  1.00  0.00    -0.248 NA
ATOM     48  C   UNL A   1      42.595  31.598  29.560  1.00  0.00     0.031 C 
ATOM     49  C   UNL A   1      40.903  26.928  28.722  1.00  0.00     0.029 A 
ATOM     50  N   UNL A   1      43.023  27.368  28.171  1.00  0.00    -0.354 N 
ATOM     51  C   UNL A   1      44.687  31.327  28.680  1.00  0.00     0.074 A 
ATOM     52  C   UNL A   1      43.703  32.239  29.220  1.00  0.00     0.031 C 
ATOM     53  C   UNL A   1      41.429  25.800  28.218  1.00  0.00     0.029 A 
ATOM     54  C   UNL A   1      42.817  26.050  27.838  1.00  0.00     0.049 A 
ATOM     55  H   UNL A   1      43.879  27.833  28.021  1.00  0.00     0.167 HD
ATOM     56  C   UNL A   1      45.960  31.676  28.377  1.00  0.00     0.037 A 
ATOM     57  C   UNL A   1      43.652  25.142  27.298  1.00  0.00     0.037 A 
ATOM     58  C   UNL A   1      46.945  30.758  27.868  1.00  0.00     0.049 A 
ATOM     59  C   UNL A   1      45.071  25.543  26.995  1.00  0.00     0.074 A 
ATOM     60  C   UNL A   1      48.276  30.997  27.576  1.00  0.00     0.029 A 
ATOM     61  N   UNL A   1      46.706  29.422  27.580  1.00  0.00    -0.354 N 
ATOM     62  N   UNL A   1      45.650  26.710  27.152  1.00  0.00    -0.248 NA
ATOM     63  C   UNL A   1      45.956  24.501  26.457  1.00  0.00     0.031 C 
ATOM     64  C   UNL A   1      48.834  29.813  27.080  1.00  0.00     0.029 A 
ATOM     65  C   UNL A   1      47.863  28.825  27.107  1.00  0.00     0.049 A 
ATOM     66  H   UNL A   1      45.842  28.965  27.696  1.00  0.00     0.167 HD
ATOM     67  C   UNL A   1      46.974  26.534  26.764  1.00  0.00     0.074 A 
ATOM     68  C   UNL A   1      47.112  25.144  26.376  1.00  0.00     0.031 C 
ATOM     69  C   UNL A   1      47.985  27.437  26.736  1.00  0.00     0.037 A 
BRANCH  56  70
ATOM     70  C   UNL A   1      46.359  33.109  28.603  1.00  0.00     0.058 A 
ATOM     71  C   UNL A   1      46.242  34.073  27.587  1.00  0.00     0.135 A 
ATOM     72  C   UNL A   1      46.847  33.531  29.849  1.00  0.00     0.135 A 
ATOM     73  F   UNL A   1      45.797  33.723  26.370  1.00  0.00    -0.206 F 
ATOM     74  C   UNL A   1      46.631  35.394  27.788  1.00  0.00     0.059 A 
ATOM     75  C   UNL A   1      47.213  34.854  30.082  1.00  0.00     0.059 A 
ATOM     76  F   UNL A   1      46.979  32.653  30.856  1.00  0.00    -0.206 F 
ATOM     77  C   UNL A   1      47.117  35.774  29.038  1.00  0.00     0.060 A 
BRANCH  77  78
ATOM     78  S   UNL A   1      47.620  37.490  29.281  1.00  0.00     0.124 S 
ATOM     79  O   UNL A   1      47.433  38.040  27.941  1.00  0.00    -0.237 OA
ATOM     80  O   UNL A   1      46.675  37.953  30.292  1.00  0.00    -0.237 OA
ATOM     81  O   UNL A   1      49.005  37.380  29.727  1.00  0.00    -0.744 OA
ENDBRANCH  77  78
ENDBRANCH  56  70
BRANCH  57  82
ATOM     82  C   UNL A   1      43.186  23.751  27.053  1.00  0.00     0.058 A 
ATOM     83  C   UNL A   1      43.067  22.835  28.109  1.00  0.00     0.135 A 
ATOM     84  C   UNL A   1      42.841  23.311  25.766  1.00  0.00     0.135 A 
ATOM     85  F   UNL A   1      43.390  23.207  29.358  1.00  0.00    -0.206 F 
ATOM     86  C   UNL A   1      42.644  21.526  27.898  1.00  0.00     0.059 A 
ATOM     87  C   UNL A   1      42.391  22.014  25.533  1.00  0.00     0.059 A 
ATOM     88  F   UNL A   1      42.919  24.152  24.724  1.00  0.00    -0.206 F 
ATOM     89  C   UNL A   1      42.307  21.126  26.604  1.00  0.00     0.060 A 
BRANCH  89  90
ATOM     90  S   UNL A   1      41.713  19.439  26.348  1.00  0.00     0.124 S 
ATOM     91  O   UNL A   1      42.445  19.050  25.147  1.00  0.00    -0.237 OA
ATOM     92  O   UNL A   1      42.118  18.779  27.585  1.00  0.00    -0.237 OA
ATOM     93  O   UNL A   1      40.274  19.613  26.182  1.00  0.00    -0.744 OA
ENDBRANCH  89  90
ENDBRANCH  57  82
BRANCH  69  94
ATOM     94  C   UNL A   1      49.340  26.940  26.315  1.00  0.00     0.058 A 
ATOM     95  C   UNL A   1      49.823  27.116  25.009  1.00  0.00     0.135 A 
ATOM     96  C   UNL A   1      50.178  26.301  27.243  1.00  0.00     0.135 A 
ATOM     97  F   UNL A   1      49.060  27.718  24.083  1.00  0.00    -0.206 F 
ATOM     98  C   UNL A   1      51.074  26.643  24.627  1.00  0.00     0.059 A 
ATOM     99  C   UNL A   1      51.445  25.846  26.891  1.00  0.00     0.059 A 
ATOM    100  F   UNL A   1      49.771  26.119  28.510  1.00  0.00    -0.206 F 
ATOM    101  C   UNL A   1      51.877  26.006  25.576  1.00  0.00     0.060 A 
BRANCH 101 102
ATOM    102  S   UNL A   1      53.503  25.403  25.073  1.00  0.00     0.124 S 
ATOM    103  O   UNL A   1      53.444  24.010  25.505  1.00  0.00    -0.237 OA
ATOM    104  O   UNL A   1      53.487  25.622  23.630  1.00  0.00    -0.237 OA
ATOM    105  O   UNL A   1      54.425  26.253  25.820  1.00  0.00    -0.744 OA
ENDBRANCH 101 102
ENDBRANCH  69  94
ENDBRANCH  43  44
ENDBRANCH  35  38
ENDBRANCH  33  34
ENDBRANCH  32  33
ENDBRANCH  31  32
ENDBRANCH   1  31
TORSDOF 19
ENDMDL
