MODEL 1
REMARK VINA RESULT:     -10.9      0.000      0.000
REMARK SMILES Cc1noc(C)c1C[NH2+][C@H](C)[C@H](C)C(=O)NCCCCNC(=O)c1ccc(-c2c3nc(c(-c4c(F)cc(S(=O)(=O)[O-])cc4F)c4ccc([nH]4)c(-c4c(F)cc(S(=O)(=O)[O-])cc4F)c4nc(c(-c5c(F)cc(S(=O)(=O)[O-])cc5F)c5ccc2[nH]5)C=C4)C=C3)cc1
REMARK SMILES IDX 18 1 17 2 16 3 14 4 15 5 12 7 13 8 10 9 11 10 9 11 8 14 7 15
REMARK SMILES IDX 1 16 2 17 3 18 4 19 5 20 6 21 19 22 20 23 21 24 22 25 23 27
REMARK SMILES IDX 24 28 25 29 89 30 26 31 88 32 27 33 28 34 29 35 82 36 30 37
REMARK SMILES IDX 87 38 81 39 83 40 31 41 86 42 80 43 79 44 32 46 66 47 45 48
REMARK SMILES IDX 65 49 46 50 49 51 64 52 84 53 47 54 48 55 63 57 85 58 50 59
REMARK SMILES IDX 33 60 34 61 43 62 35 63 36 64 42 65 44 66 37 67 38 68 39 69
REMARK SMILES IDX 40 70 41 71 67 72 68 73 77 74 69 75 70 76 76 77 78 78 71 79
REMARK SMILES IDX 72 80 73 81 74 82 75 83 51 84 52 85 61 86 53 87 54 88 60 89
REMARK SMILES IDX 62 90 55 91 56 92 57 93 58 94 59 95
REMARK H PARENT 16 6 9 12 9 13 21 26 83 45 49 56
REMARK Flexibility Score: inf
ROOT
ATOM      1  C   UNL A   1      38.660  22.322  26.331  1.00  0.00     0.023 C 
ENDROOT
BRANCH   1   2
ATOM      2  C   UNL A   1      37.982  21.456  25.274  1.00  0.00     0.116 C 
BRANCH   2   3
ATOM      3  N   UNL A   1      37.504  22.235  24.146  1.00  0.00    -0.356 N 
ATOM      4  C   UNL A   1      36.245  22.598  23.779  1.00  0.00     0.228 C 
ATOM      5  O   UNL A   1      36.118  23.299  22.774  1.00  0.00    -0.275 OA
ATOM      6  H   UNL A   1      38.214  22.555  23.542  1.00  0.00     0.163 HD
BRANCH   4   7
ATOM      7  C   UNL A   1      35.012  22.169  24.575  1.00  0.00     0.133 C 
ATOM      8  C   UNL A   1      35.010  22.919  25.915  1.00  0.00     0.024 C 
BRANCH   7   9
ATOM      9  C   UNL A   1      33.704  22.244  23.730  1.00  0.00     0.191 C 
ATOM     10  C   UNL A   1      32.704  21.151  24.160  1.00  0.00     0.076 C 
BRANCH   9  11
ATOM     11  N   UNL A   1      32.924  23.496  23.730  1.00  0.00    -0.339 N 
ATOM     12  H   UNL A   1      33.152  23.996  24.589  1.00  0.00     0.346 HD
ATOM     13  H   UNL A   1      33.190  23.960  22.860  1.00  0.00     0.346 HD
BRANCH  11  14
ATOM     14  C   UNL A   1      31.480  23.401  23.658  1.00  0.00     0.303 C 
BRANCH  14  15
ATOM     15  C   UNL A   1      30.913  24.385  24.613  1.00  0.00     0.071 A 
ATOM     16  C   UNL A   1      31.020  23.035  26.842  1.00  0.00     0.071 C 
ATOM     17  C   UNL A   1      30.698  24.218  26.010  1.00  0.00     0.090 A 
ATOM     18  N   UNL A   1      30.139  25.304  26.555  1.00  0.00    -0.085 NA
ATOM     19  O   UNL A   1      29.992  26.209  25.521  1.00  0.00    -0.361 OA
ATOM     20  C   UNL A   1      30.455  25.661  24.367  1.00  0.00     0.142 A 
ATOM     21  C   UNL A   1      30.372  26.504  23.160  1.00  0.00     0.091 C 
ENDBRANCH  14  15
ENDBRANCH  11  14
ENDBRANCH   9  11
ENDBRANCH   7   9
ENDBRANCH   4   7
ENDBRANCH   2   3
ENDBRANCH   1   2
BRANCH   1  22
ATOM     22  C   UNL A   1      40.074  21.883  26.714  1.00  0.00     0.023 C 
BRANCH  22  23
ATOM     23  C   UNL A   1      41.021  23.009  27.121  1.00  0.00     0.116 C 
BRANCH  23  24
ATOM     24  N   UNL A   1      41.421  23.850  26.001  1.00  0.00    -0.352 N 
ATOM     25  C   UNL A   1      41.651  25.206  25.979  1.00  0.00     0.251 C 
ATOM     26  H   UNL A   1      41.545  23.384  25.143  1.00  0.00     0.163 HD
ATOM     27  O   UNL A   1      41.867  25.777  24.914  1.00  0.00    -0.269 OA
BRANCH  25  28
ATOM     28  C   UNL A   1      41.595  25.972  27.240  1.00  0.00     0.039 A 
ATOM     29  C   UNL A   1      42.666  26.805  27.573  1.00  0.00     0.014 A 
ATOM     30  C   UNL A   1      40.466  25.908  28.062  1.00  0.00     0.014 A 
ATOM     31  C   UNL A   1      42.566  27.642  28.687  1.00  0.00     0.010 A 
ATOM     32  C   UNL A   1      40.342  26.790  29.130  1.00  0.00     0.010 A 
ATOM     33  C   UNL A   1      41.384  27.675  29.446  1.00  0.00    -0.014 A 
BRANCH  33  34
ATOM     34  C   UNL A   1      41.206  28.648  30.553  1.00  0.00     0.031 A 
ATOM     35  C   UNL A   1      42.071  28.564  31.781  1.00  0.00     0.074 A 
ATOM     36  C   UNL A   1      40.211  29.555  30.488  1.00  0.00     0.049 A 
ATOM     37  N   UNL A   1      42.007  29.263  32.883  1.00  0.00    -0.248 NA
ATOM     38  C   UNL A   1      43.125  27.536  31.779  1.00  0.00     0.031 C 
ATOM     39  C   UNL A   1      39.268  29.699  29.376  1.00  0.00     0.029 A 
ATOM     40  N   UNL A   1      39.816  30.518  31.382  1.00  0.00    -0.354 N 
ATOM     41  C   UNL A   1      42.998  28.753  33.713  1.00  0.00     0.074 A 
ATOM     42  C   UNL A   1      43.618  27.653  33.004  1.00  0.00     0.031 C 
ATOM     43  C   UNL A   1      38.417  30.702  29.647  1.00  0.00     0.029 A 
ATOM     44  C   UNL A   1      38.730  31.251  30.963  1.00  0.00     0.049 A 
ATOM     45  H   UNL A   1      40.266  30.670  32.244  1.00  0.00     0.167 HD
ATOM     46  C   UNL A   1      43.371  29.175  34.944  1.00  0.00     0.037 A 
ATOM     47  C   UNL A   1      38.058  32.247  31.571  1.00  0.00     0.037 A 
ATOM     48  C   UNL A   1      42.777  30.292  35.630  1.00  0.00     0.049 A 
ATOM     49  C   UNL A   1      38.501  32.709  32.931  1.00  0.00     0.074 A 
ATOM     50  C   UNL A   1      43.135  30.844  36.848  1.00  0.00     0.029 A 
ATOM     51  N   UNL A   1      41.698  31.027  35.160  1.00  0.00    -0.354 N 
ATOM     52  N   UNL A   1      39.486  32.259  33.672  1.00  0.00    -0.248 NA
ATOM     53  C   UNL A   1      37.747  33.814  33.539  1.00  0.00     0.031 C 
ATOM     54  C   UNL A   1      42.254  31.893  37.129  1.00  0.00     0.029 A 
ATOM     55  C   UNL A   1      41.367  32.016  36.071  1.00  0.00     0.049 A 
ATOM     56  H   UNL A   1      41.237  30.868  34.305  1.00  0.00     0.167 HD
ATOM     57  C   UNL A   1      39.480  33.037  34.825  1.00  0.00     0.074 A 
ATOM     58  C   UNL A   1      38.402  33.994  34.678  1.00  0.00     0.031 C 
ATOM     59  C   UNL A   1      40.293  32.962  35.907  1.00  0.00     0.037 A 
BRANCH  46  60
ATOM     60  C   UNL A   1      44.487  28.432  35.622  1.00  0.00     0.058 A 
ATOM     61  C   UNL A   1      45.827  28.819  35.466  1.00  0.00     0.135 A 
ATOM     62  C   UNL A   1      44.214  27.335  36.455  1.00  0.00     0.135 A 
ATOM     63  F   UNL A   1      46.145  29.851  34.669  1.00  0.00    -0.206 F 
ATOM     64  C   UNL A   1      46.861  28.126  36.086  1.00  0.00     0.059 A 
ATOM     65  C   UNL A   1      45.231  26.642  37.106  1.00  0.00     0.059 A 
ATOM     66  F   UNL A   1      42.950  26.923  36.637  1.00  0.00    -0.206 F 
ATOM     67  C   UNL A   1      46.553  27.035  36.901  1.00  0.00     0.060 A 
BRANCH  67  68
ATOM     68  S   UNL A   1      47.905  26.143  37.696  1.00  0.00     0.124 S 
ATOM     69  O   UNL A   1      48.686  25.711  36.541  1.00  0.00    -0.237 OA
ATOM     70  O   UNL A   1      48.519  27.174  38.525  1.00  0.00    -0.237 OA
ATOM     71  O   UNL A   1      47.225  25.078  38.428  1.00  0.00    -0.744 OA
ENDBRANCH  67  68
ENDBRANCH  46  60
BRANCH  47  72
ATOM     72  C   UNL A   1      36.907  32.890  30.887  1.00  0.00     0.058 A 
ATOM     73  C   UNL A   1      35.590  32.504  31.180  1.00  0.00     0.135 A 
ATOM     74  C   UNL A   1      37.095  33.912  29.944  1.00  0.00     0.135 A 
ATOM     75  F   UNL A   1      35.361  31.527  32.072  1.00  0.00    -0.206 F 
ATOM     76  C   UNL A   1      34.500  33.099  30.555  1.00  0.00     0.059 A 
ATOM     77  C   UNL A   1      36.020  34.536  29.320  1.00  0.00     0.059 A 
ATOM     78  F   UNL A   1      38.335  34.327  29.642  1.00  0.00    -0.206 F 
ATOM     79  C   UNL A   1      34.726  34.117  29.625  1.00  0.00     0.060 A 
BRANCH  79  80
ATOM     80  S   UNL A   1      33.303  34.923  28.859  1.00  0.00     0.124 S 
ATOM     81  O   UNL A   1      32.430  35.131  30.008  1.00  0.00    -0.237 OA
ATOM     82  O   UNL A   1      33.901  36.126  28.285  1.00  0.00    -0.237 OA
ATOM     83  O   UNL A   1      32.845  33.937  27.884  1.00  0.00    -0.744 OA
ENDBRANCH  79  80
ENDBRANCH  47  72
BRANCH  59  84
ATOM     84  C   UNL A   1      40.062  33.953  37.012  1.00  0.00     0.058 A 
ATOM     85  C   UNL A   1      40.749  35.176  37.053  1.00  0.00     0.135 A 
ATOM     86  C   UNL A   1      39.100  33.704  38.003  1.00  0.00     0.135 A 
ATOM     87  F   UNL A   1      41.685  35.457  36.132  1.00  0.00    -0.206 F 
ATOM     88  C   UNL A   1      40.499  36.114  38.048  1.00  0.00     0.059 A 
ATOM     89  C   UNL A   1      38.819  34.637  38.996  1.00  0.00     0.059 A 
ATOM     90  F   UNL A   1      38.411  32.553  38.002  1.00  0.00    -0.206 F 
ATOM     91  C   UNL A   1      39.530  35.837  39.015  1.00  0.00     0.060 A 
BRANCH  91  92
ATOM     92  S   UNL A   1      39.179  37.082  40.275  1.00  0.00     0.124 S 
ATOM     93  O   UNL A   1      40.525  37.447  40.708  1.00  0.00    -0.237 OA
ATOM     94  O   UNL A   1      38.459  38.101  39.518  1.00  0.00    -0.237 OA
ATOM     95  O   UNL A   1      38.379  36.356  41.255  1.00  0.00    -0.744 OA
ENDBRANCH  91  92
ENDBRANCH  59  84
ENDBRANCH  33  34
ENDBRANCH  25  28
ENDBRANCH  23  24
ENDBRANCH  22  23
ENDBRANCH   1  22
TORSDOF 18
ENDMDL
MODEL 2
REMARK VINA RESULT:     -10.7      6.830     12.186
REMARK SMILES Cc1noc(C)c1C[NH2+][C@H](C)[C@H](C)C(=O)NCCCCNC(=O)c1ccc(-c2c3nc(c(-c4c(F)cc(S(=O)(=O)[O-])cc4F)c4ccc([nH]4)c(-c4c(F)cc(S(=O)(=O)[O-])cc4F)c4nc(c(-c5c(F)cc(S(=O)(=O)[O-])cc5F)c5ccc2[nH]5)C=C4)C=C3)cc1
REMARK SMILES IDX 18 1 17 2 16 3 14 4 15 5 12 7 13 8 10 9 11 10 9 11 8 14 7 15
REMARK SMILES IDX 1 16 2 17 3 18 4 19 5 20 6 21 19 22 20 23 21 24 22 25 23 27
REMARK SMILES IDX 24 28 25 29 89 30 26 31 88 32 27 33 28 34 29 35 82 36 30 37
REMARK SMILES IDX 87 38 81 39 83 40 31 41 86 42 80 43 79 44 32 46 66 47 45 48
REMARK SMILES IDX 65 49 46 50 49 51 64 52 84 53 47 54 48 55 63 57 85 58 50 59
REMARK SMILES IDX 33 60 34 61 43 62 35 63 36 64 42 65 44 66 37 67 38 68 39 69
REMARK SMILES IDX 40 70 41 71 67 72 68 73 77 74 69 75 70 76 76 77 78 78 71 79
REMARK SMILES IDX 72 80 73 81 74 82 75 83 51 84 52 85 61 86 53 87 54 88 60 89
REMARK SMILES IDX 62 90 55 91 56 92 57 93 58 94 59 95
REMARK H PARENT 16 6 9 12 9 13 21 26 83 45 49 56
REMARK Flexibility Score: inf
ROOT
ATOM      1  C   UNL A   1      34.085  29.454  27.687  1.00  0.00     0.023 C 
ENDROOT
BRANCH   1   2
ATOM      2  C   UNL A   1      34.806  28.615  26.636  1.00  0.00     0.116 C 
BRANCH   2   3
ATOM      3  N   UNL A   1      34.016  27.477  26.202  1.00  0.00    -0.356 N 
ATOM      4  C   UNL A   1      33.247  27.294  25.095  1.00  0.00     0.228 C 
ATOM      5  O   UNL A   1      32.696  26.201  24.951  1.00  0.00    -0.275 OA
ATOM      6  H   UNL A   1      34.041  26.706  26.814  1.00  0.00     0.163 HD
BRANCH   4   7
ATOM      7  C   UNL A   1      33.062  28.390  24.044  1.00  0.00     0.133 C 
ATOM      8  C   UNL A   1      33.603  27.876  22.702  1.00  0.00     0.024 C 
BRANCH   7   9
ATOM      9  C   UNL A   1      31.615  28.970  24.039  1.00  0.00     0.191 C 
ATOM     10  C   UNL A   1      31.419  29.982  25.187  1.00  0.00     0.076 C 
BRANCH   9  11
ATOM     11  N   UNL A   1      31.128  29.664  22.832  1.00  0.00    -0.339 N 
ATOM     12  H   UNL A   1      30.713  30.545  23.135  1.00  0.00     0.346 HD
ATOM     13  H   UNL A   1      31.952  29.743  22.234  1.00  0.00     0.346 HD
BRANCH  11  14
ATOM     14  C   UNL A   1      30.148  28.991  22.005  1.00  0.00     0.303 C 
BRANCH  14  15
ATOM     15  C   UNL A   1      28.804  29.283  22.563  1.00  0.00     0.071 A 
ATOM     16  C   UNL A   1      28.192  26.981  23.625  1.00  0.00     0.071 C 
ATOM     17  C   UNL A   1      27.940  28.396  23.263  1.00  0.00     0.090 A 
ATOM     18  N   UNL A   1      26.789  28.991  23.596  1.00  0.00    -0.085 NA
ATOM     19  O   UNL A   1      26.888  30.288  23.130  1.00  0.00    -0.361 OA
ATOM     20  C   UNL A   1      28.089  30.461  22.518  1.00  0.00     0.142 A 
ATOM     21  C   UNL A   1      28.357  31.801  21.963  1.00  0.00     0.091 C 
ENDBRANCH  14  15
ENDBRANCH  11  14
ENDBRANCH   9  11
ENDBRANCH   7   9
ENDBRANCH   4   7
ENDBRANCH   2   3
ENDBRANCH   1   2
BRANCH   1  22
ATOM     22  C   UNL A   1      34.454  30.938  27.693  1.00  0.00     0.023 C 
BRANCH  22  23
ATOM     23  C   UNL A   1      35.709  31.297  28.482  1.00  0.00     0.116 C 
BRANCH  23  24
ATOM     24  N   UNL A   1      35.566  31.073  29.914  1.00  0.00    -0.352 N 
ATOM     25  C   UNL A   1      36.372  30.346  30.758  1.00  0.00     0.251 C 
ATOM     26  H   UNL A   1      34.786  31.501  30.335  1.00  0.00     0.163 HD
ATOM     27  O   UNL A   1      36.036  30.162  31.924  1.00  0.00    -0.269 OA
BRANCH  25  28
ATOM     28  C   UNL A   1      37.624  29.758  30.240  1.00  0.00     0.039 A 
ATOM     29  C   UNL A   1      37.936  29.917  28.887  1.00  0.00     0.014 A 
ATOM     30  C   UNL A   1      38.510  29.101  31.099  1.00  0.00     0.014 A 
ATOM     31  C   UNL A   1      39.180  29.492  28.414  1.00  0.00     0.010 A 
ATOM     32  C   UNL A   1      39.772  28.740  30.640  1.00  0.00     0.010 A 
ATOM     33  C   UNL A   1      40.126  28.944  29.297  1.00  0.00    -0.014 A 
BRANCH  33  34
ATOM     34  C   UNL A   1      41.498  28.606  28.844  1.00  0.00     0.031 A 
ATOM     35  C   UNL A   1      42.546  29.679  28.736  1.00  0.00     0.074 A 
ATOM     36  C   UNL A   1      41.778  27.347  28.451  1.00  0.00     0.049 A 
ATOM     37  N   UNL A   1      43.767  29.596  28.279  1.00  0.00    -0.248 NA
ATOM     38  C   UNL A   1      42.156  31.030  29.172  1.00  0.00     0.031 C 
ATOM     39  C   UNL A   1      40.830  26.229  28.453  1.00  0.00     0.029 A 
ATOM     40  N   UNL A   1      42.934  26.797  27.959  1.00  0.00    -0.354 N 
ATOM     41  C   UNL A   1      44.289  30.882  28.355  1.00  0.00     0.074 A 
ATOM     42  C   UNL A   1      43.234  31.736  28.858  1.00  0.00     0.031 C 
ATOM     43  C   UNL A   1      41.449  25.125  28.002  1.00  0.00     0.029 A 
ATOM     44  C   UNL A   1      42.825  25.461  27.647  1.00  0.00     0.049 A 
ATOM     45  H   UNL A   1      43.765  27.310  27.838  1.00  0.00     0.167 HD
ATOM     46  C   UNL A   1      45.537  31.308  28.052  1.00  0.00     0.037 A 
ATOM     47  C   UNL A   1      43.726  24.606  27.129  1.00  0.00     0.037 A 
ATOM     48  C   UNL A   1      46.594  30.449  27.586  1.00  0.00     0.049 A 
ATOM     49  C   UNL A   1      45.112  25.099  26.816  1.00  0.00     0.074 A 
ATOM     50  C   UNL A   1      47.914  30.772  27.323  1.00  0.00     0.029 A 
ATOM     51  N   UNL A   1      46.451  29.097  27.310  1.00  0.00    -0.354 N 
ATOM     52  N   UNL A   1      45.607  26.306  26.959  1.00  0.00    -0.248 NA
ATOM     53  C   UNL A   1      46.063  24.118  26.274  1.00  0.00     0.031 C 
ATOM     54  C   UNL A   1      48.562  29.623  26.859  1.00  0.00     0.029 A 
ATOM     55  C   UNL A   1      47.654  28.576  26.864  1.00  0.00     0.049 A 
ATOM     56  H   UNL A   1      45.618  28.584  27.416  1.00  0.00     0.167 HD
ATOM     57  C   UNL A   1      46.931  26.224  26.541  1.00  0.00     0.074 A 
ATOM     58  C   UNL A   1      47.163  24.848  26.152  1.00  0.00     0.031 C 
ATOM     59  C   UNL A   1      47.868  27.202  26.484  1.00  0.00     0.037 A 
BRANCH  46  60
ATOM     60  C   UNL A   1      45.832  32.770  28.230  1.00  0.00     0.058 A 
ATOM     61  C   UNL A   1      46.470  33.254  29.383  1.00  0.00     0.135 A 
ATOM     62  C   UNL A   1      45.495  33.696  27.230  1.00  0.00     0.135 A 
ATOM     63  F   UNL A   1      46.799  32.414  30.377  1.00  0.00    -0.206 F 
ATOM     64  C   UNL A   1      46.735  34.609  29.553  1.00  0.00     0.059 A 
ATOM     65  C   UNL A   1      45.773  35.053  27.367  1.00  0.00     0.059 A 
ATOM     66  F   UNL A   1      44.883  33.286  26.109  1.00  0.00    -0.206 F 
ATOM     67  C   UNL A   1      46.379  35.502  28.541  1.00  0.00     0.060 A 
BRANCH  67  68
ATOM     68  S   UNL A   1      46.724  37.257  28.776  1.00  0.00     0.124 S 
ATOM     69  O   UNL A   1      45.596  37.665  29.607  1.00  0.00    -0.237 OA
ATOM     70  O   UNL A   1      48.024  37.236  29.440  1.00  0.00    -0.237 OA
ATOM     71  O   UNL A   1      46.728  37.788  27.417  1.00  0.00    -0.744 OA
ENDBRANCH  67  68
ENDBRANCH  46  60
BRANCH  47  72
ATOM     72  C   UNL A   1      43.353  23.188  26.894  1.00  0.00     0.058 A 
ATOM     73  C   UNL A   1      43.204  22.690  25.591  1.00  0.00     0.135 A 
ATOM     74  C   UNL A   1      43.156  22.298  27.961  1.00  0.00     0.135 A 
ATOM     75  F   UNL A   1      43.377  23.506  24.539  1.00  0.00    -0.206 F 
ATOM     76  C   UNL A   1      42.861  21.365  25.351  1.00  0.00     0.059 A 
ATOM     77  C   UNL A   1      42.832  20.962  27.747  1.00  0.00     0.059 A 
ATOM     78  F   UNL A   1      43.303  22.722  29.226  1.00  0.00    -0.206 F 
ATOM     79  C   UNL A   1      42.678  20.506  26.438  1.00  0.00     0.060 A 
BRANCH  79  80
ATOM     80  S   UNL A   1      42.288  18.772  26.118  1.00  0.00     0.124 S 
ATOM     81  O   UNL A   1      42.584  18.162  27.409  1.00  0.00    -0.237 OA
ATOM     82  O   UNL A   1      40.875  18.836  25.752  1.00  0.00    -0.237 OA
ATOM     83  O   UNL A   1      43.193  18.422  25.028  1.00  0.00    -0.744 OA
ENDBRANCH  79  80
ENDBRANCH  47  72
BRANCH  59  84
ATOM     84  C   UNL A   1      49.237  26.818  25.999  1.00  0.00     0.058 A 
ATOM     85  C   UNL A   1      49.614  26.993  24.659  1.00  0.00     0.135 A 
ATOM     86  C   UNL A   1      50.199  26.329  26.897  1.00  0.00     0.135 A 
ATOM     87  F   UNL A   1      48.726  27.449  23.761  1.00  0.00    -0.206 F 
ATOM     88  C   UNL A   1      50.897  26.684  24.221  1.00  0.00     0.059 A 
ATOM     89  C   UNL A   1      51.495  26.034  26.485  1.00  0.00     0.059 A 
ATOM     90  F   UNL A   1      49.890  26.153  28.191  1.00  0.00    -0.206 F 
ATOM     91  C   UNL A   1      51.832  26.206  25.143  1.00  0.00     0.060 A 
BRANCH  91  92
ATOM     92  S   UNL A   1      53.509  25.854  24.573  1.00  0.00     0.124 S 
ATOM     93  O   UNL A   1      54.302  26.710  25.450  1.00  0.00    -0.237 OA
ATOM     94  O   UNL A   1      53.627  24.419  24.811  1.00  0.00    -0.237 OA
ATOM     95  O   UNL A   1      53.480  26.249  23.168  1.00  0.00    -0.744 OA
ENDBRANCH  91  92
ENDBRANCH  59  84
ENDBRANCH  33  34
ENDBRANCH  25  28
ENDBRANCH  23  24
ENDBRANCH  22  23
ENDBRANCH   1  22
TORSDOF 18
ENDMDL
MODEL 3
REMARK VINA RESULT:     -10.7      6.422     12.022
REMARK SMILES Cc1noc(C)c1C[NH2+][C@H](C)[C@H](C)C(=O)NCCCCNC(=O)c1ccc(-c2c3nc(c(-c4c(F)cc(S(=O)(=O)[O-])cc4F)c4ccc([nH]4)c(-c4c(F)cc(S(=O)(=O)[O-])cc4F)c4nc(c(-c5c(F)cc(S(=O)(=O)[O-])cc5F)c5ccc2[nH]5)C=C4)C=C3)cc1
REMARK SMILES IDX 18 1 17 2 16 3 14 4 15 5 12 7 13 8 10 9 11 10 9 11 8 14 7 15
REMARK SMILES IDX 1 16 2 17 3 18 4 19 5 20 6 21 19 22 20 23 21 24 22 25 23 27
REMARK SMILES IDX 24 28 25 29 89 30 26 31 88 32 27 33 28 34 29 35 82 36 30 37
REMARK SMILES IDX 87 38 81 39 83 40 31 41 86 42 80 43 79 44 32 46 66 47 45 48
REMARK SMILES IDX 65 49 46 50 49 51 64 52 84 53 47 54 48 55 63 57 85 58 50 59
REMARK SMILES IDX 33 60 34 61 43 62 35 63 36 64 42 65 44 66 37 67 38 68 39 69
REMARK SMILES IDX 40 70 41 71 67 72 68 73 77 74 69 75 70 76 76 77 78 78 71 79
REMARK SMILES IDX 72 80 73 81 74 82 75 83 51 84 52 85 61 86 53 87 54 88 60 89
REMARK SMILES IDX 62 90 55 91 56 92 57 93 58 94 59 95
REMARK H PARENT 16 6 9 12 9 13 21 26 83 45 49 56
REMARK Flexibility Score: inf
ROOT
ATOM      1  C   UNL A   1      33.346  30.023  27.199  1.00  0.00     0.023 C 
ENDROOT
BRANCH   1   2
ATOM      2  C   UNL A   1      32.455  30.298  25.991  1.00  0.00     0.116 C 
BRANCH   2   3
ATOM      3  N   UNL A   1      32.969  29.692  24.777  1.00  0.00    -0.356 N 
ATOM      4  C   UNL A   1      32.336  29.023  23.775  1.00  0.00     0.228 C 
ATOM      5  O   UNL A   1      33.017  28.629  22.826  1.00  0.00    -0.275 OA
ATOM      6  H   UNL A   1      33.943  29.780  24.658  1.00  0.00     0.163 HD
BRANCH   4   7
ATOM      7  C   UNL A   1      30.830  28.760  23.798  1.00  0.00     0.133 C 
ATOM      8  C   UNL A   1      30.293  28.870  22.364  1.00  0.00     0.024 C 
BRANCH   7   9
ATOM      9  C   UNL A   1      30.464  27.465  24.585  1.00  0.00     0.191 C 
ATOM     10  C   UNL A   1      29.468  26.596  23.790  1.00  0.00     0.076 C 
BRANCH   9  11
ATOM     11  N   UNL A   1      31.544  26.541  24.982  1.00  0.00    -0.339 N 
ATOM     12  H   UNL A   1      32.417  26.919  24.614  1.00  0.00     0.346 HD
ATOM     13  H   UNL A   1      31.475  26.491  25.999  1.00  0.00     0.346 HD
BRANCH  11  14
ATOM     14  C   UNL A   1      31.457  25.162  24.548  1.00  0.00     0.303 C 
BRANCH  14  15
ATOM     15  C   UNL A   1      32.788  24.764  24.027  1.00  0.00     0.071 A 
ATOM     16  C   UNL A   1      32.550  25.406  21.510  1.00  0.00     0.071 C 
ATOM     17  C   UNL A   1      33.263  24.859  22.689  1.00  0.00     0.090 A 
ATOM     18  N   UNL A   1      34.506  24.378  22.573  1.00  0.00    -0.085 NA
ATOM     19  O   UNL A   1      34.871  23.972  23.842  1.00  0.00    -0.361 OA
ATOM     20  C   UNL A   1      33.848  24.205  24.706  1.00  0.00     0.142 A 
ATOM     21  C   UNL A   1      34.078  23.827  26.113  1.00  0.00     0.091 C 
ENDBRANCH  14  15
ENDBRANCH  11  14
ENDBRANCH   9  11
ENDBRANCH   7   9
ENDBRANCH   4   7
ENDBRANCH   2   3
ENDBRANCH   1   2
BRANCH   1  22
ATOM     22  C   UNL A   1      34.091  31.243  27.743  1.00  0.00     0.023 C 
BRANCH  22  23
ATOM     23  C   UNL A   1      35.448  30.953  28.375  1.00  0.00     0.116 C 
BRANCH  23  24
ATOM     24  N   UNL A   1      35.480  31.220  29.807  1.00  0.00    -0.352 N 
ATOM     25  C   UNL A   1      36.444  30.880  30.727  1.00  0.00     0.251 C 
ATOM     26  H   UNL A   1      34.706  31.711  30.165  1.00  0.00     0.163 HD
ATOM     27  O   UNL A   1      36.252  31.081  31.923  1.00  0.00    -0.269 OA
BRANCH  25  28
ATOM     28  C   UNL A   1      37.692  30.238  30.267  1.00  0.00     0.039 A 
ATOM     29  C   UNL A   1      38.047  30.337  28.919  1.00  0.00     0.014 A 
ATOM     30  C   UNL A   1      38.534  29.590  31.175  1.00  0.00     0.014 A 
ATOM     31  C   UNL A   1      39.290  29.859  28.499  1.00  0.00     0.010 A 
ATOM     32  C   UNL A   1      39.798  29.177  30.767  1.00  0.00     0.010 A 
ATOM     33  C   UNL A   1      40.195  29.319  29.429  1.00  0.00    -0.014 A 
BRANCH  33  34
ATOM     34  C   UNL A   1      41.569  28.925  29.028  1.00  0.00     0.031 A 
ATOM     35  C   UNL A   1      42.669  29.950  28.992  1.00  0.00     0.074 A 
ATOM     36  C   UNL A   1      41.807  27.663  28.619  1.00  0.00     0.049 A 
ATOM     37  N   UNL A   1      43.905  29.818  28.587  1.00  0.00    -0.248 NA
ATOM     38  C   UNL A   1      42.324  31.309  29.441  1.00  0.00     0.031 C 
ATOM     39  C   UNL A   1      40.809  26.592  28.554  1.00  0.00     0.029 A 
ATOM     40  N   UNL A   1      42.958  27.069  28.166  1.00  0.00    -0.354 N 
ATOM     41  C   UNL A   1      44.482  31.076  28.715  1.00  0.00     0.074 A 
ATOM     42  C   UNL A   1      43.446  31.969  29.191  1.00  0.00     0.031 C 
ATOM     43  C   UNL A   1      41.396  25.470  28.105  1.00  0.00     0.029 A 
ATOM     44  C   UNL A   1      42.800  25.748  27.819  1.00  0.00     0.049 A 
ATOM     45  H   UNL A   1      43.816  27.545  28.094  1.00  0.00     0.167 HD
ATOM     46  C   UNL A   1      45.761  31.449  28.478  1.00  0.00     0.037 A 
ATOM     47  C   UNL A   1      43.683  24.862  27.321  1.00  0.00     0.037 A 
ATOM     48  C   UNL A   1      46.796  30.551  28.038  1.00  0.00     0.049 A 
ATOM     49  C   UNL A   1      45.103  25.295  27.081  1.00  0.00     0.074 A 
ATOM     50  C   UNL A   1      48.141  30.816  27.842  1.00  0.00     0.029 A 
ATOM     51  N   UNL A   1      46.603  29.213  27.726  1.00  0.00    -0.354 N 
ATOM     52  N   UNL A   1      45.647  26.473  27.273  1.00  0.00    -0.248 NA
ATOM     53  C   UNL A   1      46.031  24.281  26.559  1.00  0.00     0.031 C 
ATOM     54  C   UNL A   1      48.754  29.647  27.380  1.00  0.00     0.029 A 
ATOM     55  C   UNL A   1      47.799  28.645  27.321  1.00  0.00     0.049 A 
ATOM     56  H   UNL A   1      45.743  28.739  27.783  1.00  0.00     0.167 HD
ATOM     57  C   UNL A   1      46.983  26.338  26.912  1.00  0.00     0.074 A 
ATOM     58  C   UNL A   1      47.168  24.961  26.502  1.00  0.00     0.031 C 
ATOM     59  C   UNL A   1      47.966  27.271  26.919  1.00  0.00     0.037 A 
BRANCH  46  60
ATOM     60  C   UNL A   1      46.115  32.892  28.703  1.00  0.00     0.058 A 
ATOM     61  C   UNL A   1      46.550  33.353  29.955  1.00  0.00     0.135 A 
ATOM     62  C   UNL A   1      46.042  33.819  27.651  1.00  0.00     0.135 A 
ATOM     63  F   UNL A   1      46.623  32.511  30.998  1.00  0.00    -0.206 F 
ATOM     64  C   UNL A   1      46.869  34.690  30.166  1.00  0.00     0.059 A 
ATOM     65  C   UNL A   1      46.381  35.157  27.833  1.00  0.00     0.059 A 
ATOM     66  F   UNL A   1      45.631  33.430  26.434  1.00  0.00    -0.206 F 
ATOM     67  C   UNL A   1      46.777  35.586  29.099  1.00  0.00     0.060 A 
BRANCH  67  68
ATOM     68  S   UNL A   1      47.190  37.318  29.389  1.00  0.00     0.124 S 
ATOM     69  O   UNL A   1      45.881  37.952  29.269  1.00  0.00    -0.237 OA
ATOM     70  O   UNL A   1      47.756  37.287  30.734  1.00  0.00    -0.237 OA
ATOM     71  O   UNL A   1      48.137  37.625  28.321  1.00  0.00    -0.744 OA
ENDBRANCH  67  68
ENDBRANCH  46  60
BRANCH  47  72
ATOM     72  C   UNL A   1      43.256  23.468  27.038  1.00  0.00     0.058 A 
ATOM     73  C   UNL A   1      43.014  23.044  25.722  1.00  0.00     0.135 A 
ATOM     74  C   UNL A   1      43.097  22.528  28.068  1.00  0.00     0.135 A 
ATOM     75  F   UNL A   1      43.148  23.909  24.705  1.00  0.00    -0.206 F 
ATOM     76  C   UNL A   1      42.619  21.742  25.437  1.00  0.00     0.059 A 
ATOM     77  C   UNL A   1      42.722  21.215  27.806  1.00  0.00     0.059 A 
ATOM     78  F   UNL A   1      43.332  22.881  29.341  1.00  0.00    -0.206 F 
ATOM     79  C   UNL A   1      42.476  20.832  26.487  1.00  0.00     0.060 A 
BRANCH  79  80
ATOM     80  S   UNL A   1      42.017  19.129  26.104  1.00  0.00     0.124 S 
ATOM     81  O   UNL A   1      42.405  18.438  27.328  1.00  0.00    -0.237 OA
ATOM     82  O   UNL A   1      40.581  19.242  25.863  1.00  0.00    -0.237 OA
ATOM     83  O   UNL A   1      42.819  18.825  24.922  1.00  0.00    -0.744 OA
ENDBRANCH  79  80
ENDBRANCH  47  72
BRANCH  59  84
ATOM     84  C   UNL A   1      49.336  26.832  26.487  1.00  0.00     0.058 A 
ATOM     85  C   UNL A   1      50.221  26.209  27.380  1.00  0.00     0.135 A 
ATOM     86  C   UNL A   1      49.743  26.981  25.151  1.00  0.00     0.135 A 
ATOM     87  F   UNL A   1      49.881  26.051  28.669  1.00  0.00    -0.206 F 
ATOM     88  C   UNL A   1      51.470  25.758  26.966  1.00  0.00     0.059 A 
ATOM     89  C   UNL A   1      50.980  26.519  24.711  1.00  0.00     0.059 A 
ATOM     90  F   UNL A   1      48.930  27.564  24.257  1.00  0.00    -0.206 F 
ATOM     91  C   UNL A   1      51.840  25.916  25.629  1.00  0.00     0.060 A 
BRANCH  91  92
ATOM     92  S   UNL A   1      53.444  25.284  25.092  1.00  0.00     0.124 S 
ATOM     93  O   UNL A   1      53.471  25.703  23.694  1.00  0.00    -0.237 OA
ATOM     94  O   UNL A   1      54.370  25.980  25.980  1.00  0.00    -0.237 OA
ATOM     95  O   UNL A   1      53.333  23.846  25.315  1.00  0.00    -0.744 OA
ENDBRANCH  91  92
ENDBRANCH  59  84
ENDBRANCH  33  34
ENDBRANCH  25  28
ENDBRANCH  23  24
ENDBRANCH  22  23
ENDBRANCH   1  22
TORSDOF 18
ENDMDL
