MODEL 1
REMARK VINA RESULT:     -11.3      0.000      0.000
REMARK SMILES O=C(Cc1ccccc1Nc1c(Cl)cccc1C(F)(F)F)NCCCCNC(=O)c1ccc(-c2c3nc(c(-c4c(F)cc(S(=O)(=O)[O-])cc4F)c4ccc([nH]4)c(-c4c(F)cc(S(=O)(=O)[O-])cc4F)c4nc(c(-c5c(F)cc(S(=O)(=O)[O-])cc5F)c5ccc2[nH]5)C=C4)C=C3)cc1
REMARK SMILES IDX 24 1 23 2 22 3 1 4 2 5 3 7 4 8 5 9 9 10 6 11 8 12 7 13 10 14
REMARK SMILES IDX 11 16 12 17 17 18 13 19 14 20 16 21 15 22 18 23 19 24 20 25
REMARK SMILES IDX 21 26 25 27 26 28 27 29 28 30 29 32 30 33 31 34 95 35 32 36
REMARK SMILES IDX 94 37 33 38 34 39 35 40 88 41 36 42 93 43 87 44 89 45 37 46
REMARK SMILES IDX 92 47 86 48 85 49 38 51 72 52 51 53 71 54 52 55 55 56 70 57
REMARK SMILES IDX 90 58 53 59 54 60 69 62 91 63 56 64 39 65 40 66 49 67 41 68
REMARK SMILES IDX 42 69 48 70 50 71 43 72 44 73 45 74 46 75 47 76 73 77 74 78
REMARK SMILES IDX 83 79 75 80 76 81 82 82 84 83 77 84 78 85 79 86 80 87 81 88
REMARK SMILES IDX 57 89 58 90 67 91 59 92 60 93 66 94 68 95 61 96 62 97 63 98
REMARK SMILES IDX 64 99 65 100
REMARK H PARENT 22 6 10 15 27 31 89 50 55 61
REMARK Flexibility Score: inf
ROOT
ATOM      1  C   UNL A   1      34.044  28.910  24.498  1.00  0.00     0.023 C 
ENDROOT
BRANCH   1   2
ATOM      2  C   UNL A   1      33.468  28.942  23.081  1.00  0.00     0.116 C 
BRANCH   2   3
ATOM      3  N   UNL A   1      32.542  27.853  22.848  1.00  0.00    -0.356 N 
ATOM      4  O   UNL A   1      33.948  26.536  21.589  1.00  0.00    -0.275 OA
ATOM      5  C   UNL A   1      32.877  26.702  22.164  1.00  0.00     0.224 C 
ATOM      6  H   UNL A   1      31.625  27.939  23.196  1.00  0.00     0.163 HD
BRANCH   5   7
ATOM      7  C   UNL A   1      31.794  25.628  22.213  1.00  0.00     0.137 C 
BRANCH   7   8
ATOM      8  C   UNL A   1      31.272  25.416  23.620  1.00  0.00    -0.015 A 
ATOM      9  C   UNL A   1      30.020  25.979  23.956  1.00  0.00     0.006 A 
ATOM     10  C   UNL A   1      31.973  24.685  24.602  1.00  0.00     0.042 A 
ATOM     11  C   UNL A   1      29.494  25.873  25.240  1.00  0.00     0.000 A 
ATOM     12  C   UNL A   1      31.431  24.613  25.898  1.00  0.00     0.026 A 
ATOM     13  C   UNL A   1      30.209  25.202  26.218  1.00  0.00     0.002 A 
BRANCH  10  14
ATOM     14  N   UNL A   1      33.155  23.980  24.282  1.00  0.00    -0.354 N 
ATOM     15  H   UNL A   1      33.858  24.517  23.852  1.00  0.00     0.167 HD
BRANCH  14  16
ATOM     16  C   UNL A   1      33.479  22.616  24.486  1.00  0.00     0.070 A 
ATOM     17  C   UNL A   1      34.317  22.282  25.579  1.00  0.00     0.065 A 
ATOM     18  C   UNL A   1      32.937  21.560  23.722  1.00  0.00     0.080 A 
ATOM     19  Cl  UNL A   1      35.072  23.522  26.525  1.00  0.00    -0.082 Cl
ATOM     20  C   UNL A   1      34.557  20.956  25.945  1.00  0.00     0.023 A 
ATOM     21  C   UNL A   1      33.172  20.225  24.127  1.00  0.00     0.015 A 
ATOM     22  C   UNL A   1      33.965  19.924  25.230  1.00  0.00     0.002 A 
BRANCH  18  23
ATOM     23  C   UNL A   1      32.130  21.750  22.455  1.00  0.00     0.418 C 
ATOM     24  F   UNL A   1      32.805  22.525  21.548  1.00  0.00    -0.166 F 
ATOM     25  F   UNL A   1      31.903  20.575  21.802  1.00  0.00    -0.166 F 
ATOM     26  F   UNL A   1      30.927  22.365  22.600  1.00  0.00    -0.166 F 
ENDBRANCH  18  23
ENDBRANCH  14  16
ENDBRANCH  10  14
ENDBRANCH   7   8
ENDBRANCH   5   7
ENDBRANCH   2   3
ENDBRANCH   1   2
BRANCH   1  27
ATOM     27  C   UNL A   1      33.246  28.082  25.513  1.00  0.00     0.023 C 
BRANCH  27  28
ATOM     28  C   UNL A   1      33.581  28.339  26.980  1.00  0.00     0.116 C 
BRANCH  28  29
ATOM     29  N   UNL A   1      33.481  29.745  27.333  1.00  0.00    -0.352 N 
ATOM     30  C   UNL A   1      34.380  30.550  27.989  1.00  0.00     0.251 C 
ATOM     31  H   UNL A   1      32.645  30.186  27.060  1.00  0.00     0.163 HD
ATOM     32  O   UNL A   1      34.029  31.670  28.362  1.00  0.00    -0.269 OA
BRANCH  30  33
ATOM     33  C   UNL A   1      35.753  30.076  28.276  1.00  0.00     0.039 A 
ATOM     34  C   UNL A   1      36.704  30.095  27.252  1.00  0.00     0.014 A 
ATOM     35  C   UNL A   1      36.106  29.595  29.541  1.00  0.00     0.014 A 
ATOM     36  C   UNL A   1      38.018  29.698  27.512  1.00  0.00     0.010 A 
ATOM     37  C   UNL A   1      37.434  29.271  29.818  1.00  0.00     0.010 A 
ATOM     38  C   UNL A   1      38.407  29.319  28.808  1.00  0.00    -0.014 A 
BRANCH  38  39
ATOM     39  C   UNL A   1      39.823  28.984  29.122  1.00  0.00     0.031 A 
ATOM     40  C   UNL A   1      40.733  30.018  29.732  1.00  0.00     0.074 A 
ATOM     41  C   UNL A   1      40.308  27.767  28.803  1.00  0.00     0.049 A 
ATOM     42  N   UNL A   1      42.009  29.932  30.012  1.00  0.00    -0.248 NA
ATOM     43  C   UNL A   1      40.139  31.326  30.045  1.00  0.00     0.031 C 
ATOM     44  C   UNL A   1      39.542  26.693  28.168  1.00  0.00     0.029 A 
ATOM     45  N   UNL A   1      41.562  27.231  28.955  1.00  0.00    -0.354 N 
ATOM     46  C   UNL A   1      42.371  31.172  30.525  1.00  0.00     0.074 A 
ATOM     47  C   UNL A   1      41.193  32.011  30.462  1.00  0.00     0.031 C 
ATOM     48  C   UNL A   1      40.335  25.623  28.003  1.00  0.00     0.029 A 
ATOM     49  C   UNL A   1      41.677  25.946  28.479  1.00  0.00     0.049 A 
ATOM     50  H   UNL A   1      42.311  27.721  29.368  1.00  0.00     0.167 HD
ATOM     51  C   UNL A   1      43.566  31.570  31.025  1.00  0.00     0.037 A 
ATOM     52  C   UNL A   1      42.742  25.122  28.419  1.00  0.00     0.037 A 
ATOM     53  C   UNL A   1      44.732  30.726  31.095  1.00  0.00     0.049 A 
ATOM     54  C   UNL A   1      44.065  25.590  28.963  1.00  0.00     0.074 A 
ATOM     55  C   UNL A   1      45.976  31.022  31.627  1.00  0.00     0.029 A 
ATOM     56  N   UNL A   1      44.804  29.426  30.616  1.00  0.00    -0.354 N 
ATOM     57  N   UNL A   1      44.372  26.746  29.501  1.00  0.00    -0.248 NA
ATOM     58  C   UNL A   1      45.185  24.641  28.900  1.00  0.00     0.031 C 
ATOM     59  C   UNL A   1      46.813  29.919  31.421  1.00  0.00     0.029 A 
ATOM     60  C   UNL A   1      46.076  28.914  30.817  1.00  0.00     0.049 A 
ATOM     61  H   UNL A   1      44.060  28.938  30.194  1.00  0.00     0.167 HD
ATOM     62  C   UNL A   1      45.711  26.653  29.865  1.00  0.00     0.074 A 
ATOM     63  C   UNL A   1      46.151  25.324  29.498  1.00  0.00     0.031 C 
ATOM     64  C   UNL A   1      46.503  27.586  30.452  1.00  0.00     0.037 A 
BRANCH  51  65
ATOM     65  C   UNL A   1      43.676  32.983  31.535  1.00  0.00     0.058 A 
ATOM     66  C   UNL A   1      44.073  34.040  30.701  1.00  0.00     0.135 A 
ATOM     67  C   UNL A   1      43.348  33.291  32.866  1.00  0.00     0.135 A 
ATOM     68  F   UNL A   1      44.411  33.803  29.423  1.00  0.00    -0.206 F 
ATOM     69  C   UNL A   1      44.176  35.344  31.175  1.00  0.00     0.059 A 
ATOM     70  C   UNL A   1      43.412  34.594  33.352  1.00  0.00     0.059 A 
ATOM     71  F   UNL A   1      42.959  32.322  33.709  1.00  0.00    -0.206 F 
ATOM     72  C   UNL A   1      43.843  35.611  32.503  1.00  0.00     0.060 A 
BRANCH  72  73
ATOM     73  S   UNL A   1      43.986  37.308  33.102  1.00  0.00     0.124 S 
ATOM     74  O   UNL A   1      45.342  37.313  33.643  1.00  0.00    -0.237 OA
ATOM     75  O   UNL A   1      43.788  38.085  31.883  1.00  0.00    -0.237 OA
ATOM     76  O   UNL A   1      42.917  37.413  34.090  1.00  0.00    -0.744 OA
ENDBRANCH  72  73
ENDBRANCH  51  65
BRANCH  52  77
ATOM     77  C   UNL A   1      42.595  23.763  27.830  1.00  0.00     0.058 A 
ATOM     78  C   UNL A   1      42.607  23.569  26.441  1.00  0.00     0.135 A 
ATOM     79  C   UNL A   1      42.455  22.629  28.645  1.00  0.00     0.135 A 
ATOM     80  F   UNL A   1      42.730  24.622  25.618  1.00  0.00    -0.206 F 
ATOM     81  C   UNL A   1      42.474  22.303  25.879  1.00  0.00     0.059 A 
ATOM     82  C   UNL A   1      42.350  21.349  28.109  1.00  0.00     0.059 A 
ATOM     83  F   UNL A   1      42.453  22.756  29.982  1.00  0.00    -0.206 F 
ATOM     84  C   UNL A   1      42.351  21.198  26.723  1.00  0.00     0.060 A 
BRANCH  84  85
ATOM     85  S   UNL A   1      42.234  19.554  25.985  1.00  0.00     0.124 S 
ATOM     86  O   UNL A   1      42.656  18.704  27.091  1.00  0.00    -0.237 OA
ATOM     87  O   UNL A   1      40.821  19.481  25.626  1.00  0.00    -0.237 OA
ATOM     88  O   UNL A   1      43.156  19.627  24.856  1.00  0.00    -0.744 OA
ENDBRANCH  84  85
ENDBRANCH  52  77
BRANCH  64  89
ATOM     89  C   UNL A   1      47.921  27.193  30.771  1.00  0.00     0.058 A 
ATOM     90  C   UNL A   1      48.292  26.717  32.039  1.00  0.00     0.135 A 
ATOM     91  C   UNL A   1      48.912  27.242  29.777  1.00  0.00     0.135 A 
ATOM     92  F   UNL A   1      47.386  26.656  33.030  1.00  0.00    -0.206 F 
ATOM     93  C   UNL A   1      49.599  26.329  32.317  1.00  0.00     0.059 A 
ATOM     94  C   UNL A   1      50.217  26.829  30.022  1.00  0.00     0.059 A 
ATOM     95  F   UNL A   1      48.611  27.678  28.543  1.00  0.00    -0.206 F 
ATOM     96  C   UNL A   1      50.554  26.385  31.300  1.00  0.00     0.060 A 
BRANCH  96  97
ATOM     97  S   UNL A   1      52.238  25.844  31.664  1.00  0.00     0.124 S 
ATOM     98  O   UNL A   1      52.916  26.119  30.402  1.00  0.00    -0.237 OA
ATOM     99  O   UNL A   1      52.607  26.706  32.783  1.00  0.00    -0.237 OA
ATOM    100  O   UNL A   1      52.078  24.432  31.996  1.00  0.00    -0.744 OA
ENDBRANCH  96  97
ENDBRANCH  64  89
ENDBRANCH  38  39
ENDBRANCH  30  33
ENDBRANCH  28  29
ENDBRANCH  27  28
ENDBRANCH   1  27
TORSDOF 18
ENDMDL
MODEL 2
REMARK VINA RESULT:     -11.3      3.177      9.277
REMARK SMILES O=C(Cc1ccccc1Nc1c(Cl)cccc1C(F)(F)F)NCCCCNC(=O)c1ccc(-c2c3nc(c(-c4c(F)cc(S(=O)(=O)[O-])cc4F)c4ccc([nH]4)c(-c4c(F)cc(S(=O)(=O)[O-])cc4F)c4nc(c(-c5c(F)cc(S(=O)(=O)[O-])cc5F)c5ccc2[nH]5)C=C4)C=C3)cc1
REMARK SMILES IDX 24 1 23 2 22 3 1 4 2 5 3 7 4 8 5 9 9 10 6 11 8 12 7 13 10 14
REMARK SMILES IDX 11 16 12 17 17 18 13 19 14 20 16 21 15 22 18 23 19 24 20 25
REMARK SMILES IDX 21 26 25 27 26 28 27 29 28 30 29 32 30 33 31 34 95 35 32 36
REMARK SMILES IDX 94 37 33 38 34 39 35 40 88 41 36 42 93 43 87 44 89 45 37 46
REMARK SMILES IDX 92 47 86 48 85 49 38 51 72 52 51 53 71 54 52 55 55 56 70 57
REMARK SMILES IDX 90 58 53 59 54 60 69 62 91 63 56 64 39 65 40 66 49 67 41 68
REMARK SMILES IDX 42 69 48 70 50 71 43 72 44 73 45 74 46 75 47 76 73 77 74 78
REMARK SMILES IDX 83 79 75 80 76 81 82 82 84 83 77 84 78 85 79 86 80 87 81 88
REMARK SMILES IDX 57 89 58 90 67 91 59 92 60 93 66 94 68 95 61 96 62 97 63 98
REMARK SMILES IDX 64 99 65 100
REMARK H PARENT 22 6 10 15 27 31 89 50 55 61
REMARK Flexibility Score: inf
ROOT
ATOM      1  C   UNL A   1      34.273  24.312  25.617  1.00  0.00     0.023 C 
ENDROOT
BRANCH   1   2
ATOM      2  C   UNL A   1      33.559  24.903  24.401  1.00  0.00     0.116 C 
BRANCH   2   3
ATOM      3  N   UNL A   1      33.769  26.332  24.290  1.00  0.00    -0.356 N 
ATOM      4  O   UNL A   1      33.941  26.427  21.997  1.00  0.00    -0.275 OA
ATOM      5  C   UNL A   1      33.887  26.993  23.084  1.00  0.00     0.224 C 
ATOM      6  H   UNL A   1      33.832  26.859  25.119  1.00  0.00     0.163 HD
BRANCH   5   7
ATOM      7  C   UNL A   1      33.912  28.513  23.223  1.00  0.00     0.137 C 
BRANCH   7   8
ATOM      8  C   UNL A   1      33.397  28.965  24.575  1.00  0.00    -0.015 A 
ATOM      9  C   UNL A   1      34.272  28.884  25.680  1.00  0.00     0.006 A 
ATOM     10  C   UNL A   1      32.092  29.463  24.776  1.00  0.00     0.042 A 
ATOM     11  C   UNL A   1      33.860  29.233  26.963  1.00  0.00     0.000 A 
ATOM     12  C   UNL A   1      31.693  29.786  26.085  1.00  0.00     0.026 A 
ATOM     13  C   UNL A   1      32.562  29.669  27.169  1.00  0.00     0.002 A 
BRANCH  10  14
ATOM     14  N   UNL A   1      31.225  29.702  23.686  1.00  0.00    -0.354 N 
ATOM     15  H   UNL A   1      31.660  30.054  22.876  1.00  0.00     0.167 HD
BRANCH  14  16
ATOM     16  C   UNL A   1      29.826  29.514  23.583  1.00  0.00     0.070 A 
ATOM     17  C   UNL A   1      28.995  30.662  23.547  1.00  0.00     0.065 A 
ATOM     18  C   UNL A   1      29.216  28.252  23.416  1.00  0.00     0.080 A 
ATOM     19  Cl  UNL A   1      29.659  32.241  23.807  1.00  0.00    -0.082 Cl
ATOM     20  C   UNL A   1      27.626  30.573  23.288  1.00  0.00     0.023 A 
ATOM     21  C   UNL A   1      27.832  28.187  23.129  1.00  0.00     0.015 A 
ATOM     22  C   UNL A   1      27.046  29.333  23.057  1.00  0.00     0.002 A 
BRANCH  18  23
ATOM     23  C   UNL A   1      29.940  26.929  23.554  1.00  0.00     0.418 C 
ATOM     24  F   UNL A   1      30.853  26.755  22.546  1.00  0.00    -0.166 F 
ATOM     25  F   UNL A   1      30.674  26.855  24.700  1.00  0.00    -0.166 F 
ATOM     26  F   UNL A   1      29.163  25.816  23.505  1.00  0.00    -0.166 F 
ENDBRANCH  18  23
ENDBRANCH  14  16
ENDBRANCH  10  14
ENDBRANCH   7   8
ENDBRANCH   5   7
ENDBRANCH   2   3
ENDBRANCH   1   2
BRANCH   1  27
ATOM     27  C   UNL A   1      35.346  23.262  25.304  1.00  0.00     0.023 C 
BRANCH  27  28
ATOM     28  C   UNL A   1      36.750  23.808  25.060  1.00  0.00     0.116 C 
BRANCH  28  29
ATOM     29  N   UNL A   1      37.783  22.819  25.323  1.00  0.00    -0.352 N 
ATOM     30  C   UNL A   1      38.982  22.958  25.980  1.00  0.00     0.251 C 
ATOM     31  H   UNL A   1      37.595  21.916  24.981  1.00  0.00     0.163 HD
ATOM     32  O   UNL A   1      39.806  22.045  25.934  1.00  0.00    -0.269 OA
BRANCH  30  33
ATOM     33  C   UNL A   1      39.302  24.202  26.718  1.00  0.00     0.039 A 
ATOM     34  C   UNL A   1      38.814  24.362  28.018  1.00  0.00     0.014 A 
ATOM     35  C   UNL A   1      40.064  25.217  26.132  1.00  0.00     0.014 A 
ATOM     36  C   UNL A   1      39.143  25.505  28.751  1.00  0.00     0.010 A 
ATOM     37  C   UNL A   1      40.453  26.321  26.891  1.00  0.00     0.010 A 
ATOM     38  C   UNL A   1      39.999  26.479  28.209  1.00  0.00    -0.014 A 
BRANCH  38  39
ATOM     39  C   UNL A   1      40.436  27.655  29.011  1.00  0.00     0.031 A 
ATOM     40  C   UNL A   1      41.752  27.632  29.744  1.00  0.00     0.074 A 
ATOM     41  C   UNL A   1      39.620  28.722  29.129  1.00  0.00     0.049 A 
ATOM     42  N   UNL A   1      42.267  28.531  30.544  1.00  0.00    -0.248 NA
ATOM     43  C   UNL A   1      42.585  26.431  29.577  1.00  0.00     0.031 C 
ATOM     44  C   UNL A   1      38.301  28.850  28.506  1.00  0.00     0.029 A 
ATOM     45  N   UNL A   1      39.772  29.897  29.823  1.00  0.00    -0.354 N 
ATOM     46  C   UNL A   1      43.477  28.005  30.980  1.00  0.00     0.074 A 
ATOM     47  C   UNL A   1      43.591  26.682  30.402  1.00  0.00     0.031 C 
ATOM     48  C   UNL A   1      37.774  30.041  28.830  1.00  0.00     0.029 A 
ATOM     49  C   UNL A   1      38.695  30.745  29.717  1.00  0.00     0.049 A 
ATOM     50  H   UNL A   1      40.577  30.113  30.348  1.00  0.00     0.167 HD
ATOM     51  C   UNL A   1      44.419  28.577  31.769  1.00  0.00     0.037 A 
ATOM     52  C   UNL A   1      38.464  31.948  30.280  1.00  0.00     0.037 A 
ATOM     53  C   UNL A   1      44.305  29.899  32.331  1.00  0.00     0.049 A 
ATOM     54  C   UNL A   1      39.515  32.559  31.167  1.00  0.00     0.074 A 
ATOM     55  C   UNL A   1      45.226  30.586  33.104  1.00  0.00     0.029 A 
ATOM     56  N   UNL A   1      43.205  30.732  32.189  1.00  0.00    -0.354 N 
ATOM     57  N   UNL A   1      40.681  32.071  31.519  1.00  0.00    -0.248 NA
ATOM     58  C   UNL A   1      39.226  33.885  31.729  1.00  0.00     0.031 C 
ATOM     59  C   UNL A   1      44.660  31.812  33.472  1.00  0.00     0.029 A 
ATOM     60  C   UNL A   1      43.413  31.916  32.879  1.00  0.00     0.049 A 
ATOM     61  H   UNL A   1      42.395  30.514  31.673  1.00  0.00     0.167 HD
ATOM     62  C   UNL A   1      41.275  33.041  32.319  1.00  0.00     0.074 A 
ATOM     63  C   UNL A   1      40.345  34.149  32.388  1.00  0.00     0.031 C 
ATOM     64  C   UNL A   1      42.482  33.016  32.938  1.00  0.00     0.037 A 
BRANCH  51  65
ATOM     65  C   UNL A   1      45.658  27.776  32.072  1.00  0.00     0.058 A 
ATOM     66  C   UNL A   1      46.821  27.892  31.294  1.00  0.00     0.135 A 
ATOM     67  C   UNL A   1      45.696  26.906  33.175  1.00  0.00     0.135 A 
ATOM     68  F   UNL A   1      46.838  28.699  30.220  1.00  0.00    -0.206 F 
ATOM     69  C   UNL A   1      47.964  27.149  31.574  1.00  0.00     0.059 A 
ATOM     70  C   UNL A   1      46.839  26.179  33.493  1.00  0.00     0.059 A 
ATOM     71  F   UNL A   1      44.616  26.756  33.957  1.00  0.00    -0.206 F 
ATOM     72  C   UNL A   1      47.962  26.295  32.677  1.00  0.00     0.060 A 
BRANCH  72  73
ATOM     73  S   UNL A   1      49.453  25.337  33.024  1.00  0.00     0.124 S 
ATOM     74  O   UNL A   1      49.797  24.842  31.695  1.00  0.00    -0.237 OA
ATOM     75  O   UNL A   1      50.351  26.348  33.575  1.00  0.00    -0.237 OA
ATOM     76  O   UNL A   1      48.996  24.325  33.971  1.00  0.00    -0.744 OA
ENDBRANCH  72  73
ENDBRANCH  51  65
BRANCH  52  77
ATOM     77  C   UNL A   1      37.186  32.661  30.008  1.00  0.00     0.058 A 
ATOM     78  C   UNL A   1      36.044  32.424  30.786  1.00  0.00     0.135 A 
ATOM     79  C   UNL A   1      37.086  33.604  28.973  1.00  0.00     0.135 A 
ATOM     80  F   UNL A   1      36.086  31.526  31.782  1.00  0.00    -0.206 F 
ATOM     81  C   UNL A   1      34.844  33.086  30.544  1.00  0.00     0.059 A 
ATOM     82  C   UNL A   1      35.906  34.301  28.729  1.00  0.00     0.059 A 
ATOM     83  F   UNL A   1      38.153  33.881  28.207  1.00  0.00    -0.206 F 
ATOM     84  C   UNL A   1      34.787  34.028  29.514  1.00  0.00     0.060 A 
BRANCH  84  85
ATOM     85  S   UNL A   1      33.242  34.922  29.243  1.00  0.00     0.124 S 
ATOM     86  O   UNL A   1      33.726  36.202  28.742  1.00  0.00    -0.237 OA
ATOM     87  O   UNL A   1      32.564  34.070  28.270  1.00  0.00    -0.237 OA
ATOM     88  O   UNL A   1      32.634  34.951  30.570  1.00  0.00    -0.744 OA
ENDBRANCH  84  85
ENDBRANCH  52  77
BRANCH  64  89
ATOM     89  C   UNL A   1      42.889  34.238  33.718  1.00  0.00     0.058 A 
ATOM     90  C   UNL A   1      42.716  34.322  35.109  1.00  0.00     0.135 A 
ATOM     91  C   UNL A   1      43.510  35.319  33.070  1.00  0.00     0.135 A 
ATOM     92  F   UNL A   1      42.120  33.321  35.778  1.00  0.00    -0.206 F 
ATOM     93  C   UNL A   1      43.121  35.444  35.825  1.00  0.00     0.059 A 
ATOM     94  C   UNL A   1      43.953  36.436  33.771  1.00  0.00     0.059 A 
ATOM     95  F   UNL A   1      43.711  35.287  31.743  1.00  0.00    -0.206 F 
ATOM     96  C   UNL A   1      43.743  36.494  35.147  1.00  0.00     0.060 A 
BRANCH  96  97
ATOM     97  S   UNL A   1      44.297  37.928  36.095  1.00  0.00     0.124 S 
ATOM     98  O   UNL A   1      45.684  37.576  36.381  1.00  0.00    -0.237 OA
ATOM     99  O   UNL A   1      44.102  39.022  35.148  1.00  0.00    -0.237 OA
ATOM    100  O   UNL A   1      43.402  37.940  37.249  1.00  0.00    -0.744 OA
ENDBRANCH  96  97
ENDBRANCH  64  89
ENDBRANCH  38  39
ENDBRANCH  30  33
ENDBRANCH  28  29
ENDBRANCH  27  28
ENDBRANCH   1  27
TORSDOF 18
ENDMDL
MODEL 3
REMARK VINA RESULT:     -11.2      1.201      2.123
REMARK SMILES O=C(Cc1ccccc1Nc1c(Cl)cccc1C(F)(F)F)NCCCCNC(=O)c1ccc(-c2c3nc(c(-c4c(F)cc(S(=O)(=O)[O-])cc4F)c4ccc([nH]4)c(-c4c(F)cc(S(=O)(=O)[O-])cc4F)c4nc(c(-c5c(F)cc(S(=O)(=O)[O-])cc5F)c5ccc2[nH]5)C=C4)C=C3)cc1
REMARK SMILES IDX 24 1 23 2 22 3 1 4 2 5 3 7 4 8 5 9 9 10 6 11 8 12 7 13 10 14
REMARK SMILES IDX 11 16 12 17 17 18 13 19 14 20 16 21 15 22 18 23 19 24 20 25
REMARK SMILES IDX 21 26 25 27 26 28 27 29 28 30 29 32 30 33 31 34 95 35 32 36
REMARK SMILES IDX 94 37 33 38 34 39 35 40 88 41 36 42 93 43 87 44 89 45 37 46
REMARK SMILES IDX 92 47 86 48 85 49 38 51 72 52 51 53 71 54 52 55 55 56 70 57
REMARK SMILES IDX 90 58 53 59 54 60 69 62 91 63 56 64 39 65 40 66 49 67 41 68
REMARK SMILES IDX 42 69 48 70 50 71 43 72 44 73 45 74 46 75 47 76 73 77 74 78
REMARK SMILES IDX 83 79 75 80 76 81 82 82 84 83 77 84 78 85 79 86 80 87 81 88
REMARK SMILES IDX 57 89 58 90 67 91 59 92 60 93 66 94 68 95 61 96 62 97 63 98
REMARK SMILES IDX 64 99 65 100
REMARK H PARENT 22 6 10 15 27 31 89 50 55 61
REMARK Flexibility Score: inf
ROOT
ATOM      1  C   UNL A   1      33.178  28.778  24.591  1.00  0.00     0.023 C 
ENDROOT
BRANCH   1   2
ATOM      2  C   UNL A   1      33.952  27.908  23.600  1.00  0.00     0.116 C 
BRANCH   2   3
ATOM      3  N   UNL A   1      33.940  26.510  23.981  1.00  0.00    -0.356 N 
ATOM      4  O   UNL A   1      33.887  25.627  21.857  1.00  0.00    -0.275 OA
ATOM      5  C   UNL A   1      33.967  25.472  23.071  1.00  0.00     0.224 C 
ATOM      6  H   UNL A   1      33.910  26.290  24.940  1.00  0.00     0.163 HD
BRANCH   5   7
ATOM      7  C   UNL A   1      34.138  24.101  23.718  1.00  0.00     0.137 C 
BRANCH   7   8
ATOM      8  C   UNL A   1      33.045  23.811  24.727  1.00  0.00    -0.015 A 
ATOM      9  C   UNL A   1      31.707  24.054  24.345  1.00  0.00     0.006 A 
ATOM     10  C   UNL A   1      33.302  23.311  26.021  1.00  0.00     0.042 A 
ATOM     11  C   UNL A   1      30.649  23.861  25.229  1.00  0.00     0.000 A 
ATOM     12  C   UNL A   1      32.218  23.148  26.903  1.00  0.00     0.026 A 
ATOM     13  C   UNL A   1      30.907  23.423  26.516  1.00  0.00     0.002 A 
BRANCH  10  14
ATOM     14  N   UNL A   1      34.602  22.913  26.406  1.00  0.00    -0.354 N 
ATOM     15  H   UNL A   1      34.914  23.281  27.263  1.00  0.00     0.167 HD
BRANCH  14  16
ATOM     16  C   UNL A   1      35.524  22.067  25.743  1.00  0.00     0.070 A 
ATOM     17  C   UNL A   1      36.851  22.530  25.564  1.00  0.00     0.065 A 
ATOM     18  C   UNL A   1      35.223  20.748  25.338  1.00  0.00     0.080 A 
ATOM     19  Cl  UNL A   1      37.282  24.157  25.978  1.00  0.00    -0.082 Cl
ATOM     20  C   UNL A   1      37.860  21.703  25.066  1.00  0.00     0.023 A 
ATOM     21  C   UNL A   1      36.267  19.920  24.861  1.00  0.00     0.015 A 
ATOM     22  C   UNL A   1      37.572  20.387  24.734  1.00  0.00     0.002 A 
BRANCH  18  23
ATOM     23  C   UNL A   1      33.833  20.148  25.345  1.00  0.00     0.418 C 
ATOM     24  F   UNL A   1      33.009  20.797  24.462  1.00  0.00    -0.166 F 
ATOM     25  F   UNL A   1      33.825  18.850  24.932  1.00  0.00    -0.166 F 
ATOM     26  F   UNL A   1      33.169  20.195  26.529  1.00  0.00    -0.166 F 
ENDBRANCH  18  23
ENDBRANCH  14  16
ENDBRANCH  10  14
ENDBRANCH   7   8
ENDBRANCH   5   7
ENDBRANCH   2   3
ENDBRANCH   1   2
BRANCH   1  27
ATOM     27  C   UNL A   1      32.787  28.089  25.905  1.00  0.00     0.023 C 
BRANCH  27  28
ATOM     28  C   UNL A   1      33.679  28.401  27.103  1.00  0.00     0.116 C 
BRANCH  28  29
ATOM     29  N   UNL A   1      33.574  29.788  27.526  1.00  0.00    -0.352 N 
ATOM     30  C   UNL A   1      34.482  30.570  28.197  1.00  0.00     0.251 C 
ATOM     31  H   UNL A   1      32.726  30.232  27.297  1.00  0.00     0.163 HD
ATOM     32  O   UNL A   1      34.130  31.667  28.632  1.00  0.00    -0.269 OA
BRANCH  30  33
ATOM     33  C   UNL A   1      35.867  30.099  28.424  1.00  0.00     0.039 A 
ATOM     34  C   UNL A   1      36.767  30.100  27.355  1.00  0.00     0.014 A 
ATOM     35  C   UNL A   1      36.281  29.638  29.678  1.00  0.00     0.014 A 
ATOM     36  C   UNL A   1      38.092  29.705  27.557  1.00  0.00     0.010 A 
ATOM     37  C   UNL A   1      37.620  29.316  29.895  1.00  0.00     0.010 A 
ATOM     38  C   UNL A   1      38.543  29.346  28.838  1.00  0.00    -0.014 A 
BRANCH  38  39
ATOM     39  C   UNL A   1      39.972  29.015  29.089  1.00  0.00     0.031 A 
ATOM     40  C   UNL A   1      40.913  30.057  29.635  1.00  0.00     0.074 A 
ATOM     41  C   UNL A   1      40.440  27.791  28.768  1.00  0.00     0.049 A 
ATOM     42  N   UNL A   1      42.201  29.974  29.853  1.00  0.00    -0.248 NA
ATOM     43  C   UNL A   1      40.335  31.372  29.954  1.00  0.00     0.031 C 
ATOM     44  C   UNL A   1      39.643  26.708  28.190  1.00  0.00     0.029 A 
ATOM     45  N   UNL A   1      41.700  27.256  28.868  1.00  0.00    -0.354 N 
ATOM     46  C   UNL A   1      42.589  31.222  30.327  1.00  0.00     0.074 A 
ATOM     47  C   UNL A   1      41.410  32.062  30.307  1.00  0.00     0.031 C 
ATOM     48  C   UNL A   1      40.426  25.633  28.005  1.00  0.00     0.029 A 
ATOM     49  C   UNL A   1      41.790  25.962  28.410  1.00  0.00     0.049 A 
ATOM     50  H   UNL A   1      42.468  27.751  29.235  1.00  0.00     0.167 HD
ATOM     51  C   UNL A   1      43.807  31.626  30.760  1.00  0.00     0.037 A 
ATOM     52  C   UNL A   1      42.850  25.135  28.312  1.00  0.00     0.037 A 
ATOM     53  C   UNL A   1      44.974  30.782  30.788  1.00  0.00     0.049 A 
ATOM     54  C   UNL A   1      44.198  25.610  28.782  1.00  0.00     0.074 A 
ATOM     55  C   UNL A   1      46.243  31.084  31.253  1.00  0.00     0.029 A 
ATOM     56  N   UNL A   1      45.021  29.473  30.329  1.00  0.00    -0.354 N 
ATOM     57  N   UNL A   1      44.533  26.775  29.284  1.00  0.00    -0.248 NA
ATOM     58  C   UNL A   1      45.313  24.658  28.682  1.00  0.00     0.031 C 
ATOM     59  C   UNL A   1      47.068  29.977  31.026  1.00  0.00     0.029 A 
ATOM     60  C   UNL A   1      46.301  28.963  30.476  1.00  0.00     0.049 A 
ATOM     61  H   UNL A   1      44.257  28.980  29.953  1.00  0.00     0.167 HD
ATOM     62  C   UNL A   1      45.888  26.686  29.584  1.00  0.00     0.074 A 
ATOM     63  C   UNL A   1      46.308  25.349  29.219  1.00  0.00     0.031 C 
ATOM     64  C   UNL A   1      46.708  27.627  30.115  1.00  0.00     0.037 A 
BRANCH  51  65
ATOM     65  C   UNL A   1      43.943  33.048  31.240  1.00  0.00     0.058 A 
ATOM     66  C   UNL A   1      43.643  33.412  32.562  1.00  0.00     0.135 A 
ATOM     67  C   UNL A   1      44.410  34.053  30.377  1.00  0.00     0.135 A 
ATOM     68  F   UNL A   1      43.180  32.495  33.428  1.00  0.00    -0.206 F 
ATOM     69  C   UNL A   1      43.766  34.726  33.004  1.00  0.00     0.059 A 
ATOM     70  C   UNL A   1      44.572  35.368  30.807  1.00  0.00     0.059 A 
ATOM     71  F   UNL A   1      44.715  33.764  29.103  1.00  0.00    -0.206 F 
ATOM     72  C   UNL A   1      44.232  35.697  32.117  1.00  0.00     0.060 A 
BRANCH  72  73
ATOM     73  S   UNL A   1      44.383  37.397  32.705  1.00  0.00     0.124 S 
ATOM     74  O   UNL A   1      43.786  38.141  31.601  1.00  0.00    -0.237 OA
ATOM     75  O   UNL A   1      43.607  37.368  33.942  1.00  0.00    -0.237 OA
ATOM     76  O   UNL A   1      45.822  37.573  32.875  1.00  0.00    -0.744 OA
ENDBRANCH  72  73
ENDBRANCH  51  65
BRANCH  52  77
ATOM     77  C   UNL A   1      42.673  23.767  27.755  1.00  0.00     0.058 A 
ATOM     78  C   UNL A   1      42.441  22.667  28.593  1.00  0.00     0.135 A 
ATOM     79  C   UNL A   1      42.716  23.534  26.371  1.00  0.00     0.135 A 
ATOM     80  F   UNL A   1      42.400  22.836  29.924  1.00  0.00    -0.206 F 
ATOM     81  C   UNL A   1      42.271  21.383  28.084  1.00  0.00     0.059 A 
ATOM     82  C   UNL A   1      42.519  22.264  25.835  1.00  0.00     0.059 A 
ATOM     83  F   UNL A   1      42.918  24.554  25.522  1.00  0.00    -0.206 F 
ATOM     84  C   UNL A   1      42.307  21.193  26.702  1.00  0.00     0.060 A 
BRANCH  84  85
ATOM     85  S   UNL A   1      42.029  19.533  26.048  1.00  0.00     0.124 S 
ATOM     86  O   UNL A   1      42.441  18.701  27.172  1.00  0.00    -0.237 OA
ATOM     87  O   UNL A   1      40.598  19.554  25.760  1.00  0.00    -0.237 OA
ATOM     88  O   UNL A   1      42.896  19.485  24.875  1.00  0.00    -0.744 OA
ENDBRANCH  84  85
ENDBRANCH  52  77
BRANCH  64  89
ATOM     89  C   UNL A   1      48.140  27.237  30.371  1.00  0.00     0.058 A 
ATOM     90  C   UNL A   1      49.142  27.414  29.404  1.00  0.00     0.135 A 
ATOM     91  C   UNL A   1      48.523  26.728  31.623  1.00  0.00     0.135 A 
ATOM     92  F   UNL A   1      48.830  27.890  28.187  1.00  0.00    -0.206 F 
ATOM     93  C   UNL A   1      50.468  27.077  29.660  1.00  0.00     0.059 A 
ATOM     94  C   UNL A   1      49.847  26.415  31.912  1.00  0.00     0.059 A 
ATOM     95  F   UNL A   1      47.608  26.548  32.589  1.00  0.00    -0.206 F 
ATOM     96  C   UNL A   1      50.811  26.582  30.919  1.00  0.00     0.060 A 
BRANCH  96  97
ATOM     97  S   UNL A   1      52.541  26.183  31.249  1.00  0.00     0.124 S 
ATOM     98  O   UNL A   1      53.107  26.189  29.904  1.00  0.00    -0.237 OA
ATOM     99  O   UNL A   1      52.955  27.283  32.115  1.00  0.00    -0.237 OA
ATOM    100  O   UNL A   1      52.472  24.876  31.896  1.00  0.00    -0.744 OA
ENDBRANCH  96  97
ENDBRANCH  64  89
ENDBRANCH  38  39
ENDBRANCH  30  33
ENDBRANCH  28  29
ENDBRANCH  27  28
ENDBRANCH   1  27
TORSDOF 18
ENDMDL
