MODEL 1
REMARK VINA RESULT:     -12.1      0.000      0.000
REMARK SMILES CCc1cc(OC(F)(F)F)cc2c1O[C@@H](C(F)(F)F)C(C(=O)NCCCCNC(=O)c1ccc(-c3c4nc(c(-c5c(F)cc(S(=O)(=O)[O-])cc5F)c5ccc([nH]5)c(-c5c(F)cc(S(=O)(=O)[O-])cc5F)c5nc(c(-c6c(F)cc(S(=O)(=O)[O-])cc6F)c6ccc3[nH]6)C=C5)C=C4)cc1)=C2
REMARK SMILES IDX 26 1 25 2 24 3 23 4 21 5 22 6 20 8 3 9 4 10 13 11 5 12 12 13
REMARK SMILES IDX 14 14 11 15 97 16 15 17 2 18 1 19 6 20 7 21 8 22 9 23 10 24
REMARK SMILES IDX 16 25 17 26 18 27 19 28 27 29 28 30 29 31 30 33 31 34 32 35
REMARK SMILES IDX 96 36 33 37 95 38 34 39 35 40 36 41 89 42 37 43 94 44 88 45
REMARK SMILES IDX 90 46 38 47 93 48 87 49 86 50 39 52 73 53 52 54 72 55 53 56
REMARK SMILES IDX 56 57 71 58 91 59 54 60 55 61 70 63 92 64 57 65 40 66 41 67
REMARK SMILES IDX 50 68 42 69 43 70 49 71 51 72 44 73 45 74 46 75 47 76 48 77
REMARK SMILES IDX 74 78 75 79 84 80 76 81 77 82 83 83 85 84 78 85 79 86 80 87
REMARK SMILES IDX 81 88 82 89 58 90 59 91 68 92 60 93 61 94 67 95 69 96 62 97
REMARK SMILES IDX 63 98 64 99 65 100 66 101
REMARK H PARENT 23 7 28 32 90 51 56 62
REMARK Flexibility Score: inf
ROOT
ATOM      1  C   UNL A   1      38.905  22.864  26.622  1.00  0.00     0.023 C 
ENDROOT
BRANCH   1   2
ATOM      2  C   UNL A   1      37.905  23.981  26.304  1.00  0.00     0.023 C 
BRANCH   2   3
ATOM      3  C   UNL A   1      37.039  23.717  25.067  1.00  0.00     0.116 C 
BRANCH   3   4
ATOM      4  N   UNL A   1      36.105  22.638  25.335  1.00  0.00    -0.352 N 
ATOM      5  C   UNL A   1      34.764  22.622  25.547  1.00  0.00     0.251 C 
ATOM      6  O   UNL A   1      34.248  21.570  25.917  1.00  0.00    -0.270 OA
ATOM      7  H   UNL A   1      36.524  21.747  25.369  1.00  0.00     0.163 HD
BRANCH   5   8
ATOM      8  C   UNL A   1      33.888  23.795  25.286  1.00  0.00     0.067 C 
ATOM      9  C   UNL A   1      31.457  27.045  24.182  1.00  0.00    -0.002 A 
ATOM     10  C   UNL A   1      31.356  28.149  25.052  1.00  0.00     0.054 A 
ATOM     11  C   UNL A   1      32.271  25.963  24.548  1.00  0.00     0.131 A 
ATOM     12  C   UNL A   1      32.053  28.171  26.263  1.00  0.00     0.130 A 
ATOM     13  C   UNL A   1      32.942  25.964  25.768  1.00  0.00     0.021 A 
ATOM     14  O   UNL A   1      32.448  24.967  23.631  1.00  0.00    -0.475 OA
ATOM     15  C   UNL A   1      32.830  27.065  26.620  1.00  0.00     0.058 A 
ATOM     16  C   UNL A   1      33.815  24.852  26.109  1.00  0.00     0.025 C 
ATOM     17  C   UNL A   1      32.924  23.675  24.111  1.00  0.00     0.314 C 
BRANCH   9  18
ATOM     18  C   UNL A   1      30.700  27.051  22.873  1.00  0.00     0.036 C 
ATOM     19  C   UNL A   1      29.471  27.951  22.906  1.00  0.00     0.009 C 
ENDBRANCH   9  18
BRANCH  12  20
ATOM     20  O   UNL A   1      32.076  29.188  27.172  1.00  0.00    -0.406 OA
BRANCH  20  21
ATOM     21  C   UNL A   1      32.697  30.404  26.795  1.00  0.00     0.573 C 
ATOM     22  F   UNL A   1      33.172  31.069  27.870  1.00  0.00    -0.132 F 
ATOM     23  F   UNL A   1      33.702  30.181  25.922  1.00  0.00    -0.132 F 
ATOM     24  F   UNL A   1      31.780  31.190  26.189  1.00  0.00    -0.132 F 
ENDBRANCH  20  21
ENDBRANCH  12  20
BRANCH  17  25
ATOM     25  C   UNL A   1      33.420  22.900  22.867  1.00  0.00     0.429 C 
ATOM     26  F   UNL A   1      33.179  21.574  22.942  1.00  0.00    -0.167 F 
ATOM     27  F   UNL A   1      32.763  23.320  21.749  1.00  0.00    -0.167 F 
ATOM     28  F   UNL A   1      34.739  23.086  22.632  1.00  0.00    -0.167 F 
ENDBRANCH  17  25
ENDBRANCH   5   8
ENDBRANCH   3   4
ENDBRANCH   2   3
ENDBRANCH   1   2
BRANCH   1  29
ATOM     29  C   UNL A   1      40.286  23.345  27.051  1.00  0.00     0.116 C 
BRANCH  29  30
ATOM     30  N   UNL A   1      40.994  24.059  26.000  1.00  0.00    -0.352 N 
ATOM     31  C   UNL A   1      41.509  25.334  26.029  1.00  0.00     0.251 C 
ATOM     32  H   UNL A   1      41.122  23.564  25.159  1.00  0.00     0.163 HD
ATOM     33  O   UNL A   1      41.987  25.828  25.020  1.00  0.00    -0.269 OA
BRANCH  31  34
ATOM     34  C   UNL A   1      41.431  26.109  27.284  1.00  0.00     0.039 A 
ATOM     35  C   UNL A   1      42.444  27.029  27.567  1.00  0.00     0.014 A 
ATOM     36  C   UNL A   1      40.343  25.962  28.149  1.00  0.00     0.014 A 
ATOM     37  C   UNL A   1      42.328  27.857  28.684  1.00  0.00     0.010 A 
ATOM     38  C   UNL A   1      40.200  26.830  29.227  1.00  0.00     0.010 A 
ATOM     39  C   UNL A   1      41.185  27.791  29.498  1.00  0.00    -0.014 A 
BRANCH  39  40
ATOM     40  C   UNL A   1      40.989  28.739  30.622  1.00  0.00     0.031 A 
ATOM     41  C   UNL A   1      41.817  28.618  31.870  1.00  0.00     0.074 A 
ATOM     42  C   UNL A   1      40.011  29.663  30.541  1.00  0.00     0.049 A 
ATOM     43  N   UNL A   1      41.744  29.308  32.977  1.00  0.00    -0.248 NA
ATOM     44  C   UNL A   1      42.844  27.564  31.883  1.00  0.00     0.031 C 
ATOM     45  C   UNL A   1      39.105  29.838  29.404  1.00  0.00     0.029 A 
ATOM     46  N   UNL A   1      39.605  30.618  31.439  1.00  0.00    -0.354 N 
ATOM     47  C   UNL A   1      42.703  28.767  33.825  1.00  0.00     0.074 A 
ATOM     48  C   UNL A   1      43.313  27.660  33.120  1.00  0.00     0.031 C 
ATOM     49  C   UNL A   1      38.262  30.851  29.664  1.00  0.00     0.029 A 
ATOM     50  C   UNL A   1      38.545  31.374  30.997  1.00  0.00     0.049 A 
ATOM     51  H   UNL A   1      40.032  30.749  32.316  1.00  0.00     0.167 HD
ATOM     52  C   UNL A   1      43.056  29.170  35.068  1.00  0.00     0.037 A 
ATOM     53  C   UNL A   1      37.872  32.373  31.602  1.00  0.00     0.037 A 
ATOM     54  C   UNL A   1      42.463  30.288  35.753  1.00  0.00     0.049 A 
ATOM     55  C   UNL A   1      38.290  32.809  32.978  1.00  0.00     0.074 A 
ATOM     56  C   UNL A   1      42.798  30.821  36.985  1.00  0.00     0.029 A 
ATOM     57  N   UNL A   1      41.407  31.045  35.265  1.00  0.00    -0.354 N 
ATOM     58  N   UNL A   1      39.248  32.332  33.736  1.00  0.00    -0.248 NA
ATOM     59  C   UNL A   1      37.541  33.921  33.579  1.00  0.00     0.031 C 
ATOM     60  C   UNL A   1      41.922  31.878  37.258  1.00  0.00     0.029 A 
ATOM     61  C   UNL A   1      41.064  32.028  36.180  1.00  0.00     0.049 A 
ATOM     62  H   UNL A   1      40.965  30.905  34.396  1.00  0.00     0.167 HD
ATOM     63  C   UNL A   1      39.227  33.095  34.898  1.00  0.00     0.074 A 
ATOM     64  C   UNL A   1      38.173  34.076  34.735  1.00  0.00     0.031 C 
ATOM     65  C   UNL A   1      40.009  32.993  36.000  1.00  0.00     0.037 A 
BRANCH  52  66
ATOM     66  C   UNL A   1      44.142  28.398  35.765  1.00  0.00     0.058 A 
ATOM     67  C   UNL A   1      43.849  27.316  36.608  1.00  0.00     0.135 A 
ATOM     68  C   UNL A   1      45.492  28.728  35.567  1.00  0.00     0.135 A 
ATOM     69  F   UNL A   1      42.574  26.968  36.844  1.00  0.00    -0.206 F 
ATOM     70  C   UNL A   1      44.854  26.606  37.257  1.00  0.00     0.059 A 
ATOM     71  C   UNL A   1      46.516  28.015  36.186  1.00  0.00     0.059 A 
ATOM     72  F   UNL A   1      45.829  29.755  34.771  1.00  0.00    -0.206 F 
ATOM     73  C   UNL A   1      46.185  26.966  37.042  1.00  0.00     0.060 A 
BRANCH  73  74
ATOM     74  S   UNL A   1      47.479  26.037  37.893  1.00  0.00     0.124 S 
ATOM     75  O   UNL A   1      46.756  25.536  39.058  1.00  0.00    -0.237 OA
ATOM     76  O   UNL A   1      47.849  25.034  36.900  1.00  0.00    -0.237 OA
ATOM     77  O   UNL A   1      48.495  27.046  38.170  1.00  0.00    -0.744 OA
ENDBRANCH  73  74
ENDBRANCH  52  66
BRANCH  53  78
ATOM     78  C   UNL A   1      36.748  33.041  30.895  1.00  0.00     0.058 A 
ATOM     79  C   UNL A   1      35.420  32.814  31.284  1.00  0.00     0.135 A 
ATOM     80  C   UNL A   1      36.978  33.934  29.838  1.00  0.00     0.135 A 
ATOM     81  F   UNL A   1      35.150  31.964  32.286  1.00  0.00    -0.206 F 
ATOM     82  C   UNL A   1      34.356  33.441  30.642  1.00  0.00     0.059 A 
ATOM     83  C   UNL A   1      35.934  34.590  29.195  1.00  0.00     0.059 A 
ATOM     84  F   UNL A   1      38.233  34.198  29.442  1.00  0.00    -0.206 F 
ATOM     85  C   UNL A   1      34.624  34.331  29.600  1.00  0.00     0.060 A 
BRANCH  85  86
ATOM     86  S   UNL A   1      33.241  35.185  28.813  1.00  0.00     0.124 S 
ATOM     87  O   UNL A   1      33.931  36.220  28.052  1.00  0.00    -0.237 OA
ATOM     88  O   UNL A   1      32.626  34.118  28.028  1.00  0.00    -0.237 OA
ATOM     89  O   UNL A   1      32.450  35.653  29.946  1.00  0.00    -0.744 OA
ENDBRANCH  85  86
ENDBRANCH  53  78
BRANCH  65  90
ATOM     90  C   UNL A   1      39.764  33.975  37.111  1.00  0.00     0.058 A 
ATOM     91  C   UNL A   1      38.945  33.655  38.204  1.00  0.00     0.135 A 
ATOM     92  C   UNL A   1      40.392  35.231  37.104  1.00  0.00     0.135 A 
ATOM     93  F   UNL A   1      38.316  32.471  38.253  1.00  0.00    -0.206 F 
ATOM     94  C   UNL A   1      38.740  34.555  39.244  1.00  0.00     0.059 A 
ATOM     95  C   UNL A   1      40.220  36.137  38.146  1.00  0.00     0.059 A 
ATOM     96  F   UNL A   1      41.192  35.581  36.086  1.00  0.00    -0.206 F 
ATOM     97  C   UNL A   1      39.383  35.794  39.206  1.00  0.00     0.060 A 
BRANCH  97  98
ATOM     98  S   UNL A   1      39.137  36.941  40.579  1.00  0.00     0.124 S 
ATOM     99  O   UNL A   1      38.497  36.081  41.569  1.00  0.00    -0.237 OA
ATOM    100  O   UNL A   1      40.501  37.358  40.889  1.00  0.00    -0.237 OA
ATOM    101  O   UNL A   1      38.287  37.979  40.005  1.00  0.00    -0.744 OA
ENDBRANCH  97  98
ENDBRANCH  65  90
ENDBRANCH  39  40
ENDBRANCH  31  34
ENDBRANCH  29  30
ENDBRANCH   1  29
TORSDOF 18
ENDMDL
MODEL 2
REMARK VINA RESULT:     -12.1      6.435     11.858
REMARK SMILES CCc1cc(OC(F)(F)F)cc2c1O[C@@H](C(F)(F)F)C(C(=O)NCCCCNC(=O)c1ccc(-c3c4nc(c(-c5c(F)cc(S(=O)(=O)[O-])cc5F)c5ccc([nH]5)c(-c5c(F)cc(S(=O)(=O)[O-])cc5F)c5nc(c(-c6c(F)cc(S(=O)(=O)[O-])cc6F)c6ccc3[nH]6)C=C5)C=C4)cc1)=C2
REMARK SMILES IDX 26 1 25 2 24 3 23 4 21 5 22 6 20 8 3 9 4 10 13 11 5 12 12 13
REMARK SMILES IDX 14 14 11 15 97 16 15 17 2 18 1 19 6 20 7 21 8 22 9 23 10 24
REMARK SMILES IDX 16 25 17 26 18 27 19 28 27 29 28 30 29 31 30 33 31 34 32 35
REMARK SMILES IDX 96 36 33 37 95 38 34 39 35 40 36 41 89 42 37 43 94 44 88 45
REMARK SMILES IDX 90 46 38 47 93 48 87 49 86 50 39 52 73 53 52 54 72 55 53 56
REMARK SMILES IDX 56 57 71 58 91 59 54 60 55 61 70 63 92 64 57 65 40 66 41 67
REMARK SMILES IDX 50 68 42 69 43 70 49 71 51 72 44 73 45 74 46 75 47 76 48 77
REMARK SMILES IDX 74 78 75 79 84 80 76 81 77 82 83 83 85 84 78 85 79 86 80 87
REMARK SMILES IDX 81 88 82 89 58 90 59 91 68 92 60 93 61 94 67 95 69 96 62 97
REMARK SMILES IDX 63 98 64 99 65 100 66 101
REMARK H PARENT 23 7 28 32 90 51 56 62
REMARK Flexibility Score: inf
ROOT
ATOM      1  C   UNL A   1      33.955  30.138  27.293  1.00  0.00     0.023 C 
ENDROOT
BRANCH   1   2
ATOM      2  C   UNL A   1      33.331  28.756  27.511  1.00  0.00     0.023 C 
BRANCH   2   3
ATOM      3  C   UNL A   1      31.970  28.566  26.831  1.00  0.00     0.116 C 
BRANCH   3   4
ATOM      4  N   UNL A   1      32.073  28.873  25.416  1.00  0.00    -0.352 N 
ATOM      5  C   UNL A   1      32.524  28.155  24.355  1.00  0.00     0.251 C 
ATOM      6  O   UNL A   1      32.652  28.730  23.277  1.00  0.00    -0.270 OA
ATOM      7  H   UNL A   1      31.756  29.775  25.179  1.00  0.00     0.163 HD
BRANCH   5   8
ATOM      8  C   UNL A   1      32.803  26.695  24.424  1.00  0.00     0.067 C 
ATOM      9  C   UNL A   1      33.227  22.519  24.695  1.00  0.00    -0.002 A 
ATOM     10  C   UNL A   1      34.471  21.983  25.082  1.00  0.00     0.054 A 
ATOM     11  C   UNL A   1      33.084  23.912  24.609  1.00  0.00     0.131 A 
ATOM     12  C   UNL A   1      35.550  22.820  25.376  1.00  0.00     0.130 A 
ATOM     13  C   UNL A   1      34.164  24.751  24.868  1.00  0.00     0.021 A 
ATOM     14  O   UNL A   1      31.836  24.405  24.355  1.00  0.00    -0.475 OA
ATOM     15  C   UNL A   1      35.392  24.203  25.249  1.00  0.00     0.058 A 
ATOM     16  C   UNL A   1      33.984  26.193  24.816  1.00  0.00     0.025 C 
ATOM     17  C   UNL A   1      31.731  25.771  23.858  1.00  0.00     0.314 C 
BRANCH   9  18
ATOM     18  C   UNL A   1      32.072  21.591  24.392  1.00  0.00     0.036 C 
ATOM     19  C   UNL A   1      32.404  20.128  24.661  1.00  0.00     0.009 C 
ENDBRANCH   9  18
BRANCH  12  20
ATOM     20  O   UNL A   1      36.789  22.435  25.799  1.00  0.00    -0.406 OA
BRANCH  20  21
ATOM     21  C   UNL A   1      37.514  21.524  24.992  1.00  0.00     0.573 C 
ATOM     22  F   UNL A   1      37.080  20.257  25.167  1.00  0.00    -0.132 F 
ATOM     23  F   UNL A   1      37.422  21.856  23.687  1.00  0.00    -0.132 F 
ATOM     24  F   UNL A   1      38.817  21.572  25.347  1.00  0.00    -0.132 F 
ENDBRANCH  20  21
ENDBRANCH  12  20
BRANCH  17  25
ATOM     25  C   UNL A   1      30.256  26.197  24.053  1.00  0.00     0.429 C 
ATOM     26  F   UNL A   1      29.930  27.302  23.350  1.00  0.00    -0.167 F 
ATOM     27  F   UNL A   1      29.414  25.225  23.601  1.00  0.00    -0.167 F 
ATOM     28  F   UNL A   1      29.945  26.405  25.352  1.00  0.00    -0.167 F 
ENDBRANCH  17  25
ENDBRANCH   5   8
ENDBRANCH   3   4
ENDBRANCH   2   3
ENDBRANCH   1   2
BRANCH   1  29
ATOM     29  C   UNL A   1      35.358  30.303  27.865  1.00  0.00     0.116 C 
BRANCH  29  30
ATOM     30  N   UNL A   1      35.363  30.809  29.228  1.00  0.00    -0.352 N 
ATOM     31  C   UNL A   1      36.363  30.721  30.169  1.00  0.00     0.251 C 
ATOM     32  H   UNL A   1      34.545  31.277  29.513  1.00  0.00     0.163 HD
ATOM     33  O   UNL A   1      36.168  31.109  31.311  1.00  0.00    -0.269 OA
BRANCH  31  34
ATOM     34  C   UNL A   1      37.652  30.109  29.790  1.00  0.00     0.039 A 
ATOM     35  C   UNL A   1      38.019  30.102  28.442  1.00  0.00     0.014 A 
ATOM     36  C   UNL A   1      38.511  29.588  30.762  1.00  0.00     0.014 A 
ATOM     37  C   UNL A   1      39.283  29.639  28.076  1.00  0.00     0.010 A 
ATOM     38  C   UNL A   1      39.792  29.185  30.402  1.00  0.00     0.010 A 
ATOM     39  C   UNL A   1      40.194  29.216  29.058  1.00  0.00    -0.014 A 
BRANCH  39  40
ATOM     40  C   UNL A   1      41.580  28.829  28.702  1.00  0.00     0.031 A 
ATOM     41  C   UNL A   1      42.673  29.861  28.677  1.00  0.00     0.074 A 
ATOM     42  C   UNL A   1      41.834  27.559  28.327  1.00  0.00     0.049 A 
ATOM     43  N   UNL A   1      43.925  29.726  28.326  1.00  0.00    -0.248 NA
ATOM     44  C   UNL A   1      42.302  31.228  29.073  1.00  0.00     0.031 C 
ATOM     45  C   UNL A   1      40.842  26.484  28.256  1.00  0.00     0.029 A 
ATOM     46  N   UNL A   1      43.001  26.961  27.922  1.00  0.00    -0.354 N 
ATOM     47  C   UNL A   1      44.489  30.990  28.446  1.00  0.00     0.074 A 
ATOM     48  C   UNL A   1      43.431  31.888  28.856  1.00  0.00     0.031 C 
ATOM     49  C   UNL A   1      41.445  25.355  27.851  1.00  0.00     0.029 A 
ATOM     50  C   UNL A   1      42.857  25.632  27.602  1.00  0.00     0.049 A 
ATOM     51  H   UNL A   1      43.860  27.439  27.866  1.00  0.00     0.167 HD
ATOM     52  C   UNL A   1      45.776  31.363  28.251  1.00  0.00     0.037 A 
ATOM     53  C   UNL A   1      43.759  24.739  27.152  1.00  0.00     0.037 A 
ATOM     54  C   UNL A   1      46.829  30.459  27.868  1.00  0.00     0.049 A 
ATOM     55  C   UNL A   1      45.184  25.175  26.954  1.00  0.00     0.074 A 
ATOM     56  C   UNL A   1      48.178  30.724  27.714  1.00  0.00     0.029 A 
ATOM     57  N   UNL A   1      46.650  29.114  27.574  1.00  0.00    -0.354 N 
ATOM     58  N   UNL A   1      45.716  26.358  27.141  1.00  0.00    -0.248 NA
ATOM     59  C   UNL A   1      46.133  24.154  26.489  1.00  0.00     0.031 C 
ATOM     60  C   UNL A   1      48.810  29.548  27.293  1.00  0.00     0.029 A 
ATOM     61  C   UNL A   1      47.860  28.540  27.220  1.00  0.00     0.049 A 
ATOM     62  H   UNL A   1      45.788  28.638  27.612  1.00  0.00     0.167 HD
ATOM     63  C   UNL A   1      47.064  26.222  26.832  1.00  0.00     0.074 A 
ATOM     64  C   UNL A   1      47.269  24.836  26.461  1.00  0.00     0.031 C 
ATOM     65  C   UNL A   1      48.044  27.159  26.852  1.00  0.00     0.037 A 
BRANCH  52  66
ATOM     66  C   UNL A   1      46.117  32.812  28.458  1.00  0.00     0.058 A 
ATOM     67  C   UNL A   1      46.508  33.302  29.714  1.00  0.00     0.135 A 
ATOM     68  C   UNL A   1      46.078  33.717  27.386  1.00  0.00     0.135 A 
ATOM     69  F   UNL A   1      46.547  32.482  30.777  1.00  0.00    -0.206 F 
ATOM     70  C   UNL A   1      46.818  34.644  29.908  1.00  0.00     0.059 A 
ATOM     71  C   UNL A   1      46.408  35.060  27.551  1.00  0.00     0.059 A 
ATOM     72  F   UNL A   1      45.710  33.302  26.163  1.00  0.00    -0.206 F 
ATOM     73  C   UNL A   1      46.761  35.516  28.820  1.00  0.00     0.060 A 
BRANCH  73  74
ATOM     74  S   UNL A   1      47.164  37.256  29.086  1.00  0.00     0.124 S 
ATOM     75  O   UNL A   1      48.337  37.415  28.231  1.00  0.00    -0.237 OA
ATOM     76  O   UNL A   1      45.954  37.932  28.632  1.00  0.00    -0.237 OA
ATOM     77  O   UNL A   1      47.419  37.330  30.521  1.00  0.00    -0.744 OA
ENDBRANCH  73  74
ENDBRANCH  52  66
BRANCH  53  78
ATOM     78  C   UNL A   1      43.342  23.338  26.881  1.00  0.00     0.058 A 
ATOM     79  C   UNL A   1      43.195  22.874  25.566  1.00  0.00     0.135 A 
ATOM     80  C   UNL A   1      43.106  22.432  27.926  1.00  0.00     0.135 A 
ATOM     81  F   UNL A   1      43.405  23.706  24.535  1.00  0.00    -0.206 F 
ATOM     82  C   UNL A   1      42.818  21.563  25.294  1.00  0.00     0.059 A 
ATOM     83  C   UNL A   1      42.750  21.110  27.680  1.00  0.00     0.059 A 
ATOM     84  F   UNL A   1      43.252  22.824  29.201  1.00  0.00    -0.206 F 
ATOM     85  C   UNL A   1      42.601  20.687  26.359  1.00  0.00     0.060 A 
BRANCH  85  86
ATOM     86  S   UNL A   1      42.170  18.971  25.996  1.00  0.00     0.124 S 
ATOM     87  O   UNL A   1      43.005  18.700  24.832  1.00  0.00    -0.237 OA
ATOM     88  O   UNL A   1      42.552  18.290  27.229  1.00  0.00    -0.237 OA
ATOM     89  O   UNL A   1      40.733  19.034  25.745  1.00  0.00    -0.744 OA
ENDBRANCH  85  86
ENDBRANCH  53  78
BRANCH  65  90
ATOM     90  C   UNL A   1      49.428  26.714  26.475  1.00  0.00     0.058 A 
ATOM     91  C   UNL A   1      50.257  26.045  27.389  1.00  0.00     0.135 A 
ATOM     92  C   UNL A   1      49.913  26.917  25.173  1.00  0.00     0.135 A 
ATOM     93  F   UNL A   1      49.842  25.834  28.648  1.00  0.00    -0.206 F 
ATOM     94  C   UNL A   1      51.528  25.610  27.031  1.00  0.00     0.059 A 
ATOM     95  C   UNL A   1      51.172  26.468  24.787  1.00  0.00     0.059 A 
ATOM     96  F   UNL A   1      49.156  27.543  24.259  1.00  0.00    -0.206 F 
ATOM     97  C   UNL A   1      51.977  25.826  25.727  1.00  0.00     0.060 A 
BRANCH  97  98
ATOM     98  S   UNL A   1      53.616  25.226  25.264  1.00  0.00     0.124 S 
ATOM     99  O   UNL A   1      53.451  23.783  25.402  1.00  0.00    -0.237 OA
ATOM    100  O   UNL A   1      53.757  25.720  23.897  1.00  0.00    -0.237 OA
ATOM    101  O   UNL A   1      54.496  25.855  26.244  1.00  0.00    -0.744 OA
ENDBRANCH  97  98
ENDBRANCH  65  90
ENDBRANCH  39  40
ENDBRANCH  31  34
ENDBRANCH  29  30
ENDBRANCH   1  29
TORSDOF 18
ENDMDL
MODEL 3
REMARK VINA RESULT:     -11.8      3.047      3.846
REMARK SMILES CCc1cc(OC(F)(F)F)cc2c1O[C@@H](C(F)(F)F)C(C(=O)NCCCCNC(=O)c1ccc(-c3c4nc(c(-c5c(F)cc(S(=O)(=O)[O-])cc5F)c5ccc([nH]5)c(-c5c(F)cc(S(=O)(=O)[O-])cc5F)c5nc(c(-c6c(F)cc(S(=O)(=O)[O-])cc6F)c6ccc3[nH]6)C=C5)C=C4)cc1)=C2
REMARK SMILES IDX 26 1 25 2 24 3 23 4 21 5 22 6 20 8 3 9 4 10 13 11 5 12 12 13
REMARK SMILES IDX 14 14 11 15 97 16 15 17 2 18 1 19 6 20 7 21 8 22 9 23 10 24
REMARK SMILES IDX 16 25 17 26 18 27 19 28 27 29 28 30 29 31 30 33 31 34 32 35
REMARK SMILES IDX 96 36 33 37 95 38 34 39 35 40 36 41 89 42 37 43 94 44 88 45
REMARK SMILES IDX 90 46 38 47 93 48 87 49 86 50 39 52 73 53 52 54 72 55 53 56
REMARK SMILES IDX 56 57 71 58 91 59 54 60 55 61 70 63 92 64 57 65 40 66 41 67
REMARK SMILES IDX 50 68 42 69 43 70 49 71 51 72 44 73 45 74 46 75 47 76 48 77
REMARK SMILES IDX 74 78 75 79 84 80 76 81 77 82 83 83 85 84 78 85 79 86 80 87
REMARK SMILES IDX 81 88 82 89 58 90 59 91 68 92 60 93 61 94 67 95 69 96 62 97
REMARK SMILES IDX 63 98 64 99 65 100 66 101
REMARK H PARENT 23 7 28 32 90 51 56 62
REMARK Flexibility Score: inf
ROOT
ATOM      1  C   UNL A   1      36.029  23.253  24.453  1.00  0.00     0.023 C 
ENDROOT
BRANCH   1   2
ATOM      2  C   UNL A   1      34.565  23.423  24.870  1.00  0.00     0.023 C 
BRANCH   2   3
ATOM      3  C   UNL A   1      34.320  23.291  26.378  1.00  0.00     0.116 C 
BRANCH   3   4
ATOM      4  N   UNL A   1      32.945  22.898  26.626  1.00  0.00    -0.352 N 
ATOM      5  C   UNL A   1      31.787  23.606  26.681  1.00  0.00     0.251 C 
ATOM      6  O   UNL A   1      30.775  23.033  27.078  1.00  0.00    -0.270 OA
ATOM      7  H   UNL A   1      32.828  21.933  26.786  1.00  0.00     0.163 HD
BRANCH   5   8
ATOM      8  C   UNL A   1      31.677  25.015  26.218  1.00  0.00     0.067 C 
ATOM      9  C   UNL A   1      31.374  28.869  24.560  1.00  0.00    -0.002 A 
ATOM     10  C   UNL A   1      31.863  29.968  25.294  1.00  0.00     0.054 A 
ATOM     11  C   UNL A   1      31.479  27.583  25.111  1.00  0.00     0.131 A 
ATOM     12  C   UNL A   1      32.444  29.787  26.551  1.00  0.00     0.130 A 
ATOM     13  C   UNL A   1      32.026  27.399  26.378  1.00  0.00     0.021 A 
ATOM     14  O   UNL A   1      31.111  26.528  24.327  1.00  0.00    -0.475 OA
ATOM     15  C   UNL A   1      32.505  28.500  27.093  1.00  0.00     0.058 A 
ATOM     16  C   UNL A   1      32.166  26.054  26.913  1.00  0.00     0.025 C 
ATOM     17  C   UNL A   1      30.817  25.260  24.983  1.00  0.00     0.314 C 
BRANCH   9  18
ATOM     18  C   UNL A   1      30.758  29.092  23.197  1.00  0.00     0.036 C 
ATOM     19  C   UNL A   1      29.272  29.420  23.267  1.00  0.00     0.009 C 
ENDBRANCH   9  18
BRANCH  12  20
ATOM     20  O   UNL A   1      32.991  30.754  27.344  1.00  0.00    -0.406 OA
BRANCH  20  21
ATOM     21  C   UNL A   1      34.400  30.782  27.483  1.00  0.00     0.573 C 
ATOM     22  F   UNL A   1      34.779  30.449  28.736  1.00  0.00    -0.132 F 
ATOM     23  F   UNL A   1      34.989  29.950  26.597  1.00  0.00    -0.132 F 
ATOM     24  F   UNL A   1      34.836  32.037  27.234  1.00  0.00    -0.132 F 
ENDBRANCH  20  21
ENDBRANCH  12  20
BRANCH  17  25
ATOM     25  C   UNL A   1      30.844  24.177  23.879  1.00  0.00     0.429 C 
ATOM     26  F   UNL A   1      30.720  22.924  24.366  1.00  0.00    -0.167 F 
ATOM     27  F   UNL A   1      29.789  24.335  23.029  1.00  0.00    -0.167 F 
ATOM     28  F   UNL A   1      31.962  24.236  23.122  1.00  0.00    -0.167 F 
ENDBRANCH  17  25
ENDBRANCH   5   8
ENDBRANCH   3   4
ENDBRANCH   2   3
ENDBRANCH   1   2
BRANCH   1  29
ATOM     29  C   UNL A   1      37.047  23.736  25.480  1.00  0.00     0.116 C 
BRANCH  29  30
ATOM     30  N   UNL A   1      38.157  22.814  25.659  1.00  0.00    -0.352 N 
ATOM     31  C   UNL A   1      39.366  23.040  26.277  1.00  0.00     0.251 C 
ATOM     32  H   UNL A   1      38.026  21.910  25.292  1.00  0.00     0.163 HD
ATOM     33  O   UNL A   1      40.239  22.187  26.251  1.00  0.00    -0.269 OA
BRANCH  31  34
ATOM     34  C   UNL A   1      39.605  24.346  26.926  1.00  0.00     0.039 A 
ATOM     35  C   UNL A   1      39.116  24.549  28.218  1.00  0.00     0.014 A 
ATOM     36  C   UNL A   1      40.344  25.341  26.281  1.00  0.00     0.014 A 
ATOM     37  C   UNL A   1      39.435  25.728  28.895  1.00  0.00     0.010 A 
ATOM     38  C   UNL A   1      40.711  26.486  26.979  1.00  0.00     0.010 A 
ATOM     39  C   UNL A   1      40.268  26.686  28.295  1.00  0.00    -0.014 A 
BRANCH  39  40
ATOM     40  C   UNL A   1      40.711  27.889  29.040  1.00  0.00     0.031 A 
ATOM     41  C   UNL A   1      42.062  27.919  29.699  1.00  0.00     0.074 A 
ATOM     42  C   UNL A   1      39.861  28.925  29.183  1.00  0.00     0.049 A 
ATOM     43  N   UNL A   1      42.593  28.851  30.445  1.00  0.00    -0.248 NA
ATOM     44  C   UNL A   1      42.915  26.735  29.515  1.00  0.00     0.031 C 
ATOM     45  C   UNL A   1      38.503  28.986  28.637  1.00  0.00     0.029 A 
ATOM     46  N   UNL A   1      40.007  30.120  29.842  1.00  0.00    -0.354 N 
ATOM     47  C   UNL A   1      43.835  28.364  30.832  1.00  0.00     0.074 A 
ATOM     48  C   UNL A   1      43.958  27.033  30.276  1.00  0.00     0.031 C 
ATOM     49  C   UNL A   1      37.948  30.163  28.969  1.00  0.00     0.029 A 
ATOM     50  C   UNL A   1      38.895  30.926  29.776  1.00  0.00     0.049 A 
ATOM     51  H   UNL A   1      40.830  30.375  30.317  1.00  0.00     0.167 HD
ATOM     52  C   UNL A   1      44.793  28.977  31.567  1.00  0.00     0.037 A 
ATOM     53  C   UNL A   1      38.663  32.140  30.312  1.00  0.00     0.037 A 
ATOM     54  C   UNL A   1      44.674  30.311  32.095  1.00  0.00     0.049 A 
ATOM     55  C   UNL A   1      39.746  32.805  31.114  1.00  0.00     0.074 A 
ATOM     56  C   UNL A   1      45.615  31.049  32.791  1.00  0.00     0.029 A 
ATOM     57  N   UNL A   1      43.541  31.106  31.989  1.00  0.00    -0.354 N 
ATOM     58  N   UNL A   1      40.943  32.358  31.409  1.00  0.00    -0.248 NA
ATOM     59  C   UNL A   1      39.451  34.140  31.651  1.00  0.00     0.031 C 
ATOM     60  C   UNL A   1      45.039  32.278  33.136  1.00  0.00     0.029 A 
ATOM     61  C   UNL A   1      43.752  32.320  32.623  1.00  0.00     0.049 A 
ATOM     62  H   UNL A   1      42.710  30.846  31.529  1.00  0.00     0.167 HD
ATOM     63  C   UNL A   1      41.549  33.363  32.154  1.00  0.00     0.074 A 
ATOM     64  C   UNL A   1      40.593  34.448  32.249  1.00  0.00     0.031 C 
ATOM     65  C   UNL A   1      42.786  33.386  32.710  1.00  0.00     0.037 A 
BRANCH  52  66
ATOM     66  C   UNL A   1      46.059  28.212  31.834  1.00  0.00     0.058 A 
ATOM     67  C   UNL A   1      47.146  28.259  30.948  1.00  0.00     0.135 A 
ATOM     68  C   UNL A   1      46.197  27.443  33.000  1.00  0.00     0.135 A 
ATOM     69  F   UNL A   1      47.061  28.967  29.810  1.00  0.00    -0.206 F 
ATOM     70  C   UNL A   1      48.315  27.546  31.192  1.00  0.00     0.059 A 
ATOM     71  C   UNL A   1      47.368  26.742  33.278  1.00  0.00     0.059 A 
ATOM     72  F   UNL A   1      45.188  27.363  33.882  1.00  0.00    -0.206 F 
ATOM     73  C   UNL A   1      48.415  26.787  32.359  1.00  0.00     0.060 A 
BRANCH  73  74
ATOM     74  S   UNL A   1      49.938  25.865  32.661  1.00  0.00     0.124 S 
ATOM     75  O   UNL A   1      49.425  24.508  32.829  1.00  0.00    -0.237 OA
ATOM     76  O   UNL A   1      50.699  26.107  31.441  1.00  0.00    -0.237 OA
ATOM     77  O   UNL A   1      50.477  26.486  33.867  1.00  0.00    -0.744 OA
ENDBRANCH  73  74
ENDBRANCH  52  66
BRANCH  53  78
ATOM     78  C   UNL A   1      37.356  32.811  30.085  1.00  0.00     0.058 A 
ATOM     79  C   UNL A   1      36.233  32.474  30.853  1.00  0.00     0.135 A 
ATOM     80  C   UNL A   1      37.210  33.816  29.116  1.00  0.00     0.135 A 
ATOM     81  F   UNL A   1      36.323  31.515  31.787  1.00  0.00    -0.206 F 
ATOM     82  C   UNL A   1      35.006  33.101  30.663  1.00  0.00     0.059 A 
ATOM     83  C   UNL A   1      36.000  34.473  28.922  1.00  0.00     0.059 A 
ATOM     84  F   UNL A   1      38.262  34.186  28.368  1.00  0.00    -0.206 F 
ATOM     85  C   UNL A   1      34.901  34.102  29.696  1.00  0.00     0.060 A 
BRANCH  85  86
ATOM     86  S   UNL A   1      33.319  34.952  29.496  1.00  0.00     0.124 S 
ATOM     87  O   UNL A   1      32.538  33.953  28.776  1.00  0.00    -0.237 OA
ATOM     88  O   UNL A   1      32.924  35.196  30.881  1.00  0.00    -0.237 OA
ATOM     89  O   UNL A   1      33.676  36.146  28.737  1.00  0.00    -0.744 OA
ENDBRANCH  85  86
ENDBRANCH  53  78
BRANCH  65  90
ATOM     90  C   UNL A   1      43.181  34.628  33.458  1.00  0.00     0.058 A 
ATOM     91  C   UNL A   1      42.858  34.800  34.813  1.00  0.00     0.135 A 
ATOM     92  C   UNL A   1      43.929  35.633  32.826  1.00  0.00     0.135 A 
ATOM     93  F   UNL A   1      42.137  33.871  35.459  1.00  0.00    -0.206 F 
ATOM     94  C   UNL A   1      43.247  35.938  35.511  1.00  0.00     0.059 A 
ATOM     95  C   UNL A   1      44.350  36.768  33.512  1.00  0.00     0.059 A 
ATOM     96  F   UNL A   1      44.271  35.512  31.534  1.00  0.00    -0.206 F 
ATOM     97  C   UNL A   1      43.994  36.917  34.852  1.00  0.00     0.060 A 
BRANCH  97  98
ATOM     98  S   UNL A   1      44.523  38.374  35.778  1.00  0.00     0.124 S 
ATOM     99  O   UNL A   1      45.974  38.297  35.642  1.00  0.00    -0.237 OA
ATOM    100  O   UNL A   1      43.875  39.461  35.051  1.00  0.00    -0.237 OA
ATOM    101  O   UNL A   1      44.004  38.129  37.120  1.00  0.00    -0.744 OA
ENDBRANCH  97  98
ENDBRANCH  65  90
ENDBRANCH  39  40
ENDBRANCH  31  34
ENDBRANCH  29  30
ENDBRANCH   1  29
TORSDOF 18
ENDMDL
