MODEL 1
REMARK VINA RESULT:     -10.9      0.000      0.000
REMARK SMILES [NH3+][C@H]1CCCC[C@@H]1C(=O)N1CC(C(=O)NCCCCNC(=O)c2ccc(-c3c4nc(c(-c5c(F)cc(S(=O)(=O)[O-])cc5F)c5ccc([nH]5)c(-c5c(F)cc(S(=O)(=O)[O-])cc5F)c5nc(c(-c6c(F)cc(S(=O)(=O)[O-])cc6F)c6ccc3[nH]6)C=C5)C=C4)cc2)C1
REMARK SMILES IDX 18 1 17 2 16 3 15 4 13 5 14 6 12 8 8 9 9 10 10 11 11 12
REMARK SMILES IDX 89 13 7 14 2 15 3 16 4 17 6 18 5 19 1 20 19 24 20 25 21 26
REMARK SMILES IDX 22 28 23 29 24 30 88 31 25 32 87 33 26 34 27 35 28 36 81 37
REMARK SMILES IDX 29 38 86 39 80 40 82 41 30 42 85 43 79 44 78 45 31 47 65 48
REMARK SMILES IDX 44 49 64 50 45 51 48 52 63 53 83 54 46 55 47 56 62 58 84 59
REMARK SMILES IDX 49 60 32 61 33 62 42 63 34 64 35 65 41 66 43 67 36 68 37 69
REMARK SMILES IDX 38 70 39 71 40 72 66 73 67 74 76 75 68 76 69 77 75 78 77 79
REMARK SMILES IDX 70 80 71 81 72 82 73 83 74 84 50 85 51 86 60 87 52 88 53 89
REMARK SMILES IDX 59 90 61 91 54 92 55 93 56 94 57 95 58 96
REMARK H PARENT 15 7 1 21 1 22 1 23 20 27 82 46 48 57
REMARK Flexibility Score: inf
ROOT
ATOM      1  C   UNL A   1      35.085  33.535  28.058  1.00  0.00     0.023 C 
ENDROOT
BRANCH   1   2
ATOM      2  C   UNL A   1      34.142  34.737  27.982  1.00  0.00     0.023 C 
BRANCH   2   3
ATOM      3  C   UNL A   1      33.097  34.796  29.094  1.00  0.00     0.116 C 
BRANCH   3   4
ATOM      4  N   UNL A   1      32.982  36.129  29.654  1.00  0.00    -0.356 N 
ATOM      5  C   UNL A   1      33.119  36.581  30.943  1.00  0.00     0.226 C 
ATOM      6  O   UNL A   1      32.923  37.797  31.106  1.00  0.00    -0.275 OA
ATOM      7  H   UNL A   1      32.768  36.829  28.996  1.00  0.00     0.163 HD
BRANCH   5   8
ATOM      8  C   UNL A   1      33.508  35.672  32.112  1.00  0.00     0.117 C 
ATOM      9  C   UNL A   1      35.915  33.876  33.528  1.00  0.00     0.231 C 
ATOM     10  O   UNL A   1      35.373  33.497  34.565  1.00  0.00    -0.274 OA
ATOM     11  N   UNL A   1      35.279  34.664  32.593  1.00  0.00    -0.341 N 
ATOM     12  C   UNL A   1      34.743  35.989  32.941  1.00  0.00     0.134 C 
ATOM     13  C   UNL A   1      34.052  34.269  31.889  1.00  0.00     0.134 C 
BRANCH   9  14
ATOM     14  C   UNL A   1      37.302  33.388  33.109  1.00  0.00     0.136 C 
ATOM     15  C   UNL A   1      37.719  32.046  33.756  1.00  0.00     0.193 C 
ATOM     16  C   UNL A   1      39.179  31.688  33.457  1.00  0.00     0.066 C 
ATOM     17  C   UNL A   1      40.121  32.822  33.850  1.00  0.00     0.006 C 
ATOM     18  C   UNL A   1      38.303  34.509  33.431  1.00  0.00     0.020 C 
ATOM     19  C   UNL A   1      39.744  34.111  33.132  1.00  0.00     0.001 C 
BRANCH  15  20
ATOM     20  N   UNL A   1      36.855  30.942  33.320  1.00  0.00    -0.354 N 
ATOM     21  H   UNL A   1      37.388  30.073  33.318  1.00  0.00     0.344 HD
ATOM     22  H   UNL A   1      36.509  31.132  32.379  1.00  0.00     0.344 HD
ATOM     23  H   UNL A   1      36.065  30.854  33.960  1.00  0.00     0.344 HD
ENDBRANCH  15  20
ENDBRANCH   9  14
ENDBRANCH   5   8
ENDBRANCH   3   4
ENDBRANCH   2   3
ENDBRANCH   1   2
BRANCH   1  24
ATOM     24  C   UNL A   1      34.686  32.459  29.063  1.00  0.00     0.116 C 
BRANCH  24  25
ATOM     25  N   UNL A   1      34.037  31.316  28.440  1.00  0.00    -0.352 N 
ATOM     26  C   UNL A   1      34.596  30.140  28.001  1.00  0.00     0.251 C 
ATOM     27  H   UNL A   1      33.064  31.396  28.316  1.00  0.00     0.163 HD
ATOM     28  O   UNL A   1      33.911  29.343  27.362  1.00  0.00    -0.269 OA
BRANCH  26  29
ATOM     29  C   UNL A   1      36.020  29.848  28.276  1.00  0.00     0.039 A 
ATOM     30  C   UNL A   1      36.378  29.327  29.522  1.00  0.00     0.014 A 
ATOM     31  C   UNL A   1      37.000  30.086  27.310  1.00  0.00     0.014 A 
ATOM     32  C   UNL A   1      37.713  29.002  29.779  1.00  0.00     0.010 A 
ATOM     33  C   UNL A   1      38.313  29.681  27.536  1.00  0.00     0.010 A 
ATOM     34  C   UNL A   1      38.689  29.153  28.781  1.00  0.00    -0.014 A 
BRANCH  34  35
ATOM     35  C   UNL A   1      40.114  28.808  29.031  1.00  0.00     0.031 A 
ATOM     36  C   UNL A   1      41.036  29.833  29.639  1.00  0.00     0.074 A 
ATOM     37  C   UNL A   1      40.589  27.600  28.671  1.00  0.00     0.049 A 
ATOM     38  N   UNL A   1      42.318  29.749  29.885  1.00  0.00    -0.248 NA
ATOM     39  C   UNL A   1      40.445  31.135  29.989  1.00  0.00     0.031 C 
ATOM     40  C   UNL A   1      39.809  26.538  28.033  1.00  0.00     0.029 A 
ATOM     41  N   UNL A   1      41.847  27.062  28.785  1.00  0.00    -0.354 N 
ATOM     42  C   UNL A   1      42.686  30.987  30.404  1.00  0.00     0.074 A 
ATOM     43  C   UNL A   1      41.509  31.823  30.373  1.00  0.00     0.031 C 
ATOM     44  C   UNL A   1      40.598  25.467  27.838  1.00  0.00     0.029 A 
ATOM     45  C   UNL A   1      41.947  25.778  28.301  1.00  0.00     0.049 A 
ATOM     46  H   UNL A   1      42.607  27.549  29.177  1.00  0.00     0.167 HD
ATOM     47  C   UNL A   1      43.887  31.381  30.889  1.00  0.00     0.037 A 
ATOM     48  C   UNL A   1      43.006  24.948  28.234  1.00  0.00     0.037 A 
ATOM     49  C   UNL A   1      45.050  30.533  30.940  1.00  0.00     0.049 A 
ATOM     50  C   UNL A   1      44.334  25.408  28.777  1.00  0.00     0.074 A 
ATOM     51  C   UNL A   1      46.303  30.820  31.455  1.00  0.00     0.029 A 
ATOM     52  N   UNL A   1      45.104  29.233  30.459  1.00  0.00    -0.354 N 
ATOM     53  N   UNL A   1      44.650  26.563  29.315  1.00  0.00    -0.248 NA
ATOM     54  C   UNL A   1      45.446  24.451  28.713  1.00  0.00     0.031 C 
ATOM     55  C   UNL A   1      47.128  29.711  31.241  1.00  0.00     0.029 A 
ATOM     56  C   UNL A   1      46.373  28.710  30.650  1.00  0.00     0.049 A 
ATOM     57  H   UNL A   1      44.353  28.752  30.042  1.00  0.00     0.167 HD
ATOM     58  C   UNL A   1      45.985  26.454  29.692  1.00  0.00     0.074 A 
ATOM     59  C   UNL A   1      46.414  25.121  29.324  1.00  0.00     0.031 C 
ATOM     60  C   UNL A   1      46.780  27.373  30.294  1.00  0.00     0.037 A 
BRANCH  47  61
ATOM     61  C   UNL A   1      44.002  32.790  31.410  1.00  0.00     0.058 A 
ATOM     62  C   UNL A   1      44.408  33.851  30.584  1.00  0.00     0.135 A 
ATOM     63  C   UNL A   1      43.676  33.088  32.743  1.00  0.00     0.135 A 
ATOM     64  F   UNL A   1      44.747  33.624  29.306  1.00  0.00    -0.206 F 
ATOM     65  C   UNL A   1      44.522  35.149  31.070  1.00  0.00     0.059 A 
ATOM     66  C   UNL A   1      43.752  34.385  33.241  1.00  0.00     0.059 A 
ATOM     67  F   UNL A   1      43.282  32.113  33.578  1.00  0.00    -0.206 F 
ATOM     68  C   UNL A   1      44.193  35.407  32.402  1.00  0.00     0.060 A 
BRANCH  68  69
ATOM     69  S   UNL A   1      44.347  37.097  33.015  1.00  0.00     0.124 S 
ATOM     70  O   UNL A   1      43.288  37.139  34.019  1.00  0.00    -0.237 OA
ATOM     71  O   UNL A   1      45.712  37.116  33.534  1.00  0.00    -0.237 OA
ATOM     72  O   UNL A   1      44.119  37.912  31.828  1.00  0.00    -0.744 OA
ENDBRANCH  68  69
ENDBRANCH  47  61
BRANCH  48  73
ATOM     73  C   UNL A   1      42.849  23.582  27.663  1.00  0.00     0.058 A 
ATOM     74  C   UNL A   1      43.129  23.327  26.311  1.00  0.00     0.135 A 
ATOM     75  C   UNL A   1      42.421  22.504  28.453  1.00  0.00     0.135 A 
ATOM     76  F   UNL A   1      43.535  24.325  25.512  1.00  0.00    -0.206 F 
ATOM     77  C   UNL A   1      42.969  22.061  25.758  1.00  0.00     0.059 A 
ATOM     78  C   UNL A   1      42.282  21.222  27.930  1.00  0.00     0.059 A 
ATOM     79  F   UNL A   1      42.156  22.688  29.756  1.00  0.00    -0.206 F 
ATOM     80  C   UNL A   1      42.547  21.013  26.577  1.00  0.00     0.060 A 
BRANCH  80  81
ATOM     81  S   UNL A   1      42.384  19.365  25.857  1.00  0.00     0.124 S 
ATOM     82  O   UNL A   1      40.939  19.254  25.698  1.00  0.00    -0.237 OA
ATOM     83  O   UNL A   1      43.156  19.493  24.625  1.00  0.00    -0.237 OA
ATOM     84  O   UNL A   1      42.977  18.497  26.870  1.00  0.00    -0.744 OA
ENDBRANCH  80  81
ENDBRANCH  48  73
BRANCH  60  85
ATOM     85  C   UNL A   1      48.181  26.953  30.652  1.00  0.00     0.058 A 
ATOM     86  C   UNL A   1      49.265  27.153  29.784  1.00  0.00     0.135 A 
ATOM     87  C   UNL A   1      48.445  26.384  31.909  1.00  0.00     0.135 A 
ATOM     88  F   UNL A   1      49.069  27.689  28.569  1.00  0.00    -0.206 F 
ATOM     89  C   UNL A   1      50.558  26.775  30.137  1.00  0.00     0.059 A 
ATOM     90  C   UNL A   1      49.734  26.028  32.295  1.00  0.00     0.059 A 
ATOM     91  F   UNL A   1      47.447  26.181  32.783  1.00  0.00    -0.206 F 
ATOM     92  C   UNL A   1      50.781  26.214  31.396  1.00  0.00     0.060 A 
BRANCH  92  93
ATOM     93  S   UNL A   1      52.466  25.751  31.851  1.00  0.00     0.124 S 
ATOM     94  O   UNL A   1      52.288  24.362  32.262  1.00  0.00    -0.237 OA
ATOM     95  O   UNL A   1      53.194  25.955  30.602  1.00  0.00    -0.237 OA
ATOM     96  O   UNL A   1      52.798  26.685  32.922  1.00  0.00    -0.744 OA
ENDBRANCH  92  93
ENDBRANCH  60  85
ENDBRANCH  34  35
ENDBRANCH  26  29
ENDBRANCH  24  25
ENDBRANCH   1  24
TORSDOF 16
ENDMDL
MODEL 2
REMARK VINA RESULT:     -10.5      4.911      8.010
REMARK SMILES [NH3+][C@H]1CCCC[C@@H]1C(=O)N1CC(C(=O)NCCCCNC(=O)c2ccc(-c3c4nc(c(-c5c(F)cc(S(=O)(=O)[O-])cc5F)c5ccc([nH]5)c(-c5c(F)cc(S(=O)(=O)[O-])cc5F)c5nc(c(-c6c(F)cc(S(=O)(=O)[O-])cc6F)c6ccc3[nH]6)C=C5)C=C4)cc2)C1
REMARK SMILES IDX 18 1 17 2 16 3 15 4 13 5 14 6 12 8 8 9 9 10 10 11 11 12
REMARK SMILES IDX 89 13 7 14 2 15 3 16 4 17 6 18 5 19 1 20 19 24 20 25 21 26
REMARK SMILES IDX 22 28 23 29 24 30 88 31 25 32 87 33 26 34 27 35 28 36 81 37
REMARK SMILES IDX 29 38 86 39 80 40 82 41 30 42 85 43 79 44 78 45 31 47 65 48
REMARK SMILES IDX 44 49 64 50 45 51 48 52 63 53 83 54 46 55 47 56 62 58 84 59
REMARK SMILES IDX 49 60 32 61 33 62 42 63 34 64 35 65 41 66 43 67 36 68 37 69
REMARK SMILES IDX 38 70 39 71 40 72 66 73 67 74 76 75 68 76 69 77 75 78 77 79
REMARK SMILES IDX 70 80 71 81 72 82 73 83 74 84 50 85 51 86 60 87 52 88 53 89
REMARK SMILES IDX 59 90 61 91 54 92 55 93 56 94 57 95 58 96
REMARK H PARENT 15 7 1 21 1 22 1 23 20 27 82 46 48 57
REMARK Flexibility Score: inf
ROOT
ATOM      1  C   UNL A   1      33.052  27.833  25.065  1.00  0.00     0.023 C 
ENDROOT
BRANCH   1   2
ATOM      2  C   UNL A   1      33.455  27.528  23.620  1.00  0.00     0.023 C 
BRANCH   2   3
ATOM      3  C   UNL A   1      32.304  27.086  22.720  1.00  0.00     0.116 C 
BRANCH   3   4
ATOM      4  N   UNL A   1      32.717  26.057  21.785  1.00  0.00    -0.356 N 
ATOM      5  C   UNL A   1      32.958  24.717  21.966  1.00  0.00     0.226 C 
ATOM      6  O   UNL A   1      33.336  24.101  20.956  1.00  0.00    -0.275 OA
ATOM      7  H   UNL A   1      32.848  26.374  20.862  1.00  0.00     0.163 HD
BRANCH   5   8
ATOM      8  C   UNL A   1      32.759  24.004  23.307  1.00  0.00     0.117 C 
ATOM      9  C   UNL A   1      32.470  21.086  24.863  1.00  0.00     0.231 C 
ATOM     10  O   UNL A   1      32.411  21.431  26.043  1.00  0.00    -0.274 OA
ATOM     11  N   UNL A   1      32.589  21.982  23.823  1.00  0.00    -0.341 N 
ATOM     12  C   UNL A   1      33.726  22.912  23.735  1.00  0.00     0.134 C 
ATOM     13  C   UNL A   1      31.608  23.037  23.536  1.00  0.00     0.134 C 
BRANCH   9  14
ATOM     14  C   UNL A   1      32.273  19.633  24.429  1.00  0.00     0.136 C 
ATOM     15  C   UNL A   1      33.179  18.626  25.178  1.00  0.00     0.193 C 
ATOM     16  C   UNL A   1      33.085  17.214  24.587  1.00  0.00     0.066 C 
ATOM     17  C   UNL A   1      33.362  17.219  23.087  1.00  0.00     0.006 C 
ATOM     18  C   UNL A   1      32.489  19.571  22.909  1.00  0.00     0.020 C 
ATOM     19  C   UNL A   1      32.400  18.150  22.363  1.00  0.00     0.001 C 
BRANCH  15  20
ATOM     20  N   UNL A   1      32.861  18.570  26.610  1.00  0.00    -0.354 N 
ATOM     21  H   UNL A   1      32.126  17.880  26.768  1.00  0.00     0.344 HD
ATOM     22  H   UNL A   1      32.541  19.486  26.924  1.00  0.00     0.344 HD
ATOM     23  H   UNL A   1      33.695  18.303  27.134  1.00  0.00     0.344 HD
ENDBRANCH  15  20
ENDBRANCH   9  14
ENDBRANCH   5   8
ENDBRANCH   3   4
ENDBRANCH   2   3
ENDBRANCH   1   2
BRANCH   1  24
ATOM     24  C   UNL A   1      34.128  28.504  25.911  1.00  0.00     0.116 C 
BRANCH  24  25
ATOM     25  N   UNL A   1      33.756  29.842  26.342  1.00  0.00    -0.352 N 
ATOM     26  C   UNL A   1      34.335  30.631  27.306  1.00  0.00     0.251 C 
ATOM     27  H   UNL A   1      32.983  30.238  25.879  1.00  0.00     0.163 HD
ATOM     28  O   UNL A   1      33.791  31.682  27.639  1.00  0.00    -0.269 OA
BRANCH  26  29
ATOM     29  C   UNL A   1      35.593  30.203  27.957  1.00  0.00     0.039 A 
ATOM     30  C   UNL A   1      36.807  30.437  27.307  1.00  0.00     0.014 A 
ATOM     31  C   UNL A   1      35.577  29.574  29.204  1.00  0.00     0.014 A 
ATOM     32  C   UNL A   1      38.007  30.081  27.930  1.00  0.00     0.010 A 
ATOM     33  C   UNL A   1      36.775  29.300  29.861  1.00  0.00     0.010 A 
ATOM     34  C   UNL A   1      38.003  29.532  29.223  1.00  0.00    -0.014 A 
BRANCH  34  35
ATOM     35  C   UNL A   1      39.268  29.150  29.906  1.00  0.00     0.031 A 
ATOM     36  C   UNL A   1      39.703  29.892  31.144  1.00  0.00     0.074 A 
ATOM     37  C   UNL A   1      40.045  28.177  29.392  1.00  0.00     0.049 A 
ATOM     38  N   UNL A   1      40.794  29.751  31.851  1.00  0.00    -0.248 NA
ATOM     39  C   UNL A   1      38.808  30.953  31.633  1.00  0.00     0.031 C 
ATOM     40  C   UNL A   1      39.757  27.416  28.175  1.00  0.00     0.029 A 
ATOM     41  N   UNL A   1      41.242  27.664  29.826  1.00  0.00    -0.354 N 
ATOM     42  C   UNL A   1      40.721  30.710  32.856  1.00  0.00     0.074 A 
ATOM     43  C   UNL A   1      39.514  31.470  32.626  1.00  0.00     0.031 C 
ATOM     44  C   UNL A   1      40.734  26.515  27.977  1.00  0.00     0.029 A 
ATOM     45  C   UNL A   1      41.737  26.660  29.028  1.00  0.00     0.049 A 
ATOM     46  H   UNL A   1      41.704  27.985  30.634  1.00  0.00     0.167 HD
ATOM     47  C   UNL A   1      41.566  30.919  33.893  1.00  0.00     0.037 A 
ATOM     48  C   UNL A   1      42.872  25.939  29.129  1.00  0.00     0.037 A 
ATOM     49  C   UNL A   1      42.754  30.141  34.132  1.00  0.00     0.049 A 
ATOM     50  C   UNL A   1      43.799  26.192  30.289  1.00  0.00     0.074 A 
ATOM     51  C   UNL A   1      43.653  30.242  35.179  1.00  0.00     0.029 A 
ATOM     52  N   UNL A   1      43.209  29.119  33.311  1.00  0.00    -0.354 N 
ATOM     53  N   UNL A   1      43.685  27.066  31.262  1.00  0.00    -0.248 NA
ATOM     54  C   UNL A   1      45.002  25.354  30.372  1.00  0.00     0.031 C 
ATOM     55  C   UNL A   1      44.677  29.314  34.966  1.00  0.00     0.029 A 
ATOM     56  C   UNL A   1      44.384  28.592  33.820  1.00  0.00     0.049 A 
ATOM     57  H   UNL A   1      42.763  28.814  32.488  1.00  0.00     0.167 HD
ATOM     58  C   UNL A   1      44.780  26.854  32.094  1.00  0.00     0.074 A 
ATOM     59  C   UNL A   1      45.540  25.767  31.513  1.00  0.00     0.031 C 
ATOM     60  C   UNL A   1      45.120  27.496  33.238  1.00  0.00     0.037 A 
BRANCH  47  61
ATOM     61  C   UNL A   1      41.231  32.031  34.853  1.00  0.00     0.058 A 
ATOM     62  C   UNL A   1      40.362  31.832  35.939  1.00  0.00     0.135 A 
ATOM     63  C   UNL A   1      41.806  33.303  34.703  1.00  0.00     0.135 A 
ATOM     64  F   UNL A   1      39.770  30.642  36.124  1.00  0.00    -0.206 F 
ATOM     65  C   UNL A   1      40.046  32.863  36.817  1.00  0.00     0.059 A 
ATOM     66  C   UNL A   1      41.529  34.340  35.589  1.00  0.00     0.059 A 
ATOM     67  F   UNL A   1      42.644  33.552  33.683  1.00  0.00    -0.206 F 
ATOM     68  C   UNL A   1      40.635  34.116  36.634  1.00  0.00     0.060 A 
BRANCH  68  69
ATOM     69  S   UNL A   1      40.214  35.441  37.783  1.00  0.00     0.124 S 
ATOM     70  O   UNL A   1      39.875  36.525  36.866  1.00  0.00    -0.237 OA
ATOM     71  O   UNL A   1      39.095  34.867  38.525  1.00  0.00    -0.237 OA
ATOM     72  O   UNL A   1      41.440  35.629  38.550  1.00  0.00    -0.744 OA
ENDBRANCH  68  69
ENDBRANCH  47  61
BRANCH  48  73
ATOM     73  C   UNL A   1      43.179  24.886  28.123  1.00  0.00     0.058 A 
ATOM     74  C   UNL A   1      42.849  23.542  28.360  1.00  0.00     0.135 A 
ATOM     75  C   UNL A   1      43.804  25.197  26.906  1.00  0.00     0.135 A 
ATOM     76  F   UNL A   1      42.257  23.191  29.511  1.00  0.00    -0.206 F 
ATOM     77  C   UNL A   1      43.147  22.543  27.439  1.00  0.00     0.059 A 
ATOM     78  C   UNL A   1      44.085  24.220  25.955  1.00  0.00     0.059 A 
ATOM     79  F   UNL A   1      44.126  26.469  26.621  1.00  0.00    -0.206 F 
ATOM     80  C   UNL A   1      43.763  22.893  26.236  1.00  0.00     0.060 A 
BRANCH  80  81
ATOM     81  S   UNL A   1      44.106  21.594  25.031  1.00  0.00     0.124 S 
ATOM     82  O   UNL A   1      43.043  20.638  25.318  1.00  0.00    -0.237 OA
ATOM     83  O   UNL A   1      43.994  22.314  23.766  1.00  0.00    -0.237 OA
ATOM     84  O   UNL A   1      45.456  21.161  25.378  1.00  0.00    -0.744 OA
ENDBRANCH  80  81
ENDBRANCH  48  73
BRANCH  60  85
ATOM     85  C   UNL A   1      46.337  27.004  33.977  1.00  0.00     0.058 A 
ATOM     86  C   UNL A   1      46.262  25.997  34.951  1.00  0.00     0.135 A 
ATOM     87  C   UNL A   1      47.606  27.519  33.664  1.00  0.00     0.135 A 
ATOM     88  F   UNL A   1      45.073  25.473  35.292  1.00  0.00    -0.206 F 
ATOM     89  C   UNL A   1      47.397  25.540  35.613  1.00  0.00     0.059 A 
ATOM     90  C   UNL A   1      48.758  27.053  34.290  1.00  0.00     0.059 A 
ATOM     91  F   UNL A   1      47.737  28.474  32.730  1.00  0.00    -0.206 F 
ATOM     92  C   UNL A   1      48.643  26.075  35.274  1.00  0.00     0.060 A 
BRANCH  92  93
ATOM     93  S   UNL A   1      50.111  25.455  36.121  1.00  0.00     0.124 S 
ATOM     94  O   UNL A   1      49.636  24.174  36.632  1.00  0.00    -0.237 OA
ATOM     95  O   UNL A   1      51.089  25.385  35.040  1.00  0.00    -0.237 OA
ATOM     96  O   UNL A   1      50.376  26.475  37.132  1.00  0.00    -0.744 OA
ENDBRANCH  92  93
ENDBRANCH  60  85
ENDBRANCH  34  35
ENDBRANCH  26  29
ENDBRANCH  24  25
ENDBRANCH   1  24
TORSDOF 16
ENDMDL
MODEL 3
REMARK VINA RESULT:     -10.5      3.220      6.112
REMARK SMILES [NH3+][C@H]1CCCC[C@@H]1C(=O)N1CC(C(=O)NCCCCNC(=O)c2ccc(-c3c4nc(c(-c5c(F)cc(S(=O)(=O)[O-])cc5F)c5ccc([nH]5)c(-c5c(F)cc(S(=O)(=O)[O-])cc5F)c5nc(c(-c6c(F)cc(S(=O)(=O)[O-])cc6F)c6ccc3[nH]6)C=C5)C=C4)cc2)C1
REMARK SMILES IDX 18 1 17 2 16 3 15 4 13 5 14 6 12 8 8 9 9 10 10 11 11 12
REMARK SMILES IDX 89 13 7 14 2 15 3 16 4 17 6 18 5 19 1 20 19 24 20 25 21 26
REMARK SMILES IDX 22 28 23 29 24 30 88 31 25 32 87 33 26 34 27 35 28 36 81 37
REMARK SMILES IDX 29 38 86 39 80 40 82 41 30 42 85 43 79 44 78 45 31 47 65 48
REMARK SMILES IDX 44 49 64 50 45 51 48 52 63 53 83 54 46 55 47 56 62 58 84 59
REMARK SMILES IDX 49 60 32 61 33 62 42 63 34 64 35 65 41 66 43 67 36 68 37 69
REMARK SMILES IDX 38 70 39 71 40 72 66 73 67 74 76 75 68 76 69 77 75 78 77 79
REMARK SMILES IDX 70 80 71 81 72 82 73 83 74 84 50 85 51 86 60 87 52 88 53 89
REMARK SMILES IDX 59 90 61 91 54 92 55 93 56 94 57 95 58 96
REMARK H PARENT 15 7 1 21 1 22 1 23 20 27 82 46 48 57
REMARK Flexibility Score: inf
ROOT
ATOM      1  C   UNL A   1      32.842  27.240  26.657  1.00  0.00     0.023 C 
ENDROOT
BRANCH   1   2
ATOM      2  C   UNL A   1      31.473  27.781  26.239  1.00  0.00     0.023 C 
BRANCH   2   3
ATOM      3  C   UNL A   1      30.688  26.868  25.300  1.00  0.00     0.116 C 
BRANCH   3   4
ATOM      4  N   UNL A   1      30.289  27.557  24.088  1.00  0.00    -0.356 N 
ATOM      5  C   UNL A   1      30.756  27.462  22.800  1.00  0.00     0.226 C 
ATOM      6  O   UNL A   1      30.218  28.224  21.980  1.00  0.00    -0.275 OA
ATOM      7  H   UNL A   1      29.558  28.204  24.210  1.00  0.00     0.163 HD
BRANCH   5   8
ATOM      8  C   UNL A   1      31.849  26.476  22.377  1.00  0.00     0.117 C 
ATOM      9  C   UNL A   1      34.006  24.156  23.371  1.00  0.00     0.231 C 
ATOM     10  O   UNL A   1      34.485  23.779  22.302  1.00  0.00    -0.274 OA
ATOM     11  N   UNL A   1      33.047  25.142  23.458  1.00  0.00    -0.341 N 
ATOM     12  C   UNL A   1      31.747  25.013  22.780  1.00  0.00     0.134 C 
ATOM     13  C   UNL A   1      33.243  26.518  22.983  1.00  0.00     0.134 C 
BRANCH   9  14
ATOM     14  C   UNL A   1      34.534  23.663  24.718  1.00  0.00     0.136 C 
ATOM     15  C   UNL A   1      35.252  22.295  24.649  1.00  0.00     0.193 C 
ATOM     16  C   UNL A   1      35.601  21.753  26.041  1.00  0.00     0.066 C 
ATOM     17  C   UNL A   1      34.370  21.702  26.941  1.00  0.00     0.006 C 
ATOM     18  C   UNL A   1      33.349  23.634  25.697  1.00  0.00     0.020 C 
ATOM     19  C   UNL A   1      33.732  23.079  27.064  1.00  0.00     0.001 C 
BRANCH  15  20
ATOM     20  N   UNL A   1      36.476  22.364  23.841  1.00  0.00    -0.354 N 
ATOM     21  H   UNL A   1      36.548  23.286  23.412  1.00  0.00     0.344 HD
ATOM     22  H   UNL A   1      36.445  21.651  23.113  1.00  0.00     0.344 HD
ATOM     23  H   UNL A   1      37.288  22.204  24.439  1.00  0.00     0.344 HD
ENDBRANCH  15  20
ENDBRANCH   9  14
ENDBRANCH   5   8
ENDBRANCH   3   4
ENDBRANCH   2   3
ENDBRANCH   1   2
BRANCH   1  24
ATOM     24  C   UNL A   1      34.003  28.214  26.488  1.00  0.00     0.116 C 
BRANCH  24  25
ATOM     25  N   UNL A   1      33.732  29.522  27.064  1.00  0.00    -0.352 N 
ATOM     26  C   UNL A   1      34.536  30.294  27.867  1.00  0.00     0.251 C 
ATOM     27  H   UNL A   1      32.853  29.907  26.849  1.00  0.00     0.163 HD
ATOM     28  O   UNL A   1      34.080  31.314  28.383  1.00  0.00    -0.269 OA
BRANCH  26  29
ATOM     29  C   UNL A   1      35.935  29.887  28.127  1.00  0.00     0.039 A 
ATOM     30  C   UNL A   1      36.887  30.044  27.117  1.00  0.00     0.014 A 
ATOM     31  C   UNL A   1      36.308  29.353  29.363  1.00  0.00     0.014 A 
ATOM     32  C   UNL A   1      38.221  29.708  27.365  1.00  0.00     0.010 A 
ATOM     33  C   UNL A   1      37.650  29.101  29.636  1.00  0.00     0.010 A 
ATOM     34  C   UNL A   1      38.620  29.257  28.633  1.00  0.00    -0.014 A 
BRANCH  34  35
ATOM     35  C   UNL A   1      40.034  28.898  28.920  1.00  0.00     0.031 A 
ATOM     36  C   UNL A   1      40.953  29.917  29.543  1.00  0.00     0.074 A 
ATOM     37  C   UNL A   1      40.504  27.682  28.578  1.00  0.00     0.049 A 
ATOM     38  N   UNL A   1      42.228  29.820  29.819  1.00  0.00    -0.248 NA
ATOM     39  C   UNL A   1      40.369  31.227  29.871  1.00  0.00     0.031 C 
ATOM     40  C   UNL A   1      39.727  26.625  27.927  1.00  0.00     0.029 A 
ATOM     41  N   UNL A   1      41.753  27.131  28.725  1.00  0.00    -0.354 N 
ATOM     42  C   UNL A   1      42.598  31.057  30.339  1.00  0.00     0.074 A 
ATOM     43  C   UNL A   1      41.431  31.906  30.276  1.00  0.00     0.031 C 
ATOM     44  C   UNL A   1      40.508  25.545  27.758  1.00  0.00     0.029 A 
ATOM     45  C   UNL A   1      41.850  25.844  28.250  1.00  0.00     0.049 A 
ATOM     46  H   UNL A   1      42.509  27.612  29.131  1.00  0.00     0.167 HD
ATOM     47  C   UNL A   1      43.792  31.440  30.850  1.00  0.00     0.037 A 
ATOM     48  C   UNL A   1      42.901  25.001  28.213  1.00  0.00     0.037 A 
ATOM     49  C   UNL A   1      44.944  30.581  30.933  1.00  0.00     0.049 A 
ATOM     50  C   UNL A   1      44.221  25.451  28.784  1.00  0.00     0.074 A 
ATOM     51  C   UNL A   1      46.187  30.857  31.475  1.00  0.00     0.029 A 
ATOM     52  N   UNL A   1      44.994  29.277  30.461  1.00  0.00    -0.354 N 
ATOM     53  N   UNL A   1      44.537  26.605  29.323  1.00  0.00    -0.248 NA
ATOM     54  C   UNL A   1      45.323  24.481  28.752  1.00  0.00     0.031 C 
ATOM     55  C   UNL A   1      47.004  29.737  31.288  1.00  0.00     0.029 A 
ATOM     56  C   UNL A   1      46.252  28.741  30.685  1.00  0.00     0.049 A 
ATOM     57  H   UNL A   1      44.247  28.802  30.030  1.00  0.00     0.167 HD
ATOM     58  C   UNL A   1      45.861  26.484  29.732  1.00  0.00     0.074 A 
ATOM     59  C   UNL A   1      46.284  25.144  29.382  1.00  0.00     0.031 C 
ATOM     60  C   UNL A   1      46.653  27.398  30.346  1.00  0.00     0.037 A 
BRANCH  47  61
ATOM     61  C   UNL A   1      43.909  32.851  31.365  1.00  0.00     0.058 A 
ATOM     62  C   UNL A   1      43.734  33.158  32.725  1.00  0.00     0.135 A 
ATOM     63  C   UNL A   1      44.228  33.906  30.495  1.00  0.00     0.135 A 
ATOM     64  F   UNL A   1      43.414  32.193  33.601  1.00  0.00    -0.206 F 
ATOM     65  C   UNL A   1      43.834  34.462  33.196  1.00  0.00     0.059 A 
ATOM     66  C   UNL A   1      44.364  35.214  30.950  1.00  0.00     0.059 A 
ATOM     67  F   UNL A   1      44.406  33.672  29.184  1.00  0.00    -0.206 F 
ATOM     68  C   UNL A   1      44.148  35.485  32.300  1.00  0.00     0.060 A 
BRANCH  68  69
ATOM     69  S   UNL A   1      44.273  37.172  32.929  1.00  0.00     0.124 S 
ATOM     70  O   UNL A   1      44.416  37.934  31.691  1.00  0.00    -0.237 OA
ATOM     71  O   UNL A   1      43.004  37.337  33.631  1.00  0.00    -0.237 OA
ATOM     72  O   UNL A   1      45.458  37.132  33.780  1.00  0.00    -0.744 OA
ENDBRANCH  68  69
ENDBRANCH  47  61
BRANCH  48  73
ATOM     73  C   UNL A   1      42.742  23.634  27.646  1.00  0.00     0.058 A 
ATOM     74  C   UNL A   1      42.439  22.540  28.472  1.00  0.00     0.135 A 
ATOM     75  C   UNL A   1      42.885  23.391  26.271  1.00  0.00     0.135 A 
ATOM     76  F   UNL A   1      42.299  22.717  29.794  1.00  0.00    -0.206 F 
ATOM     77  C   UNL A   1      42.307  21.253  27.960  1.00  0.00     0.059 A 
ATOM     78  C   UNL A   1      42.727  22.118  25.731  1.00  0.00     0.059 A 
ATOM     79  F   UNL A   1      43.157  24.405  25.434  1.00  0.00    -0.206 F 
ATOM     80  C   UNL A   1      42.450  21.053  26.586  1.00  0.00     0.060 A 
BRANCH  80  81
ATOM     81  S   UNL A   1      42.233  19.385  25.929  1.00  0.00     0.124 S 
ATOM     82  O   UNL A   1      40.790  19.337  25.717  1.00  0.00    -0.237 OA
ATOM     83  O   UNL A   1      43.055  19.423  24.724  1.00  0.00    -0.237 OA
ATOM     84  O   UNL A   1      42.743  18.534  27.000  1.00  0.00    -0.744 OA
ENDBRANCH  80  81
ENDBRANCH  48  73
BRANCH  60  85
ATOM     85  C   UNL A   1      48.040  26.964  30.739  1.00  0.00     0.058 A 
ATOM     86  C   UNL A   1      49.156  27.202  29.923  1.00  0.00     0.135 A 
ATOM     87  C   UNL A   1      48.258  26.343  31.981  1.00  0.00     0.135 A 
ATOM     88  F   UNL A   1      49.005  27.789  28.725  1.00  0.00    -0.206 F 
ATOM     89  C   UNL A   1      50.435  26.811  30.308  1.00  0.00     0.059 A 
ATOM     90  C   UNL A   1      49.531  25.973  32.400  1.00  0.00     0.059 A 
ATOM     91  F   UNL A   1      47.227  26.103  32.807  1.00  0.00    -0.206 F 
ATOM     92  C   UNL A   1      50.612  26.197  31.551  1.00  0.00     0.060 A 
BRANCH  92  93
ATOM     93  S   UNL A   1      52.279  25.718  32.050  1.00  0.00     0.124 S 
ATOM     94  O   UNL A   1      52.084  24.320  32.421  1.00  0.00    -0.237 OA
ATOM     95  O   UNL A   1      53.049  25.949  30.831  1.00  0.00    -0.237 OA
ATOM     96  O   UNL A   1      52.579  26.625  33.153  1.00  0.00    -0.744 OA
ENDBRANCH  92  93
ENDBRANCH  60  85
ENDBRANCH  34  35
ENDBRANCH  26  29
ENDBRANCH  24  25
ENDBRANCH   1  24
TORSDOF 16
ENDMDL
