MODEL 1
REMARK VINA RESULT:     -11.5      0.000      0.000
REMARK SMILES C[C@@H](C(=O)NCCCCNC(=O)c1ccc(-c2c3nc(c(-c4c(F)cc(S(=O)(=O)[O-])cc4F)c4ccc([nH]4)c(-c4c(F)cc(S(=O)(=O)[O-])cc4F)c4nc(c(-c5c(F)cc(S(=O)(=O)[O-])cc5F)c5ccc2[nH]5)C=C4)C=C3)cc1)c1ccc(Cc2ccsc2)cc1F
REMARK SMILES IDX 7 1 6 2 5 3 3 4 4 5 2 7 1 8 79 9 80 10 90 11 81 12 89 13
REMARK SMILES IDX 91 14 82 15 83 16 84 17 85 18 88 19 86 20 87 21 8 22 9 23
REMARK SMILES IDX 10 24 11 25 12 27 13 28 14 29 78 30 15 31 77 32 16 33 17 34
REMARK SMILES IDX 18 35 71 36 19 37 76 38 70 39 72 40 20 41 75 42 69 43 68 44
REMARK SMILES IDX 21 46 55 47 34 48 54 49 35 50 38 51 53 52 73 53 36 54 37 55
REMARK SMILES IDX 52 57 74 58 39 59 22 60 23 61 32 62 24 63 25 64 31 65 33 66
REMARK SMILES IDX 26 67 27 68 28 69 29 70 30 71 56 72 57 73 66 74 58 75 59 76
REMARK SMILES IDX 65 77 67 78 60 79 61 80 62 81 63 82 64 83 40 84 41 85 50 86
REMARK SMILES IDX 42 87 43 88 49 89 51 90 44 91 45 92 46 93 47 94 48 95
REMARK H PARENT 5 6 10 26 72 45 38 56
REMARK Flexibility Score: inf
ROOT
ATOM      1  C   UNL A   1      32.587  29.977  27.256  1.00  0.00     0.023 C 
ENDROOT
BRANCH   1   2
ATOM      2  C   UNL A   1      32.132  28.523  27.137  1.00  0.00     0.116 C 
BRANCH   2   3
ATOM      3  N   UNL A   1      31.243  28.310  26.013  1.00  0.00    -0.356 N 
ATOM      4  C   UNL A   1      31.516  28.035  24.702  1.00  0.00     0.227 C 
ATOM      5  O   UNL A   1      30.555  27.690  24.010  1.00  0.00    -0.274 OA
ATOM      6  H   UNL A   1      30.285  28.374  26.230  1.00  0.00     0.163 HD
BRANCH   4   7
ATOM      7  C   UNL A   1      32.966  28.067  24.182  1.00  0.00     0.108 C 
ATOM      8  C   UNL A   1      33.136  28.799  22.849  1.00  0.00     0.023 C 
BRANCH   7   9
ATOM      9  C   UNL A   1      33.597  26.686  24.031  1.00  0.00    -0.000 A 
ATOM     10  C   UNL A   1      33.485  25.992  22.818  1.00  0.00     0.008 A 
ATOM     11  C   UNL A   1      34.217  26.034  25.105  1.00  0.00     0.127 A 
ATOM     12  C   UNL A   1      33.999  24.697  22.688  1.00  0.00     0.004 A 
ATOM     13  C   UNL A   1      34.736  24.746  24.979  1.00  0.00     0.043 A 
ATOM     14  F   UNL A   1      34.287  26.630  26.304  1.00  0.00    -0.207 F 
ATOM     15  C   UNL A   1      34.632  24.057  23.764  1.00  0.00    -0.041 A 
BRANCH  15  16
ATOM     16  C   UNL A   1      35.212  22.673  23.610  1.00  0.00     0.072 C 
BRANCH  16  17
ATOM     17  C   UNL A   1      34.223  21.696  24.183  1.00  0.00    -0.033 A 
ATOM     18  C   UNL A   1      32.816  21.662  23.888  1.00  0.00     0.015 A 
ATOM     19  C   UNL A   1      34.559  20.647  25.022  1.00  0.00     0.068 A 
ATOM     20  C   UNL A   1      32.159  20.625  24.514  1.00  0.00     0.065 A 
ATOM     21  S   UNL A   1      33.221  19.668  25.445  1.00  0.00    -0.152 S 
ENDBRANCH  16  17
ENDBRANCH  15  16
ENDBRANCH   7   9
ENDBRANCH   4   7
ENDBRANCH   2   3
ENDBRANCH   1   2
BRANCH   1  22
ATOM     22  C   UNL A   1      34.067  30.227  26.959  1.00  0.00     0.023 C 
BRANCH  22  23
ATOM     23  C   UNL A   1      35.050  29.683  27.991  1.00  0.00     0.116 C 
BRANCH  23  24
ATOM     24  N   UNL A   1      35.214  30.560  29.140  1.00  0.00    -0.352 N 
ATOM     25  C   UNL A   1      36.317  30.757  29.936  1.00  0.00     0.251 C 
ATOM     26  H   UNL A   1      34.420  31.091  29.381  1.00  0.00     0.163 HD
ATOM     27  O   UNL A   1      36.226  31.452  30.945  1.00  0.00    -0.269 OA
BRANCH  25  28
ATOM     28  C   UNL A   1      37.599  30.100  29.599  1.00  0.00     0.039 A 
ATOM     29  C   UNL A   1      37.999  30.055  28.261  1.00  0.00     0.014 A 
ATOM     30  C   UNL A   1      38.416  29.558  30.596  1.00  0.00     0.014 A 
ATOM     31  C   UNL A   1      39.258  29.546  27.933  1.00  0.00     0.010 A 
ATOM     32  C   UNL A   1      39.696  29.112  30.273  1.00  0.00     0.010 A 
ATOM     33  C   UNL A   1      40.137  29.117  28.941  1.00  0.00    -0.014 A 
BRANCH  33  34
ATOM     34  C   UNL A   1      41.537  28.730  28.625  1.00  0.00     0.031 A 
ATOM     35  C   UNL A   1      42.627  29.766  28.579  1.00  0.00     0.074 A 
ATOM     36  C   UNL A   1      41.809  27.448  28.307  1.00  0.00     0.049 A 
ATOM     37  N   UNL A   1      43.886  29.622  28.255  1.00  0.00    -0.248 NA
ATOM     38  C   UNL A   1      42.250  31.147  28.921  1.00  0.00     0.031 C 
ATOM     39  C   UNL A   1      40.827  26.361  28.263  1.00  0.00     0.029 A 
ATOM     40  N   UNL A   1      42.986  26.840  27.945  1.00  0.00    -0.354 N 
ATOM     41  C   UNL A   1      44.449  30.889  28.342  1.00  0.00     0.074 A 
ATOM     42  C   UNL A   1      43.386  31.798  28.711  1.00  0.00     0.031 C 
ATOM     43  C   UNL A   1      41.443  25.222  27.908  1.00  0.00     0.029 A 
ATOM     44  C   UNL A   1      42.853  25.500  27.660  1.00  0.00     0.049 A 
ATOM     45  H   UNL A   1      43.845  27.319  27.893  1.00  0.00     0.167 HD
ATOM     46  C   UNL A   1      45.739  31.256  28.150  1.00  0.00     0.037 A 
ATOM     47  C   UNL A   1      43.759  24.600  27.230  1.00  0.00     0.037 A 
ATOM     48  C   UNL A   1      46.798  30.340  27.807  1.00  0.00     0.049 A 
ATOM     49  C   UNL A   1      45.183  25.039  27.017  1.00  0.00     0.074 A 
ATOM     50  C   UNL A   1      48.149  30.606  27.666  1.00  0.00     0.029 A 
ATOM     51  N   UNL A   1      46.628  28.989  27.544  1.00  0.00    -0.354 N 
ATOM     52  N   UNL A   1      45.714  26.227  27.187  1.00  0.00    -0.248 NA
ATOM     53  C   UNL A   1      46.133  24.016  26.556  1.00  0.00     0.031 C 
ATOM     54  C   UNL A   1      48.788  29.427  27.269  1.00  0.00     0.029 A 
ATOM     55  C   UNL A   1      47.844  28.415  27.212  1.00  0.00     0.049 A 
ATOM     56  H   UNL A   1      45.770  28.509  27.588  1.00  0.00     0.167 HD
ATOM     57  C   UNL A   1      47.062  26.088  26.875  1.00  0.00     0.074 A 
ATOM     58  C   UNL A   1      47.270  24.697  26.526  1.00  0.00     0.031 C 
ATOM     59  C   UNL A   1      48.038  27.028  26.872  1.00  0.00     0.037 A 
BRANCH  46  60
ATOM     60  C   UNL A   1      46.094  32.708  28.312  1.00  0.00     0.058 A 
ATOM     61  C   UNL A   1      46.525  33.227  29.542  1.00  0.00     0.135 A 
ATOM     62  C   UNL A   1      46.087  33.571  27.204  1.00  0.00     0.135 A 
ATOM     63  F   UNL A   1      46.538  32.450  30.637  1.00  0.00    -0.206 F 
ATOM     64  C   UNL A   1      46.928  34.552  29.672  1.00  0.00     0.059 A 
ATOM     65  C   UNL A   1      46.510  34.894  27.304  1.00  0.00     0.059 A 
ATOM     66  F   UNL A   1      45.681  33.127  26.004  1.00  0.00    -0.206 F 
ATOM     67  C   UNL A   1      46.924  35.376  28.545  1.00  0.00     0.060 A 
BRANCH  67  68
ATOM     68  S   UNL A   1      47.491  37.081  28.722  1.00  0.00     0.124 S 
ATOM     69  O   UNL A   1      47.631  37.192  30.171  1.00  0.00    -0.237 OA
ATOM     70  O   UNL A   1      48.739  37.074  27.965  1.00  0.00    -0.237 OA
ATOM     71  O   UNL A   1      46.409  37.865  28.136  1.00  0.00    -0.744 OA
ENDBRANCH  67  68
ENDBRANCH  46  60
BRANCH  47  72
ATOM     72  C   UNL A   1      43.352  23.194  26.964  1.00  0.00     0.058 A 
ATOM     73  C   UNL A   1      43.092  22.304  28.016  1.00  0.00     0.135 A 
ATOM     74  C   UNL A   1      43.234  22.706  25.653  1.00  0.00     0.135 A 
ATOM     75  F   UNL A   1      43.195  22.720  29.287  1.00  0.00    -0.206 F 
ATOM     76  C   UNL A   1      42.759  20.973  27.781  1.00  0.00     0.059 A 
ATOM     77  C   UNL A   1      42.875  21.387  25.392  1.00  0.00     0.059 A 
ATOM     78  F   UNL A   1      43.455  23.520  24.609  1.00  0.00    -0.206 F 
ATOM     79  C   UNL A   1      42.657  20.524  26.464  1.00  0.00     0.060 A 
BRANCH  79  80
ATOM     80  S   UNL A   1      42.207  18.800  26.168  1.00  0.00     0.124 S 
ATOM     81  O   UNL A   1      42.444  18.206  27.480  1.00  0.00    -0.237 OA
ATOM     82  O   UNL A   1      40.810  18.911  25.761  1.00  0.00    -0.237 OA
ATOM     83  O   UNL A   1      43.128  18.390  25.113  1.00  0.00    -0.744 OA
ENDBRANCH  79  80
ENDBRANCH  47  72
BRANCH  59  84
ATOM     84  C   UNL A   1      49.427  26.582  26.503  1.00  0.00     0.058 A 
ATOM     85  C   UNL A   1      50.275  25.967  27.436  1.00  0.00     0.135 A 
ATOM     86  C   UNL A   1      49.897  26.730  25.187  1.00  0.00     0.135 A 
ATOM     87  F   UNL A   1      49.877  25.808  28.709  1.00  0.00    -0.206 F 
ATOM     88  C   UNL A   1      51.550  25.535  27.085  1.00  0.00     0.059 A 
ATOM     89  C   UNL A   1      51.157  26.280  24.807  1.00  0.00     0.059 A 
ATOM     90  F   UNL A   1      49.122  27.303  24.252  1.00  0.00    -0.206 F 
ATOM     91  C   UNL A   1      51.981  25.694  25.767  1.00  0.00     0.060 A 
BRANCH  91  92
ATOM     92  S   UNL A   1      53.626  25.101  25.319  1.00  0.00     0.124 S 
ATOM     93  O   UNL A   1      54.445  25.666  26.386  1.00  0.00    -0.237 OA
ATOM     94  O   UNL A   1      53.456  23.651  25.350  1.00  0.00    -0.237 OA
ATOM     95  O   UNL A   1      53.844  25.671  23.992  1.00  0.00    -0.744 OA
ENDBRANCH  91  92
ENDBRANCH  59  84
ENDBRANCH  33  34
ENDBRANCH  25  28
ENDBRANCH  23  24
ENDBRANCH  22  23
ENDBRANCH   1  22
TORSDOF 17
ENDMDL
MODEL 2
REMARK VINA RESULT:     -11.2      7.051     13.941
REMARK SMILES C[C@@H](C(=O)NCCCCNC(=O)c1ccc(-c2c3nc(c(-c4c(F)cc(S(=O)(=O)[O-])cc4F)c4ccc([nH]4)c(-c4c(F)cc(S(=O)(=O)[O-])cc4F)c4nc(c(-c5c(F)cc(S(=O)(=O)[O-])cc5F)c5ccc2[nH]5)C=C4)C=C3)cc1)c1ccc(Cc2ccsc2)cc1F
REMARK SMILES IDX 7 1 6 2 5 3 3 4 4 5 2 7 1 8 79 9 80 10 90 11 81 12 89 13
REMARK SMILES IDX 91 14 82 15 83 16 84 17 85 18 88 19 86 20 87 21 8 22 9 23
REMARK SMILES IDX 10 24 11 25 12 27 13 28 14 29 78 30 15 31 77 32 16 33 17 34
REMARK SMILES IDX 18 35 71 36 19 37 76 38 70 39 72 40 20 41 75 42 69 43 68 44
REMARK SMILES IDX 21 46 55 47 34 48 54 49 35 50 38 51 53 52 73 53 36 54 37 55
REMARK SMILES IDX 52 57 74 58 39 59 22 60 23 61 32 62 24 63 25 64 31 65 33 66
REMARK SMILES IDX 26 67 27 68 28 69 29 70 30 71 56 72 57 73 66 74 58 75 59 76
REMARK SMILES IDX 65 77 67 78 60 79 61 80 62 81 63 82 64 83 40 84 41 85 50 86
REMARK SMILES IDX 42 87 43 88 49 89 51 90 44 91 45 92 46 93 47 94 48 95
REMARK H PARENT 5 6 10 26 72 45 38 56
REMARK Flexibility Score: inf
ROOT
ATOM      1  C   UNL A   1      45.731  23.619  27.446  1.00  0.00     0.023 C 
ENDROOT
BRANCH   1   2
ATOM      2  C   UNL A   1      45.889  25.091  27.826  1.00  0.00     0.116 C 
BRANCH   2   3
ATOM      3  N   UNL A   1      47.024  25.319  28.699  1.00  0.00    -0.356 N 
ATOM      4  C   UNL A   1      47.077  25.761  29.992  1.00  0.00     0.227 C 
ATOM      5  O   UNL A   1      48.169  25.655  30.555  1.00  0.00    -0.274 OA
ATOM      6  H   UNL A   1      47.899  25.124  28.294  1.00  0.00     0.163 HD
BRANCH   4   7
ATOM      7  C   UNL A   1      45.803  26.261  30.700  1.00  0.00     0.108 C 
ATOM      8  C   UNL A   1      45.918  27.677  31.266  1.00  0.00     0.023 C 
BRANCH   7   9
ATOM      9  C   UNL A   1      45.331  25.352  31.831  1.00  0.00    -0.000 A 
ATOM     10  C   UNL A   1      45.805  25.551  33.136  1.00  0.00     0.008 A 
ATOM     11  C   UNL A   1      44.497  24.251  31.596  1.00  0.00     0.127 A 
ATOM     12  C   UNL A   1      45.435  24.683  34.169  1.00  0.00     0.004 A 
ATOM     13  C   UNL A   1      44.119  23.387  32.624  1.00  0.00     0.043 A 
ATOM     14  F   UNL A   1      44.074  23.980  30.354  1.00  0.00    -0.207 F 
ATOM     15  C   UNL A   1      44.586  23.590  33.928  1.00  0.00    -0.041 A 
BRANCH  15  16
ATOM     16  C   UNL A   1      44.164  22.676  35.051  1.00  0.00     0.072 C 
BRANCH  16  17
ATOM     17  C   UNL A   1      45.323  21.771  35.364  1.00  0.00    -0.033 A 
ATOM     18  C   UNL A   1      46.153  21.109  34.394  1.00  0.00     0.015 A 
ATOM     19  C   UNL A   1      45.790  21.515  36.643  1.00  0.00     0.068 A 
ATOM     20  C   UNL A   1      47.176  20.384  34.964  1.00  0.00     0.065 A 
ATOM     21  S   UNL A   1      47.169  20.503  36.666  1.00  0.00    -0.152 S 
ENDBRANCH  16  17
ENDBRANCH  15  16
ENDBRANCH   7   9
ENDBRANCH   4   7
ENDBRANCH   2   3
ENDBRANCH   1   2
BRANCH   1  22
ATOM     22  C   UNL A   1      44.306  23.182  27.096  1.00  0.00     0.023 C 
BRANCH  22  23
ATOM     23  C   UNL A   1      43.227  24.246  27.268  1.00  0.00     0.116 C 
BRANCH  23  24
ATOM     24  N   UNL A   1      41.982  23.909  26.593  1.00  0.00    -0.352 N 
ATOM     25  C   UNL A   1      40.730  24.454  26.750  1.00  0.00     0.251 C 
ATOM     26  H   UNL A   1      42.047  23.189  25.925  1.00  0.00     0.163 HD
ATOM     27  O   UNL A   1      39.769  23.951  26.176  1.00  0.00    -0.269 OA
BRANCH  25  28
ATOM     28  C   UNL A   1      40.538  25.619  27.642  1.00  0.00     0.039 A 
ATOM     29  C   UNL A   1      39.497  25.586  28.573  1.00  0.00     0.014 A 
ATOM     30  C   UNL A   1      41.393  26.723  27.581  1.00  0.00     0.014 A 
ATOM     31  C   UNL A   1      39.369  26.622  29.503  1.00  0.00     0.010 A 
ATOM     32  C   UNL A   1      41.303  27.722  28.549  1.00  0.00     0.010 A 
ATOM     33  C   UNL A   1      40.301  27.673  29.530  1.00  0.00    -0.014 A 
BRANCH  33  34
ATOM     34  C   UNL A   1      40.278  28.691  30.614  1.00  0.00     0.031 A 
ATOM     35  C   UNL A   1      41.175  28.554  31.813  1.00  0.00     0.074 A 
ATOM     36  C   UNL A   1      39.389  29.703  30.545  1.00  0.00     0.049 A 
ATOM     37  N   UNL A   1      41.241  29.306  32.882  1.00  0.00    -0.248 NA
ATOM     38  C   UNL A   1      42.105  27.414  31.825  1.00  0.00     0.031 C 
ATOM     39  C   UNL A   1      38.428  29.913  29.459  1.00  0.00     0.029 A 
ATOM     40  N   UNL A   1      39.135  30.739  31.411  1.00  0.00    -0.354 N 
ATOM     41  C   UNL A   1      42.206  28.728  33.696  1.00  0.00     0.074 A 
ATOM     42  C   UNL A   1      42.673  27.539  33.017  1.00  0.00     0.031 C 
ATOM     43  C   UNL A   1      37.700  31.012  29.717  1.00  0.00     0.029 A 
ATOM     44  C   UNL A   1      38.112  31.564  31.004  1.00  0.00     0.049 A 
ATOM     45  H   UNL A   1      39.638  30.876  32.247  1.00  0.00     0.167 HD
ATOM     46  C   UNL A   1      42.673  29.161  34.892  1.00  0.00     0.037 A 
ATOM     47  C   UNL A   1      37.555  32.633  31.604  1.00  0.00     0.037 A 
ATOM     48  C   UNL A   1      42.222  30.360  35.551  1.00  0.00     0.049 A 
ATOM     49  C   UNL A   1      38.089  33.086  32.936  1.00  0.00     0.074 A 
ATOM     50  C   UNL A   1      42.688  30.920  36.727  1.00  0.00     0.029 A 
ATOM     51  N   UNL A   1      41.197  31.179  35.099  1.00  0.00    -0.354 N 
ATOM     52  N   UNL A   1      39.062  32.573  33.652  1.00  0.00    -0.248 NA
ATOM     53  C   UNL A   1      37.452  34.263  33.544  1.00  0.00     0.031 C 
ATOM     54  C   UNL A   1      41.914  32.049  37.013  1.00  0.00     0.029 A 
ATOM     55  C   UNL A   1      40.997  32.221  35.988  1.00  0.00     0.049 A 
ATOM     56  H   UNL A   1      40.688  31.039  34.268  1.00  0.00     0.167 HD
ATOM     57  C   UNL A   1      39.168  33.378  34.781  1.00  0.00     0.074 A 
ATOM     58  C   UNL A   1      38.174  34.423  34.644  1.00  0.00     0.031 C 
ATOM     59  C   UNL A   1      40.008  33.259  35.838  1.00  0.00     0.037 A 
BRANCH  46  60
ATOM     60  C   UNL A   1      43.737  28.345  35.574  1.00  0.00     0.058 A 
ATOM     61  C   UNL A   1      45.101  28.568  35.334  1.00  0.00     0.135 A 
ATOM     62  C   UNL A   1      43.389  27.390  36.543  1.00  0.00     0.135 A 
ATOM     63  F   UNL A   1      45.489  29.459  34.408  1.00  0.00    -0.206 F 
ATOM     64  C   UNL A   1      46.084  27.866  36.024  1.00  0.00     0.059 A 
ATOM     65  C   UNL A   1      44.356  26.694  37.264  1.00  0.00     0.059 A 
ATOM     66  F   UNL A   1      42.098  27.136  36.810  1.00  0.00    -0.206 F 
ATOM     67  C   UNL A   1      45.702  26.936  36.993  1.00  0.00     0.060 A 
BRANCH  67  68
ATOM     68  S   UNL A   1      46.993  26.067  37.910  1.00  0.00     0.124 S 
ATOM     69  O   UNL A   1      48.181  26.825  37.529  1.00  0.00    -0.237 OA
ATOM     70  O   UNL A   1      46.554  26.229  39.292  1.00  0.00    -0.237 OA
ATOM     71  O   UNL A   1      46.924  24.706  37.388  1.00  0.00    -0.744 OA
ENDBRANCH  67  68
ENDBRANCH  46  60
BRANCH  47  72
ATOM     72  C   UNL A   1      36.423  33.351  30.959  1.00  0.00     0.058 A 
ATOM     73  C   UNL A   1      36.633  34.191  29.854  1.00  0.00     0.135 A 
ATOM     74  C   UNL A   1      35.112  33.229  31.445  1.00  0.00     0.135 A 
ATOM     75  F   UNL A   1      37.868  34.346  29.355  1.00  0.00    -0.206 F 
ATOM     76  C   UNL A   1      35.590  34.907  29.274  1.00  0.00     0.059 A 
ATOM     77  C   UNL A   1      34.048  33.912  30.863  1.00  0.00     0.059 A 
ATOM     78  F   UNL A   1      34.852  32.425  32.488  1.00  0.00    -0.206 F 
ATOM     79  C   UNL A   1      34.301  34.762  29.788  1.00  0.00     0.060 A 
BRANCH  79  80
ATOM     80  S   UNL A   1      32.951  35.681  29.016  1.00  0.00     0.124 S 
ATOM     81  O   UNL A   1      32.361  34.664  28.152  1.00  0.00    -0.237 OA
ATOM     82  O   UNL A   1      32.152  36.082  30.168  1.00  0.00    -0.237 OA
ATOM     83  O   UNL A   1      33.639  36.772  28.330  1.00  0.00    -0.744 OA
ENDBRANCH  79  80
ENDBRANCH  47  72
BRANCH  59  84
ATOM     84  C   UNL A   1      39.907  34.297  36.922  1.00  0.00     0.058 A 
ATOM     85  C   UNL A   1      40.504  35.560  36.789  1.00  0.00     0.135 A 
ATOM     86  C   UNL A   1      39.165  34.042  38.087  1.00  0.00     0.135 A 
ATOM     87  F   UNL A   1      41.231  35.853  35.699  1.00  0.00    -0.206 F 
ATOM     88  C   UNL A   1      40.390  36.525  37.784  1.00  0.00     0.059 A 
ATOM     89  C   UNL A   1      39.013  35.003  39.082  1.00  0.00     0.059 A 
ATOM     90  F   UNL A   1      38.565  32.853  38.260  1.00  0.00    -0.206 F 
ATOM     91  C   UNL A   1      39.640  36.238  38.926  1.00  0.00     0.060 A 
BRANCH  91  92
ATOM     92  S   UNL A   1      39.474  37.512  40.194  1.00  0.00     0.124 S 
ATOM     93  O   UNL A   1      38.873  36.761  41.290  1.00  0.00    -0.237 OA
ATOM     94  O   UNL A   1      40.856  37.935  40.397  1.00  0.00    -0.237 OA
ATOM     95  O   UNL A   1      38.608  38.506  39.566  1.00  0.00    -0.744 OA
ENDBRANCH  91  92
ENDBRANCH  59  84
ENDBRANCH  33  34
ENDBRANCH  25  28
ENDBRANCH  23  24
ENDBRANCH  22  23
ENDBRANCH   1  22
TORSDOF 17
ENDMDL
MODEL 3
REMARK VINA RESULT:     -11.2      4.979     11.963
REMARK SMILES C[C@@H](C(=O)NCCCCNC(=O)c1ccc(-c2c3nc(c(-c4c(F)cc(S(=O)(=O)[O-])cc4F)c4ccc([nH]4)c(-c4c(F)cc(S(=O)(=O)[O-])cc4F)c4nc(c(-c5c(F)cc(S(=O)(=O)[O-])cc5F)c5ccc2[nH]5)C=C4)C=C3)cc1)c1ccc(Cc2ccsc2)cc1F
REMARK SMILES IDX 7 1 6 2 5 3 3 4 4 5 2 7 1 8 79 9 80 10 90 11 81 12 89 13
REMARK SMILES IDX 91 14 82 15 83 16 84 17 85 18 88 19 86 20 87 21 8 22 9 23
REMARK SMILES IDX 10 24 11 25 12 27 13 28 14 29 78 30 15 31 77 32 16 33 17 34
REMARK SMILES IDX 18 35 71 36 19 37 76 38 70 39 72 40 20 41 75 42 69 43 68 44
REMARK SMILES IDX 21 46 55 47 34 48 54 49 35 50 38 51 53 52 73 53 36 54 37 55
REMARK SMILES IDX 52 57 74 58 39 59 22 60 23 61 32 62 24 63 25 64 31 65 33 66
REMARK SMILES IDX 26 67 27 68 28 69 29 70 30 71 56 72 57 73 66 74 58 75 59 76
REMARK SMILES IDX 65 77 67 78 60 79 61 80 62 81 63 82 64 83 40 84 41 85 50 86
REMARK SMILES IDX 42 87 43 88 49 89 51 90 44 91 45 92 46 93 47 94 48 95
REMARK H PARENT 5 6 10 26 72 45 38 56
REMARK Flexibility Score: inf
ROOT
ATOM      1  C   UNL A   1      43.223  23.380  25.366  1.00  0.00     0.023 C 
ENDROOT
BRANCH   1   2
ATOM      2  C   UNL A   1      43.519  24.298  26.552  1.00  0.00     0.116 C 
BRANCH   2   3
ATOM      3  N   UNL A   1      44.924  24.310  26.907  1.00  0.00    -0.356 N 
ATOM      4  C   UNL A   1      45.917  25.190  26.578  1.00  0.00     0.227 C 
ATOM      5  O   UNL A   1      46.975  25.068  27.200  1.00  0.00    -0.274 OA
ATOM      6  H   UNL A   1      45.209  23.561  27.478  1.00  0.00     0.163 HD
BRANCH   4   7
ATOM      7  C   UNL A   1      45.658  26.317  25.559  1.00  0.00     0.108 C 
ATOM      8  C   UNL A   1      46.882  26.697  24.724  1.00  0.00     0.023 C 
BRANCH   7   9
ATOM      9  C   UNL A   1      45.113  27.598  26.184  1.00  0.00    -0.000 A 
ATOM     10  C   UNL A   1      45.902  28.332  27.081  1.00  0.00     0.008 A 
ATOM     11  C   UNL A   1      43.798  28.028  25.961  1.00  0.00     0.127 A 
ATOM     12  C   UNL A   1      45.389  29.470  27.713  1.00  0.00     0.004 A 
ATOM     13  C   UNL A   1      43.285  29.165  26.583  1.00  0.00     0.043 A 
ATOM     14  F   UNL A   1      42.984  27.321  25.165  1.00  0.00    -0.207 F 
ATOM     15  C   UNL A   1      44.076  29.904  27.473  1.00  0.00    -0.041 A 
BRANCH  15  16
ATOM     16  C   UNL A   1      43.538  31.149  28.133  1.00  0.00     0.072 C 
BRANCH  16  17
ATOM     17  C   UNL A   1      44.255  32.328  27.539  1.00  0.00    -0.033 A 
ATOM     18  C   UNL A   1      44.316  32.650  26.138  1.00  0.00     0.015 A 
ATOM     19  C   UNL A   1      44.896  33.307  28.280  1.00  0.00     0.068 A 
ATOM     20  C   UNL A   1      44.996  33.820  25.883  1.00  0.00     0.065 A 
ATOM     21  S   UNL A   1      45.555  34.558  27.317  1.00  0.00    -0.152 S 
ENDBRANCH  16  17
ENDBRANCH  15  16
ENDBRANCH   7   9
ENDBRANCH   4   7
ENDBRANCH   2   3
ENDBRANCH   1   2
BRANCH   1  22
ATOM     22  C   UNL A   1      42.624  22.018  25.725  1.00  0.00     0.023 C 
BRANCH  22  23
ATOM     23  C   UNL A   1      41.506  22.039  26.762  1.00  0.00     0.116 C 
BRANCH  23  24
ATOM     24  N   UNL A   1      40.177  22.008  26.168  1.00  0.00    -0.352 N 
ATOM     25  C   UNL A   1      39.178  22.950  26.218  1.00  0.00     0.251 C 
ATOM     26  H   UNL A   1      39.965  21.195  25.656  1.00  0.00     0.163 HD
ATOM     27  O   UNL A   1      38.070  22.690  25.755  1.00  0.00    -0.269 OA
BRANCH  25  28
ATOM     28  C   UNL A   1      39.426  24.258  26.863  1.00  0.00     0.039 A 
ATOM     29  C   UNL A   1      39.005  24.447  28.181  1.00  0.00     0.014 A 
ATOM     30  C   UNL A   1      40.095  25.281  26.185  1.00  0.00     0.014 A 
ATOM     31  C   UNL A   1      39.333  25.631  28.849  1.00  0.00     0.010 A 
ATOM     32  C   UNL A   1      40.477  26.432  26.872  1.00  0.00     0.010 A 
ATOM     33  C   UNL A   1      40.115  26.611  28.216  1.00  0.00    -0.014 A 
BRANCH  33  34
ATOM     34  C   UNL A   1      40.612  27.797  28.963  1.00  0.00     0.031 A 
ATOM     35  C   UNL A   1      41.969  27.781  29.609  1.00  0.00     0.074 A 
ATOM     36  C   UNL A   1      39.801  28.864  29.117  1.00  0.00     0.049 A 
ATOM     37  N   UNL A   1      42.537  28.695  30.355  1.00  0.00    -0.248 NA
ATOM     38  C   UNL A   1      42.790  26.576  29.411  1.00  0.00     0.031 C 
ATOM     39  C   UNL A   1      38.440  28.976  28.584  1.00  0.00     0.029 A 
ATOM     40  N   UNL A   1      39.992  30.051  29.781  1.00  0.00    -0.354 N 
ATOM     41  C   UNL A   1      43.770  28.174  30.724  1.00  0.00     0.074 A 
ATOM     42  C   UNL A   1      43.855  26.847  30.154  1.00  0.00     0.031 C 
ATOM     43  C   UNL A   1      37.927  30.168  28.929  1.00  0.00     0.029 A 
ATOM     44  C   UNL A   1      38.901  30.889  29.741  1.00  0.00     0.049 A 
ATOM     45  H   UNL A   1      40.830  30.280  30.242  1.00  0.00     0.167 HD
ATOM     46  C   UNL A   1      44.750  28.757  31.456  1.00  0.00     0.037 A 
ATOM     47  C   UNL A   1      38.699  32.094  30.309  1.00  0.00     0.037 A 
ATOM     48  C   UNL A   1      44.669  30.089  31.999  1.00  0.00     0.049 A 
ATOM     49  C   UNL A   1      39.802  32.714  31.124  1.00  0.00     0.074 A 
ATOM     50  C   UNL A   1      45.639  30.794  32.689  1.00  0.00     0.029 A 
ATOM     51  N   UNL A   1      43.555  30.914  31.924  1.00  0.00    -0.354 N 
ATOM     52  N   UNL A   1      40.996  32.239  31.391  1.00  0.00    -0.248 NA
ATOM     53  C   UNL A   1      39.534  34.033  31.713  1.00  0.00     0.031 C 
ATOM     54  C   UNL A   1      45.097  32.025  33.075  1.00  0.00     0.029 A 
ATOM     55  C   UNL A   1      43.806  32.107  32.581  1.00  0.00     0.049 A 
ATOM     56  H   UNL A   1      42.713  30.684  31.470  1.00  0.00     0.167 HD
ATOM     57  C   UNL A   1      41.627  33.211  32.160  1.00  0.00     0.074 A 
ATOM     58  C   UNL A   1      40.692  34.308  32.298  1.00  0.00     0.031 C 
ATOM     59  C   UNL A   1      42.867  33.194  32.707  1.00  0.00     0.037 A 
BRANCH  46  60
ATOM     60  C   UNL A   1      46.006  27.971  31.712  1.00  0.00     0.058 A 
ATOM     61  C   UNL A   1      46.029  26.894  32.611  1.00  0.00     0.135 A 
ATOM     62  C   UNL A   1      47.177  28.243  30.986  1.00  0.00     0.135 A 
ATOM     63  F   UNL A   1      44.941  26.599  33.342  1.00  0.00    -0.206 F 
ATOM     64  C   UNL A   1      47.170  26.119  32.789  1.00  0.00     0.059 A 
ATOM     65  C   UNL A   1      48.323  27.465  31.128  1.00  0.00     0.059 A 
ATOM     66  F   UNL A   1      47.210  29.264  30.115  1.00  0.00    -0.206 F 
ATOM     67  C   UNL A   1      48.311  26.408  32.037  1.00  0.00     0.060 A 
BRANCH  67  68
ATOM     68  S   UNL A   1      49.769  25.364  32.249  1.00  0.00     0.124 S 
ATOM     69  O   UNL A   1      49.305  24.416  33.257  1.00  0.00    -0.237 OA
ATOM     70  O   UNL A   1      49.958  24.819  30.907  1.00  0.00    -0.237 OA
ATOM     71  O   UNL A   1      50.797  26.299  32.694  1.00  0.00    -0.744 OA
ENDBRANCH  67  68
ENDBRANCH  46  60
BRANCH  47  72
ATOM     72  C   UNL A   1      37.399  32.797  30.136  1.00  0.00     0.058 A 
ATOM     73  C   UNL A   1      36.318  32.542  30.994  1.00  0.00     0.135 A 
ATOM     74  C   UNL A   1      37.203  33.722  29.098  1.00  0.00     0.135 A 
ATOM     75  F   UNL A   1      36.452  31.663  31.998  1.00  0.00    -0.206 F 
ATOM     76  C   UNL A   1      35.082  33.155  30.812  1.00  0.00     0.059 A 
ATOM     77  C   UNL A   1      35.986  34.369  28.913  1.00  0.00     0.059 A 
ATOM     78  F   UNL A   1      38.210  34.016  28.260  1.00  0.00    -0.206 F 
ATOM     79  C   UNL A   1      34.926  34.066  29.765  1.00  0.00     0.060 A 
BRANCH  79  80
ATOM     80  S   UNL A   1      33.323  34.870  29.549  1.00  0.00     0.124 S 
ATOM     81  O   UNL A   1      32.841  34.937  30.924  1.00  0.00    -0.237 OA
ATOM     82  O   UNL A   1      33.697  36.142  28.940  1.00  0.00    -0.237 OA
ATOM     83  O   UNL A   1      32.604  33.951  28.671  1.00  0.00    -0.744 OA
ENDBRANCH  79  80
ENDBRANCH  47  72
BRANCH  59  84
ATOM     84  C   UNL A   1      43.296  34.407  33.487  1.00  0.00     0.058 A 
ATOM     85  C   UNL A   1      43.998  35.460  32.881  1.00  0.00     0.135 A 
ATOM     86  C   UNL A   1      42.960  34.537  34.844  1.00  0.00     0.135 A 
ATOM     87  F   UNL A   1      44.351  35.383  31.589  1.00  0.00    -0.206 F 
ATOM     88  C   UNL A   1      44.373  36.590  33.600  1.00  0.00     0.059 A 
ATOM     89  C   UNL A   1      43.299  35.671  35.575  1.00  0.00     0.059 A 
ATOM     90  F   UNL A   1      42.280  33.563  35.470  1.00  0.00    -0.206 F 
ATOM     91  C   UNL A   1      44.017  36.688  34.947  1.00  0.00     0.060 A 
BRANCH  91  92
ATOM     92  S   UNL A   1      44.483  38.174  35.859  1.00  0.00     0.124 S 
ATOM     93  O   UNL A   1      45.939  38.111  35.801  1.00  0.00    -0.237 OA
ATOM     94  O   UNL A   1      43.862  39.234  35.069  1.00  0.00    -0.237 OA
ATOM     95  O   UNL A   1      43.897  37.961  37.179  1.00  0.00    -0.744 OA
ENDBRANCH  91  92
ENDBRANCH  59  84
ENDBRANCH  33  34
ENDBRANCH  25  28
ENDBRANCH  23  24
ENDBRANCH  22  23
ENDBRANCH   1  22
TORSDOF 17
ENDMDL
