MODEL 1
REMARK VINA RESULT:     -11.3      0.000      0.000
REMARK SMILES C[N@@H+]1CCC[C@H](NC(=O)N[C@@](C)(C(=O)NCCCCNC(=O)c2ccc(-c3c4nc(c(-c5c(F)cc(S(=O)(=O)[O-])cc5F)c5ccc([nH]5)c(-c5c(F)cc(S(=O)(=O)[O-])cc5F)c5nc(c(-c6c(F)cc(S(=O)(=O)[O-])cc6F)c6ccc3[nH]6)C=C5)C=C4)cc2)C(F)(F)F)C1
REMARK SMILES IDX 18 1 17 2 16 3 15 4 13 5 14 6 11 8 12 9 10 10 7 11 8 12 9 14
REMARK SMILES IDX 6 16 1 17 2 18 3 19 93 20 4 22 5 23 89 24 90 25 91 26 92 27
REMARK SMILES IDX 19 28 20 29 21 30 22 32 23 33 24 34 88 35 25 36 87 37 26 38
REMARK SMILES IDX 27 39 28 40 81 41 29 42 86 43 80 44 82 45 30 46 85 47 79 48
REMARK SMILES IDX 78 49 31 51 65 52 44 53 64 54 45 55 48 56 63 57 83 58 46 59
REMARK SMILES IDX 47 60 62 62 84 63 49 64 32 65 33 66 42 67 34 68 35 69 41 70
REMARK SMILES IDX 43 71 36 72 37 73 38 74 39 75 40 76 66 77 67 78 76 79 68 80
REMARK SMILES IDX 69 81 75 82 77 83 70 84 71 85 72 86 73 87 74 88 50 89 51 90
REMARK SMILES IDX 60 91 52 92 53 93 59 94 61 95 54 96 55 97 56 98 57 99 58 100
REMARK H PARENT 15 7 7 13 10 15 2 21 20 31 82 50 48 61
REMARK Flexibility Score: inf
ROOT
ATOM      1  C   UNL A   1      33.982  28.396  25.747  1.00  0.00     0.023 C 
ENDROOT
BRANCH   1   2
ATOM      2  C   UNL A   1      33.195  29.318  24.818  1.00  0.00     0.023 C 
BRANCH   2   3
ATOM      3  C   UNL A   1      31.707  29.011  24.706  1.00  0.00     0.116 C 
BRANCH   3   4
ATOM      4  N   UNL A   1      31.349  28.531  23.386  1.00  0.00    -0.354 N 
ATOM      5  C   UNL A   1      31.321  27.299  22.808  1.00  0.00     0.255 C 
ATOM      6  O   UNL A   1      30.868  27.295  21.660  1.00  0.00    -0.272 OA
ATOM      7  H   UNL A   1      31.065  29.251  22.777  1.00  0.00     0.163 HD
BRANCH   5   8
ATOM      8  C   UNL A   1      31.882  26.034  23.488  1.00  0.00     0.213 C 
ATOM      9  C   UNL A   1      31.288  24.726  22.913  1.00  0.00     0.056 C 
BRANCH   8  10
ATOM     10  N   UNL A   1      31.415  26.136  24.933  1.00  0.00    -0.316 N 
ATOM     11  N   UNL A   1      31.358  24.210  26.320  1.00  0.00    -0.330 N 
ATOM     12  C   UNL A   1      30.988  25.444  25.986  1.00  0.00     0.316 C 
ATOM     13  H   UNL A   1      30.801  23.774  27.005  1.00  0.00     0.165 HD
ATOM     14  O   UNL A   1      30.233  26.041  26.760  1.00  0.00    -0.249 OA
ATOM     15  H   UNL A   1      31.437  27.086  25.189  1.00  0.00     0.166 HD
BRANCH  11  16
ATOM     16  C   UNL A   1      32.453  23.425  25.825  1.00  0.00     0.139 C 
ATOM     17  C   UNL A   1      32.656  20.082  24.187  1.00  0.00     0.332 C 
ATOM     18  N   UNL A   1      33.074  21.359  24.736  1.00  0.00    -0.336 N 
ATOM     19  C   UNL A   1      34.378  21.318  25.404  1.00  0.00     0.262 C 
ATOM     20  C   UNL A   1      32.051  21.964  25.585  1.00  0.00     0.287 C 
ATOM     21  H   UNL A   1      33.197  21.965  23.926  1.00  0.00     0.347 HD
ATOM     22  C   UNL A   1      34.819  22.706  25.912  1.00  0.00     0.064 C 
ATOM     23  C   UNL A   1      33.715  23.440  26.689  1.00  0.00     0.037 C 
ENDBRANCH  11  16
ENDBRANCH   8  10
BRANCH   8  24
ATOM     24  C   UNL A   1      33.366  25.973  23.038  1.00  0.00     0.420 C 
ATOM     25  F   UNL A   1      33.873  27.093  22.501  1.00  0.00    -0.168 F 
ATOM     26  F   UNL A   1      34.155  25.594  24.074  1.00  0.00    -0.168 F 
ATOM     27  F   UNL A   1      33.534  25.000  22.096  1.00  0.00    -0.168 F 
ENDBRANCH   8  24
ENDBRANCH   5   8
ENDBRANCH   3   4
ENDBRANCH   2   3
ENDBRANCH   1   2
BRANCH   1  28
ATOM     28  C   UNL A   1      33.645  28.524  27.226  1.00  0.00     0.116 C 
BRANCH  28  29
ATOM     29  N   UNL A   1      33.538  29.907  27.664  1.00  0.00    -0.352 N 
ATOM     30  C   UNL A   1      34.488  30.684  28.281  1.00  0.00     0.251 C 
ATOM     31  H   UNL A   1      32.671  30.344  27.495  1.00  0.00     0.163 HD
ATOM     32  O   UNL A   1      34.198  31.799  28.704  1.00  0.00    -0.269 OA
BRANCH  30  33
ATOM     33  C   UNL A   1      35.848  30.140  28.455  1.00  0.00     0.039 A 
ATOM     34  C   UNL A   1      36.748  30.207  27.391  1.00  0.00     0.014 A 
ATOM     35  C   UNL A   1      36.244  29.627  29.693  1.00  0.00     0.014 A 
ATOM     36  C   UNL A   1      38.073  29.818  27.588  1.00  0.00     0.010 A 
ATOM     37  C   UNL A   1      37.580  29.316  29.908  1.00  0.00     0.010 A 
ATOM     38  C   UNL A   1      38.507  29.403  28.857  1.00  0.00    -0.014 A 
BRANCH  38  39
ATOM     39  C   UNL A   1      39.920  29.023  29.114  1.00  0.00     0.031 A 
ATOM     40  C   UNL A   1      40.871  30.053  29.659  1.00  0.00     0.074 A 
ATOM     41  C   UNL A   1      40.362  27.794  28.781  1.00  0.00     0.049 A 
ATOM     42  N   UNL A   1      42.165  29.977  29.824  1.00  0.00    -0.248 NA
ATOM     43  C   UNL A   1      40.292  31.353  30.036  1.00  0.00     0.031 C 
ATOM     44  C   UNL A   1      39.543  26.723  28.208  1.00  0.00     0.029 A 
ATOM     45  N   UNL A   1      41.617  27.245  28.857  1.00  0.00    -0.354 N 
ATOM     46  C   UNL A   1      42.557  31.225  30.297  1.00  0.00     0.074 A 
ATOM     47  C   UNL A   1      41.373  32.054  30.343  1.00  0.00     0.031 C 
ATOM     48  C   UNL A   1      40.313  25.643  27.999  1.00  0.00     0.029 A 
ATOM     49  C   UNL A   1      41.687  25.956  28.381  1.00  0.00     0.049 A 
ATOM     50  H   UNL A   1      42.395  27.728  29.219  1.00  0.00     0.167 HD
ATOM     51  C   UNL A   1      43.790  31.635  30.679  1.00  0.00     0.037 A 
ATOM     52  C   UNL A   1      42.742  25.127  28.255  1.00  0.00     0.037 A 
ATOM     53  C   UNL A   1      44.954  30.790  30.666  1.00  0.00     0.049 A 
ATOM     54  C   UNL A   1      44.103  25.602  28.696  1.00  0.00     0.074 A 
ATOM     55  C   UNL A   1      46.239  31.092  31.082  1.00  0.00     0.029 A 
ATOM     56  N   UNL A   1      44.973  29.477  30.220  1.00  0.00    -0.354 N 
ATOM     57  N   UNL A   1      44.448  26.770  29.184  1.00  0.00    -0.248 NA
ATOM     58  C   UNL A   1      45.215  24.648  28.574  1.00  0.00     0.031 C 
ATOM     59  C   UNL A   1      47.044  29.971  30.854  1.00  0.00     0.029 A 
ATOM     60  C   UNL A   1      46.250  28.956  30.341  1.00  0.00     0.049 A 
ATOM     61  H   UNL A   1      44.195  28.987  29.868  1.00  0.00     0.167 HD
ATOM     62  C   UNL A   1      45.807  26.677  29.466  1.00  0.00     0.074 A 
ATOM     63  C   UNL A   1      46.221  25.341  29.092  1.00  0.00     0.031 C 
ATOM     64  C   UNL A   1      46.635  27.612  29.992  1.00  0.00     0.037 A 
BRANCH  51  65
ATOM     65  C   UNL A   1      43.937  33.055  31.150  1.00  0.00     0.058 A 
ATOM     66  C   UNL A   1      43.730  33.411  32.493  1.00  0.00     0.135 A 
ATOM     67  C   UNL A   1      44.314  34.068  30.255  1.00  0.00     0.135 A 
ATOM     68  F   UNL A   1      43.351  32.485  33.388  1.00  0.00    -0.206 F 
ATOM     69  C   UNL A   1      43.862  34.727  32.925  1.00  0.00     0.059 A 
ATOM     70  C   UNL A   1      44.481  35.386  30.671  1.00  0.00     0.059 A 
ATOM     71  F   UNL A   1      44.523  33.783  28.960  1.00  0.00    -0.206 F 
ATOM     72  C   UNL A   1      44.237  35.708  32.005  1.00  0.00     0.060 A 
BRANCH  72  73
ATOM     73  S   UNL A   1      44.406  37.409  32.583  1.00  0.00     0.124 S 
ATOM     74  O   UNL A   1      43.543  37.402  33.761  1.00  0.00    -0.237 OA
ATOM     75  O   UNL A   1      45.838  37.508  32.848  1.00  0.00    -0.237 OA
ATOM     76  O   UNL A   1      43.923  38.200  31.456  1.00  0.00    -0.744 OA
ENDBRANCH  72  73
ENDBRANCH  51  65
BRANCH  52  77
ATOM     77  C   UNL A   1      42.553  23.756  27.710  1.00  0.00     0.058 A 
ATOM     78  C   UNL A   1      42.459  22.648  28.566  1.00  0.00     0.135 A 
ATOM     79  C   UNL A   1      42.451  23.525  26.329  1.00  0.00     0.135 A 
ATOM     80  F   UNL A   1      42.555  22.817  29.893  1.00  0.00    -0.206 F 
ATOM     81  C   UNL A   1      42.291  21.358  28.073  1.00  0.00     0.059 A 
ATOM     82  C   UNL A   1      42.258  22.247  25.814  1.00  0.00     0.059 A 
ATOM     83  F   UNL A   1      42.516  24.552  25.469  1.00  0.00    -0.206 F 
ATOM     84  C   UNL A   1      42.190  21.167  26.695  1.00  0.00     0.060 A 
BRANCH  84  85
ATOM     85  S   UNL A   1      41.929  19.493  26.068  1.00  0.00     0.124 S 
ATOM     86  O   UNL A   1      42.346  18.686  27.210  1.00  0.00    -0.237 OA
ATOM     87  O   UNL A   1      40.499  19.495  25.775  1.00  0.00    -0.237 OA
ATOM     88  O   UNL A   1      42.801  19.433  24.899  1.00  0.00    -0.744 OA
ENDBRANCH  84  85
ENDBRANCH  52  77
BRANCH  64  89
ATOM     89  C   UNL A   1      48.060  27.216  30.260  1.00  0.00     0.058 A 
ATOM     90  C   UNL A   1      49.081  27.451  29.328  1.00  0.00     0.135 A 
ATOM     91  C   UNL A   1      48.417  26.679  31.507  1.00  0.00     0.135 A 
ATOM     92  F   UNL A   1      48.791  27.956  28.118  1.00  0.00    -0.206 F 
ATOM     93  C   UNL A   1      50.410  27.161  29.621  1.00  0.00     0.059 A 
ATOM     94  C   UNL A   1      49.742  26.406  31.831  1.00  0.00     0.059 A 
ATOM     95  F   UNL A   1      47.476  26.445  32.436  1.00  0.00    -0.206 F 
ATOM     96  C   UNL A   1      50.731  26.645  30.880  1.00  0.00     0.060 A 
BRANCH  96  97
ATOM     97  S   UNL A   1      52.466  26.337  31.273  1.00  0.00     0.124 S 
ATOM     98  O   UNL A   1      53.067  26.301  29.944  1.00  0.00    -0.237 OA
ATOM     99  O   UNL A   1      52.810  27.494  32.093  1.00  0.00    -0.237 OA
ATOM    100  O   UNL A   1      52.433  25.061  31.982  1.00  0.00    -0.744 OA
ENDBRANCH  96  97
ENDBRANCH  64  89
ENDBRANCH  38  39
ENDBRANCH  30  33
ENDBRANCH  28  29
ENDBRANCH   1  28
TORSDOF 17
ENDMDL
MODEL 2
REMARK VINA RESULT:     -11.1      4.880     10.420
REMARK SMILES C[N@@H+]1CCC[C@H](NC(=O)N[C@@](C)(C(=O)NCCCCNC(=O)c2ccc(-c3c4nc(c(-c5c(F)cc(S(=O)(=O)[O-])cc5F)c5ccc([nH]5)c(-c5c(F)cc(S(=O)(=O)[O-])cc5F)c5nc(c(-c6c(F)cc(S(=O)(=O)[O-])cc6F)c6ccc3[nH]6)C=C5)C=C4)cc2)C(F)(F)F)C1
REMARK SMILES IDX 18 1 17 2 16 3 15 4 13 5 14 6 11 8 12 9 10 10 7 11 8 12 9 14
REMARK SMILES IDX 6 16 1 17 2 18 3 19 93 20 4 22 5 23 89 24 90 25 91 26 92 27
REMARK SMILES IDX 19 28 20 29 21 30 22 32 23 33 24 34 88 35 25 36 87 37 26 38
REMARK SMILES IDX 27 39 28 40 81 41 29 42 86 43 80 44 82 45 30 46 85 47 79 48
REMARK SMILES IDX 78 49 31 51 65 52 44 53 64 54 45 55 48 56 63 57 83 58 46 59
REMARK SMILES IDX 47 60 62 62 84 63 49 64 32 65 33 66 42 67 34 68 35 69 41 70
REMARK SMILES IDX 43 71 36 72 37 73 38 74 39 75 40 76 66 77 67 78 76 79 68 80
REMARK SMILES IDX 69 81 75 82 77 83 70 84 71 85 72 86 73 87 74 88 50 89 51 90
REMARK SMILES IDX 60 91 52 92 53 93 59 94 61 95 54 96 55 97 56 98 57 99 58 100
REMARK H PARENT 15 7 7 13 10 15 2 21 20 31 82 50 48 61
REMARK Flexibility Score: inf
ROOT
ATOM      1  C   UNL A   1      37.311  23.195  25.848  1.00  0.00     0.023 C 
ENDROOT
BRANCH   1   2
ATOM      2  C   UNL A   1      37.195  23.320  24.330  1.00  0.00     0.023 C 
BRANCH   2   3
ATOM      3  C   UNL A   1      36.174  22.396  23.678  1.00  0.00     0.116 C 
BRANCH   3   4
ATOM      4  N   UNL A   1      35.256  21.830  24.647  1.00  0.00    -0.354 N 
ATOM      5  C   UNL A   1      33.992  22.143  25.040  1.00  0.00     0.255 C 
ATOM      6  O   UNL A   1      33.510  21.352  25.854  1.00  0.00    -0.272 OA
ATOM      7  H   UNL A   1      35.627  21.052  25.122  1.00  0.00     0.163 HD
BRANCH   5   8
ATOM      8  C   UNL A   1      33.255  23.417  24.578  1.00  0.00     0.213 C 
ATOM      9  C   UNL A   1      31.722  23.333  24.773  1.00  0.00     0.056 C 
BRANCH   8  10
ATOM     10  N   UNL A   1      33.508  23.486  23.079  1.00  0.00    -0.316 N 
ATOM     11  N   UNL A   1      32.415  25.116  21.744  1.00  0.00    -0.330 N 
ATOM     12  C   UNL A   1      33.055  23.963  21.923  1.00  0.00     0.316 C 
ATOM     13  H   UNL A   1      31.974  25.223  20.871  1.00  0.00     0.165 HD
ATOM     14  O   UNL A   1      33.324  23.300  20.916  1.00  0.00    -0.249 OA
ATOM     15  H   UNL A   1      34.329  22.977  22.890  1.00  0.00     0.166 HD
BRANCH  11  16
ATOM     16  C   UNL A   1      32.277  26.227  22.643  1.00  0.00     0.139 C 
ATOM     17  C   UNL A   1      29.560  28.714  23.223  1.00  0.00     0.332 C 
ATOM     18  N   UNL A   1      30.819  28.008  23.380  1.00  0.00    -0.336 N 
ATOM     19  C   UNL A   1      31.944  28.876  23.737  1.00  0.00     0.262 C 
ATOM     20  C   UNL A   1      31.132  27.161  22.232  1.00  0.00     0.287 C 
ATOM     21  H   UNL A   1      30.677  27.395  24.182  1.00  0.00     0.347 HD
ATOM     22  C   UNL A   1      33.247  28.082  23.963  1.00  0.00     0.064 C 
ATOM     23  C   UNL A   1      33.537  27.071  22.843  1.00  0.00     0.037 C 
ENDBRANCH  11  16
ENDBRANCH   8  10
BRANCH   8  24
ATOM     24  C   UNL A   1      33.679  24.506  25.600  1.00  0.00     0.420 C 
ATOM     25  F   UNL A   1      34.731  25.265  25.261  1.00  0.00    -0.168 F 
ATOM     26  F   UNL A   1      32.630  25.319  25.880  1.00  0.00    -0.168 F 
ATOM     27  F   UNL A   1      34.005  23.932  26.794  1.00  0.00    -0.168 F 
ENDBRANCH   8  24
ENDBRANCH   5   8
ENDBRANCH   3   4
ENDBRANCH   2   3
ENDBRANCH   1   2
BRANCH   1  28
ATOM     28  C   UNL A   1      38.226  24.212  26.515  1.00  0.00     0.116 C 
BRANCH  28  29
ATOM     29  N   UNL A   1      39.632  23.992  26.211  1.00  0.00    -0.352 N 
ATOM     30  C   UNL A   1      40.720  24.721  26.624  1.00  0.00     0.251 C 
ATOM     31  H   UNL A   1      39.829  23.219  25.633  1.00  0.00     0.163 HD
ATOM     32  O   UNL A   1      41.836  24.479  26.173  1.00  0.00    -0.269 OA
BRANCH  30  33
ATOM     33  C   UNL A   1      40.517  25.818  27.588  1.00  0.00     0.039 A 
ATOM     34  C   UNL A   1      39.610  25.643  28.634  1.00  0.00     0.014 A 
ATOM     35  C   UNL A   1      41.274  26.989  27.488  1.00  0.00     0.014 A 
ATOM     36  C   UNL A   1      39.510  26.620  29.625  1.00  0.00     0.010 A 
ATOM     37  C   UNL A   1      41.230  27.921  28.516  1.00  0.00     0.010 A 
ATOM     38  C   UNL A   1      40.343  27.750  29.592  1.00  0.00    -0.014 A 
BRANCH  38  39
ATOM     39  C   UNL A   1      40.294  28.788  30.652  1.00  0.00     0.031 A 
ATOM     40  C   UNL A   1      41.191  28.657  31.852  1.00  0.00     0.074 A 
ATOM     41  C   UNL A   1      39.395  29.789  30.578  1.00  0.00     0.049 A 
ATOM     42  N   UNL A   1      41.212  29.367  32.950  1.00  0.00    -0.248 NA
ATOM     43  C   UNL A   1      42.172  27.560  31.827  1.00  0.00     0.031 C 
ATOM     44  C   UNL A   1      38.446  29.999  29.483  1.00  0.00     0.029 A 
ATOM     45  N   UNL A   1      39.118  30.809  31.455  1.00  0.00    -0.354 N 
ATOM     46  C   UNL A   1      42.186  28.785  33.755  1.00  0.00     0.074 A 
ATOM     47  C   UNL A   1      42.696  27.635  33.041  1.00  0.00     0.031 C 
ATOM     48  C   UNL A   1      37.702  31.087  29.746  1.00  0.00     0.029 A 
ATOM     49  C   UNL A   1      38.090  31.626  31.046  1.00  0.00     0.049 A 
ATOM     50  H   UNL A   1      39.609  30.942  32.298  1.00  0.00     0.167 HD
ATOM     51  C   UNL A   1      42.630  29.187  34.969  1.00  0.00     0.037 A 
ATOM     52  C   UNL A   1      37.518  32.683  31.656  1.00  0.00     0.037 A 
ATOM     53  C   UNL A   1      42.142  30.355  35.653  1.00  0.00     0.049 A 
ATOM     54  C   UNL A   1      38.035  33.118  33.003  1.00  0.00     0.074 A 
ATOM     55  C   UNL A   1      42.561  30.879  36.863  1.00  0.00     0.029 A 
ATOM     56  N   UNL A   1      41.133  31.182  35.184  1.00  0.00    -0.354 N 
ATOM     57  N   UNL A   1      38.988  32.584  33.730  1.00  0.00    -0.248 NA
ATOM     58  C   UNL A   1      37.404  34.299  33.611  1.00  0.00     0.031 C 
ATOM     59  C   UNL A   1      41.779  32.005  37.143  1.00  0.00     0.029 A 
ATOM     60  C   UNL A   1      40.908  32.209  36.084  1.00  0.00     0.049 A 
ATOM     61  H   UNL A   1      40.647  31.058  34.336  1.00  0.00     0.167 HD
ATOM     62  C   UNL A   1      39.099  33.388  34.860  1.00  0.00     0.074 A 
ATOM     63  C   UNL A   1      38.115  34.441  34.722  1.00  0.00     0.031 C 
ATOM     64  C   UNL A   1      39.943  33.266  35.913  1.00  0.00     0.037 A 
BRANCH  51  65
ATOM     65  C   UNL A   1      43.699  28.362  35.628  1.00  0.00     0.058 A 
ATOM     66  C   UNL A   1      43.384  27.330  36.527  1.00  0.00     0.135 A 
ATOM     67  C   UNL A   1      45.054  28.586  35.337  1.00  0.00     0.135 A 
ATOM     68  F   UNL A   1      42.106  27.083  36.854  1.00  0.00    -0.206 F 
ATOM     69  C   UNL A   1      44.377  26.571  37.139  1.00  0.00     0.059 A 
ATOM     70  C   UNL A   1      46.062  27.819  35.915  1.00  0.00     0.059 A 
ATOM     71  F   UNL A   1      45.411  29.560  34.486  1.00  0.00    -0.206 F 
ATOM     72  C   UNL A   1      45.714  26.824  36.827  1.00  0.00     0.060 A 
BRANCH  72  73
ATOM     73  S   UNL A   1      46.988  25.828  37.628  1.00  0.00     0.124 S 
ATOM     74  O   UNL A   1      46.836  26.232  39.023  1.00  0.00    -0.237 OA
ATOM     75  O   UNL A   1      46.564  24.467  37.313  1.00  0.00    -0.237 OA
ATOM     76  O   UNL A   1      48.219  26.265  36.978  1.00  0.00    -0.744 OA
ENDBRANCH  72  73
ENDBRANCH  51  65
BRANCH  52  77
ATOM     77  C   UNL A   1      36.409  33.418  30.992  1.00  0.00     0.058 A 
ATOM     78  C   UNL A   1      35.098  33.344  31.488  1.00  0.00     0.135 A 
ATOM     79  C   UNL A   1      36.634  34.215  29.859  1.00  0.00     0.135 A 
ATOM     80  F   UNL A   1      34.832  32.591  32.565  1.00  0.00    -0.206 F 
ATOM     81  C   UNL A   1      34.047  34.017  30.874  1.00  0.00     0.059 A 
ATOM     82  C   UNL A   1      35.603  34.919  29.242  1.00  0.00     0.059 A 
ATOM     83  F   UNL A   1      37.872  34.335  29.355  1.00  0.00    -0.206 F 
ATOM     84  C   UNL A   1      34.309  34.803  29.752  1.00  0.00     0.060 A 
BRANCH  84  85
ATOM     85  S   UNL A   1      32.944  35.707  28.988  1.00  0.00     0.124 S 
ATOM     86  O   UNL A   1      32.357  34.682  28.132  1.00  0.00    -0.237 OA
ATOM     87  O   UNL A   1      32.151  36.101  30.149  1.00  0.00    -0.237 OA
ATOM     88  O   UNL A   1      33.614  36.802  28.295  1.00  0.00    -0.744 OA
ENDBRANCH  84  85
ENDBRANCH  52  77
BRANCH  64  89
ATOM     89  C   UNL A   1      39.895  34.328  36.976  1.00  0.00     0.058 A 
ATOM     90  C   UNL A   1      40.648  35.508  36.879  1.00  0.00     0.135 A 
ATOM     91  C   UNL A   1      39.011  34.198  38.059  1.00  0.00     0.135 A 
ATOM     92  F   UNL A   1      41.512  35.677  35.867  1.00  0.00    -0.206 F 
ATOM     93  C   UNL A   1      40.529  36.522  37.824  1.00  0.00     0.059 A 
ATOM     94  C   UNL A   1      38.857  35.210  39.001  1.00  0.00     0.059 A 
ATOM     95  F   UNL A   1      38.262  33.091  38.191  1.00  0.00    -0.206 F 
ATOM     96  C   UNL A   1      39.625  36.367  38.878  1.00  0.00     0.060 A 
BRANCH  96  97
ATOM     97  S   UNL A   1      39.430  37.718  40.059  1.00  0.00     0.124 S 
ATOM     98  O   UNL A   1      38.229  38.378  39.556  1.00  0.00    -0.237 OA
ATOM     99  O   UNL A   1      39.279  37.007  41.325  1.00  0.00    -0.237 OA
ATOM    100  O   UNL A   1      40.669  38.476  39.916  1.00  0.00    -0.744 OA
ENDBRANCH  96  97
ENDBRANCH  64  89
ENDBRANCH  38  39
ENDBRANCH  30  33
ENDBRANCH  28  29
ENDBRANCH   1  28
TORSDOF 17
ENDMDL
MODEL 3
REMARK VINA RESULT:     -11.0      3.106      9.232
REMARK SMILES C[N@@H+]1CCC[C@H](NC(=O)N[C@@](C)(C(=O)NCCCCNC(=O)c2ccc(-c3c4nc(c(-c5c(F)cc(S(=O)(=O)[O-])cc5F)c5ccc([nH]5)c(-c5c(F)cc(S(=O)(=O)[O-])cc5F)c5nc(c(-c6c(F)cc(S(=O)(=O)[O-])cc6F)c6ccc3[nH]6)C=C5)C=C4)cc2)C(F)(F)F)C1
REMARK SMILES IDX 18 1 17 2 16 3 15 4 13 5 14 6 11 8 12 9 10 10 7 11 8 12 9 14
REMARK SMILES IDX 6 16 1 17 2 18 3 19 93 20 4 22 5 23 89 24 90 25 91 26 92 27
REMARK SMILES IDX 19 28 20 29 21 30 22 32 23 33 24 34 88 35 25 36 87 37 26 38
REMARK SMILES IDX 27 39 28 40 81 41 29 42 86 43 80 44 82 45 30 46 85 47 79 48
REMARK SMILES IDX 78 49 31 51 65 52 44 53 64 54 45 55 48 56 63 57 83 58 46 59
REMARK SMILES IDX 47 60 62 62 84 63 49 64 32 65 33 66 42 67 34 68 35 69 41 70
REMARK SMILES IDX 43 71 36 72 37 73 38 74 39 75 40 76 66 77 67 78 76 79 68 80
REMARK SMILES IDX 69 81 75 82 77 83 70 84 71 85 72 86 73 87 74 88 50 89 51 90
REMARK SMILES IDX 60 91 52 92 53 93 59 94 61 95 54 96 55 97 56 98 57 99 58 100
REMARK H PARENT 15 7 7 13 10 15 2 21 20 31 82 50 48 61
REMARK Flexibility Score: inf
ROOT
ATOM      1  C   UNL A   1      36.260  23.172  24.263  1.00  0.00     0.023 C 
ENDROOT
BRANCH   1   2
ATOM      2  C   UNL A   1      35.916  21.720  24.588  1.00  0.00     0.023 C 
BRANCH   2   3
ATOM      3  C   UNL A   1      35.175  21.506  25.902  1.00  0.00     0.116 C 
BRANCH   3   4
ATOM      4  N   UNL A   1      33.927  20.795  25.714  1.00  0.00    -0.354 N 
ATOM      5  C   UNL A   1      32.657  21.185  25.419  1.00  0.00     0.255 C 
ATOM      6  O   UNL A   1      31.870  20.249  25.259  1.00  0.00    -0.272 OA
ATOM      7  H   UNL A   1      34.017  19.821  25.823  1.00  0.00     0.163 HD
BRANCH   5   8
ATOM      8  C   UNL A   1      32.216  22.662  25.372  1.00  0.00     0.213 C 
ATOM      9  C   UNL A   1      33.164  23.600  26.155  1.00  0.00     0.056 C 
BRANCH   8  10
ATOM     10  N   UNL A   1      30.874  22.686  26.091  1.00  0.00    -0.316 N 
ATOM     11  N   UNL A   1      29.825  24.749  26.618  1.00  0.00    -0.330 N 
ATOM     12  C   UNL A   1      30.028  23.444  26.782  1.00  0.00     0.316 C 
ATOM     13  H   UNL A   1      29.320  25.191  27.337  1.00  0.00     0.165 HD
ATOM     14  O   UNL A   1      29.314  22.857  27.601  1.00  0.00    -0.249 OA
ATOM     15  H   UNL A   1      30.478  21.788  26.015  1.00  0.00     0.166 HD
BRANCH  11  16
ATOM     16  C   UNL A   1      30.236  25.603  25.539  1.00  0.00     0.139 C 
ATOM     17  C   UNL A   1      32.888  28.204  25.218  1.00  0.00     0.332 C 
ATOM     18  N   UNL A   1      31.796  27.318  24.857  1.00  0.00    -0.336 N 
ATOM     19  C   UNL A   1      30.843  27.907  23.912  1.00  0.00     0.262 C 
ATOM     20  C   UNL A   1      31.122  26.757  26.026  1.00  0.00     0.287 C 
ATOM     21  H   UNL A   1      32.238  26.547  24.359  1.00  0.00     0.347 HD
ATOM     22  C   UNL A   1      29.739  26.912  23.500  1.00  0.00     0.064 C 
ATOM     23  C   UNL A   1      29.102  26.190  24.697  1.00  0.00     0.037 C 
ENDBRANCH  11  16
ENDBRANCH   8  10
BRANCH   8  24
ATOM     24  C   UNL A   1      32.439  23.090  23.897  1.00  0.00     0.420 C 
ATOM     25  F   UNL A   1      33.080  22.212  23.110  1.00  0.00    -0.168 F 
ATOM     26  F   UNL A   1      31.254  23.406  23.316  1.00  0.00    -0.168 F 
ATOM     27  F   UNL A   1      33.172  24.240  23.844  1.00  0.00    -0.168 F 
ENDBRANCH   8  24
ENDBRANCH   5   8
ENDBRANCH   3   4
ENDBRANCH   2   3
ENDBRANCH   1   2
BRANCH   1  28
ATOM     28  C   UNL A   1      37.398  23.767  25.081  1.00  0.00     0.116 C 
BRANCH  28  29
ATOM     29  N   UNL A   1      38.450  22.804  25.370  1.00  0.00    -0.352 N 
ATOM     30  C   UNL A   1      39.582  22.976  26.127  1.00  0.00     0.251 C 
ATOM     31  H   UNL A   1      38.334  21.911  24.970  1.00  0.00     0.163 HD
ATOM     32  O   UNL A   1      40.439  22.099  26.170  1.00  0.00    -0.269 OA
BRANCH  30  33
ATOM     33  C   UNL A   1      39.764  24.245  26.857  1.00  0.00     0.039 A 
ATOM     34  C   UNL A   1      39.083  24.440  28.059  1.00  0.00     0.014 A 
ATOM     35  C   UNL A   1      40.657  25.207  26.379  1.00  0.00     0.014 A 
ATOM     36  C   UNL A   1      39.350  25.578  28.822  1.00  0.00     0.010 A 
ATOM     37  C   UNL A   1      40.979  26.297  27.177  1.00  0.00     0.010 A 
ATOM     38  C   UNL A   1      40.325  26.497  28.403  1.00  0.00    -0.014 A 
BRANCH  38  39
ATOM     39  C   UNL A   1      40.666  27.696  29.210  1.00  0.00     0.031 A 
ATOM     40  C   UNL A   1      41.928  27.697  30.029  1.00  0.00     0.074 A 
ATOM     41  C   UNL A   1      39.810  28.735  29.274  1.00  0.00     0.049 A 
ATOM     42  N   UNL A   1      42.344  28.573  30.906  1.00  0.00    -0.248 NA
ATOM     43  C   UNL A   1      42.824  26.540  29.863  1.00  0.00     0.031 C 
ATOM     44  C   UNL A   1      38.538  28.833  28.556  1.00  0.00     0.029 A 
ATOM     45  N   UNL A   1      39.873  29.902  29.994  1.00  0.00    -0.354 N 
ATOM     46  C   UNL A   1      43.532  28.060  31.414  1.00  0.00     0.074 A 
ATOM     47  C   UNL A   1      43.744  26.774  30.786  1.00  0.00     0.031 C 
ATOM     48  C   UNL A   1      37.948  30.001  28.860  1.00  0.00     0.029 A 
ATOM     49  C   UNL A   1      38.777  30.716  29.826  1.00  0.00     0.049 A 
ATOM     50  H   UNL A   1      40.633  30.135  30.576  1.00  0.00     0.167 HD
ATOM     51  C   UNL A   1      44.381  28.622  32.307  1.00  0.00     0.037 A 
ATOM     52  C   UNL A   1      38.470  31.898  30.396  1.00  0.00     0.037 A 
ATOM     53  C   UNL A   1      44.181  29.918  32.896  1.00  0.00     0.049 A 
ATOM     54  C   UNL A   1      39.435  32.508  31.380  1.00  0.00     0.074 A 
ATOM     55  C   UNL A   1      45.006  30.601  33.771  1.00  0.00     0.029 A 
ATOM     56  N   UNL A   1      43.081  30.731  32.664  1.00  0.00    -0.354 N 
ATOM     57  N   UNL A   1      40.577  32.031  31.815  1.00  0.00    -0.248 NA
ATOM     58  C   UNL A   1      39.074  33.815  31.946  1.00  0.00     0.031 C 
ATOM     59  C   UNL A   1      44.388  31.812  34.097  1.00  0.00     0.029 A 
ATOM     60  C   UNL A   1      43.200  31.905  33.387  1.00  0.00     0.049 A 
ATOM     61  H   UNL A   1      42.325  30.505  32.074  1.00  0.00     0.167 HD
ATOM     62  C   UNL A   1      41.090  32.998  32.674  1.00  0.00     0.074 A 
ATOM     63  C   UNL A   1      40.133  34.085  32.698  1.00  0.00     0.031 C 
ATOM     64  C   UNL A   1      42.250  32.988  33.374  1.00  0.00     0.037 A 
BRANCH  51  65
ATOM     65  C   UNL A   1      45.605  27.838  32.692  1.00  0.00     0.058 A 
ATOM     66  C   UNL A   1      45.602  26.958  33.786  1.00  0.00     0.135 A 
ATOM     67  C   UNL A   1      46.787  27.947  31.942  1.00  0.00     0.135 A 
ATOM     68  F   UNL A   1      44.504  26.828  34.548  1.00  0.00    -0.206 F 
ATOM     69  C   UNL A   1      46.738  26.238  34.143  1.00  0.00     0.059 A 
ATOM     70  C   UNL A   1      47.926  27.214  32.263  1.00  0.00     0.059 A 
ATOM     71  F   UNL A   1      46.845  28.775  30.887  1.00  0.00    -0.206 F 
ATOM     72  C   UNL A   1      47.896  26.374  33.375  1.00  0.00     0.060 A 
BRANCH  72  73
ATOM     73  S   UNL A   1      49.359  25.430  33.850  1.00  0.00     0.124 S 
ATOM     74  O   UNL A   1      50.355  25.952  32.920  1.00  0.00    -0.237 OA
ATOM     75  O   UNL A   1      49.537  25.812  35.248  1.00  0.00    -0.237 OA
ATOM     76  O   UNL A   1      48.958  24.045  33.628  1.00  0.00    -0.744 OA
ENDBRANCH  72  73
ENDBRANCH  51  65
BRANCH  52  77
ATOM     77  C   UNL A   1      37.206  32.594  30.036  1.00  0.00     0.058 A 
ATOM     78  C   UNL A   1      36.007  32.299  30.704  1.00  0.00     0.135 A 
ATOM     79  C   UNL A   1      37.170  33.572  29.030  1.00  0.00     0.135 A 
ATOM     80  F   UNL A   1      35.990  31.369  31.669  1.00  0.00    -0.206 F 
ATOM     81  C   UNL A   1      34.814  32.934  30.374  1.00  0.00     0.059 A 
ATOM     82  C   UNL A   1      35.994  34.239  28.700  1.00  0.00     0.059 A 
ATOM     83  F   UNL A   1      38.292  33.904  28.374  1.00  0.00    -0.206 F 
ATOM     84  C   UNL A   1      34.817  33.904  29.371  1.00  0.00     0.060 A 
BRANCH  84  85
ATOM     85  S   UNL A   1      33.271  34.752  28.981  1.00  0.00     0.124 S 
ATOM     86  O   UNL A   1      32.643  33.808  28.064  1.00  0.00    -0.237 OA
ATOM     87  O   UNL A   1      32.649  34.876  30.296  1.00  0.00    -0.237 OA
ATOM     88  O   UNL A   1      33.719  36.008  28.387  1.00  0.00    -0.744 OA
ENDBRANCH  84  85
ENDBRANCH  52  77
BRANCH  64  89
ATOM     89  C   UNL A   1      42.594  34.210  34.179  1.00  0.00     0.058 A 
ATOM     90  C   UNL A   1      42.328  34.290  35.553  1.00  0.00     0.135 A 
ATOM     91  C   UNL A   1      43.283  35.276  33.578  1.00  0.00     0.135 A 
ATOM     92  F   UNL A   1      41.666  33.301  36.173  1.00  0.00    -0.206 F 
ATOM     93  C   UNL A   1      42.730  35.389  36.305  1.00  0.00     0.059 A 
ATOM     94  C   UNL A   1      43.716  36.373  34.315  1.00  0.00     0.059 A 
ATOM     95  F   UNL A   1      43.569  35.243  32.266  1.00  0.00    -0.206 F 
ATOM     96  C   UNL A   1      43.431  36.423  35.678  1.00  0.00     0.060 A 
BRANCH  96  97
ATOM     97  S   UNL A   1      44.005  37.812  36.678  1.00  0.00     0.124 S 
ATOM     98  O   UNL A   1      43.130  37.718  37.843  1.00  0.00    -0.237 OA
ATOM     99  O   UNL A   1      45.406  37.472  36.909  1.00  0.00    -0.237 OA
ATOM    100  O   UNL A   1      43.781  38.968  35.816  1.00  0.00    -0.744 OA
ENDBRANCH  96  97
ENDBRANCH  64  89
ENDBRANCH  38  39
ENDBRANCH  30  33
ENDBRANCH  28  29
ENDBRANCH   1  28
TORSDOF 17
ENDMDL
