MODEL 1
REMARK VINA RESULT:     -12.2      0.000      0.000
REMARK SMILES O=C(NCCCCNC(=O)c1ccnc(S[C@@H]2CCO[C@]3(CCOC3)C2)c1)c1ccc(-c2c3nc(c(-c4c(F)cc(S(=O)(=O)[O-])cc4F)c4ccc([nH]4)c(-c4c(F)cc(S(=O)(=O)[O-])cc4F)c4nc(c(-c5c(F)cc(S(=O)(=O)[O-])cc5F)c5ccc2[nH]5)C=C4)C=C3)cc1
REMARK SMILES IDX 5 1 4 2 3 3 1 4 2 5 28 7 29 8 93 9 30 10 92 11 31 12 32 13
REMARK SMILES IDX 33 14 86 15 34 16 91 17 85 18 87 19 35 20 90 21 84 22 83 23
REMARK SMILES IDX 36 25 70 26 49 27 69 28 50 29 53 30 68 31 88 32 51 33 52 34
REMARK SMILES IDX 67 36 89 37 54 38 37 39 38 40 47 41 39 42 40 43 46 44 48 45
REMARK SMILES IDX 41 46 42 47 43 48 44 49 45 50 71 51 72 52 81 53 73 54 74 55
REMARK SMILES IDX 80 56 82 57 75 58 76 59 77 60 78 61 79 62 55 63 56 64 65 65
REMARK SMILES IDX 57 66 58 67 64 68 66 69 59 70 60 71 61 72 62 73 63 74 6 75
REMARK SMILES IDX 7 76 8 77 9 78 10 80 11 81 12 82 27 83 13 84 15 85 14 86
REMARK SMILES IDX 16 87 17 88 18 89 26 90 19 91 21 92 20 93 22 94 25 95 23 96
REMARK SMILES IDX 24 97
REMARK H PARENT 3 6 87 24 53 35 8 79
REMARK Flexibility Score: inf
ROOT
ATOM      1  C   UNL A   1      40.613  22.092  27.494  1.00  0.00     0.023 C 
ENDROOT
BRANCH   1   2
ATOM      2  C   UNL A   1      41.784  23.044  27.272  1.00  0.00     0.116 C 
BRANCH   2   3
ATOM      3  N   UNL A   1      41.602  23.940  26.142  1.00  0.00    -0.352 N 
ATOM      4  O   UNL A   1      41.165  25.858  25.051  1.00  0.00    -0.269 OA
ATOM      5  C   UNL A   1      41.342  25.290  26.124  1.00  0.00     0.251 C 
ATOM      6  H   UNL A   1      41.676  23.517  25.256  1.00  0.00     0.163 HD
BRANCH   5   7
ATOM      7  C   UNL A   1      41.224  26.040  27.392  1.00  0.00     0.039 A 
ATOM      8  C   UNL A   1      40.128  25.866  28.238  1.00  0.00     0.014 A 
ATOM      9  C   UNL A   1      42.228  26.956  27.722  1.00  0.00     0.014 A 
ATOM     10  C   UNL A   1      39.955  26.720  29.324  1.00  0.00     0.010 A 
ATOM     11  C   UNL A   1      42.090  27.760  28.856  1.00  0.00     0.010 A 
ATOM     12  C   UNL A   1      40.928  27.683  29.639  1.00  0.00    -0.014 A 
BRANCH  12  13
ATOM     13  C   UNL A   1      40.708  28.594  30.791  1.00  0.00     0.031 A 
ATOM     14  C   UNL A   1      41.597  28.534  32.005  1.00  0.00     0.074 A 
ATOM     15  C   UNL A   1      39.724  29.512  30.718  1.00  0.00     0.049 A 
ATOM     16  N   UNL A   1      41.578  29.283  33.078  1.00  0.00    -0.248 NA
ATOM     17  C   UNL A   1      42.635  27.492  32.025  1.00  0.00     0.031 C 
ATOM     18  C   UNL A   1      38.787  29.653  29.601  1.00  0.00     0.029 A 
ATOM     19  N   UNL A   1      39.364  30.512  31.584  1.00  0.00    -0.354 N 
ATOM     20  C   UNL A   1      42.575  28.790  33.910  1.00  0.00     0.074 A 
ATOM     21  C   UNL A   1      43.172  27.663  33.226  1.00  0.00     0.031 C 
ATOM     22  C   UNL A   1      37.997  30.714  29.824  1.00  0.00     0.029 A 
ATOM     23  C   UNL A   1      38.339  31.299  31.116  1.00  0.00     0.049 A 
ATOM     24  H   UNL A   1      39.798  30.652  32.455  1.00  0.00     0.167 HD
ATOM     25  C   UNL A   1      42.962  29.238  35.129  1.00  0.00     0.037 A 
ATOM     26  C   UNL A   1      37.743  32.375  31.663  1.00  0.00     0.037 A 
ATOM     27  C   UNL A   1      42.390  30.383  35.791  1.00  0.00     0.049 A 
ATOM     28  C   UNL A   1      38.217  32.875  32.997  1.00  0.00     0.074 A 
ATOM     29  C   UNL A   1      42.738  30.938  37.011  1.00  0.00     0.029 A 
ATOM     30  N   UNL A   1      41.353  31.153  35.284  1.00  0.00    -0.354 N 
ATOM     31  N   UNL A   1      39.177  32.407  33.757  1.00  0.00    -0.248 NA
ATOM     32  C   UNL A   1      37.526  34.049  33.546  1.00  0.00     0.031 C 
ATOM     33  C   UNL A   1      41.894  32.029  37.253  1.00  0.00     0.029 A 
ATOM     34  C   UNL A   1      41.043  32.172  36.169  1.00  0.00     0.049 A 
ATOM     35  H   UNL A   1      40.903  30.997  34.423  1.00  0.00     0.167 HD
ATOM     36  C   UNL A   1      39.217  33.237  34.870  1.00  0.00     0.074 A 
ATOM     37  C   UNL A   1      38.194  34.246  34.675  1.00  0.00     0.031 C 
ATOM     38  C   UNL A   1      40.025  33.169  35.956  1.00  0.00     0.037 A 
BRANCH  25  39
ATOM     39  C   UNL A   1      44.051  28.480  35.837  1.00  0.00     0.058 A 
ATOM     40  C   UNL A   1      45.404  28.823  35.693  1.00  0.00     0.135 A 
ATOM     41  C   UNL A   1      43.733  27.415  36.695  1.00  0.00     0.135 A 
ATOM     42  F   UNL A   1      45.765  29.822  34.873  1.00  0.00    -0.206 F 
ATOM     43  C   UNL A   1      46.407  28.119  36.355  1.00  0.00     0.059 A 
ATOM     44  C   UNL A   1      44.716  26.710  37.382  1.00  0.00     0.059 A 
ATOM     45  F   UNL A   1      42.454  27.046  36.868  1.00  0.00    -0.206 F 
ATOM     46  C   UNL A   1      46.053  27.061  37.193  1.00  0.00     0.060 A 
BRANCH  46  47
ATOM     47  S   UNL A   1      47.361  26.149  38.041  1.00  0.00     0.124 S 
ATOM     48  O   UNL A   1      47.688  25.126  37.053  1.00  0.00    -0.237 OA
ATOM     49  O   UNL A   1      48.379  27.175  38.247  1.00  0.00    -0.237 OA
ATOM     50  O   UNL A   1      46.709  25.668  39.253  1.00  0.00    -0.744 OA
ENDBRANCH  46  47
ENDBRANCH  25  39
BRANCH  26  51
ATOM     51  C   UNL A   1      36.652  33.063  30.927  1.00  0.00     0.058 A 
ATOM     52  C   UNL A   1      35.318  32.939  31.339  1.00  0.00     0.135 A 
ATOM     53  C   UNL A   1      36.928  33.886  29.825  1.00  0.00     0.135 A 
ATOM     54  F   UNL A   1      35.009  32.160  32.387  1.00  0.00    -0.206 F 
ATOM     55  C   UNL A   1      34.290  33.604  30.680  1.00  0.00     0.059 A 
ATOM     56  C   UNL A   1      35.920  34.578  29.163  1.00  0.00     0.059 A 
ATOM     57  F   UNL A   1      38.192  34.049  29.406  1.00  0.00    -0.206 F 
ATOM     58  C   UNL A   1      34.602  34.425  29.595  1.00  0.00     0.060 A 
BRANCH  58  59
ATOM     59  S   UNL A   1      33.273  35.341  28.784  1.00  0.00     0.124 S 
ATOM     60  O   UNL A   1      32.537  35.862  29.930  1.00  0.00    -0.237 OA
ATOM     61  O   UNL A   1      34.008  36.324  27.996  1.00  0.00    -0.237 OA
ATOM     62  O   UNL A   1      32.588  34.312  28.005  1.00  0.00    -0.744 OA
ENDBRANCH  58  59
ENDBRANCH  26  51
BRANCH  38  63
ATOM     63  C   UNL A   1      39.849  34.232  37.001  1.00  0.00     0.058 A 
ATOM     64  C   UNL A   1      40.565  35.438  36.947  1.00  0.00     0.135 A 
ATOM     65  C   UNL A   1      38.941  34.050  38.055  1.00  0.00     0.135 A 
ATOM     66  F   UNL A   1      41.449  35.656  35.961  1.00  0.00    -0.206 F 
ATOM     67  C   UNL A   1      40.407  36.417  37.922  1.00  0.00     0.059 A 
ATOM     68  C   UNL A   1      38.753  35.024  39.030  1.00  0.00     0.059 A 
ATOM     69  F   UNL A   1      38.228  32.917  38.145  1.00  0.00    -0.206 F 
ATOM     70  C   UNL A   1      39.503  36.199  38.963  1.00  0.00     0.060 A 
BRANCH  70  71
ATOM     71  S   UNL A   1      39.294  37.478  40.220  1.00  0.00     0.124 S 
ATOM     72  O   UNL A   1      38.255  38.308  39.622  1.00  0.00    -0.237 OA
ATOM     73  O   UNL A   1      38.892  36.707  41.394  1.00  0.00    -0.237 OA
ATOM     74  O   UNL A   1      40.618  38.086  40.304  1.00  0.00    -0.744 OA
ENDBRANCH  70  71
ENDBRANCH  38  63
ENDBRANCH  12  13
ENDBRANCH   5   7
ENDBRANCH   2   3
ENDBRANCH   1   2
BRANCH   1  75
ATOM     75  C   UNL A   1      40.227  21.190  26.319  1.00  0.00     0.023 C 
BRANCH  75  76
ATOM     76  C   UNL A   1      38.827  21.399  25.750  1.00  0.00     0.116 C 
BRANCH  76  77
ATOM     77  N   UNL A   1      38.354  22.746  25.961  1.00  0.00    -0.352 N 
ATOM     78  C   UNL A   1      37.135  23.292  25.701  1.00  0.00     0.251 C 
ATOM     79  H   UNL A   1      39.013  23.364  26.353  1.00  0.00     0.163 HD
ATOM     80  O   UNL A   1      36.905  24.451  26.020  1.00  0.00    -0.269 OA
BRANCH  78  81
ATOM     81  C   UNL A   1      36.070  22.484  25.090  1.00  0.00     0.044 A 
ATOM     82  C   UNL A   1      35.532  21.434  25.819  1.00  0.00     0.034 A 
ATOM     83  C   UNL A   1      35.462  22.933  23.918  1.00  0.00     0.049 A 
ATOM     84  C   UNL A   1      34.364  20.884  25.343  1.00  0.00     0.113 A 
ATOM     85  C   UNL A   1      34.232  22.403  23.581  1.00  0.00     0.097 A 
ATOM     86  N   UNL A   1      33.701  21.358  24.263  1.00  0.00    -0.250 NA
BRANCH  85  87
ATOM     87  S   UNL A   1      33.217  22.979  22.241  1.00  0.00    -0.103 SA
BRANCH  87  88
ATOM     88  C   UNL A   1      32.473  24.609  22.743  1.00  0.00     0.058 C 
ATOM     89  C   UNL A   1      33.513  25.712  22.956  1.00  0.00     0.043 C 
ATOM     90  C   UNL A   1      31.354  24.625  23.798  1.00  0.00     0.053 C 
ATOM     91  C   UNL A   1      33.515  26.247  24.381  1.00  0.00     0.162 C 
ATOM     92  C   UNL A   1      31.852  24.767  25.251  1.00  0.00     0.095 C 
ATOM     93  O   UNL A   1      33.208  25.206  25.297  1.00  0.00    -0.372 OA
ATOM     94  C   UNL A   1      31.666  23.455  26.011  1.00  0.00     0.066 C 
ATOM     95  C   UNL A   1      30.985  25.694  26.109  1.00  0.00     0.195 C 
ATOM     96  C   UNL A   1      30.346  23.596  26.751  1.00  0.00     0.163 C 
ATOM     97  O   UNL A   1      29.855  24.919  26.512  1.00  0.00    -0.378 OA
ENDBRANCH  87  88
ENDBRANCH  85  87
ENDBRANCH  78  81
ENDBRANCH  76  77
ENDBRANCH  75  76
ENDBRANCH   1  75
TORSDOF 16
ENDMDL
MODEL 2
REMARK VINA RESULT:     -12.1      1.302      1.973
REMARK SMILES O=C(NCCCCNC(=O)c1ccnc(S[C@@H]2CCO[C@]3(CCOC3)C2)c1)c1ccc(-c2c3nc(c(-c4c(F)cc(S(=O)(=O)[O-])cc4F)c4ccc([nH]4)c(-c4c(F)cc(S(=O)(=O)[O-])cc4F)c4nc(c(-c5c(F)cc(S(=O)(=O)[O-])cc5F)c5ccc2[nH]5)C=C4)C=C3)cc1
REMARK SMILES IDX 5 1 4 2 3 3 1 4 2 5 28 7 29 8 93 9 30 10 92 11 31 12 32 13
REMARK SMILES IDX 33 14 86 15 34 16 91 17 85 18 87 19 35 20 90 21 84 22 83 23
REMARK SMILES IDX 36 25 70 26 49 27 69 28 50 29 53 30 68 31 88 32 51 33 52 34
REMARK SMILES IDX 67 36 89 37 54 38 37 39 38 40 47 41 39 42 40 43 46 44 48 45
REMARK SMILES IDX 41 46 42 47 43 48 44 49 45 50 71 51 72 52 81 53 73 54 74 55
REMARK SMILES IDX 80 56 82 57 75 58 76 59 77 60 78 61 79 62 55 63 56 64 65 65
REMARK SMILES IDX 57 66 58 67 64 68 66 69 59 70 60 71 61 72 62 73 63 74 6 75
REMARK SMILES IDX 7 76 8 77 9 78 10 80 11 81 12 82 27 83 13 84 15 85 14 86
REMARK SMILES IDX 16 87 17 88 18 89 26 90 19 91 21 92 20 93 22 94 25 95 23 96
REMARK SMILES IDX 24 97
REMARK H PARENT 3 6 87 24 53 35 8 79
REMARK Flexibility Score: inf
ROOT
ATOM      1  C   UNL A   1      39.148  22.598  26.493  1.00  0.00     0.023 C 
ENDROOT
BRANCH   1   2
ATOM      2  C   UNL A   1      40.471  23.233  26.909  1.00  0.00     0.116 C 
BRANCH   2   3
ATOM      3  N   UNL A   1      41.043  24.107  25.899  1.00  0.00    -0.352 N 
ATOM      4  O   UNL A   1      41.839  26.007  24.993  1.00  0.00    -0.269 OA
ATOM      5  C   UNL A   1      41.424  25.425  25.991  1.00  0.00     0.251 C 
ATOM      6  H   UNL A   1      41.177  23.694  25.015  1.00  0.00     0.163 HD
BRANCH   5   7
ATOM      7  C   UNL A   1      41.287  26.149  27.272  1.00  0.00     0.039 A 
ATOM      8  C   UNL A   1      40.166  25.977  28.086  1.00  0.00     0.014 A 
ATOM      9  C   UNL A   1      42.298  27.040  27.648  1.00  0.00     0.014 A 
ATOM     10  C   UNL A   1      39.980  26.810  29.185  1.00  0.00     0.010 A 
ATOM     11  C   UNL A   1      42.144  27.822  28.795  1.00  0.00     0.010 A 
ATOM     12  C   UNL A   1      40.961  27.749  29.546  1.00  0.00    -0.014 A 
BRANCH  12  13
ATOM     13  C   UNL A   1      40.727  28.639  30.712  1.00  0.00     0.031 A 
ATOM     14  C   UNL A   1      41.613  28.569  31.928  1.00  0.00     0.074 A 
ATOM     15  C   UNL A   1      39.733  29.545  30.651  1.00  0.00     0.049 A 
ATOM     16  N   UNL A   1      41.582  29.301  33.013  1.00  0.00    -0.248 NA
ATOM     17  C   UNL A   1      42.663  27.539  31.934  1.00  0.00     0.031 C 
ATOM     18  C   UNL A   1      38.797  29.694  29.534  1.00  0.00     0.029 A 
ATOM     19  N   UNL A   1      39.358  30.527  31.531  1.00  0.00    -0.354 N 
ATOM     20  C   UNL A   1      42.583  28.806  33.839  1.00  0.00     0.074 A 
ATOM     21  C   UNL A   1      43.195  27.697  33.139  1.00  0.00     0.031 C 
ATOM     22  C   UNL A   1      37.994  30.742  29.771  1.00  0.00     0.029 A 
ATOM     23  C   UNL A   1      38.326  31.310  31.073  1.00  0.00     0.049 A 
ATOM     24  H   UNL A   1      39.788  30.659  32.407  1.00  0.00     0.167 HD
ATOM     25  C   UNL A   1      42.961  29.239  35.067  1.00  0.00     0.037 A 
ATOM     26  C   UNL A   1      37.716  32.370  31.635  1.00  0.00     0.037 A 
ATOM     27  C   UNL A   1      42.374  30.366  35.745  1.00  0.00     0.049 A 
ATOM     28  C   UNL A   1      38.179  32.854  32.979  1.00  0.00     0.074 A 
ATOM     29  C   UNL A   1      42.712  30.905  36.975  1.00  0.00     0.029 A 
ATOM     30  N   UNL A   1      41.329  31.132  35.248  1.00  0.00    -0.354 N 
ATOM     31  N   UNL A   1      39.142  32.384  33.735  1.00  0.00    -0.248 NA
ATOM     32  C   UNL A   1      37.474  34.010  33.545  1.00  0.00     0.031 C 
ATOM     33  C   UNL A   1      41.854  31.982  37.232  1.00  0.00     0.029 A 
ATOM     34  C   UNL A   1      41.004  32.133  36.148  1.00  0.00     0.049 A 
ATOM     35  H   UNL A   1      40.884  30.984  34.383  1.00  0.00     0.167 HD
ATOM     36  C   UNL A   1      39.170  33.197  34.860  1.00  0.00     0.074 A 
ATOM     37  C   UNL A   1      38.135  34.197  34.679  1.00  0.00     0.031 C 
ATOM     38  C   UNL A   1      39.975  33.121  35.948  1.00  0.00     0.037 A 
BRANCH  25  39
ATOM     39  C   UNL A   1      44.057  28.482  35.765  1.00  0.00     0.058 A 
ATOM     40  C   UNL A   1      45.410  28.810  35.589  1.00  0.00     0.135 A 
ATOM     41  C   UNL A   1      43.746  27.435  36.647  1.00  0.00     0.135 A 
ATOM     42  F   UNL A   1      45.763  29.792  34.747  1.00  0.00    -0.206 F 
ATOM     43  C   UNL A   1      46.419  28.107  36.243  1.00  0.00     0.059 A 
ATOM     44  C   UNL A   1      44.736  26.732  37.327  1.00  0.00     0.059 A 
ATOM     45  F   UNL A   1      42.467  27.081  36.852  1.00  0.00    -0.206 F 
ATOM     46  C   UNL A   1      46.072  27.067  37.106  1.00  0.00     0.060 A 
BRANCH  46  47
ATOM     47  S   UNL A   1      47.389  26.157  37.943  1.00  0.00     0.124 S 
ATOM     48  O   UNL A   1      47.310  26.709  39.291  1.00  0.00    -0.237 OA
ATOM     49  O   UNL A   1      46.954  24.770  37.801  1.00  0.00    -0.237 OA
ATOM     50  O   UNL A   1      48.583  26.514  37.185  1.00  0.00    -0.744 OA
ENDBRANCH  46  47
ENDBRANCH  25  39
BRANCH  26  51
ATOM     51  C   UNL A   1      36.619  33.056  30.907  1.00  0.00     0.058 A 
ATOM     52  C   UNL A   1      35.285  32.912  31.314  1.00  0.00     0.135 A 
ATOM     53  C   UNL A   1      36.888  33.900  29.819  1.00  0.00     0.135 A 
ATOM     54  F   UNL A   1      34.982  32.113  32.349  1.00  0.00    -0.206 F 
ATOM     55  C   UNL A   1      34.251  33.575  30.663  1.00  0.00     0.059 A 
ATOM     56  C   UNL A   1      35.873  34.591  29.165  1.00  0.00     0.059 A 
ATOM     57  F   UNL A   1      38.151  34.084  29.406  1.00  0.00    -0.206 F 
ATOM     58  C   UNL A   1      34.556  34.416  29.591  1.00  0.00     0.060 A 
BRANCH  58  59
ATOM     59  S   UNL A   1      33.219  35.329  28.791  1.00  0.00     0.124 S 
ATOM     60  O   UNL A   1      33.962  36.311  28.011  1.00  0.00    -0.237 OA
ATOM     61  O   UNL A   1      32.542  34.286  28.029  1.00  0.00    -0.237 OA
ATOM     62  O   UNL A   1      32.459  35.860  29.920  1.00  0.00    -0.744 OA
ENDBRANCH  58  59
ENDBRANCH  26  51
BRANCH  38  63
ATOM     63  C   UNL A   1      39.784  34.165  37.009  1.00  0.00     0.058 A 
ATOM     64  C   UNL A   1      39.008  33.917  38.151  1.00  0.00     0.135 A 
ATOM     65  C   UNL A   1      40.400  35.421  36.889  1.00  0.00     0.135 A 
ATOM     66  F   UNL A   1      38.395  32.733  38.307  1.00  0.00    -0.206 F 
ATOM     67  C   UNL A   1      38.825  34.890  39.128  1.00  0.00     0.059 A 
ATOM     68  C   UNL A   1      40.246  36.402  37.863  1.00  0.00     0.059 A 
ATOM     69  F   UNL A   1      41.158  35.703  35.819  1.00  0.00    -0.206 F 
ATOM     70  C   UNL A   1      39.443  36.132  38.972  1.00  0.00     0.060 A 
BRANCH  70  71
ATOM     71  S   UNL A   1      39.211  37.388  40.248  1.00  0.00     0.124 S 
ATOM     72  O   UNL A   1      38.615  36.605  41.324  1.00  0.00    -0.237 OA
ATOM     73  O   UNL A   1      40.573  37.857  40.485  1.00  0.00    -0.237 OA
ATOM     74  O   UNL A   1      38.326  38.357  39.608  1.00  0.00    -0.744 OA
ENDBRANCH  70  71
ENDBRANCH  38  63
ENDBRANCH  12  13
ENDBRANCH   5   7
ENDBRANCH   2   3
ENDBRANCH   1   2
BRANCH   1  75
ATOM     75  C   UNL A   1      37.997  23.555  26.173  1.00  0.00     0.023 C 
BRANCH  75  76
ATOM     76  C   UNL A   1      37.071  23.127  25.038  1.00  0.00     0.116 C 
BRANCH  76  77
ATOM     77  N   UNL A   1      36.962  21.691  24.942  1.00  0.00    -0.352 N 
ATOM     78  C   UNL A   1      35.894  20.881  25.175  1.00  0.00     0.251 C 
ATOM     79  H   UNL A   1      37.786  21.228  24.665  1.00  0.00     0.163 HD
ATOM     80  O   UNL A   1      35.985  19.678  24.968  1.00  0.00    -0.269 OA
BRANCH  78  81
ATOM     81  C   UNL A   1      34.612  21.444  25.621  1.00  0.00     0.044 A 
ATOM     82  C   UNL A   1      34.465  21.781  26.959  1.00  0.00     0.034 A 
ATOM     83  C   UNL A   1      33.680  21.853  24.668  1.00  0.00     0.049 A 
ATOM     84  C   UNL A   1      33.375  22.555  27.286  1.00  0.00     0.113 A 
ATOM     85  C   UNL A   1      32.685  22.724  25.066  1.00  0.00     0.097 A 
ATOM     86  N   UNL A   1      32.505  23.044  26.372  1.00  0.00    -0.250 NA
BRANCH  85  87
ATOM     87  S   UNL A   1      31.526  23.505  23.968  1.00  0.00    -0.103 SA
BRANCH  87  88
ATOM     88  C   UNL A   1      32.411  24.881  23.083  1.00  0.00     0.058 C 
ATOM     89  C   UNL A   1      33.650  25.385  23.826  1.00  0.00     0.043 C 
ATOM     90  C   UNL A   1      31.585  26.014  22.452  1.00  0.00     0.053 C 
ATOM     91  C   UNL A   1      33.545  26.853  24.212  1.00  0.00     0.162 C 
ATOM     92  C   UNL A   1      31.329  27.213  23.390  1.00  0.00     0.095 C 
ATOM     93  O   UNL A   1      32.198  27.184  24.521  1.00  0.00    -0.372 OA
ATOM     94  C   UNL A   1      29.863  27.253  23.818  1.00  0.00     0.066 C 
ATOM     95  C   UNL A   1      31.439  28.572  22.693  1.00  0.00     0.195 C 
ATOM     96  C   UNL A   1      29.187  28.223  22.862  1.00  0.00     0.163 C 
ATOM     97  O   UNL A   1      30.200  28.769  22.011  1.00  0.00    -0.378 OA
ENDBRANCH  87  88
ENDBRANCH  85  87
ENDBRANCH  78  81
ENDBRANCH  76  77
ENDBRANCH  75  76
ENDBRANCH   1  75
TORSDOF 16
ENDMDL
MODEL 3
REMARK VINA RESULT:     -12.1      6.742     12.179
REMARK SMILES O=C(NCCCCNC(=O)c1ccnc(S[C@@H]2CCO[C@]3(CCOC3)C2)c1)c1ccc(-c2c3nc(c(-c4c(F)cc(S(=O)(=O)[O-])cc4F)c4ccc([nH]4)c(-c4c(F)cc(S(=O)(=O)[O-])cc4F)c4nc(c(-c5c(F)cc(S(=O)(=O)[O-])cc5F)c5ccc2[nH]5)C=C4)C=C3)cc1
REMARK SMILES IDX 5 1 4 2 3 3 1 4 2 5 28 7 29 8 93 9 30 10 92 11 31 12 32 13
REMARK SMILES IDX 33 14 86 15 34 16 91 17 85 18 87 19 35 20 90 21 84 22 83 23
REMARK SMILES IDX 36 25 70 26 49 27 69 28 50 29 53 30 68 31 88 32 51 33 52 34
REMARK SMILES IDX 67 36 89 37 54 38 37 39 38 40 47 41 39 42 40 43 46 44 48 45
REMARK SMILES IDX 41 46 42 47 43 48 44 49 45 50 71 51 72 52 81 53 73 54 74 55
REMARK SMILES IDX 80 56 82 57 75 58 76 59 77 60 78 61 79 62 55 63 56 64 65 65
REMARK SMILES IDX 57 66 58 67 64 68 66 69 59 70 60 71 61 72 62 73 63 74 6 75
REMARK SMILES IDX 7 76 8 77 9 78 10 80 11 81 12 82 27 83 13 84 15 85 14 86
REMARK SMILES IDX 16 87 17 88 18 89 26 90 19 91 21 92 20 93 22 94 25 95 23 96
REMARK SMILES IDX 24 97
REMARK H PARENT 3 6 87 24 53 35 8 79
REMARK Flexibility Score: inf
ROOT
ATOM      1  C   UNL A   1      34.098  28.835  27.088  1.00  0.00     0.023 C 
ENDROOT
BRANCH   1   2
ATOM      2  C   UNL A   1      35.356  29.468  27.675  1.00  0.00     0.116 C 
BRANCH   2   3
ATOM      3  N   UNL A   1      35.283  29.689  29.109  1.00  0.00    -0.352 N 
ATOM      4  O   UNL A   1      36.015  29.904  31.226  1.00  0.00    -0.269 OA
ATOM      5  C   UNL A   1      36.293  29.766  30.039  1.00  0.00     0.251 C 
ATOM      6  H   UNL A   1      34.374  29.800  29.470  1.00  0.00     0.163 HD
BRANCH   5   7
ATOM      7  C   UNL A   1      37.703  29.631  29.615  1.00  0.00     0.039 A 
ATOM      8  C   UNL A   1      38.097  29.917  28.307  1.00  0.00     0.014 A 
ATOM      9  C   UNL A   1      38.641  29.182  30.550  1.00  0.00     0.014 A 
ATOM     10  C   UNL A   1      39.388  29.600  27.894  1.00  0.00     0.010 A 
ATOM     11  C   UNL A   1      39.957  28.937  30.152  1.00  0.00     0.010 A 
ATOM     12  C   UNL A   1      40.330  29.097  28.808  1.00  0.00    -0.014 A 
BRANCH  12  13
ATOM     13  C   UNL A   1      41.693  28.748  28.334  1.00  0.00     0.031 A 
ATOM     14  C   UNL A   1      42.798  29.773  28.338  1.00  0.00     0.074 A 
ATOM     15  C   UNL A   1      41.944  27.485  27.940  1.00  0.00     0.049 A 
ATOM     16  N   UNL A   1      44.056  29.628  28.005  1.00  0.00    -0.248 NA
ATOM     17  C   UNL A   1      42.446  31.137  28.759  1.00  0.00     0.031 C 
ATOM     18  C   UNL A   1      40.950  26.411  27.875  1.00  0.00     0.029 A 
ATOM     19  N   UNL A   1      43.111  26.883  27.545  1.00  0.00    -0.354 N 
ATOM     20  C   UNL A   1      44.637  30.882  28.148  1.00  0.00     0.074 A 
ATOM     21  C   UNL A   1      43.590  31.783  28.582  1.00  0.00     0.031 C 
ATOM     22  C   UNL A   1      41.560  25.270  27.520  1.00  0.00     0.029 A 
ATOM     23  C   UNL A   1      42.974  25.540  27.288  1.00  0.00     0.049 A 
ATOM     24  H   UNL A   1      43.963  27.366  27.456  1.00  0.00     0.167 HD
ATOM     25  C   UNL A   1      45.926  31.248  27.942  1.00  0.00     0.037 A 
ATOM     26  C   UNL A   1      43.887  24.625  26.911  1.00  0.00     0.037 A 
ATOM     27  C   UNL A   1      46.972  30.341  27.545  1.00  0.00     0.049 A 
ATOM     28  C   UNL A   1      45.315  25.048  26.727  1.00  0.00     0.074 A 
ATOM     29  C   UNL A   1      48.316  30.608  27.346  1.00  0.00     0.029 A 
ATOM     30  N   UNL A   1      46.793  28.989  27.293  1.00  0.00    -0.354 N 
ATOM     31  N   UNL A   1      45.849  26.235  26.888  1.00  0.00    -0.248 NA
ATOM     32  C   UNL A   1      46.265  24.008  26.311  1.00  0.00     0.031 C 
ATOM     33  C   UNL A   1      48.945  29.422  26.949  1.00  0.00     0.029 A 
ATOM     34  C   UNL A   1      47.999  28.410  26.932  1.00  0.00     0.049 A 
ATOM     35  H   UNL A   1      45.935  28.511  27.359  1.00  0.00     0.167 HD
ATOM     36  C   UNL A   1      47.201  26.083  26.607  1.00  0.00     0.074 A 
ATOM     37  C   UNL A   1      47.405  24.686  26.280  1.00  0.00     0.031 C 
ATOM     38  C   UNL A   1      48.183  27.017  26.615  1.00  0.00     0.037 A 
BRANCH  25  39
ATOM     39  C   UNL A   1      46.276  32.699  28.129  1.00  0.00     0.058 A 
ATOM     40  C   UNL A   1      46.139  33.632  27.090  1.00  0.00     0.135 A 
ATOM     41  C   UNL A   1      46.726  33.166  29.375  1.00  0.00     0.135 A 
ATOM     42  F   UNL A   1      45.728  33.237  25.876  1.00  0.00    -0.206 F 
ATOM     43  C   UNL A   1      46.461  34.975  27.273  1.00  0.00     0.059 A 
ATOM     44  C   UNL A   1      47.034  34.506  29.585  1.00  0.00     0.059 A 
ATOM     45  F   UNL A   1      46.875  32.314  30.402  1.00  0.00    -0.206 F 
ATOM     46  C   UNL A   1      46.913  35.401  28.522  1.00  0.00     0.060 A 
BRANCH  46  47
ATOM     47  S   UNL A   1      47.336  37.143  28.746  1.00  0.00     0.124 S 
ATOM     48  O   UNL A   1      47.800  37.501  27.410  1.00  0.00    -0.237 OA
ATOM     49  O   UNL A   1      46.061  37.727  29.150  1.00  0.00    -0.237 OA
ATOM     50  O   UNL A   1      48.362  37.112  29.782  1.00  0.00    -0.744 OA
ENDBRANCH  46  47
ENDBRANCH  25  39
BRANCH  26  51
ATOM     51  C   UNL A   1      43.471  23.213  26.713  1.00  0.00     0.058 A 
ATOM     52  C   UNL A   1      43.393  22.660  25.426  1.00  0.00     0.135 A 
ATOM     53  C   UNL A   1      43.185  22.382  27.805  1.00  0.00     0.135 A 
ATOM     54  F   UNL A   1      43.657  23.420  24.353  1.00  0.00    -0.206 F 
ATOM     55  C   UNL A   1      43.038  21.331  25.228  1.00  0.00     0.059 A 
ATOM     56  C   UNL A   1      42.849  21.043  27.633  1.00  0.00     0.059 A 
ATOM     57  F   UNL A   1      43.265  22.862  29.056  1.00  0.00    -0.206 F 
ATOM     58  C   UNL A   1      42.772  20.529  26.339  1.00  0.00     0.060 A 
BRANCH  58  59
ATOM     59  S   UNL A   1      42.378  18.785  26.081  1.00  0.00     0.124 S 
ATOM     60  O   UNL A   1      43.312  18.429  25.019  1.00  0.00    -0.237 OA
ATOM     61  O   UNL A   1      42.651  18.207  27.392  1.00  0.00    -0.237 OA
ATOM     62  O   UNL A   1      40.968  18.816  25.701  1.00  0.00    -0.744 OA
ENDBRANCH  58  59
ENDBRANCH  26  51
BRANCH  38  63
ATOM     63  C   UNL A   1      49.570  26.546  26.287  1.00  0.00     0.058 A 
ATOM     64  C   UNL A   1      50.112  26.699  25.002  1.00  0.00     0.135 A 
ATOM     65  C   UNL A   1      50.371  25.951  27.275  1.00  0.00     0.135 A 
ATOM     66  F   UNL A   1      49.382  27.257  24.023  1.00  0.00    -0.206 F 
ATOM     67  C   UNL A   1      51.394  26.253  24.699  1.00  0.00     0.059 A 
ATOM     68  C   UNL A   1      51.662  25.515  26.998  1.00  0.00     0.059 A 
ATOM     69  F   UNL A   1      49.900  25.789  28.520  1.00  0.00    -0.206 F 
ATOM     70  C   UNL A   1      52.159  25.656  25.702  1.00  0.00     0.060 A 
BRANCH  70  71
ATOM     71  S   UNL A   1      53.826  25.088  25.305  1.00  0.00     0.124 S 
ATOM     72  O   UNL A   1      53.672  23.641  25.402  1.00  0.00    -0.237 OA
ATOM     73  O   UNL A   1      54.030  25.615  23.959  1.00  0.00    -0.237 OA
ATOM     74  O   UNL A   1      54.648  25.706  26.342  1.00  0.00    -0.744 OA
ENDBRANCH  70  71
ENDBRANCH  38  63
ENDBRANCH  12  13
ENDBRANCH   5   7
ENDBRANCH   2   3
ENDBRANCH   1   2
BRANCH   1  75
ATOM     75  C   UNL A   1      33.195  29.746  26.252  1.00  0.00     0.023 C 
BRANCH  75  76
ATOM     76  C   UNL A   1      32.926  29.287  24.822  1.00  0.00     0.116 C 
BRANCH  76  77
ATOM     77  N   UNL A   1      31.690  29.824  24.305  1.00  0.00    -0.352 N 
ATOM     78  C   UNL A   1      30.629  29.183  23.744  1.00  0.00     0.251 C 
ATOM     79  H   UNL A   1      31.601  30.802  24.369  1.00  0.00     0.163 HD
ATOM     80  O   UNL A   1      29.631  29.817  23.428  1.00  0.00    -0.269 OA
BRANCH  78  81
ATOM     81  C   UNL A   1      30.647  27.725  23.565  1.00  0.00     0.044 A 
ATOM     82  C   UNL A   1      31.091  27.210  22.356  1.00  0.00     0.034 A 
ATOM     83  C   UNL A   1      30.460  26.899  24.674  1.00  0.00     0.049 A 
ATOM     84  C   UNL A   1      31.361  25.861  22.319  1.00  0.00     0.113 A 
ATOM     85  C   UNL A   1      30.867  25.584  24.579  1.00  0.00     0.097 A 
ATOM     86  N   UNL A   1      31.278  25.053  23.400  1.00  0.00    -0.250 NA
BRANCH  85  87
ATOM     87  S   UNL A   1      30.890  24.433  25.933  1.00  0.00    -0.103 SA
BRANCH  87  88
ATOM     88  C   UNL A   1      32.667  24.088  26.364  1.00  0.00     0.058 C 
ATOM     89  C   UNL A   1      33.637  25.150  25.841  1.00  0.00     0.043 C 
ATOM     90  C   UNL A   1      33.205  22.655  26.215  1.00  0.00     0.053 C 
ATOM     91  C   UNL A   1      34.656  24.582  24.863  1.00  0.00     0.162 C 
ATOM     92  C   UNL A   1      33.813  22.345  24.831  1.00  0.00     0.095 C 
ATOM     93  O   UNL A   1      34.071  23.540  24.095  1.00  0.00    -0.372 OA
ATOM     94  C   UNL A   1      32.907  21.396  24.049  1.00  0.00     0.066 C 
ATOM     95  C   UNL A   1      35.088  21.499  24.897  1.00  0.00     0.195 C 
ATOM     96  C   UNL A   1      33.468  20.005  24.292  1.00  0.00     0.163 C 
ATOM     97  O   UNL A   1      34.658  20.148  25.073  1.00  0.00    -0.378 OA
ENDBRANCH  87  88
ENDBRANCH  85  87
ENDBRANCH  78  81
ENDBRANCH  76  77
ENDBRANCH  75  76
ENDBRANCH   1  75
TORSDOF 16
ENDMDL
