MODEL 1
REMARK VINA RESULT:      -9.8      0.000      0.000
REMARK SMILES C[C@H](C(=O)NCCCCNC(=O)c1ccc(-c2c3nc(c(-c4c(F)cc(S(=O)(=O)[O-])cc4F)c4ccc([nH]4)c(-c4c(F)cc(S(=O)(=O)[O-])cc4F)c4nc(c(-c5c(F)cc(S(=O)(=O)[O-])cc5F)c5ccc2[nH]5)C=C4)C=C3)cc1)c1ccc2c3cc(Cl)ccc3n(C(=O)c3cocn3)c2c1
REMARK SMILES IDX 7 1 6 2 5 3 3 4 4 5 2 7 1 8 79 9 80 10 99 11 81 12 98 13
REMARK SMILES IDX 82 14 90 15 83 16 89 17 84 18 88 19 85 20 87 21 86 22 91 23
REMARK SMILES IDX 92 24 93 25 94 26 97 27 95 28 96 29 8 30 9 31 10 32 11 33
REMARK SMILES IDX 12 35 13 36 14 37 78 38 15 39 77 40 16 41 17 42 18 43 71 44
REMARK SMILES IDX 19 45 76 46 70 47 72 48 20 49 75 50 69 51 68 52 21 54 55 55
REMARK SMILES IDX 34 56 54 57 35 58 38 59 53 60 73 61 36 62 37 63 52 65 74 66
REMARK SMILES IDX 39 67 22 68 23 69 32 70 24 71 25 72 31 73 33 74 26 75 27 76
REMARK SMILES IDX 28 77 29 78 30 79 56 80 57 81 66 82 58 83 59 84 65 85 67 86
REMARK SMILES IDX 60 87 61 88 62 89 63 90 64 91 40 92 41 93 50 94 42 95 43 96
REMARK SMILES IDX 49 97 51 98 44 99 45 100 46 101 47 102 48 103
REMARK H PARENT 5 6 10 34 72 53 38 64
REMARK Flexibility Score: inf
ROOT
ATOM      1  C   UNL A   1      34.442  33.369  30.234  1.00  0.00     0.023 C 
ENDROOT
BRANCH   1   2
ATOM      2  C   UNL A   1      34.793  32.291  31.259  1.00  0.00     0.116 C 
BRANCH   2   3
ATOM      3  N   UNL A   1      34.683  32.821  32.601  1.00  0.00    -0.356 N 
ATOM      4  C   UNL A   1      35.676  33.140  33.486  1.00  0.00     0.227 C 
ATOM      5  O   UNL A   1      35.341  33.376  34.650  1.00  0.00    -0.274 OA
ATOM      6  H   UNL A   1      33.765  32.974  32.921  1.00  0.00     0.163 HD
BRANCH   4   7
ATOM      7  C   UNL A   1      37.145  33.230  33.023  1.00  0.00     0.105 C 
ATOM      8  C   UNL A   1      37.700  34.597  33.449  1.00  0.00     0.023 C 
BRANCH   7   9
ATOM      9  C   UNL A   1      37.985  32.054  33.525  1.00  0.00    -0.034 A 
ATOM     10  C   UNL A   1      38.035  30.835  32.845  1.00  0.00     0.005 A 
ATOM     11  C   UNL A   1      38.812  32.228  34.651  1.00  0.00     0.032 A 
ATOM     12  C   UNL A   1      38.944  29.834  33.214  1.00  0.00     0.011 A 
ATOM     13  C   UNL A   1      39.815  31.275  34.940  1.00  0.00     0.058 A 
ATOM     14  C   UNL A   1      39.892  30.083  34.228  1.00  0.00     0.008 A 
ATOM     15  N   UNL A   1      40.929  31.340  35.792  1.00  0.00    -0.274 N 
ATOM     16  C   UNL A   1      41.004  29.350  34.731  1.00  0.00     0.009 A 
ATOM     17  C   UNL A   1      41.628  30.130  35.709  1.00  0.00     0.057 A 
ATOM     18  C   UNL A   1      41.538  28.080  34.416  1.00  0.00     0.031 A 
ATOM     19  C   UNL A   1      42.740  29.644  36.426  1.00  0.00     0.029 A 
ATOM     20  C   UNL A   1      42.657  27.616  35.106  1.00  0.00     0.041 A 
ATOM     21  C   UNL A   1      43.247  28.382  36.102  1.00  0.00     0.023 A 
ATOM     22  Cl  UNL A   1      43.300  26.064  34.729  1.00  0.00    -0.084 Cl
BRANCH  15  23
ATOM     23  C   UNL A   1      41.301  32.480  36.550  1.00  0.00     0.284 C 
ATOM     24  O   UNL A   1      42.024  33.300  35.985  1.00  0.00    -0.266 OA
BRANCH  23  25
ATOM     25  C   UNL A   1      40.949  32.654  37.956  1.00  0.00     0.167 A 
ATOM     26  C   UNL A   1      39.705  32.923  38.490  1.00  0.00     0.231 A 
ATOM     27  N   UNL A   1      41.837  32.426  38.991  1.00  0.00    -0.211 NA
ATOM     28  O   UNL A   1      39.795  32.845  39.848  1.00  0.00    -0.451 OA
ATOM     29  C   UNL A   1      41.095  32.511  40.072  1.00  0.00     0.308 A 
ENDBRANCH  23  25
ENDBRANCH  15  23
ENDBRANCH   7   9
ENDBRANCH   4   7
ENDBRANCH   2   3
ENDBRANCH   1   2
BRANCH   1  30
ATOM     30  C   UNL A   1      35.587  33.800  29.332  1.00  0.00     0.023 C 
BRANCH  30  31
ATOM     31  C   UNL A   1      35.681  33.026  28.027  1.00  0.00     0.116 C 
BRANCH  31  32
ATOM     32  N   UNL A   1      34.614  32.051  27.823  1.00  0.00    -0.352 N 
ATOM     33  C   UNL A   1      34.729  30.681  27.868  1.00  0.00     0.251 C 
ATOM     34  H   UNL A   1      33.718  32.412  27.633  1.00  0.00     0.163 HD
ATOM     35  O   UNL A   1      33.777  29.936  27.664  1.00  0.00    -0.269 OA
BRANCH  33  36
ATOM     36  C   UNL A   1      36.057  30.119  28.142  1.00  0.00     0.039 A 
ATOM     37  C   UNL A   1      37.030  30.148  27.140  1.00  0.00     0.014 A 
ATOM     38  C   UNL A   1      36.350  29.677  29.433  1.00  0.00     0.014 A 
ATOM     39  C   UNL A   1      38.334  29.772  27.453  1.00  0.00     0.010 A 
ATOM     40  C   UNL A   1      37.662  29.385  29.759  1.00  0.00     0.010 A 
ATOM     41  C   UNL A   1      38.660  29.412  28.769  1.00  0.00    -0.014 A 
BRANCH  41  42
ATOM     42  C   UNL A   1      40.016  28.965  29.153  1.00  0.00     0.031 A 
ATOM     43  C   UNL A   1      40.935  29.970  29.783  1.00  0.00     0.074 A 
ATOM     44  C   UNL A   1      40.445  27.732  28.829  1.00  0.00     0.049 A 
ATOM     45  N   UNL A   1      42.226  29.911  29.968  1.00  0.00    -0.248 NA
ATOM     46  C   UNL A   1      40.320  31.239  30.209  1.00  0.00     0.031 C 
ATOM     47  C   UNL A   1      39.640  26.687  28.193  1.00  0.00     0.029 A 
ATOM     48  N   UNL A   1      41.684  27.161  28.964  1.00  0.00    -0.354 N 
ATOM     49  C   UNL A   1      42.584  31.152  30.482  1.00  0.00     0.074 A 
ATOM     50  C   UNL A   1      41.383  31.956  30.536  1.00  0.00     0.031 C 
ATOM     51  C   UNL A   1      40.406  25.602  27.994  1.00  0.00     0.029 A 
ATOM     52  C   UNL A   1      41.765  25.891  28.444  1.00  0.00     0.049 A 
ATOM     53  H   UNL A   1      42.445  27.617  29.393  1.00  0.00     0.167 HD
ATOM     54  C   UNL A   1      43.804  31.573  30.889  1.00  0.00     0.037 A 
ATOM     55  C   UNL A   1      42.825  25.068  28.325  1.00  0.00     0.037 A 
ATOM     56  C   UNL A   1      44.972  30.735  30.878  1.00  0.00     0.049 A 
ATOM     57  C   UNL A   1      44.167  25.543  28.820  1.00  0.00     0.074 A 
ATOM     58  C   UNL A   1      46.248  31.029  31.321  1.00  0.00     0.029 A 
ATOM     59  N   UNL A   1      44.999  29.428  30.409  1.00  0.00    -0.354 N 
ATOM     60  N   UNL A   1      44.492  26.709  29.326  1.00  0.00    -0.248 NA
ATOM     61  C   UNL A   1      45.282  24.592  28.732  1.00  0.00     0.031 C 
ATOM     62  C   UNL A   1      47.053  29.907  31.095  1.00  0.00     0.029 A 
ATOM     63  C   UNL A   1      46.269  28.902  30.550  1.00  0.00     0.049 A 
ATOM     64  H   UNL A   1      44.227  28.948  30.032  1.00  0.00     0.167 HD
ATOM     65  C   UNL A   1      45.842  26.623  29.645  1.00  0.00     0.074 A 
ATOM     66  C   UNL A   1      46.270  25.287  29.278  1.00  0.00     0.031 C 
ATOM     67  C   UNL A   1      46.657  27.560  30.192  1.00  0.00     0.037 A 
BRANCH  54  68
ATOM     68  C   UNL A   1      43.922  32.992  31.371  1.00  0.00     0.058 A 
ATOM     69  C   UNL A   1      43.836  33.320  32.735  1.00  0.00     0.135 A 
ATOM     70  C   UNL A   1      44.115  34.040  30.458  1.00  0.00     0.135 A 
ATOM     71  F   UNL A   1      43.629  32.359  33.650  1.00  0.00    -0.206 F 
ATOM     72  C   UNL A   1      43.893  34.639  33.171  1.00  0.00     0.059 A 
ATOM     73  C   UNL A   1      44.209  35.365  30.875  1.00  0.00     0.059 A 
ATOM     74  F   UNL A   1      44.201  33.786  29.143  1.00  0.00    -0.206 F 
ATOM     75  C   UNL A   1      44.076  35.656  32.232  1.00  0.00     0.060 A 
BRANCH  75  76
ATOM     76  S   UNL A   1      44.140  37.364  32.813  1.00  0.00     0.124 S 
ATOM     77  O   UNL A   1      43.959  38.101  31.565  1.00  0.00    -0.237 OA
ATOM     78  O   UNL A   1      43.020  37.419  33.748  1.00  0.00    -0.237 OA
ATOM     79  O   UNL A   1      45.463  37.467  33.417  1.00  0.00    -0.744 OA
ENDBRANCH  75  76
ENDBRANCH  54  68
BRANCH  55  80
ATOM     80  C   UNL A   1      42.654  23.714  27.738  1.00  0.00     0.058 A 
ATOM     81  C   UNL A   1      42.700  23.525  26.349  1.00  0.00     0.135 A 
ATOM     82  C   UNL A   1      42.475  22.580  28.545  1.00  0.00     0.135 A 
ATOM     83  F   UNL A   1      42.863  24.578  25.535  1.00  0.00    -0.206 F 
ATOM     84  C   UNL A   1      42.566  22.263  25.778  1.00  0.00     0.059 A 
ATOM     85  C   UNL A   1      42.361  21.304  28.000  1.00  0.00     0.059 A 
ATOM     86  F   UNL A   1      42.442  22.703  29.882  1.00  0.00    -0.206 F 
ATOM     87  C   UNL A   1      42.402  21.156  26.614  1.00  0.00     0.060 A 
BRANCH  87  88
ATOM     88  S   UNL A   1      42.298  19.516  25.865  1.00  0.00     0.124 S 
ATOM     89  O   UNL A   1      42.589  18.654  27.005  1.00  0.00    -0.237 OA
ATOM     90  O   UNL A   1      40.923  19.487  25.378  1.00  0.00    -0.237 OA
ATOM     91  O   UNL A   1      43.322  19.557  24.826  1.00  0.00    -0.744 OA
ENDBRANCH  87  88
ENDBRANCH  55  80
BRANCH  67  92
ATOM     92  C   UNL A   1      48.077  27.158  30.476  1.00  0.00     0.058 A 
ATOM     93  C   UNL A   1      49.125  27.493  29.606  1.00  0.00     0.135 A 
ATOM     94  C   UNL A   1      48.396  26.495  31.671  1.00  0.00     0.135 A 
ATOM     95  F   UNL A   1      48.869  28.122  28.448  1.00  0.00    -0.206 F 
ATOM     96  C   UNL A   1      50.443  27.166  29.904  1.00  0.00     0.059 A 
ATOM     97  C   UNL A   1      49.709  26.182  32.002  1.00  0.00     0.059 A 
ATOM     98  F   UNL A   1      47.427  26.165  32.541  1.00  0.00    -0.206 F 
ATOM     99  C   UNL A   1      50.726  26.513  31.107  1.00  0.00     0.060 A 
BRANCH  99 100
ATOM    100  S   UNL A   1      52.445  26.136  31.503  1.00  0.00     0.124 S 
ATOM    101  O   UNL A   1      52.819  27.292  32.310  1.00  0.00    -0.237 OA
ATOM    102  O   UNL A   1      52.331  24.871  32.223  1.00  0.00    -0.237 OA
ATOM    103  O   UNL A   1      53.084  26.049  30.193  1.00  0.00    -0.744 OA
ENDBRANCH  99 100
ENDBRANCH  67  92
ENDBRANCH  41  42
ENDBRANCH  33  36
ENDBRANCH  31  32
ENDBRANCH  30  31
ENDBRANCH   1  30
TORSDOF 17
ENDMDL
MODEL 2
REMARK VINA RESULT:      -9.6      3.385      9.176
REMARK SMILES C[C@H](C(=O)NCCCCNC(=O)c1ccc(-c2c3nc(c(-c4c(F)cc(S(=O)(=O)[O-])cc4F)c4ccc([nH]4)c(-c4c(F)cc(S(=O)(=O)[O-])cc4F)c4nc(c(-c5c(F)cc(S(=O)(=O)[O-])cc5F)c5ccc2[nH]5)C=C4)C=C3)cc1)c1ccc2c3cc(Cl)ccc3n(C(=O)c3cocn3)c2c1
REMARK SMILES IDX 7 1 6 2 5 3 3 4 4 5 2 7 1 8 79 9 80 10 99 11 81 12 98 13
REMARK SMILES IDX 82 14 90 15 83 16 89 17 84 18 88 19 85 20 87 21 86 22 91 23
REMARK SMILES IDX 92 24 93 25 94 26 97 27 95 28 96 29 8 30 9 31 10 32 11 33
REMARK SMILES IDX 12 35 13 36 14 37 78 38 15 39 77 40 16 41 17 42 18 43 71 44
REMARK SMILES IDX 19 45 76 46 70 47 72 48 20 49 75 50 69 51 68 52 21 54 55 55
REMARK SMILES IDX 34 56 54 57 35 58 38 59 53 60 73 61 36 62 37 63 52 65 74 66
REMARK SMILES IDX 39 67 22 68 23 69 32 70 24 71 25 72 31 73 33 74 26 75 27 76
REMARK SMILES IDX 28 77 29 78 30 79 56 80 57 81 66 82 58 83 59 84 65 85 67 86
REMARK SMILES IDX 60 87 61 88 62 89 63 90 64 91 40 92 41 93 50 94 42 95 43 96
REMARK SMILES IDX 49 97 51 98 44 99 45 100 46 101 47 102 48 103
REMARK H PARENT 5 6 10 34 72 53 38 64
REMARK Flexibility Score: inf
ROOT
ATOM      1  C   UNL A   1      38.677  32.329  34.966  1.00  0.00     0.023 C 
ENDROOT
BRANCH   1   2
ATOM      2  C   UNL A   1      37.149  32.340  34.922  1.00  0.00     0.116 C 
BRANCH   2   3
ATOM      3  N   UNL A   1      36.668  33.656  34.561  1.00  0.00    -0.356 N 
ATOM      4  C   UNL A   1      36.497  34.200  33.319  1.00  0.00     0.227 C 
ATOM      5  O   UNL A   1      36.277  35.413  33.258  1.00  0.00    -0.274 OA
ATOM      6  H   UNL A   1      36.431  34.242  35.317  1.00  0.00     0.163 HD
BRANCH   4   7
ATOM      7  C   UNL A   1      36.546  33.314  32.056  1.00  0.00     0.105 C 
ATOM      8  C   UNL A   1      35.237  33.515  31.278  1.00  0.00     0.023 C 
BRANCH   7   9
ATOM      9  C   UNL A   1      37.796  33.573  31.214  1.00  0.00    -0.034 A 
ATOM     10  C   UNL A   1      37.724  33.876  29.853  1.00  0.00     0.005 A 
ATOM     11  C   UNL A   1      39.057  33.606  31.842  1.00  0.00     0.032 A 
ATOM     12  C   UNL A   1      38.857  34.287  29.138  1.00  0.00     0.011 A 
ATOM     13  C   UNL A   1      40.168  34.145  31.157  1.00  0.00     0.058 A 
ATOM     14  C   UNL A   1      40.079  34.491  29.812  1.00  0.00     0.008 A 
ATOM     15  N   UNL A   1      41.427  34.557  31.624  1.00  0.00    -0.274 N 
ATOM     16  C   UNL A   1      41.340  35.017  29.416  1.00  0.00     0.009 A 
ATOM     17  C   UNL A   1      42.171  35.038  30.541  1.00  0.00     0.057 A 
ATOM     18  C   UNL A   1      41.837  35.493  28.182  1.00  0.00     0.031 A 
ATOM     19  C   UNL A   1      43.511  35.466  30.446  1.00  0.00     0.029 A 
ATOM     20  C   UNL A   1      43.154  35.945  28.100  1.00  0.00     0.041 A 
ATOM     21  C   UNL A   1      43.983  35.927  29.213  1.00  0.00     0.023 A 
ATOM     22  Cl  UNL A   1      43.760  36.515  26.593  1.00  0.00    -0.084 Cl
BRANCH  15  23
ATOM     23  C   UNL A   1      41.829  34.541  32.984  1.00  0.00     0.284 C 
ATOM     24  O   UNL A   1      41.700  35.596  33.604  1.00  0.00    -0.266 OA
BRANCH  23  25
ATOM     25  C   UNL A   1      42.458  33.387  33.618  1.00  0.00     0.167 A 
ATOM     26  C   UNL A   1      43.324  32.475  33.049  1.00  0.00     0.231 A 
ATOM     27  N   UNL A   1      42.368  33.127  34.973  1.00  0.00    -0.211 NA
ATOM     28  O   UNL A   1      43.795  31.658  34.033  1.00  0.00    -0.451 OA
ATOM     29  C   UNL A   1      43.203  32.131  35.163  1.00  0.00     0.308 A 
ENDBRANCH  23  25
ENDBRANCH  15  23
ENDBRANCH   7   9
ENDBRANCH   4   7
ENDBRANCH   2   3
ENDBRANCH   1   2
BRANCH   1  30
ATOM     30  C   UNL A   1      39.344  31.358  34.005  1.00  0.00     0.023 C 
BRANCH  30  31
ATOM     31  C   UNL A   1      38.683  29.990  33.939  1.00  0.00     0.116 C 
BRANCH  31  32
ATOM     32  N   UNL A   1      37.404  29.970  33.236  1.00  0.00    -0.352 N 
ATOM     33  C   UNL A   1      37.204  29.740  31.895  1.00  0.00     0.251 C 
ATOM     34  H   UNL A   1      36.600  30.139  33.780  1.00  0.00     0.163 HD
ATOM     35  O   UNL A   1      36.089  29.760  31.386  1.00  0.00    -0.269 OA
BRANCH  33  36
ATOM     36  C   UNL A   1      38.388  29.492  31.064  1.00  0.00     0.039 A 
ATOM     37  C   UNL A   1      38.560  30.224  29.888  1.00  0.00     0.014 A 
ATOM     38  C   UNL A   1      39.370  28.616  31.531  1.00  0.00     0.014 A 
ATOM     39  C   UNL A   1      39.760  30.112  29.190  1.00  0.00     0.010 A 
ATOM     40  C   UNL A   1      40.590  28.572  30.882  1.00  0.00     0.010 A 
ATOM     41  C   UNL A   1      40.789  29.304  29.698  1.00  0.00    -0.014 A 
BRANCH  41  42
ATOM     42  C   UNL A   1      42.069  29.113  28.983  1.00  0.00     0.031 A 
ATOM     43  C   UNL A   1      42.352  27.760  28.397  1.00  0.00     0.074 A 
ATOM     44  C   UNL A   1      42.997  30.087  28.973  1.00  0.00     0.049 A 
ATOM     45  N   UNL A   1      43.478  27.264  27.962  1.00  0.00    -0.248 NA
ATOM     46  C   UNL A   1      41.218  26.819  28.353  1.00  0.00     0.031 C 
ATOM     47  C   UNL A   1      42.833  31.429  29.534  1.00  0.00     0.029 A 
ATOM     48  N   UNL A   1      44.282  30.081  28.495  1.00  0.00    -0.354 N 
ATOM     49  C   UNL A   1      43.200  25.941  27.641  1.00  0.00     0.074 A 
ATOM     50  C   UNL A   1      41.814  25.699  27.975  1.00  0.00     0.031 C 
ATOM     51  C   UNL A   1      43.974  32.117  29.367  1.00  0.00     0.029 A 
ATOM     52  C   UNL A   1      44.963  31.251  28.733  1.00  0.00     0.049 A 
ATOM     53  H   UNL A   1      44.681  29.311  28.027  1.00  0.00     0.167 HD
ATOM     54  C   UNL A   1      44.027  25.016  27.100  1.00  0.00     0.037 A 
ATOM     55  C   UNL A   1      46.248  31.573  28.484  1.00  0.00     0.037 A 
ATOM     56  C   UNL A   1      45.386  25.296  26.724  1.00  0.00     0.049 A 
ATOM     57  C   UNL A   1      47.140  30.541  27.845  1.00  0.00     0.074 A 
ATOM     58  C   UNL A   1      46.301  24.460  26.112  1.00  0.00     0.029 A 
ATOM     59  N   UNL A   1      46.019  26.517  26.915  1.00  0.00    -0.354 N 
ATOM     60  N   UNL A   1      46.864  29.299  27.524  1.00  0.00    -0.248 NA
ATOM     61  C   UNL A   1      48.514  30.953  27.532  1.00  0.00     0.031 C 
ATOM     62  C   UNL A   1      47.497  25.168  25.957  1.00  0.00     0.029 A 
ATOM     63  C   UNL A   1      47.314  26.457  26.435  1.00  0.00     0.049 A 
ATOM     64  H   UNL A   1      45.607  27.308  27.332  1.00  0.00     0.167 HD
ATOM     65  C   UNL A   1      48.020  28.789  26.943  1.00  0.00     0.074 A 
ATOM     66  C   UNL A   1      48.996  29.861  26.954  1.00  0.00     0.031 C 
ATOM     67  C   UNL A   1      48.255  27.550  26.444  1.00  0.00     0.037 A 
BRANCH  54  68
ATOM     68  C   UNL A   1      43.476  23.633  26.890  1.00  0.00     0.058 A 
ATOM     69  C   UNL A   1      43.290  22.740  27.959  1.00  0.00     0.135 A 
ATOM     70  C   UNL A   1      43.138  23.189  25.602  1.00  0.00     0.135 A 
ATOM     71  F   UNL A   1      43.618  23.104  29.209  1.00  0.00    -0.206 F 
ATOM     72  C   UNL A   1      42.830  21.444  27.753  1.00  0.00     0.059 A 
ATOM     73  C   UNL A   1      42.644  21.907  25.377  1.00  0.00     0.059 A 
ATOM     74  F   UNL A   1      43.299  23.997  24.543  1.00  0.00    -0.206 F 
ATOM     75  C   UNL A   1      42.513  21.035  26.457  1.00  0.00     0.060 A 
BRANCH  75  76
ATOM     76  S   UNL A   1      41.925  19.347  26.204  1.00  0.00     0.124 S 
ATOM     77  O   UNL A   1      42.718  18.934  25.050  1.00  0.00    -0.237 OA
ATOM     78  O   UNL A   1      42.266  18.704  27.469  1.00  0.00    -0.237 OA
ATOM     79  O   UNL A   1      40.497  19.520  25.956  1.00  0.00    -0.744 OA
ENDBRANCH  75  76
ENDBRANCH  54  68
BRANCH  55  80
ATOM     80  C   UNL A   1      46.752  32.930  28.817  1.00  0.00     0.058 A 
ATOM     81  C   UNL A   1      46.756  33.949  27.853  1.00  0.00     0.135 A 
ATOM     82  C   UNL A   1      47.208  33.250  30.106  1.00  0.00     0.135 A 
ATOM     83  F   UNL A   1      46.335  33.692  26.606  1.00  0.00    -0.206 F 
ATOM     84  C   UNL A   1      47.201  35.234  28.149  1.00  0.00     0.059 A 
ATOM     85  C   UNL A   1      47.637  34.533  30.433  1.00  0.00     0.059 A 
ATOM     86  F   UNL A   1      47.208  32.316  31.070  1.00  0.00    -0.206 F 
ATOM     87  C   UNL A   1      47.635  35.517  29.446  1.00  0.00     0.060 A 
BRANCH  87  88
ATOM     88  S   UNL A   1      48.145  37.206  29.836  1.00  0.00     0.124 S 
ATOM     89  O   UNL A   1      48.776  37.618  28.587  1.00  0.00    -0.237 OA
ATOM     90  O   UNL A   1      46.871  37.846  30.149  1.00  0.00    -0.237 OA
ATOM     91  O   UNL A   1      49.045  37.030  30.971  1.00  0.00    -0.744 OA
ENDBRANCH  87  88
ENDBRANCH  55  80
BRANCH  67  92
ATOM     92  C   UNL A   1      49.600  27.301  25.822  1.00  0.00     0.058 A 
ATOM     93  C   UNL A   1      50.696  26.869  26.584  1.00  0.00     0.135 A 
ATOM     94  C   UNL A   1      49.769  27.427  24.434  1.00  0.00     0.135 A 
ATOM     95  F   UNL A   1      50.585  26.740  27.916  1.00  0.00    -0.206 F 
ATOM     96  C   UNL A   1      51.921  26.587  25.991  1.00  0.00     0.059 A 
ATOM     97  C   UNL A   1      50.977  27.125  23.818  1.00  0.00     0.059 A 
ATOM     98  F   UNL A   1      48.745  27.825  23.662  1.00  0.00    -0.206 F 
ATOM     99  C   UNL A   1      52.052  26.715  24.606  1.00  0.00     0.060 A 
BRANCH  99 100
ATOM    100  S   UNL A   1      53.634  26.302  23.844  1.00  0.00     0.124 S 
ATOM    101  O   UNL A   1      53.233  26.024  22.470  1.00  0.00    -0.237 OA
ATOM    102  O   UNL A   1      54.407  27.524  24.044  1.00  0.00    -0.237 OA
ATOM    103  O   UNL A   1      54.090  25.147  24.613  1.00  0.00    -0.744 OA
ENDBRANCH  99 100
ENDBRANCH  67  92
ENDBRANCH  41  42
ENDBRANCH  33  36
ENDBRANCH  31  32
ENDBRANCH  30  31
ENDBRANCH   1  30
TORSDOF 17
ENDMDL
MODEL 3
REMARK VINA RESULT:      -9.5      3.689      9.511
REMARK SMILES C[C@H](C(=O)NCCCCNC(=O)c1ccc(-c2c3nc(c(-c4c(F)cc(S(=O)(=O)[O-])cc4F)c4ccc([nH]4)c(-c4c(F)cc(S(=O)(=O)[O-])cc4F)c4nc(c(-c5c(F)cc(S(=O)(=O)[O-])cc5F)c5ccc2[nH]5)C=C4)C=C3)cc1)c1ccc2c3cc(Cl)ccc3n(C(=O)c3cocn3)c2c1
REMARK SMILES IDX 7 1 6 2 5 3 3 4 4 5 2 7 1 8 79 9 80 10 99 11 81 12 98 13
REMARK SMILES IDX 82 14 90 15 83 16 89 17 84 18 88 19 85 20 87 21 86 22 91 23
REMARK SMILES IDX 92 24 93 25 94 26 97 27 95 28 96 29 8 30 9 31 10 32 11 33
REMARK SMILES IDX 12 35 13 36 14 37 78 38 15 39 77 40 16 41 17 42 18 43 71 44
REMARK SMILES IDX 19 45 76 46 70 47 72 48 20 49 75 50 69 51 68 52 21 54 55 55
REMARK SMILES IDX 34 56 54 57 35 58 38 59 53 60 73 61 36 62 37 63 52 65 74 66
REMARK SMILES IDX 39 67 22 68 23 69 32 70 24 71 25 72 31 73 33 74 26 75 27 76
REMARK SMILES IDX 28 77 29 78 30 79 56 80 57 81 66 82 58 83 59 84 65 85 67 86
REMARK SMILES IDX 60 87 61 88 62 89 63 90 64 91 40 92 41 93 50 94 42 95 43 96
REMARK SMILES IDX 49 97 51 98 44 99 45 100 46 101 47 102 48 103
REMARK H PARENT 5 6 10 34 72 53 38 64
REMARK Flexibility Score: inf
ROOT
ATOM      1  C   UNL A   1      43.671  36.753  29.386  1.00  0.00     0.023 C 
ENDROOT
BRANCH   1   2
ATOM      2  C   UNL A   1      43.755  35.254  29.678  1.00  0.00     0.116 C 
BRANCH   2   3
ATOM      3  N   UNL A   1      43.998  35.032  31.088  1.00  0.00    -0.356 N 
ATOM      4  C   UNL A   1      43.327  34.220  31.960  1.00  0.00     0.227 C 
ATOM      5  O   UNL A   1      43.577  34.352  33.161  1.00  0.00    -0.274 OA
ATOM      6  H   UNL A   1      44.751  35.536  31.472  1.00  0.00     0.163 HD
BRANCH   4   7
ATOM      7  C   UNL A   1      42.327  33.164  31.444  1.00  0.00     0.105 C 
ATOM      8  C   UNL A   1      42.587  31.850  32.194  1.00  0.00     0.023 C 
BRANCH   7   9
ATOM      9  C   UNL A   1      40.877  33.641  31.543  1.00  0.00    -0.034 A 
ATOM     10  C   UNL A   1      40.277  34.403  30.539  1.00  0.00     0.005 A 
ATOM     11  C   UNL A   1      40.085  33.219  32.629  1.00  0.00     0.032 A 
ATOM     12  C   UNL A   1      38.902  34.678  30.558  1.00  0.00     0.011 A 
ATOM     13  C   UNL A   1      38.682  33.383  32.580  1.00  0.00     0.058 A 
ATOM     14  C   UNL A   1      38.083  34.103  31.551  1.00  0.00     0.008 A 
ATOM     15  N   UNL A   1      37.661  32.813  33.358  1.00  0.00    -0.274 N 
ATOM     16  C   UNL A   1      36.677  34.074  31.766  1.00  0.00     0.009 A 
ATOM     17  C   UNL A   1      36.428  33.287  32.894  1.00  0.00     0.057 A 
ATOM     18  C   UNL A   1      35.588  34.649  31.072  1.00  0.00     0.031 A 
ATOM     19  C   UNL A   1      35.118  33.113  33.385  1.00  0.00     0.029 A 
ATOM     20  C   UNL A   1      34.291  34.449  31.542  1.00  0.00     0.041 A 
ATOM     21  C   UNL A   1      34.057  33.697  32.686  1.00  0.00     0.023 A 
ATOM     22  Cl  UNL A   1      32.967  35.159  30.702  1.00  0.00    -0.084 Cl
BRANCH  15  23
ATOM     23  C   UNL A   1      37.867  31.865  34.392  1.00  0.00     0.284 C 
ATOM     24  O   UNL A   1      37.893  30.682  34.053  1.00  0.00    -0.266 OA
BRANCH  23  25
ATOM     25  C   UNL A   1      37.946  32.227  35.804  1.00  0.00     0.167 A 
ATOM     26  C   UNL A   1      37.961  33.493  36.354  1.00  0.00     0.231 A 
ATOM     27  N   UNL A   1      37.873  31.300  36.827  1.00  0.00    -0.211 NA
ATOM     28  O   UNL A   1      37.878  33.374  37.709  1.00  0.00    -0.451 OA
ATOM     29  C   UNL A   1      37.796  32.031  37.916  1.00  0.00     0.308 A 
ENDBRANCH  23  25
ENDBRANCH  15  23
ENDBRANCH   7   9
ENDBRANCH   4   7
ENDBRANCH   2   3
ENDBRANCH   1   2
BRANCH   1  30
ATOM     30  C   UNL A   1      44.997  37.495  29.432  1.00  0.00     0.023 C 
BRANCH  30  31
ATOM     31  C   UNL A   1      45.711  37.581  28.093  1.00  0.00     0.116 C 
BRANCH  31  32
ATOM     32  N   UNL A   1      47.168  37.602  28.184  1.00  0.00    -0.352 N 
ATOM     33  C   UNL A   1      48.008  36.514  28.204  1.00  0.00     0.251 C 
ATOM     34  H   UNL A   1      47.593  38.489  28.239  1.00  0.00     0.163 HD
ATOM     35  O   UNL A   1      49.225  36.627  28.303  1.00  0.00    -0.269 OA
BRANCH  33  36
ATOM     36  C   UNL A   1      47.397  35.181  28.131  1.00  0.00     0.039 A 
ATOM     37  C   UNL A   1      47.030  34.667  26.886  1.00  0.00     0.014 A 
ATOM     38  C   UNL A   1      47.308  34.415  29.294  1.00  0.00     0.014 A 
ATOM     39  C   UNL A   1      46.608  33.342  26.798  1.00  0.00     0.010 A 
ATOM     40  C   UNL A   1      46.970  33.077  29.190  1.00  0.00     0.010 A 
ATOM     41  C   UNL A   1      46.601  32.536  27.946  1.00  0.00    -0.014 A 
BRANCH  41  42
ATOM     42  C   UNL A   1      46.127  31.136  27.924  1.00  0.00     0.031 A 
ATOM     43  C   UNL A   1      47.098  30.071  27.504  1.00  0.00     0.074 A 
ATOM     44  C   UNL A   1      44.833  30.849  28.153  1.00  0.00     0.049 A 
ATOM     45  N   UNL A   1      46.872  28.834  27.156  1.00  0.00    -0.248 NA
ATOM     46  C   UNL A   1      48.511  30.479  27.407  1.00  0.00     0.031 C 
ATOM     47  C   UNL A   1      43.802  31.812  28.544  1.00  0.00     0.029 A 
ATOM     48  N   UNL A   1      44.157  29.660  28.056  1.00  0.00    -0.354 N 
ATOM     49  C   UNL A   1      48.103  28.332  26.750  1.00  0.00     0.074 A 
ATOM     50  C   UNL A   1      49.061  29.411  26.851  1.00  0.00     0.031 C 
ATOM     51  C   UNL A   1      42.625  31.175  28.654  1.00  0.00     0.029 A 
ATOM     52  C   UNL A   1      42.808  29.772  28.296  1.00  0.00     0.049 A 
ATOM     53  H   UNL A   1      44.596  28.807  27.834  1.00  0.00     0.167 HD
ATOM     54  C   UNL A   1      48.408  27.077  26.345  1.00  0.00     0.037 A 
ATOM     55  C   UNL A   1      41.833  28.846  28.211  1.00  0.00     0.037 A 
ATOM     56  C   UNL A   1      47.449  26.006  26.306  1.00  0.00     0.049 A 
ATOM     57  C   UNL A   1      42.201  27.445  27.797  1.00  0.00     0.074 A 
ATOM     58  C   UNL A   1      47.652  24.680  25.974  1.00  0.00     0.029 A 
ATOM     59  N   UNL A   1      46.105  26.142  26.627  1.00  0.00    -0.354 N 
ATOM     60  N   UNL A   1      43.371  26.974  27.436  1.00  0.00    -0.248 NA
ATOM     61  C   UNL A   1      41.119  26.452  27.780  1.00  0.00     0.031 C 
ATOM     62  C   UNL A   1      46.422  24.019  26.067  1.00  0.00     0.029 A 
ATOM     63  C   UNL A   1      45.464  24.924  26.498  1.00  0.00     0.049 A 
ATOM     64  H   UNL A   1      45.672  26.981  26.903  1.00  0.00     0.167 HD
ATOM     65  C   UNL A   1      43.174  25.622  27.179  1.00  0.00     0.074 A 
ATOM     66  C   UNL A   1      41.772  25.352  27.430  1.00  0.00     0.031 C 
ATOM     67  C   UNL A   1      44.069  24.686  26.775  1.00  0.00     0.037 A 
BRANCH  54  68
ATOM     68  C   UNL A   1      49.825  26.811  25.919  1.00  0.00     0.058 A 
ATOM     69  C   UNL A   1      50.811  26.407  26.835  1.00  0.00     0.135 A 
ATOM     70  C   UNL A   1      50.206  26.969  24.578  1.00  0.00     0.135 A 
ATOM     71  F   UNL A   1      50.506  26.262  28.135  1.00  0.00    -0.206 F 
ATOM     72  C   UNL A   1      52.131  26.214  26.445  1.00  0.00     0.059 A 
ATOM     73  C   UNL A   1      51.515  26.748  24.158  1.00  0.00     0.059 A 
ATOM     74  F   UNL A   1      49.307  27.357  23.659  1.00  0.00    -0.206 F 
ATOM     75  C   UNL A   1      52.475  26.390  25.104  1.00  0.00     0.060 A 
BRANCH  75  76
ATOM     76  S   UNL A   1      54.195  26.143  24.614  1.00  0.00     0.124 S 
ATOM     77  O   UNL A   1      54.354  24.708  24.830  1.00  0.00    -0.237 OA
ATOM     78  O   UNL A   1      54.188  26.576  23.221  1.00  0.00    -0.237 OA
ATOM     79  O   UNL A   1      54.934  27.002  25.532  1.00  0.00    -0.744 OA
ENDBRANCH  75  76
ENDBRANCH  54  68
BRANCH  55  80
ATOM     80  C   UNL A   1      40.432  29.210  28.547  1.00  0.00     0.058 A 
ATOM     81  C   UNL A   1      40.026  29.338  29.884  1.00  0.00     0.135 A 
ATOM     82  C   UNL A   1      39.480  29.470  27.549  1.00  0.00     0.135 A 
ATOM     83  F   UNL A   1      40.898  29.094  30.874  1.00  0.00    -0.206 F 
ATOM     84  C   UNL A   1      38.726  29.700  30.221  1.00  0.00     0.059 A 
ATOM     85  C   UNL A   1      38.179  29.856  27.860  1.00  0.00     0.059 A 
ATOM     86  F   UNL A   1      39.821  29.379  26.253  1.00  0.00    -0.206 F 
ATOM     87  C   UNL A   1      37.810  29.963  29.200  1.00  0.00     0.060 A 
BRANCH  87  88
ATOM     88  S   UNL A   1      36.145  30.500  29.651  1.00  0.00     0.124 S 
ATOM     89  O   UNL A   1      36.173  30.356  31.102  1.00  0.00    -0.237 OA
ATOM     90  O   UNL A   1      36.118  31.869  29.146  1.00  0.00    -0.237 OA
ATOM     91  O   UNL A   1      35.286  29.561  28.938  1.00  0.00    -0.744 OA
ENDBRANCH  87  88
ENDBRANCH  55  80
BRANCH  67  92
ATOM     92  C   UNL A   1      43.573  23.275  26.627  1.00  0.00     0.058 A 
ATOM     93  C   UNL A   1      43.435  22.669  25.370  1.00  0.00     0.135 A 
ATOM     94  C   UNL A   1      43.303  22.500  27.767  1.00  0.00     0.135 A 
ATOM     95  F   UNL A   1      43.676  23.371  24.251  1.00  0.00    -0.206 F 
ATOM     96  C   UNL A   1      43.029  21.345  25.247  1.00  0.00     0.059 A 
ATOM     97  C   UNL A   1      42.921  21.168  27.668  1.00  0.00     0.059 A 
ATOM     98  F   UNL A   1      43.432  23.034  28.993  1.00  0.00    -0.206 F 
ATOM     99  C   UNL A   1      42.777  20.602  26.402  1.00  0.00     0.060 A 
BRANCH  99 100
ATOM    100  S   UNL A   1      42.294  18.872  26.230  1.00  0.00     0.124 S 
ATOM    101  O   UNL A   1      42.510  18.372  27.583  1.00  0.00    -0.237 OA
ATOM    102  O   UNL A   1      40.901  18.975  25.807  1.00  0.00    -0.237 OA
ATOM    103  O   UNL A   1      43.214  18.362  25.217  1.00  0.00    -0.744 OA
ENDBRANCH  99 100
ENDBRANCH  67  92
ENDBRANCH  41  42
ENDBRANCH  33  36
ENDBRANCH  31  32
ENDBRANCH  30  31
ENDBRANCH   1  30
TORSDOF 17
ENDMDL
