MODEL 1
REMARK VINA RESULT:     -13.0      0.000      0.000
REMARK SMILES O=C(NCCCCNC(=O)[C@@H](c1cccc(F)c1Cl)[NH+]1CCN(c2ccccc2)CC1)c1ccc(-c2c3nc(c(-c4c(F)cc(S(=O)(=O)[O-])cc4F)c4ccc([nH]4)c(-c4c(F)cc(S(=O)(=O)[O-])cc4F)c4nc(c(-c5c(F)cc(S(=O)(=O)[O-])cc5F)c5ccc2[nH]5)C=C4)C=C3)cc1
REMARK SMILES IDX 5 1 4 2 3 3 1 4 2 5 32 7 33 8 97 9 34 10 96 11 35 12 36 13
REMARK SMILES IDX 37 14 90 15 38 16 95 17 89 18 91 19 39 20 94 21 88 22 87 23
REMARK SMILES IDX 40 25 74 26 53 27 73 28 54 29 57 30 72 31 92 32 55 33 56 34
REMARK SMILES IDX 71 36 93 37 58 38 41 39 42 40 51 41 43 42 44 43 50 44 52 45
REMARK SMILES IDX 45 46 46 47 47 48 48 49 49 50 75 51 76 52 85 53 77 54 78 55
REMARK SMILES IDX 84 56 86 57 79 58 80 59 81 60 82 61 83 62 59 63 60 64 69 65
REMARK SMILES IDX 61 66 62 67 68 68 70 69 63 70 64 71 65 72 66 73 67 74 6 75
REMARK SMILES IDX 7 76 8 77 9 78 10 80 11 81 12 82 13 83 18 84 14 85 16 86
REMARK SMILES IDX 19 87 15 88 17 89 20 90 21 91 31 92 22 94 30 95 23 96 24 97
REMARK SMILES IDX 25 98 29 99 26 100 28 101 27 102
REMARK H PARENT 3 6 91 24 57 35 8 79 20 93
REMARK Flexibility Score: inf
ROOT
ATOM      1  C   UNL A   1      37.354  23.845  25.880  1.00  0.00     0.023 C 
ENDROOT
BRANCH   1   2
ATOM      2  C   UNL A   1      38.591  24.023  26.745  1.00  0.00     0.116 C 
BRANCH   2   3
ATOM      3  N   UNL A   1      39.775  24.379  25.974  1.00  0.00    -0.352 N 
ATOM      4  O   UNL A   1      41.491  25.697  25.322  1.00  0.00    -0.269 OA
ATOM      5  C   UNL A   1      40.612  25.457  26.145  1.00  0.00     0.251 C 
ATOM      6  H   UNL A   1      40.005  23.771  25.235  1.00  0.00     0.163 HD
BRANCH   5   7
ATOM      7  C   UNL A   1      40.420  26.335  27.318  1.00  0.00     0.039 A 
ATOM      8  C   UNL A   1      41.065  27.571  27.375  1.00  0.00     0.014 A 
ATOM      9  C   UNL A   1      39.625  25.902  28.383  1.00  0.00     0.014 A 
ATOM     10  C   UNL A   1      41.041  28.302  28.553  1.00  0.00     0.010 A 
ATOM     11  C   UNL A   1      39.524  26.688  29.536  1.00  0.00     0.010 A 
ATOM     12  C   UNL A   1      40.255  27.881  29.640  1.00  0.00    -0.014 A 
BRANCH  12  13
ATOM     13  C   UNL A   1      40.168  28.766  30.829  1.00  0.00     0.031 A 
ATOM     14  C   UNL A   1      41.126  28.638  31.980  1.00  0.00     0.074 A 
ATOM     15  C   UNL A   1      39.244  29.747  30.814  1.00  0.00     0.049 A 
ATOM     16  N   UNL A   1      41.222  29.384  33.051  1.00  0.00    -0.248 NA
ATOM     17  C   UNL A   1      42.096  27.532  31.933  1.00  0.00     0.031 C 
ATOM     18  C   UNL A   1      38.246  29.943  29.756  1.00  0.00     0.029 A 
ATOM     19  N   UNL A   1      39.015  30.783  31.679  1.00  0.00    -0.354 N 
ATOM     20  C   UNL A   1      42.245  28.834  33.813  1.00  0.00     0.074 A 
ATOM     21  C   UNL A   1      42.730  27.676  33.091  1.00  0.00     0.031 C 
ATOM     22  C   UNL A   1      37.562  31.070  29.999  1.00  0.00     0.029 A 
ATOM     23  C   UNL A   1      38.029  31.641  31.256  1.00  0.00     0.049 A 
ATOM     24  H   UNL A   1      39.510  30.902  32.523  1.00  0.00     0.167 HD
ATOM     25  C   UNL A   1      42.736  29.262  35.002  1.00  0.00     0.037 A 
ATOM     26  C   UNL A   1      37.543  32.762  31.820  1.00  0.00     0.037 A 
ATOM     27  C   UNL A   1      42.256  30.428  35.703  1.00  0.00     0.049 A 
ATOM     28  C   UNL A   1      38.131  33.229  33.118  1.00  0.00     0.074 A 
ATOM     29  C   UNL A   1      42.686  30.944  36.913  1.00  0.00     0.029 A 
ATOM     30  N   UNL A   1      41.244  31.264  35.251  1.00  0.00    -0.354 N 
ATOM     31  N   UNL A   1      39.095  32.691  33.823  1.00  0.00    -0.248 NA
ATOM     32  C   UNL A   1      37.561  34.451  33.700  1.00  0.00     0.031 C 
ATOM     33  C   UNL A   1      41.919  32.079  37.205  1.00  0.00     0.029 A 
ATOM     34  C   UNL A   1      41.034  32.288  36.160  1.00  0.00     0.049 A 
ATOM     35  H   UNL A   1      40.749  31.146  34.409  1.00  0.00     0.167 HD
ATOM     36  C   UNL A   1      39.242  33.500  34.941  1.00  0.00     0.074 A 
ATOM     37  C   UNL A   1      38.294  34.588  34.795  1.00  0.00     0.031 C 
ATOM     38  C   UNL A   1      40.073  33.350  36.001  1.00  0.00     0.037 A 
BRANCH  25  39
ATOM     39  C   UNL A   1      43.849  28.468  35.631  1.00  0.00     0.058 A 
ATOM     40  C   UNL A   1      45.196  28.760  35.372  1.00  0.00     0.135 A 
ATOM     41  C   UNL A   1      43.565  27.450  36.556  1.00  0.00     0.135 A 
ATOM     42  F   UNL A   1      45.523  29.713  34.484  1.00  0.00    -0.206 F 
ATOM     43  C   UNL A   1      46.225  28.064  36.000  1.00  0.00     0.059 A 
ATOM     44  C   UNL A   1      44.578  26.754  37.211  1.00  0.00     0.059 A 
ATOM     45  F   UNL A   1      42.292  27.131  36.839  1.00  0.00    -0.206 F 
ATOM     46  C   UNL A   1      45.906  27.063  36.920  1.00  0.00     0.060 A 
BRANCH  46  47
ATOM     47  S   UNL A   1      47.251  26.187  37.748  1.00  0.00     0.124 S 
ATOM     48  O   UNL A   1      48.385  26.517  36.891  1.00  0.00    -0.237 OA
ATOM     49  O   UNL A   1      47.257  26.801  39.072  1.00  0.00    -0.237 OA
ATOM     50  O   UNL A   1      46.821  24.792  37.712  1.00  0.00    -0.744 OA
ENDBRANCH  46  47
ENDBRANCH  25  39
BRANCH  26  51
ATOM     51  C   UNL A   1      36.437  33.499  31.160  1.00  0.00     0.058 A 
ATOM     52  C   UNL A   1      36.645  34.214  29.972  1.00  0.00     0.135 A 
ATOM     53  C   UNL A   1      35.138  33.473  31.692  1.00  0.00     0.135 A 
ATOM     54  F   UNL A   1      37.869  34.266  29.426  1.00  0.00    -0.206 F 
ATOM     55  C   UNL A   1      35.606  34.891  29.341  1.00  0.00     0.059 A 
ATOM     56  C   UNL A   1      34.079  34.120  31.066  1.00  0.00     0.059 A 
ATOM     57  F   UNL A   1      34.885  32.784  32.816  1.00  0.00    -0.206 F 
ATOM     58  C   UNL A   1      34.326  34.837  29.896  1.00  0.00     0.060 A 
BRANCH  58  59
ATOM     59  S   UNL A   1      32.966  35.671  29.049  1.00  0.00     0.124 S 
ATOM     60  O   UNL A   1      33.674  36.716  28.321  1.00  0.00    -0.237 OA
ATOM     61  O   UNL A   1      32.399  34.599  28.237  1.00  0.00    -0.237 OA
ATOM     62  O   UNL A   1      32.120  36.125  30.149  1.00  0.00    -0.744 OA
ENDBRANCH  58  59
ENDBRANCH  26  51
BRANCH  38  63
ATOM     63  C   UNL A   1      39.974  34.388  37.080  1.00  0.00     0.058 A 
ATOM     64  C   UNL A   1      39.136  34.204  38.191  1.00  0.00     0.135 A 
ATOM     65  C   UNL A   1      40.717  35.576  37.002  1.00  0.00     0.135 A 
ATOM     66  F   UNL A   1      38.400  33.087  38.305  1.00  0.00    -0.206 F 
ATOM     67  C   UNL A   1      39.007  35.182  39.171  1.00  0.00     0.059 A 
ATOM     68  C   UNL A   1      40.620  36.557  37.982  1.00  0.00     0.059 A 
ATOM     69  F   UNL A   1      41.539  35.793  35.963  1.00  0.00    -0.206 F 
ATOM     70  C   UNL A   1      39.747  36.359  39.052  1.00  0.00     0.060 A 
BRANCH  70  71
ATOM     71  S   UNL A   1      39.569  37.629  40.323  1.00  0.00     0.124 S 
ATOM     72  O   UNL A   1      40.704  38.497  40.028  1.00  0.00    -0.237 OA
ATOM     73  O   UNL A   1      38.252  38.187  40.031  1.00  0.00    -0.237 OA
ATOM     74  O   UNL A   1      39.660  36.874  41.569  1.00  0.00    -0.744 OA
ENDBRANCH  70  71
ENDBRANCH  38  63
ENDBRANCH  12  13
ENDBRANCH   5   7
ENDBRANCH   2   3
ENDBRANCH   1   2
BRANCH   1  75
ATOM     75  C   UNL A   1      37.420  22.671  24.909  1.00  0.00     0.023 C 
BRANCH  75  76
ATOM     76  C   UNL A   1      36.276  21.668  25.031  1.00  0.00     0.116 C 
BRANCH  76  77
ATOM     77  N   UNL A   1      35.619  21.714  26.324  1.00  0.00    -0.351 N 
ATOM     78  C   UNL A   1      34.278  21.665  26.609  1.00  0.00     0.283 C 
ATOM     79  H   UNL A   1      36.216  21.790  27.103  1.00  0.00     0.163 HD
ATOM     80  O   UNL A   1      33.936  21.516  27.786  1.00  0.00    -0.268 OA
BRANCH  78  81
ATOM     81  C   UNL A   1      33.209  21.686  25.453  1.00  0.00     0.307 C 
BRANCH  81  82
ATOM     82  C   UNL A   1      32.888  20.225  24.986  1.00  0.00     0.041 A 
ATOM     83  C   UNL A   1      32.845  19.147  25.891  1.00  0.00     0.012 A 
ATOM     84  C   UNL A   1      32.544  19.880  23.649  1.00  0.00     0.086 A 
ATOM     85  C   UNL A   1      32.656  17.812  25.502  1.00  0.00     0.004 A 
ATOM     86  C   UNL A   1      32.404  18.533  23.256  1.00  0.00     0.142 A 
ATOM     87  Cl  UNL A   1      32.180  21.027  22.401  1.00  0.00    -0.081 Cl
ATOM     88  C   UNL A   1      32.483  17.499  24.170  1.00  0.00     0.041 A 
ATOM     89  F   UNL A   1      32.181  18.215  21.972  1.00  0.00    -0.205 F 
ENDBRANCH  81  82
BRANCH  81  90
ATOM     90  N   UNL A   1      32.081  22.587  25.966  1.00  0.00    -0.318 N 
ATOM     91  C   UNL A   1      32.635  23.907  26.469  1.00  0.00     0.284 C 
ATOM     92  C   UNL A   1      31.033  23.010  25.007  1.00  0.00     0.284 C 
ATOM     93  H   UNL A   1      31.658  21.978  26.667  1.00  0.00     0.349 HD
ATOM     94  C   UNL A   1      33.205  24.849  25.369  1.00  0.00     0.178 C 
ATOM     95  C   UNL A   1      31.521  23.861  23.822  1.00  0.00     0.178 C 
ATOM     96  N   UNL A   1      32.198  25.062  24.313  1.00  0.00    -0.360 N 
BRANCH  96  97
ATOM     97  C   UNL A   1      31.624  26.316  24.190  1.00  0.00     0.037 A 
ATOM     98  C   UNL A   1      32.287  27.442  24.701  1.00  0.00     0.026 A 
ATOM     99  C   UNL A   1      30.389  26.526  23.561  1.00  0.00     0.026 A 
ATOM    100  C   UNL A   1      31.750  28.726  24.575  1.00  0.00     0.002 A 
ATOM    101  C   UNL A   1      29.839  27.807  23.444  1.00  0.00     0.002 A 
ATOM    102  C   UNL A   1      30.524  28.909  23.946  1.00  0.00     0.000 A 
ENDBRANCH  96  97
ENDBRANCH  81  90
ENDBRANCH  78  81
ENDBRANCH  76  77
ENDBRANCH  75  76
ENDBRANCH   1  75
TORSDOF 17
ENDMDL
MODEL 2
REMARK VINA RESULT:     -12.8      0.950      1.894
REMARK SMILES O=C(NCCCCNC(=O)[C@@H](c1cccc(F)c1Cl)[NH+]1CCN(c2ccccc2)CC1)c1ccc(-c2c3nc(c(-c4c(F)cc(S(=O)(=O)[O-])cc4F)c4ccc([nH]4)c(-c4c(F)cc(S(=O)(=O)[O-])cc4F)c4nc(c(-c5c(F)cc(S(=O)(=O)[O-])cc5F)c5ccc2[nH]5)C=C4)C=C3)cc1
REMARK SMILES IDX 5 1 4 2 3 3 1 4 2 5 32 7 33 8 97 9 34 10 96 11 35 12 36 13
REMARK SMILES IDX 37 14 90 15 38 16 95 17 89 18 91 19 39 20 94 21 88 22 87 23
REMARK SMILES IDX 40 25 74 26 53 27 73 28 54 29 57 30 72 31 92 32 55 33 56 34
REMARK SMILES IDX 71 36 93 37 58 38 41 39 42 40 51 41 43 42 44 43 50 44 52 45
REMARK SMILES IDX 45 46 46 47 47 48 48 49 49 50 75 51 76 52 85 53 77 54 78 55
REMARK SMILES IDX 84 56 86 57 79 58 80 59 81 60 82 61 83 62 59 63 60 64 69 65
REMARK SMILES IDX 61 66 62 67 68 68 70 69 63 70 64 71 65 72 66 73 67 74 6 75
REMARK SMILES IDX 7 76 8 77 9 78 10 80 11 81 12 82 13 83 18 84 14 85 16 86
REMARK SMILES IDX 19 87 15 88 17 89 20 90 21 91 31 92 22 94 30 95 23 96 24 97
REMARK SMILES IDX 25 98 29 99 26 100 28 101 27 102
REMARK H PARENT 3 6 91 24 57 35 8 79 20 93
REMARK Flexibility Score: inf
ROOT
ATOM      1  C   UNL A   1      38.826  22.981  26.356  1.00  0.00     0.023 C 
ENDROOT
BRANCH   1   2
ATOM      2  C   UNL A   1      40.135  23.464  26.962  1.00  0.00     0.116 C 
BRANCH   2   3
ATOM      3  N   UNL A   1      41.003  24.113  25.990  1.00  0.00    -0.352 N 
ATOM      4  O   UNL A   1      42.070  25.851  25.015  1.00  0.00    -0.269 OA
ATOM      5  C   UNL A   1      41.455  25.412  25.983  1.00  0.00     0.251 C 
ATOM      6  H   UNL A   1      41.305  23.551  25.241  1.00  0.00     0.163 HD
BRANCH   5   7
ATOM      7  C   UNL A   1      41.165  26.278  27.145  1.00  0.00     0.039 A 
ATOM      8  C   UNL A   1      41.880  27.463  27.326  1.00  0.00     0.014 A 
ATOM      9  C   UNL A   1      40.204  25.882  28.080  1.00  0.00     0.014 A 
ATOM     10  C   UNL A   1      41.746  28.170  28.511  1.00  0.00     0.010 A 
ATOM     11  C   UNL A   1      40.002  26.650  29.232  1.00  0.00     0.010 A 
ATOM     12  C   UNL A   1      40.792  27.784  29.469  1.00  0.00    -0.014 A 
BRANCH  12  13
ATOM     13  C   UNL A   1      40.604  28.649  30.661  1.00  0.00     0.031 A 
ATOM     14  C   UNL A   1      41.523  28.566  31.849  1.00  0.00     0.074 A 
ATOM     15  C   UNL A   1      39.624  29.573  30.619  1.00  0.00     0.049 A 
ATOM     16  N   UNL A   1      41.530  29.304  32.930  1.00  0.00    -0.248 NA
ATOM     17  C   UNL A   1      42.559  27.521  31.832  1.00  0.00     0.031 C 
ATOM     18  C   UNL A   1      38.659  29.720  29.524  1.00  0.00     0.029 A 
ATOM     19  N   UNL A   1      39.299  30.583  31.483  1.00  0.00    -0.354 N 
ATOM     20  C   UNL A   1      42.554  28.808  33.727  1.00  0.00     0.074 A 
ATOM     21  C   UNL A   1      43.136  27.690  33.015  1.00  0.00     0.031 C 
ATOM     22  C   UNL A   1      37.898  30.800  29.749  1.00  0.00     0.029 A 
ATOM     23  C   UNL A   1      38.279  31.385  31.029  1.00  0.00     0.049 A 
ATOM     24  H   UNL A   1      39.752  30.722  32.347  1.00  0.00     0.167 HD
ATOM     25  C   UNL A   1      42.971  29.252  34.939  1.00  0.00     0.037 A 
ATOM     26  C   UNL A   1      37.705  32.468  31.582  1.00  0.00     0.037 A 
ATOM     27  C   UNL A   1      42.394  30.378  35.630  1.00  0.00     0.049 A 
ATOM     28  C   UNL A   1      38.211  32.955  32.907  1.00  0.00     0.074 A 
ATOM     29  C   UNL A   1      42.744  30.906  36.861  1.00  0.00     0.029 A 
ATOM     30  N   UNL A   1      41.352  31.157  35.145  1.00  0.00    -0.354 N 
ATOM     31  N   UNL A   1      39.178  32.468  33.645  1.00  0.00    -0.248 NA
ATOM     32  C   UNL A   1      37.546  34.133  33.476  1.00  0.00     0.031 C 
ATOM     33  C   UNL A   1      41.898  31.989  37.132  1.00  0.00     0.029 A 
ATOM     34  C   UNL A   1      41.044  32.157  36.055  1.00  0.00     0.049 A 
ATOM     35  H   UNL A   1      40.899  31.019  34.283  1.00  0.00     0.167 HD
ATOM     36  C   UNL A   1      39.231  33.271  34.775  1.00  0.00     0.074 A 
ATOM     37  C   UNL A   1      38.225  34.302  34.601  1.00  0.00     0.031 C 
ATOM     38  C   UNL A   1      40.027  33.160  35.866  1.00  0.00     0.037 A 
BRANCH  25  39
ATOM     39  C   UNL A   1      44.104  28.520  35.605  1.00  0.00     0.058 A 
ATOM     40  C   UNL A   1      43.872  27.448  36.480  1.00  0.00     0.135 A 
ATOM     41  C   UNL A   1      45.437  28.848  35.310  1.00  0.00     0.135 A 
ATOM     42  F   UNL A   1      42.616  27.103  36.808  1.00  0.00    -0.206 F 
ATOM     43  C   UNL A   1      44.922  26.733  37.050  1.00  0.00     0.059 A 
ATOM     44  C   UNL A   1      46.503  28.134  35.853  1.00  0.00     0.059 A 
ATOM     45  F   UNL A   1      45.715  29.865  34.480  1.00  0.00    -0.206 F 
ATOM     46  C   UNL A   1      46.235  27.082  36.729  1.00  0.00     0.060 A 
BRANCH  46  47
ATOM     47  S   UNL A   1      47.587  26.129  37.452  1.00  0.00     0.124 S 
ATOM     48  O   UNL A   1      48.205  25.552  36.262  1.00  0.00    -0.237 OA
ATOM     49  O   UNL A   1      48.366  27.156  38.135  1.00  0.00    -0.237 OA
ATOM     50  O   UNL A   1      46.905  25.180  38.327  1.00  0.00    -0.744 OA
ENDBRANCH  46  47
ENDBRANCH  25  39
BRANCH  26  51
ATOM     51  C   UNL A   1      36.583  33.145  30.885  1.00  0.00     0.058 A 
ATOM     52  C   UNL A   1      35.265  33.038  31.351  1.00  0.00     0.135 A 
ATOM     53  C   UNL A   1      36.817  33.941  29.753  1.00  0.00     0.135 A 
ATOM     54  F   UNL A   1      34.994  32.289  32.429  1.00  0.00    -0.206 F 
ATOM     55  C   UNL A   1      34.214  33.686  30.710  1.00  0.00     0.059 A 
ATOM     56  C   UNL A   1      35.788  34.619  29.110  1.00  0.00     0.059 A 
ATOM     57  F   UNL A   1      38.065  34.091  29.282  1.00  0.00    -0.206 F 
ATOM     58  C   UNL A   1      34.486  34.475  29.590  1.00  0.00     0.060 A 
BRANCH  58  59
ATOM     59  S   UNL A   1      33.130  35.359  28.789  1.00  0.00     0.124 S 
ATOM     60  O   UNL A   1      32.384  35.852  29.941  1.00  0.00    -0.237 OA
ATOM     61  O   UNL A   1      33.834  36.369  28.005  1.00  0.00    -0.237 OA
ATOM     62  O   UNL A   1      32.474  34.317  28.005  1.00  0.00    -0.744 OA
ENDBRANCH  58  59
ENDBRANCH  26  51
BRANCH  38  63
ATOM     63  C   UNL A   1      39.824  34.178  36.950  1.00  0.00     0.058 A 
ATOM     64  C   UNL A   1      40.348  35.475  36.835  1.00  0.00     0.135 A 
ATOM     65  C   UNL A   1      39.106  33.856  38.111  1.00  0.00     0.135 A 
ATOM     66  F   UNL A   1      41.049  35.827  35.746  1.00  0.00    -0.206 F 
ATOM     67  C   UNL A   1      40.202  36.408  37.855  1.00  0.00     0.059 A 
ATOM     68  C   UNL A   1      38.928  34.781  39.134  1.00  0.00     0.059 A 
ATOM     69  F   UNL A   1      38.578  32.630  38.262  1.00  0.00    -0.206 F 
ATOM     70  C   UNL A   1      39.497  36.048  39.005  1.00  0.00     0.060 A 
BRANCH  70  71
ATOM     71  S   UNL A   1      39.316  37.261  40.330  1.00  0.00     0.124 S 
ATOM     72  O   UNL A   1      40.707  37.480  40.715  1.00  0.00    -0.237 OA
ATOM     73  O   UNL A   1      38.664  38.377  39.651  1.00  0.00    -0.237 OA
ATOM     74  O   UNL A   1      38.491  36.566  41.313  1.00  0.00    -0.744 OA
ENDBRANCH  70  71
ENDBRANCH  38  63
ENDBRANCH  12  13
ENDBRANCH   5   7
ENDBRANCH   2   3
ENDBRANCH   1   2
BRANCH   1  75
ATOM     75  C   UNL A   1      37.787  24.076  26.134  1.00  0.00     0.023 C 
BRANCH  75  76
ATOM     76  C   UNL A   1      36.398  23.577  25.745  1.00  0.00     0.116 C 
BRANCH  76  77
ATOM     77  N   UNL A   1      35.738  22.849  26.814  1.00  0.00    -0.351 N 
ATOM     78  C   UNL A   1      34.577  22.121  26.768  1.00  0.00     0.283 C 
ATOM     79  H   UNL A   1      36.185  22.882  27.690  1.00  0.00     0.163 HD
ATOM     80  O   UNL A   1      34.293  21.413  27.740  1.00  0.00    -0.268 OA
BRANCH  78  81
ATOM     81  C   UNL A   1      33.689  22.102  25.468  1.00  0.00     0.307 C 
BRANCH  81  82
ATOM     82  C   UNL A   1      33.594  20.646  24.899  1.00  0.00     0.041 A 
ATOM     83  C   UNL A   1      32.391  20.126  24.381  1.00  0.00     0.012 A 
ATOM     84  C   UNL A   1      34.707  19.766  24.786  1.00  0.00     0.086 A 
ATOM     85  C   UNL A   1      32.239  18.800  23.950  1.00  0.00     0.004 A 
ATOM     86  C   UNL A   1      34.537  18.421  24.400  1.00  0.00     0.142 A 
ATOM     87  Cl  UNL A   1      36.359  20.238  25.016  1.00  0.00    -0.081 Cl
ATOM     88  C   UNL A   1      33.307  17.929  24.007  1.00  0.00     0.041 A 
ATOM     89  F   UNL A   1      35.578  17.574  24.397  1.00  0.00    -0.205 F 
ENDBRANCH  81  82
BRANCH  81  90
ATOM     90  N   UNL A   1      32.412  22.860  25.843  1.00  0.00    -0.318 N 
ATOM     91  C   UNL A   1      32.740  24.263  26.320  1.00  0.00     0.284 C 
ATOM     92  C   UNL A   1      31.403  23.097  24.783  1.00  0.00     0.284 C 
ATOM     93  H   UNL A   1      32.015  22.228  26.538  1.00  0.00     0.349 HD
ATOM     94  C   UNL A   1      33.271  25.229  25.223  1.00  0.00     0.178 C 
ATOM     95  C   UNL A   1      31.873  23.959  23.599  1.00  0.00     0.178 C 
ATOM     96  N   UNL A   1      32.339  25.260  24.080  1.00  0.00    -0.360 N 
BRANCH  96  97
ATOM     97  C   UNL A   1      31.616  26.418  23.848  1.00  0.00     0.037 A 
ATOM     98  C   UNL A   1      30.234  26.345  23.623  1.00  0.00     0.026 A 
ATOM     99  C   UNL A   1      32.205  27.690  23.833  1.00  0.00     0.026 A 
ATOM    100  C   UNL A   1      29.466  27.493  23.408  1.00  0.00     0.002 A 
ATOM    101  C   UNL A   1      31.446  28.843  23.605  1.00  0.00     0.002 A 
ATOM    102  C   UNL A   1      30.074  28.744  23.398  1.00  0.00     0.000 A 
ENDBRANCH  96  97
ENDBRANCH  81  90
ENDBRANCH  78  81
ENDBRANCH  76  77
ENDBRANCH  75  76
ENDBRANCH   1  75
TORSDOF 17
ENDMDL
MODEL 3
REMARK VINA RESULT:     -12.8      6.329      8.284
REMARK SMILES O=C(NCCCCNC(=O)[C@@H](c1cccc(F)c1Cl)[NH+]1CCN(c2ccccc2)CC1)c1ccc(-c2c3nc(c(-c4c(F)cc(S(=O)(=O)[O-])cc4F)c4ccc([nH]4)c(-c4c(F)cc(S(=O)(=O)[O-])cc4F)c4nc(c(-c5c(F)cc(S(=O)(=O)[O-])cc5F)c5ccc2[nH]5)C=C4)C=C3)cc1
REMARK SMILES IDX 5 1 4 2 3 3 1 4 2 5 32 7 33 8 97 9 34 10 96 11 35 12 36 13
REMARK SMILES IDX 37 14 90 15 38 16 95 17 89 18 91 19 39 20 94 21 88 22 87 23
REMARK SMILES IDX 40 25 74 26 53 27 73 28 54 29 57 30 72 31 92 32 55 33 56 34
REMARK SMILES IDX 71 36 93 37 58 38 41 39 42 40 51 41 43 42 44 43 50 44 52 45
REMARK SMILES IDX 45 46 46 47 47 48 48 49 49 50 75 51 76 52 85 53 77 54 78 55
REMARK SMILES IDX 84 56 86 57 79 58 80 59 81 60 82 61 83 62 59 63 60 64 69 65
REMARK SMILES IDX 61 66 62 67 68 68 70 69 63 70 64 71 65 72 66 73 67 74 6 75
REMARK SMILES IDX 7 76 8 77 9 78 10 80 11 81 12 82 13 83 18 84 14 85 16 86
REMARK SMILES IDX 19 87 15 88 17 89 20 90 21 91 31 92 22 94 30 95 23 96 24 97
REMARK SMILES IDX 25 98 29 99 26 100 28 101 27 102
REMARK H PARENT 3 6 91 24 57 35 8 79 20 93
REMARK Flexibility Score: inf
ROOT
ATOM      1  C   UNL A   1      38.563  20.506  25.005  1.00  0.00     0.023 C 
ENDROOT
BRANCH   1   2
ATOM      2  C   UNL A   1      39.330  20.225  26.287  1.00  0.00     0.116 C 
BRANCH   2   3
ATOM      3  N   UNL A   1      40.431  19.291  26.096  1.00  0.00    -0.352 N 
ATOM      4  O   UNL A   1      42.582  18.677  25.771  1.00  0.00    -0.269 OA
ATOM      5  C   UNL A   1      41.781  19.553  26.086  1.00  0.00     0.251 C 
ATOM      6  H   UNL A   1      40.176  18.351  25.954  1.00  0.00     0.163 HD
BRANCH   5   7
ATOM      7  C   UNL A   1      42.250  20.910  26.435  1.00  0.00     0.039 A 
ATOM      8  C   UNL A   1      42.458  21.855  25.428  1.00  0.00     0.014 A 
ATOM      9  C   UNL A   1      42.523  21.227  27.768  1.00  0.00     0.014 A 
ATOM     10  C   UNL A   1      43.080  23.056  25.733  1.00  0.00     0.010 A 
ATOM     11  C   UNL A   1      43.063  22.479  28.086  1.00  0.00     0.010 A 
ATOM     12  C   UNL A   1      43.372  23.391  27.067  1.00  0.00    -0.014 A 
BRANCH  12  13
ATOM     13  C   UNL A   1      43.923  24.740  27.348  1.00  0.00     0.031 A 
ATOM     14  C   UNL A   1      45.355  25.086  27.050  1.00  0.00     0.074 A 
ATOM     15  C   UNL A   1      43.075  25.680  27.812  1.00  0.00     0.049 A 
ATOM     16  N   UNL A   1      45.960  26.240  27.171  1.00  0.00    -0.248 NA
ATOM     17  C   UNL A   1      46.224  24.004  26.561  1.00  0.00     0.031 C 
ATOM     18  C   UNL A   1      41.670  25.442  28.161  1.00  0.00     0.029 A 
ATOM     19  N   UNL A   1      43.247  27.020  28.031  1.00  0.00    -0.354 N 
ATOM     20  C   UNL A   1      47.279  26.025  26.793  1.00  0.00     0.074 A 
ATOM     21  C   UNL A   1      47.395  24.622  26.454  1.00  0.00     0.031 C 
ATOM     22  C   UNL A   1      41.091  26.608  28.481  1.00  0.00     0.029 A 
ATOM     23  C   UNL A   1      42.096  27.663  28.419  1.00  0.00     0.049 A 
ATOM     24  H   UNL A   1      44.111  27.480  27.920  1.00  0.00     0.167 HD
ATOM     25  C   UNL A   1      48.296  26.920  26.728  1.00  0.00     0.037 A 
ATOM     26  C   UNL A   1      41.871  28.958  28.705  1.00  0.00     0.037 A 
ATOM     27  C   UNL A   1      48.163  28.319  27.052  1.00  0.00     0.049 A 
ATOM     28  C   UNL A   1      43.007  29.930  28.591  1.00  0.00     0.074 A 
ATOM     29  C   UNL A   1      49.133  29.307  27.019  1.00  0.00     0.029 A 
ATOM     30  N   UNL A   1      46.985  28.932  27.456  1.00  0.00    -0.354 N 
ATOM     31  N   UNL A   1      44.248  29.703  28.235  1.00  0.00    -0.248 NA
ATOM     32  C   UNL A   1      42.716  31.330  28.923  1.00  0.00     0.031 C 
ATOM     33  C   UNL A   1      48.547  30.512  27.428  1.00  0.00     0.029 A 
ATOM     34  C   UNL A   1      47.205  30.281  27.681  1.00  0.00     0.049 A 
ATOM     35  H   UNL A   1      46.121  28.474  27.567  1.00  0.00     0.167 HD
ATOM     36  C   UNL A   1      44.892  30.930  28.312  1.00  0.00     0.074 A 
ATOM     37  C   UNL A   1      43.892  31.903  28.708  1.00  0.00     0.031 C 
ATOM     38  C   UNL A   1      46.197  31.225  28.092  1.00  0.00     0.037 A 
BRANCH  25  39
ATOM     39  C   UNL A   1      49.647  26.420  26.297  1.00  0.00     0.058 A 
ATOM     40  C   UNL A   1      50.120  26.613  24.991  1.00  0.00     0.135 A 
ATOM     41  C   UNL A   1      50.508  25.802  27.220  1.00  0.00     0.135 A 
ATOM     42  F   UNL A   1      49.332  27.184  24.065  1.00  0.00    -0.206 F 
ATOM     43  C   UNL A   1      51.394  26.202  24.609  1.00  0.00     0.059 A 
ATOM     44  C   UNL A   1      51.793  25.401  26.866  1.00  0.00     0.059 A 
ATOM     45  F   UNL A   1      50.105  25.592  28.483  1.00  0.00    -0.206 F 
ATOM     46  C   UNL A   1      52.225  25.598  25.554  1.00  0.00     0.060 A 
BRANCH  46  47
ATOM     47  S   UNL A   1      53.886  25.095  25.054  1.00  0.00     0.124 S 
ATOM     48  O   UNL A   1      54.683  25.557  26.186  1.00  0.00    -0.237 OA
ATOM     49  O   UNL A   1      53.750  23.648  24.923  1.00  0.00    -0.237 OA
ATOM     50  O   UNL A   1      54.097  25.816  23.802  1.00  0.00    -0.744 OA
ENDBRANCH  46  47
ENDBRANCH  25  39
BRANCH  26  51
ATOM     51  C   UNL A   1      40.519  29.394  29.136  1.00  0.00     0.058 A 
ATOM     52  C   UNL A   1      40.242  29.687  30.478  1.00  0.00     0.135 A 
ATOM     53  C   UNL A   1      39.485  29.557  28.200  1.00  0.00     0.135 A 
ATOM     54  F   UNL A   1      41.198  29.546  31.407  1.00  0.00    -0.206 F 
ATOM     55  C   UNL A   1      38.980  30.112  30.882  1.00  0.00     0.059 A 
ATOM     56  C   UNL A   1      38.224  30.006  28.576  1.00  0.00     0.059 A 
ATOM     57  F   UNL A   1      39.709  29.311  26.900  1.00  0.00    -0.206 F 
ATOM     58  C   UNL A   1      37.978  30.270  29.922  1.00  0.00     0.060 A 
BRANCH  58  59
ATOM     59  S   UNL A   1      36.356  30.873  30.438  1.00  0.00     0.124 S 
ATOM     60  O   UNL A   1      36.666  32.243  30.828  1.00  0.00    -0.237 OA
ATOM     61  O   UNL A   1      35.563  30.720  29.222  1.00  0.00    -0.237 OA
ATOM     62  O   UNL A   1      35.997  29.969  31.527  1.00  0.00    -0.744 OA
ENDBRANCH  58  59
ENDBRANCH  26  51
BRANCH  38  63
ATOM     63  C   UNL A   1      46.600  32.657  28.287  1.00  0.00     0.058 A 
ATOM     64  C   UNL A   1      46.490  33.591  27.245  1.00  0.00     0.135 A 
ATOM     65  C   UNL A   1      47.106  33.098  29.519  1.00  0.00     0.135 A 
ATOM     66  F   UNL A   1      46.020  33.214  26.046  1.00  0.00    -0.206 F 
ATOM     67  C   UNL A   1      46.905  34.909  27.407  1.00  0.00     0.059 A 
ATOM     68  C   UNL A   1      47.506  34.416  29.709  1.00  0.00     0.059 A 
ATOM     69  F   UNL A   1      47.222  32.243  30.548  1.00  0.00    -0.206 F 
ATOM     70  C   UNL A   1      47.420  35.309  28.641  1.00  0.00     0.060 A 
BRANCH  70  71
ATOM     71  S   UNL A   1      47.964  37.018  28.842  1.00  0.00     0.124 S 
ATOM     72  O   UNL A   1      48.301  37.051  30.262  1.00  0.00    -0.237 OA
ATOM     73  O   UNL A   1      49.094  37.101  27.921  1.00  0.00    -0.237 OA
ATOM     74  O   UNL A   1      46.789  37.793  28.455  1.00  0.00    -0.744 OA
ENDBRANCH  70  71
ENDBRANCH  38  63
ENDBRANCH  12  13
ENDBRANCH   5   7
ENDBRANCH   2   3
ENDBRANCH   1   2
BRANCH   1  75
ATOM     75  C   UNL A   1      37.784  21.817  25.006  1.00  0.00     0.023 C 
BRANCH  75  76
ATOM     76  C   UNL A   1      36.268  21.667  24.922  1.00  0.00     0.116 C 
BRANCH  76  77
ATOM     77  N   UNL A   1      35.622  21.707  26.221  1.00  0.00    -0.351 N 
ATOM     78  C   UNL A   1      34.285  21.652  26.518  1.00  0.00     0.283 C 
ATOM     79  H   UNL A   1      36.226  21.784  26.995  1.00  0.00     0.163 HD
ATOM     80  O   UNL A   1      33.954  21.499  27.699  1.00  0.00    -0.268 OA
BRANCH  78  81
ATOM     81  C   UNL A   1      33.204  21.670  25.373  1.00  0.00     0.307 C 
BRANCH  81  82
ATOM     82  C   UNL A   1      32.890  20.210  24.902  1.00  0.00     0.041 A 
ATOM     83  C   UNL A   1      32.874  19.125  25.801  1.00  0.00     0.012 A 
ATOM     84  C   UNL A   1      32.523  19.870  23.570  1.00  0.00     0.086 A 
ATOM     85  C   UNL A   1      32.691  17.791  25.407  1.00  0.00     0.004 A 
ATOM     86  C   UNL A   1      32.389  18.524  23.170  1.00  0.00     0.142 A 
ATOM     87  Cl  UNL A   1      32.124  21.021  22.337  1.00  0.00    -0.081 Cl
ATOM     88  C   UNL A   1      32.496  17.485  24.076  1.00  0.00     0.041 A 
ATOM     89  F   UNL A   1      32.145  18.212  21.888  1.00  0.00    -0.205 F 
ENDBRANCH  81  82
BRANCH  81  90
ATOM     90  N   UNL A   1      32.075  22.562  25.900  1.00  0.00    -0.318 N 
ATOM     91  C   UNL A   1      32.630  23.862  26.450  1.00  0.00     0.284 C 
ATOM     92  C   UNL A   1      31.040  23.020  24.943  1.00  0.00     0.284 C 
ATOM     93  H   UNL A   1      31.641  21.934  26.577  1.00  0.00     0.349 HD
ATOM     94  C   UNL A   1      33.217  24.834  25.387  1.00  0.00     0.178 C 
ATOM     95  C   UNL A   1      31.547  23.904  23.791  1.00  0.00     0.178 C 
ATOM     96  N   UNL A   1      32.224  25.086  24.326  1.00  0.00    -0.360 N 
BRANCH  96  97
ATOM     97  C   UNL A   1      31.658  26.346  24.235  1.00  0.00     0.037 A 
ATOM     98  C   UNL A   1      32.312  27.449  24.803  1.00  0.00     0.026 A 
ATOM     99  C   UNL A   1      30.440  26.585  23.585  1.00  0.00     0.026 A 
ATOM    100  C   UNL A   1      31.783  28.739  24.712  1.00  0.00     0.002 A 
ATOM    101  C   UNL A   1      29.897  27.872  23.501  1.00  0.00     0.002 A 
ATOM    102  C   UNL A   1      30.574  28.951  24.060  1.00  0.00     0.000 A 
ENDBRANCH  96  97
ENDBRANCH  81  90
ENDBRANCH  78  81
ENDBRANCH  76  77
ENDBRANCH  75  76
ENDBRANCH   1  75
TORSDOF 17
ENDMDL
