MODEL 1
REMARK VINA RESULT:     -13.4      0.000      0.000
REMARK SMILES O=C(NCCCCNC(=O)c1ccc(-c2c3nc(c(-c4c(F)cc(S(=O)(=O)[O-])cc4F)c4ccc([nH]4)c(-c4c(F)cc(S(=O)(=O)[O-])cc4F)c4nc(c(-c5c(F)cc(S(=O)(=O)[O-])cc5F)c5ccc2[nH]5)C=C4)C=C3)cc1)C1=Cc2cc(Cl)cc(-c3ccc(Cl)cc3)c2O[C@@H]1C(F)(F)F
REMARK SMILES IDX 6 1 5 2 4 3 3 4 1 5 2 6 77 8 78 9 94 10 79 11 93 12 80 13
REMARK SMILES IDX 92 14 81 15 84 16 82 17 83 18 95 19 96 20 97 21 98 22 85 23
REMARK SMILES IDX 86 24 91 25 87 26 90 27 88 28 89 29 7 30 8 31 9 32 10 34
REMARK SMILES IDX 11 35 12 36 76 37 13 38 75 39 14 40 15 41 16 42 69 43 17 44
REMARK SMILES IDX 74 45 68 46 70 47 18 48 73 49 67 50 66 51 19 53 53 54 32 55
REMARK SMILES IDX 52 56 33 57 36 58 51 59 71 60 34 61 35 62 50 64 72 65 37 66
REMARK SMILES IDX 20 67 21 68 30 69 22 70 23 71 29 72 31 73 24 74 25 75 26 76
REMARK SMILES IDX 27 77 28 78 54 79 55 80 64 81 56 82 57 83 63 84 65 85 58 86
REMARK SMILES IDX 59 87 60 88 61 89 62 90 38 91 39 92 48 93 40 94 41 95 47 96
REMARK SMILES IDX 49 97 42 98 43 99 44 100 45 101 46 102
REMARK H PARENT 3 7 8 33 70 52 36 63
REMARK Flexibility Score: inf
ROOT
ATOM      1  C   UNL A   1      32.080  28.088  27.038  1.00  0.00     0.023 C 
ENDROOT
BRANCH   1   2
ATOM      2  C   UNL A   1      31.903  27.134  25.854  1.00  0.00     0.023 C 
BRANCH   2   3
ATOM      3  C   UNL A   1      30.767  26.119  25.994  1.00  0.00     0.116 C 
BRANCH   3   4
ATOM      4  N   UNL A   1      31.068  25.023  26.917  1.00  0.00    -0.352 N 
ATOM      5  O   UNL A   1      32.207  23.260  27.762  1.00  0.00    -0.270 OA
ATOM      6  C   UNL A   1      31.909  23.941  26.787  1.00  0.00     0.251 C 
ATOM      7  H   UNL A   1      30.587  25.066  27.775  1.00  0.00     0.163 HD
BRANCH   6   8
ATOM      8  C   UNL A   1      32.582  23.720  25.488  1.00  0.00     0.067 C 
ATOM      9  C   UNL A   1      33.815  24.152  25.188  1.00  0.00     0.025 C 
ATOM     10  C   UNL A   1      31.941  22.728  24.572  1.00  0.00     0.314 C 
ATOM     11  C   UNL A   1      34.684  22.996  24.838  1.00  0.00     0.019 A 
ATOM     12  O   UNL A   1      32.746  21.533  24.504  1.00  0.00    -0.475 OA
ATOM     13  C   UNL A   1      36.056  23.106  25.101  1.00  0.00     0.032 A 
ATOM     14  C   UNL A   1      34.108  21.704  24.667  1.00  0.00     0.135 A 
ATOM     15  C   UNL A   1      36.831  21.954  25.222  1.00  0.00     0.042 A 
ATOM     16  C   UNL A   1      34.878  20.532  24.856  1.00  0.00     0.026 A 
ATOM     17  Cl  UNL A   1      38.493  22.089  25.652  1.00  0.00    -0.084 Cl
ATOM     18  C   UNL A   1      36.254  20.690  25.108  1.00  0.00     0.033 A 
BRANCH  10  19
ATOM     19  C   UNL A   1      31.682  23.349  23.180  1.00  0.00     0.429 C 
ATOM     20  F   UNL A   1      32.129  24.626  23.115  1.00  0.00    -0.167 F 
ATOM     21  F   UNL A   1      32.316  22.662  22.198  1.00  0.00    -0.167 F 
ATOM     22  F   UNL A   1      30.367  23.378  22.849  1.00  0.00    -0.167 F 
ENDBRANCH  10  19
BRANCH  16  23
ATOM     23  C   UNL A   1      34.274  19.181  24.972  1.00  0.00    -0.015 A 
ATOM     24  C   UNL A   1      34.898  18.073  24.359  1.00  0.00     0.010 A 
ATOM     25  C   UNL A   1      33.090  18.941  25.685  1.00  0.00     0.010 A 
ATOM     26  C   UNL A   1      34.351  16.790  24.430  1.00  0.00     0.021 A 
ATOM     27  C   UNL A   1      32.544  17.653  25.770  1.00  0.00     0.021 A 
ATOM     28  C   UNL A   1      33.173  16.586  25.134  1.00  0.00     0.041 A 
ATOM     29  Cl  UNL A   1      32.489  15.011  25.215  1.00  0.00    -0.084 Cl
ENDBRANCH  16  23
ENDBRANCH   6   8
ENDBRANCH   3   4
ENDBRANCH   2   3
ENDBRANCH   1   2
BRANCH   1  30
ATOM     30  C   UNL A   1      33.461  28.721  27.213  1.00  0.00     0.116 C 
BRANCH  30  31
ATOM     31  N   UNL A   1      33.457  30.074  27.742  1.00  0.00    -0.352 N 
ATOM     32  C   UNL A   1      34.504  30.771  28.325  1.00  0.00     0.251 C 
ATOM     33  H   UNL A   1      32.602  30.558  27.679  1.00  0.00     0.163 HD
ATOM     34  O   UNL A   1      34.339  31.903  28.725  1.00  0.00    -0.269 OA
BRANCH  32  35
ATOM     35  C   UNL A   1      35.821  30.100  28.482  1.00  0.00     0.039 A 
ATOM     36  C   UNL A   1      36.714  30.118  27.405  1.00  0.00     0.014 A 
ATOM     37  C   UNL A   1      36.195  29.513  29.693  1.00  0.00     0.014 A 
ATOM     38  C   UNL A   1      38.019  29.648  27.583  1.00  0.00     0.010 A 
ATOM     39  C   UNL A   1      37.506  29.092  29.885  1.00  0.00     0.010 A 
ATOM     40  C   UNL A   1      38.437  29.185  28.840  1.00  0.00    -0.014 A 
BRANCH  40  41
ATOM     41  C   UNL A   1      39.863  28.895  29.121  1.00  0.00     0.031 A 
ATOM     42  C   UNL A   1      40.761  29.945  29.703  1.00  0.00     0.074 A 
ATOM     43  C   UNL A   1      40.362  27.702  28.740  1.00  0.00     0.049 A 
ATOM     44  N   UNL A   1      42.035  29.871  29.991  1.00  0.00    -0.248 NA
ATOM     45  C   UNL A   1      40.156  31.258  29.970  1.00  0.00     0.031 C 
ATOM     46  C   UNL A   1      39.594  26.634  28.092  1.00  0.00     0.029 A 
ATOM     47  N   UNL A   1      41.632  27.191  28.823  1.00  0.00    -0.354 N 
ATOM     48  C   UNL A   1      42.385  31.125  30.478  1.00  0.00     0.074 A 
ATOM     49  C   UNL A   1      41.202  31.955  30.393  1.00  0.00     0.031 C 
ATOM     50  C   UNL A   1      40.403  25.589  27.856  1.00  0.00     0.029 A 
ATOM     51  C   UNL A   1      41.749  25.920  28.312  1.00  0.00     0.049 A 
ATOM     52  H   UNL A   1      42.388  27.688  29.211  1.00  0.00     0.167 HD
ATOM     53  C   UNL A   1      43.581  31.536  30.967  1.00  0.00     0.037 A 
ATOM     54  C   UNL A   1      42.821  25.109  28.229  1.00  0.00     0.037 A 
ATOM     55  C   UNL A   1      44.751  30.697  31.035  1.00  0.00     0.049 A 
ATOM     56  C   UNL A   1      44.137  25.586  28.778  1.00  0.00     0.074 A 
ATOM     57  C   UNL A   1      45.992  30.988  31.575  1.00  0.00     0.029 A 
ATOM     58  N   UNL A   1      44.830  29.406  30.528  1.00  0.00    -0.354 N 
ATOM     59  N   UNL A   1      44.428  26.738  29.336  1.00  0.00    -0.248 NA
ATOM     60  C   UNL A   1      45.266  24.651  28.698  1.00  0.00     0.031 C 
ATOM     61  C   UNL A   1      46.833  29.891  31.353  1.00  0.00     0.029 A 
ATOM     62  C   UNL A   1      46.105  28.897  30.718  1.00  0.00     0.049 A 
ATOM     63  H   UNL A   1      44.089  28.923  30.097  1.00  0.00     0.167 HD
ATOM     64  C   UNL A   1      45.765  26.654  29.704  1.00  0.00     0.074 A 
ATOM     65  C   UNL A   1      46.222  25.336  29.311  1.00  0.00     0.031 C 
ATOM     66  C   UNL A   1      46.542  27.582  30.317  1.00  0.00     0.037 A 
BRANCH  53  67
ATOM     67  C   UNL A   1      43.677  32.954  31.462  1.00  0.00     0.058 A 
ATOM     68  C   UNL A   1      44.090  34.001  30.620  1.00  0.00     0.135 A 
ATOM     69  C   UNL A   1      43.344  33.277  32.787  1.00  0.00     0.135 A 
ATOM     70  F   UNL A   1      44.432  33.750  29.346  1.00  0.00    -0.206 F 
ATOM     71  C   UNL A   1      44.209  35.306  31.085  1.00  0.00     0.059 A 
ATOM     72  C   UNL A   1      43.427  34.582  33.266  1.00  0.00     0.059 A 
ATOM     73  F   UNL A   1      42.939  32.319  33.635  1.00  0.00    -0.206 F 
ATOM     74  C   UNL A   1      43.881  35.587  32.412  1.00  0.00     0.060 A 
BRANCH  74  75
ATOM     75  S   UNL A   1      44.060  37.283  33.005  1.00  0.00     0.124 S 
ATOM     76  O   UNL A   1      45.438  37.279  33.487  1.00  0.00    -0.237 OA
ATOM     77  O   UNL A   1      43.814  38.065  31.798  1.00  0.00    -0.237 OA
ATOM     78  O   UNL A   1      43.035  37.391  34.038  1.00  0.00    -0.744 OA
ENDBRANCH  74  75
ENDBRANCH  53  67
BRANCH  54  79
ATOM     79  C   UNL A   1      42.673  23.743  27.663  1.00  0.00     0.058 A 
ATOM     80  C   UNL A   1      42.779  23.527  26.281  1.00  0.00     0.135 A 
ATOM     81  C   UNL A   1      42.460  22.625  28.485  1.00  0.00     0.135 A 
ATOM     82  F   UNL A   1      42.980  24.566  25.455  1.00  0.00    -0.206 F 
ATOM     83  C   UNL A   1      42.668  22.256  25.730  1.00  0.00     0.059 A 
ATOM     84  C   UNL A   1      42.368  21.339  27.959  1.00  0.00     0.059 A 
ATOM     85  F   UNL A   1      42.372  22.774  29.815  1.00  0.00    -0.206 F 
ATOM     86  C   UNL A   1      42.467  21.166  26.578  1.00  0.00     0.060 A 
BRANCH  86  87
ATOM     87  S   UNL A   1      42.389  19.512  25.855  1.00  0.00     0.124 S 
ATOM     88  O   UNL A   1      43.350  19.624  24.764  1.00  0.00    -0.237 OA
ATOM     89  O   UNL A   1      42.789  18.669  26.977  1.00  0.00    -0.237 OA
ATOM     90  O   UNL A   1      40.990  19.388  25.456  1.00  0.00    -0.744 OA
ENDBRANCH  86  87
ENDBRANCH  54  79
BRANCH  66  91
ATOM     91  C   UNL A   1      47.960  27.187  30.627  1.00  0.00     0.058 A 
ATOM     92  C   UNL A   1      48.300  26.529  31.819  1.00  0.00     0.135 A 
ATOM     93  C   UNL A   1      48.987  27.450  29.706  1.00  0.00     0.135 A 
ATOM     94  F   UNL A   1      47.357  26.262  32.737  1.00  0.00    -0.206 F 
ATOM     95  C   UNL A   1      49.614  26.170  32.101  1.00  0.00     0.059 A 
ATOM     96  C   UNL A   1      50.304  27.075  29.955  1.00  0.00     0.059 A 
ATOM     97  F   UNL A   1      48.714  28.070  28.548  1.00  0.00    -0.206 F 
ATOM     98  C   UNL A   1      50.610  26.450  31.162  1.00  0.00     0.060 A 
BRANCH  98  99
ATOM     99  S   UNL A   1      52.308  25.963  31.531  1.00  0.00     0.124 S 
ATOM    100  O   UNL A   1      52.951  26.135  30.233  1.00  0.00    -0.237 OA
ATOM    101  O   UNL A   1      52.693  26.922  32.562  1.00  0.00    -0.237 OA
ATOM    102  O   UNL A   1      52.172  24.583  31.988  1.00  0.00    -0.744 OA
ENDBRANCH  98  99
ENDBRANCH  66  91
ENDBRANCH  40  41
ENDBRANCH  32  35
ENDBRANCH  30  31
ENDBRANCH   1  30
TORSDOF 16
ENDMDL
MODEL 2
REMARK VINA RESULT:     -12.7      2.450      3.011
REMARK SMILES O=C(NCCCCNC(=O)c1ccc(-c2c3nc(c(-c4c(F)cc(S(=O)(=O)[O-])cc4F)c4ccc([nH]4)c(-c4c(F)cc(S(=O)(=O)[O-])cc4F)c4nc(c(-c5c(F)cc(S(=O)(=O)[O-])cc5F)c5ccc2[nH]5)C=C4)C=C3)cc1)C1=Cc2cc(Cl)cc(-c3ccc(Cl)cc3)c2O[C@@H]1C(F)(F)F
REMARK SMILES IDX 6 1 5 2 4 3 3 4 1 5 2 6 77 8 78 9 94 10 79 11 93 12 80 13
REMARK SMILES IDX 92 14 81 15 84 16 82 17 83 18 95 19 96 20 97 21 98 22 85 23
REMARK SMILES IDX 86 24 91 25 87 26 90 27 88 28 89 29 7 30 8 31 9 32 10 34
REMARK SMILES IDX 11 35 12 36 76 37 13 38 75 39 14 40 15 41 16 42 69 43 17 44
REMARK SMILES IDX 74 45 68 46 70 47 18 48 73 49 67 50 66 51 19 53 53 54 32 55
REMARK SMILES IDX 52 56 33 57 36 58 51 59 71 60 34 61 35 62 50 64 72 65 37 66
REMARK SMILES IDX 20 67 21 68 30 69 22 70 23 71 29 72 31 73 24 74 25 75 26 76
REMARK SMILES IDX 27 77 28 78 54 79 55 80 64 81 56 82 57 83 63 84 65 85 58 86
REMARK SMILES IDX 59 87 60 88 61 89 62 90 38 91 39 92 48 93 40 94 41 95 47 96
REMARK SMILES IDX 49 97 42 98 43 99 44 100 45 101 46 102
REMARK H PARENT 3 7 8 33 70 52 36 63
REMARK Flexibility Score: inf
ROOT
ATOM      1  C   UNL A   1      32.688  28.140  26.635  1.00  0.00     0.023 C 
ENDROOT
BRANCH   1   2
ATOM      2  C   UNL A   1      32.490  26.866  25.808  1.00  0.00     0.023 C 
BRANCH   2   3
ATOM      3  C   UNL A   1      31.199  26.096  26.093  1.00  0.00     0.116 C 
BRANCH   3   4
ATOM      4  N   UNL A   1      31.386  24.934  26.965  1.00  0.00    -0.352 N 
ATOM      5  O   UNL A   1      32.350  23.038  27.735  1.00  0.00    -0.270 OA
ATOM      6  C   UNL A   1      32.130  23.789  26.791  1.00  0.00     0.251 C 
ATOM      7  H   UNL A   1      30.897  24.979  27.818  1.00  0.00     0.163 HD
BRANCH   6   8
ATOM      8  C   UNL A   1      32.801  23.571  25.491  1.00  0.00     0.067 C 
ATOM      9  C   UNL A   1      34.047  23.974  25.202  1.00  0.00     0.025 C 
ATOM     10  C   UNL A   1      32.137  22.611  24.557  1.00  0.00     0.314 C 
ATOM     11  C   UNL A   1      34.885  22.800  24.836  1.00  0.00     0.019 A 
ATOM     12  O   UNL A   1      32.909  21.396  24.471  1.00  0.00    -0.475 OA
ATOM     13  C   UNL A   1      36.258  22.868  25.105  1.00  0.00     0.032 A 
ATOM     14  C   UNL A   1      34.275  21.528  24.641  1.00  0.00     0.135 A 
ATOM     15  C   UNL A   1      37.001  21.695  25.209  1.00  0.00     0.042 A 
ATOM     16  C   UNL A   1      35.012  20.332  24.813  1.00  0.00     0.026 A 
ATOM     17  Cl  UNL A   1      38.665  21.777  25.647  1.00  0.00    -0.084 Cl
ATOM     18  C   UNL A   1      36.391  20.448  25.073  1.00  0.00     0.033 A 
BRANCH  10  19
ATOM     19  C   UNL A   1      31.900  23.263  23.174  1.00  0.00     0.429 C 
ATOM     20  F   UNL A   1      32.769  22.793  22.248  1.00  0.00    -0.167 F 
ATOM     21  F   UNL A   1      30.653  23.006  22.706  1.00  0.00    -0.167 F 
ATOM     22  F   UNL A   1      32.039  24.612  23.192  1.00  0.00    -0.167 F 
ENDBRANCH  10  19
BRANCH  16  23
ATOM     23  C   UNL A   1      34.372  18.996  24.905  1.00  0.00    -0.015 A 
ATOM     24  C   UNL A   1      33.183  18.831  25.648  1.00  0.00     0.010 A 
ATOM     25  C   UNL A   1      34.895  17.862  24.265  1.00  0.00     0.010 A 
ATOM     26  C   UNL A   1      32.562  17.586  25.774  1.00  0.00     0.021 A 
ATOM     27  C   UNL A   1      34.267  16.614  24.377  1.00  0.00     0.021 A 
ATOM     28  C   UNL A   1      33.110  16.481  25.138  1.00  0.00     0.041 A 
ATOM     29  Cl  UNL A   1      32.354  14.945  25.297  1.00  0.00    -0.084 Cl
ENDBRANCH  16  23
ENDBRANCH   6   8
ENDBRANCH   3   4
ENDBRANCH   2   3
ENDBRANCH   1   2
BRANCH   1  30
ATOM     30  C   UNL A   1      33.742  29.128  26.134  1.00  0.00     0.116 C 
BRANCH  30  31
ATOM     31  N   UNL A   1      33.623  30.476  26.662  1.00  0.00    -0.352 N 
ATOM     32  C   UNL A   1      34.478  31.136  27.532  1.00  0.00     0.251 C 
ATOM     33  H   UNL A   1      32.836  30.987  26.364  1.00  0.00     0.163 HD
ATOM     34  O   UNL A   1      34.235  32.270  27.886  1.00  0.00    -0.269 OA
BRANCH  32  35
ATOM     35  C   UNL A   1      35.676  30.424  28.048  1.00  0.00     0.039 A 
ATOM     36  C   UNL A   1      36.889  30.575  27.369  1.00  0.00     0.014 A 
ATOM     37  C   UNL A   1      35.617  29.666  29.220  1.00  0.00     0.014 A 
ATOM     38  C   UNL A   1      38.061  30.060  27.929  1.00  0.00     0.010 A 
ATOM     39  C   UNL A   1      36.789  29.195  29.801  1.00  0.00     0.010 A 
ATOM     40  C   UNL A   1      38.025  29.416  29.175  1.00  0.00    -0.014 A 
BRANCH  40  41
ATOM     41  C   UNL A   1      39.269  29.061  29.898  1.00  0.00     0.031 A 
ATOM     42  C   UNL A   1      39.702  29.833  31.110  1.00  0.00     0.074 A 
ATOM     43  C   UNL A   1      40.061  28.101  29.379  1.00  0.00     0.049 A 
ATOM     44  N   UNL A   1      40.769  29.674  31.848  1.00  0.00    -0.248 NA
ATOM     45  C   UNL A   1      38.836  30.945  31.528  1.00  0.00     0.031 C 
ATOM     46  C   UNL A   1      39.774  27.340  28.160  1.00  0.00     0.029 A 
ATOM     47  N   UNL A   1      41.273  27.612  29.797  1.00  0.00    -0.354 N 
ATOM     48  C   UNL A   1      40.704  30.662  32.823  1.00  0.00     0.074 A 
ATOM     49  C   UNL A   1      39.521  31.449  32.546  1.00  0.00     0.031 C 
ATOM     50  C   UNL A   1      40.771  26.468  27.940  1.00  0.00     0.029 A 
ATOM     51  C   UNL A   1      41.776  26.623  28.986  1.00  0.00     0.049 A 
ATOM     52  H   UNL A   1      41.737  27.940  30.601  1.00  0.00     0.167 HD
ATOM     53  C   UNL A   1      41.547  30.877  33.863  1.00  0.00     0.037 A 
ATOM     54  C   UNL A   1      42.918  25.915  29.082  1.00  0.00     0.037 A 
ATOM     55  C   UNL A   1      42.726  30.089  34.118  1.00  0.00     0.049 A 
ATOM     56  C   UNL A   1      43.837  26.172  30.243  1.00  0.00     0.074 A 
ATOM     57  C   UNL A   1      43.609  30.175  35.179  1.00  0.00     0.029 A 
ATOM     58  N   UNL A   1      43.197  29.079  33.288  1.00  0.00    -0.354 N 
ATOM     59  N   UNL A   1      43.707  27.038  31.220  1.00  0.00    -0.248 NA
ATOM     60  C   UNL A   1      45.049  25.347  30.323  1.00  0.00     0.031 C 
ATOM     61  C   UNL A   1      44.639  29.250  34.967  1.00  0.00     0.029 A 
ATOM     62  C   UNL A   1      44.372  28.553  33.799  1.00  0.00     0.049 A 
ATOM     63  H   UNL A   1      42.759  28.781  32.458  1.00  0.00     0.167 HD
ATOM     64  C   UNL A   1      44.805  26.841  32.050  1.00  0.00     0.074 A 
ATOM     65  C   UNL A   1      45.583  25.769  31.461  1.00  0.00     0.031 C 
ATOM     66  C   UNL A   1      45.135  27.485  33.197  1.00  0.00     0.037 A 
BRANCH  53  67
ATOM     67  C   UNL A   1      41.219  32.012  34.797  1.00  0.00     0.058 A 
ATOM     68  C   UNL A   1      41.747  33.300  34.603  1.00  0.00     0.135 A 
ATOM     69  C   UNL A   1      40.362  31.818  35.891  1.00  0.00     0.135 A 
ATOM     70  F   UNL A   1      42.581  33.543  33.579  1.00  0.00    -0.206 F 
ATOM     71  C   UNL A   1      41.470  34.342  35.482  1.00  0.00     0.059 A 
ATOM     72  C   UNL A   1      40.047  32.853  36.768  1.00  0.00     0.059 A 
ATOM     73  F   UNL A   1      39.825  30.610  36.124  1.00  0.00    -0.206 F 
ATOM     74  C   UNL A   1      40.624  34.107  36.566  1.00  0.00     0.060 A 
BRANCH  74  75
ATOM     75  S   UNL A   1      40.289  35.464  37.710  1.00  0.00     0.124 S 
ATOM     76  O   UNL A   1      40.170  36.594  36.793  1.00  0.00    -0.237 OA
ATOM     77  O   UNL A   1      39.050  35.036  38.351  1.00  0.00    -0.237 OA
ATOM     78  O   UNL A   1      41.465  35.478  38.573  1.00  0.00    -0.744 OA
ENDBRANCH  74  75
ENDBRANCH  53  67
BRANCH  54  79
ATOM     79  C   UNL A   1      43.216  24.854  28.084  1.00  0.00     0.058 A 
ATOM     80  C   UNL A   1      43.902  25.161  26.900  1.00  0.00     0.135 A 
ATOM     81  C   UNL A   1      42.857  23.515  28.304  1.00  0.00     0.135 A 
ATOM     82  F   UNL A   1      44.263  26.428  26.643  1.00  0.00    -0.206 F 
ATOM     83  C   UNL A   1      44.213  24.182  25.962  1.00  0.00     0.059 A 
ATOM     84  C   UNL A   1      43.177  22.513  27.391  1.00  0.00     0.059 A 
ATOM     85  F   UNL A   1      42.217  23.166  29.431  1.00  0.00    -0.206 F 
ATOM     86  C   UNL A   1      43.850  22.859  26.220  1.00  0.00     0.060 A 
BRANCH  86  87
ATOM     87  S   UNL A   1      44.318  21.588  25.024  1.00  0.00     0.124 S 
ATOM     88  O   UNL A   1      44.150  22.297  23.761  1.00  0.00    -0.237 OA
ATOM     89  O   UNL A   1      45.692  21.292  25.414  1.00  0.00    -0.237 OA
ATOM     90  O   UNL A   1      43.358  20.519  25.281  1.00  0.00    -0.744 OA
ENDBRANCH  86  87
ENDBRANCH  54  79
BRANCH  66  91
ATOM     91  C   UNL A   1      46.378  27.023  33.907  1.00  0.00     0.058 A 
ATOM     92  C   UNL A   1      46.344  25.995  34.861  1.00  0.00     0.135 A 
ATOM     93  C   UNL A   1      47.622  27.600  33.607  1.00  0.00     0.135 A 
ATOM     94  F   UNL A   1      45.178  25.416  35.191  1.00  0.00    -0.206 F 
ATOM     95  C   UNL A   1      47.497  25.574  35.516  1.00  0.00     0.059 A 
ATOM     96  C   UNL A   1      48.792  27.175  34.229  1.00  0.00     0.059 A 
ATOM     97  F   UNL A   1      47.710  28.581  32.695  1.00  0.00    -0.206 F 
ATOM     98  C   UNL A   1      48.717  26.173  35.194  1.00  0.00     0.060 A 
BRANCH  98  99
ATOM     99  S   UNL A   1      50.209  25.606  36.037  1.00  0.00     0.124 S 
ATOM    100  O   UNL A   1      50.110  26.308  37.312  1.00  0.00    -0.237 OA
ATOM    101  O   UNL A   1      50.010  24.161  36.091  1.00  0.00    -0.237 OA
ATOM    102  O   UNL A   1      51.285  26.051  35.155  1.00  0.00    -0.744 OA
ENDBRANCH  98  99
ENDBRANCH  66  91
ENDBRANCH  40  41
ENDBRANCH  32  35
ENDBRANCH  30  31
ENDBRANCH   1  30
TORSDOF 16
ENDMDL
MODEL 3
REMARK VINA RESULT:     -11.9      5.056     10.592
REMARK SMILES O=C(NCCCCNC(=O)c1ccc(-c2c3nc(c(-c4c(F)cc(S(=O)(=O)[O-])cc4F)c4ccc([nH]4)c(-c4c(F)cc(S(=O)(=O)[O-])cc4F)c4nc(c(-c5c(F)cc(S(=O)(=O)[O-])cc5F)c5ccc2[nH]5)C=C4)C=C3)cc1)C1=Cc2cc(Cl)cc(-c3ccc(Cl)cc3)c2O[C@@H]1C(F)(F)F
REMARK SMILES IDX 6 1 5 2 4 3 3 4 1 5 2 6 77 8 78 9 94 10 79 11 93 12 80 13
REMARK SMILES IDX 92 14 81 15 84 16 82 17 83 18 95 19 96 20 97 21 98 22 85 23
REMARK SMILES IDX 86 24 91 25 87 26 90 27 88 28 89 29 7 30 8 31 9 32 10 34
REMARK SMILES IDX 11 35 12 36 76 37 13 38 75 39 14 40 15 41 16 42 69 43 17 44
REMARK SMILES IDX 74 45 68 46 70 47 18 48 73 49 67 50 66 51 19 53 53 54 32 55
REMARK SMILES IDX 52 56 33 57 36 58 51 59 71 60 34 61 35 62 50 64 72 65 37 66
REMARK SMILES IDX 20 67 21 68 30 69 22 70 23 71 29 72 31 73 24 74 25 75 26 76
REMARK SMILES IDX 27 77 28 78 54 79 55 80 64 81 56 82 57 83 63 84 65 85 58 86
REMARK SMILES IDX 59 87 60 88 61 89 62 90 38 91 39 92 48 93 40 94 41 95 47 96
REMARK SMILES IDX 49 97 42 98 43 99 44 100 45 101 46 102
REMARK H PARENT 3 7 8 33 70 52 36 63
REMARK Flexibility Score: inf
ROOT
ATOM      1  C   UNL A   1      37.747  23.105  26.049  1.00  0.00     0.023 C 
ENDROOT
BRANCH   1   2
ATOM      2  C   UNL A   1      36.288  23.248  26.490  1.00  0.00     0.023 C 
BRANCH   2   3
ATOM      3  C   UNL A   1      35.340  22.159  25.982  1.00  0.00     0.116 C 
BRANCH   3   4
ATOM      4  N   UNL A   1      34.025  22.175  26.627  1.00  0.00    -0.352 N 
ATOM      5  O   UNL A   1      31.779  22.389  26.780  1.00  0.00    -0.270 OA
ATOM      6  C   UNL A   1      32.820  22.683  26.202  1.00  0.00     0.251 C 
ATOM      7  H   UNL A   1      34.001  21.751  27.516  1.00  0.00     0.163 HD
BRANCH   6   8
ATOM      8  C   UNL A   1      32.781  23.448  24.937  1.00  0.00     0.067 C 
ATOM      9  C   UNL A   1      31.707  23.543  24.139  1.00  0.00     0.025 C 
ATOM     10  C   UNL A   1      33.925  24.377  24.690  1.00  0.00     0.314 C 
ATOM     11  C   UNL A   1      31.313  24.970  23.991  1.00  0.00     0.019 A 
ATOM     12  O   UNL A   1      33.485  25.744  24.823  1.00  0.00    -0.475 OA
ATOM     13  C   UNL A   1      29.960  25.255  23.765  1.00  0.00     0.032 A 
ATOM     14  C   UNL A   1      32.167  25.996  24.489  1.00  0.00     0.135 A 
ATOM     15  C   UNL A   1      29.461  26.522  24.057  1.00  0.00     0.042 A 
ATOM     16  C   UNL A   1      31.650  27.263  24.851  1.00  0.00     0.026 A 
ATOM     17  Cl  UNL A   1      27.777  26.836  23.881  1.00  0.00    -0.084 Cl
ATOM     18  C   UNL A   1      30.287  27.508  24.596  1.00  0.00     0.033 A 
BRANCH  10  19
ATOM     19  C   UNL A   1      34.579  24.095  23.317  1.00  0.00     0.429 C 
ATOM     20  F   UNL A   1      34.211  25.015  22.393  1.00  0.00    -0.167 F 
ATOM     21  F   UNL A   1      35.932  24.133  23.388  1.00  0.00    -0.167 F 
ATOM     22  F   UNL A   1      34.249  22.880  22.812  1.00  0.00    -0.167 F 
ENDBRANCH  10  19
BRANCH  16  23
ATOM     23  C   UNL A   1      32.428  28.257  25.631  1.00  0.00    -0.015 A 
ATOM     24  C   UNL A   1      31.922  29.562  25.818  1.00  0.00     0.010 A 
ATOM     25  C   UNL A   1      33.667  27.956  26.217  1.00  0.00     0.010 A 
ATOM     26  C   UNL A   1      32.633  30.530  26.529  1.00  0.00     0.021 A 
ATOM     27  C   UNL A   1      34.378  28.921  26.943  1.00  0.00     0.021 A 
ATOM     28  C   UNL A   1      33.861  30.206  27.088  1.00  0.00     0.041 A 
ATOM     29  Cl  UNL A   1      34.745  31.398  27.956  1.00  0.00    -0.084 Cl
ENDBRANCH  16  23
ENDBRANCH   6   8
ENDBRANCH   3   4
ENDBRANCH   2   3
ENDBRANCH   1   2
BRANCH   1  30
ATOM     30  C   UNL A   1      38.755  24.063  26.682  1.00  0.00     0.116 C 
BRANCH  30  31
ATOM     31  N   UNL A   1      39.771  24.575  25.779  1.00  0.00    -0.352 N 
ATOM     32  C   UNL A   1      40.728  25.548  26.025  1.00  0.00     0.251 C 
ATOM     33  H   UNL A   1      39.783  24.180  24.877  1.00  0.00     0.163 HD
ATOM     34  O   UNL A   1      41.510  25.872  25.157  1.00  0.00    -0.269 OA
BRANCH  32  35
ATOM     35  C   UNL A   1      40.759  26.212  27.354  1.00  0.00     0.039 A 
ATOM     36  C   UNL A   1      41.883  26.969  27.698  1.00  0.00     0.014 A 
ATOM     37  C   UNL A   1      39.670  26.137  28.226  1.00  0.00     0.014 A 
ATOM     38  C   UNL A   1      41.866  27.742  28.863  1.00  0.00     0.010 A 
ATOM     39  C   UNL A   1      39.633  26.943  29.360  1.00  0.00     0.010 A 
ATOM     40  C   UNL A   1      40.718  27.774  29.670  1.00  0.00    -0.014 A 
BRANCH  40  41
ATOM     41  C   UNL A   1      40.582  28.748  30.780  1.00  0.00     0.031 A 
ATOM     42  C   UNL A   1      41.407  28.613  32.026  1.00  0.00     0.074 A 
ATOM     43  C   UNL A   1      39.623  29.691  30.692  1.00  0.00     0.049 A 
ATOM     44  N   UNL A   1      41.401  29.359  33.101  1.00  0.00    -0.248 NA
ATOM     45  C   UNL A   1      42.338  27.477  32.083  1.00  0.00     0.031 C 
ATOM     46  C   UNL A   1      38.711  29.863  29.558  1.00  0.00     0.029 A 
ATOM     47  N   UNL A   1      39.242  30.671  31.573  1.00  0.00    -0.354 N 
ATOM     48  C   UNL A   1      42.329  28.787  33.962  1.00  0.00     0.074 A 
ATOM     49  C   UNL A   1      42.837  27.601  33.305  1.00  0.00     0.031 C 
ATOM     50  C   UNL A   1      37.892  30.898  29.803  1.00  0.00     0.029 A 
ATOM     51  C   UNL A   1      38.203  31.446  31.119  1.00  0.00     0.049 A 
ATOM     52  H   UNL A   1      39.673  30.805  32.449  1.00  0.00     0.167 HD
ATOM     53  C   UNL A   1      42.732  29.226  35.180  1.00  0.00     0.037 A 
ATOM     54  C   UNL A   1      37.576  32.490  31.697  1.00  0.00     0.037 A 
ATOM     55  C   UNL A   1      42.208  30.404  35.822  1.00  0.00     0.049 A 
ATOM     56  C   UNL A   1      38.039  32.958  33.047  1.00  0.00     0.074 A 
ATOM     57  C   UNL A   1      42.593  30.978  37.021  1.00  0.00     0.029 A 
ATOM     58  N   UNL A   1      41.169  31.181  35.325  1.00  0.00    -0.354 N 
ATOM     59  N   UNL A   1      38.995  32.472  33.805  1.00  0.00    -0.248 NA
ATOM     60  C   UNL A   1      37.350  34.122  33.617  1.00  0.00     0.031 C 
ATOM     61  C   UNL A   1      41.757  32.073  37.270  1.00  0.00     0.029 A 
ATOM     62  C   UNL A   1      40.882  32.212  36.204  1.00  0.00     0.049 A 
ATOM     63  H   UNL A   1      40.705  31.022  34.471  1.00  0.00     0.167 HD
ATOM     64  C   UNL A   1      39.044  33.291  34.926  1.00  0.00     0.074 A 
ATOM     65  C   UNL A   1      38.026  34.307  34.743  1.00  0.00     0.031 C 
ATOM     66  C   UNL A   1      39.862  33.213  36.006  1.00  0.00     0.037 A 
BRANCH  53  67
ATOM     67  C   UNL A   1      43.788  28.422  35.891  1.00  0.00     0.058 A 
ATOM     68  C   UNL A   1      45.156  28.699  35.731  1.00  0.00     0.135 A 
ATOM     69  C   UNL A   1      43.433  27.370  36.751  1.00  0.00     0.135 A 
ATOM     70  F   UNL A   1      45.555  29.686  34.913  1.00  0.00    -0.206 F 
ATOM     71  C   UNL A   1      46.133  27.937  36.363  1.00  0.00     0.059 A 
ATOM     72  C   UNL A   1      44.393  26.612  37.417  1.00  0.00     0.059 A 
ATOM     73  F   UNL A   1      42.141  27.062  36.945  1.00  0.00    -0.206 F 
ATOM     74  C   UNL A   1      45.742  26.891  37.200  1.00  0.00     0.060 A 
BRANCH  74  75
ATOM     75  S   UNL A   1      47.023  25.899  37.998  1.00  0.00     0.124 S 
ATOM     76  O   UNL A   1      47.317  26.702  39.181  1.00  0.00    -0.237 OA
ATOM     77  O   UNL A   1      46.333  24.637  38.246  1.00  0.00    -0.237 OA
ATOM     78  O   UNL A   1      48.082  25.843  36.997  1.00  0.00    -0.744 OA
ENDBRANCH  74  75
ENDBRANCH  53  67
BRANCH  54  79
ATOM     79  C   UNL A   1      36.491  33.197  30.967  1.00  0.00     0.058 A 
ATOM     80  C   UNL A   1      35.155  33.065  31.372  1.00  0.00     0.135 A 
ATOM     81  C   UNL A   1      36.765  34.041  29.880  1.00  0.00     0.135 A 
ATOM     82  F   UNL A   1      34.844  32.266  32.405  1.00  0.00    -0.206 F 
ATOM     83  C   UNL A   1      34.126  33.736  30.721  1.00  0.00     0.059 A 
ATOM     84  C   UNL A   1      35.754  34.741  29.226  1.00  0.00     0.059 A 
ATOM     85  F   UNL A   1      38.029  34.218  29.465  1.00  0.00    -0.206 F 
ATOM     86  C   UNL A   1      34.436  34.575  29.650  1.00  0.00     0.060 A 
BRANCH  86  87
ATOM     87  S   UNL A   1      33.097  35.490  28.854  1.00  0.00     0.124 S 
ATOM     88  O   UNL A   1      32.428  34.435  28.102  1.00  0.00    -0.237 OA
ATOM     89  O   UNL A   1      32.366  36.022  30.000  1.00  0.00    -0.237 OA
ATOM     90  O   UNL A   1      33.802  36.487  28.054  1.00  0.00    -0.744 OA
ENDBRANCH  86  87
ENDBRANCH  54  79
BRANCH  66  91
ATOM     91  C   UNL A   1      39.706  34.277  37.058  1.00  0.00     0.058 A 
ATOM     92  C   UNL A   1      38.921  34.073  38.203  1.00  0.00     0.135 A 
ATOM     93  C   UNL A   1      40.374  35.505  36.930  1.00  0.00     0.135 A 
ATOM     94  F   UNL A   1      38.254  32.920  38.370  1.00  0.00    -0.206 F 
ATOM     95  C   UNL A   1      38.779  35.063  39.170  1.00  0.00     0.059 A 
ATOM     96  C   UNL A   1      40.269  36.498  37.899  1.00  0.00     0.059 A 
ATOM     97  F   UNL A   1      41.145  35.747  35.857  1.00  0.00    -0.206 F 
ATOM     98  C   UNL A   1      39.456  36.273  39.008  1.00  0.00     0.060 A 
BRANCH  98  99
ATOM     99  S   UNL A   1      39.279  37.542  40.279  1.00  0.00     0.124 S 
ATOM    100  O   UNL A   1      40.646  38.039  40.390  1.00  0.00    -0.237 OA
ATOM    101  O   UNL A   1      38.317  38.459  39.676  1.00  0.00    -0.237 OA
ATOM    102  O   UNL A   1      38.785  36.796  41.434  1.00  0.00    -0.744 OA
ENDBRANCH  98  99
ENDBRANCH  66  91
ENDBRANCH  40  41
ENDBRANCH  32  35
ENDBRANCH  30  31
ENDBRANCH   1  30
TORSDOF 16
ENDMDL
