MODEL 1
REMARK VINA RESULT:     -12.4      0.000      0.000
REMARK SMILES Cc1ccc(C(=O)N2C[C@H](C(=O)NCCCCNC(=O)c3ccc(-c4c5nc(c(-c6c(F)cc(S(=O)(=O)[O-])cc6F)c6ccc([nH]6)c(-c6c(F)cc(S(=O)(=O)[O-])cc6F)c6nc(c(-c7c(F)cc(S(=O)(=O)[O-])cc7F)c7ccc4[nH]7)C=C6)C=C5)cc3)Oc3ccccc32)o1
REMARK SMILES IDX 16 1 15 2 14 3 13 4 11 5 12 6 10 8 8 9 9 10 93 11 88 12
REMARK SMILES IDX 92 13 87 14 89 15 91 16 90 17 6 18 7 19 5 20 1 21 2 22 3 23
REMARK SMILES IDX 94 24 4 25 17 26 18 27 19 28 20 30 21 31 22 32 86 33 23 34
REMARK SMILES IDX 85 35 24 36 25 37 26 38 79 39 27 40 84 41 78 42 80 43 28 44
REMARK SMILES IDX 83 45 77 46 76 47 29 49 63 50 42 51 62 52 43 53 46 54 61 55
REMARK SMILES IDX 81 56 44 57 45 58 60 60 82 61 47 62 30 63 31 64 40 65 32 66
REMARK SMILES IDX 33 67 39 68 41 69 34 70 35 71 36 72 37 73 38 74 64 75 65 76
REMARK SMILES IDX 74 77 66 78 67 79 73 80 75 81 68 82 69 83 70 84 71 85 72 86
REMARK SMILES IDX 48 87 49 88 58 89 50 90 51 91 57 92 59 93 52 94 53 95 54 96
REMARK SMILES IDX 55 97 56 98
REMARK H PARENT 13 7 18 29 80 48 46 59
REMARK Flexibility Score: inf
ROOT
ATOM      1  C   UNL A   1      32.723  27.333  26.133  1.00  0.00     0.023 C 
ENDROOT
BRANCH   1   2
ATOM      2  C   UNL A   1      32.672  27.609  24.628  1.00  0.00     0.023 C 
BRANCH   2   3
ATOM      3  C   UNL A   1      31.653  26.776  23.852  1.00  0.00     0.116 C 
BRANCH   3   4
ATOM      4  N   UNL A   1      32.170  26.370  22.555  1.00  0.00    -0.353 N 
ATOM      5  C   UNL A   1      32.938  25.292  22.210  1.00  0.00     0.262 C 
ATOM      6  O   UNL A   1      33.277  25.183  21.028  1.00  0.00    -0.271 OA
ATOM      7  H   UNL A   1      31.931  26.965  21.808  1.00  0.00     0.163 HD
BRANCH   5   8
ATOM      8  C   UNL A   1      33.420  24.282  23.257  1.00  0.00     0.281 C 
ATOM      9  N   UNL A   1      33.084  21.968  24.063  1.00  0.00    -0.298 N 
ATOM     10  C   UNL A   1      32.611  22.997  23.138  1.00  0.00     0.181 C 
ATOM     11  C   UNL A   1      34.498  21.947  24.284  1.00  0.00     0.087 A 
ATOM     12  C   UNL A   1      35.303  22.973  23.760  1.00  0.00     0.144 A 
ATOM     13  C   UNL A   1      35.132  20.867  24.915  1.00  0.00     0.030 A 
ATOM     14  O   UNL A   1      34.824  24.077  23.103  1.00  0.00    -0.477 OA
ATOM     15  C   UNL A   1      36.696  22.905  23.843  1.00  0.00     0.049 A 
ATOM     16  C   UNL A   1      36.526  20.804  25.001  1.00  0.00     0.002 A 
ATOM     17  C   UNL A   1      37.309  21.819  24.462  1.00  0.00     0.004 A 
BRANCH   9  18
ATOM     18  C   UNL A   1      32.211  21.058  24.671  1.00  0.00     0.294 C 
ATOM     19  O   UNL A   1      31.408  21.425  25.541  1.00  0.00    -0.265 OA
BRANCH  18  20
ATOM     20  C   UNL A   1      32.323  19.658  24.289  1.00  0.00     0.192 A 
ATOM     21  C   UNL A   1      32.690  16.365  25.656  1.00  0.00     0.087 C 
ATOM     22  C   UNL A   1      32.573  17.505  24.727  1.00  0.00     0.101 A 
ATOM     23  C   UNL A   1      32.676  17.630  23.361  1.00  0.00     0.046 A 
ATOM     24  O   UNL A   1      32.349  18.721  25.293  1.00  0.00    -0.456 OA
ATOM     25  C   UNL A   1      32.528  19.011  23.079  1.00  0.00     0.056 A 
ENDBRANCH  18  20
ENDBRANCH   9  18
ENDBRANCH   5   8
ENDBRANCH   3   4
ENDBRANCH   2   3
ENDBRANCH   1   2
BRANCH   1  26
ATOM     26  C   UNL A   1      33.899  27.963  26.876  1.00  0.00     0.116 C 
BRANCH  26  27
ATOM     27  N   UNL A   1      33.629  29.319  27.322  1.00  0.00    -0.352 N 
ATOM     28  C   UNL A   1      34.452  30.197  27.982  1.00  0.00     0.251 C 
ATOM     29  H   UNL A   1      32.727  29.657  27.121  1.00  0.00     0.163 HD
ATOM     30  O   UNL A   1      33.994  31.266  28.377  1.00  0.00    -0.269 OA
BRANCH  28  31
ATOM     31  C   UNL A   1      35.868  29.853  28.246  1.00  0.00     0.039 A 
ATOM     32  C   UNL A   1      36.797  30.027  27.216  1.00  0.00     0.014 A 
ATOM     33  C   UNL A   1      36.278  29.329  29.475  1.00  0.00     0.014 A 
ATOM     34  C   UNL A   1      38.143  29.718  27.432  1.00  0.00     0.010 A 
ATOM     35  C   UNL A   1      37.628  29.070  29.708  1.00  0.00     0.010 A 
ATOM     36  C   UNL A   1      38.571  29.253  28.685  1.00  0.00    -0.014 A 
BRANCH  36  37
ATOM     37  C   UNL A   1      39.995  28.920  28.928  1.00  0.00     0.031 A 
ATOM     38  C   UNL A   1      40.917  29.951  29.521  1.00  0.00     0.074 A 
ATOM     39  C   UNL A   1      40.470  27.711  28.573  1.00  0.00     0.049 A 
ATOM     40  N   UNL A   1      42.200  29.871  29.760  1.00  0.00    -0.248 NA
ATOM     41  C   UNL A   1      40.321  31.251  29.867  1.00  0.00     0.031 C 
ATOM     42  C   UNL A   1      39.689  26.644  27.945  1.00  0.00     0.029 A 
ATOM     43  N   UNL A   1      41.729  27.178  28.687  1.00  0.00    -0.354 N 
ATOM     44  C   UNL A   1      42.571  31.113  30.261  1.00  0.00     0.074 A 
ATOM     45  C   UNL A   1      41.382  31.939  30.261  1.00  0.00     0.031 C 
ATOM     46  C   UNL A   1      40.481  25.578  27.746  1.00  0.00     0.029 A 
ATOM     47  C   UNL A   1      41.826  25.890  28.218  1.00  0.00     0.049 A 
ATOM     48  H   UNL A   1      42.490  27.670  29.071  1.00  0.00     0.167 HD
ATOM     49  C   UNL A   1      43.786  31.524  30.696  1.00  0.00     0.037 A 
ATOM     50  C   UNL A   1      42.882  25.054  28.181  1.00  0.00     0.037 A 
ATOM     51  C   UNL A   1      44.957  30.691  30.732  1.00  0.00     0.049 A 
ATOM     52  C   UNL A   1      44.200  25.506  28.744  1.00  0.00     0.074 A 
ATOM     53  C   UNL A   1      46.230  31.006  31.179  1.00  0.00     0.029 A 
ATOM     54  N   UNL A   1      44.995  29.367  30.321  1.00  0.00    -0.354 N 
ATOM     55  N   UNL A   1      44.525  26.676  29.241  1.00  0.00    -0.248 NA
ATOM     56  C   UNL A   1      45.290  24.521  28.757  1.00  0.00     0.031 C 
ATOM     57  C   UNL A   1      47.038  29.871  31.032  1.00  0.00     0.029 A 
ATOM     58  C   UNL A   1      46.263  28.846  30.514  1.00  0.00     0.049 A 
ATOM     59  H   UNL A   1      44.232  28.871  29.946  1.00  0.00     0.167 HD
ATOM     60  C   UNL A   1      45.847  26.558  29.652  1.00  0.00     0.074 A 
ATOM     61  C   UNL A   1      46.261  25.203  29.349  1.00  0.00     0.031 C 
ATOM     62  C   UNL A   1      46.647  27.488  30.228  1.00  0.00     0.037 A 
BRANCH  49  63
ATOM     63  C   UNL A   1      43.897  32.944  31.174  1.00  0.00     0.058 A 
ATOM     64  C   UNL A   1      44.234  33.985  30.295  1.00  0.00     0.135 A 
ATOM     65  C   UNL A   1      43.669  33.266  32.520  1.00  0.00     0.135 A 
ATOM     66  F   UNL A   1      44.480  33.725  29.002  1.00  0.00    -0.206 F 
ATOM     67  C   UNL A   1      44.372  35.295  30.742  1.00  0.00     0.059 A 
ATOM     68  C   UNL A   1      43.783  34.573  32.985  1.00  0.00     0.059 A 
ATOM     69  F   UNL A   1      43.348  32.305  33.401  1.00  0.00    -0.206 F 
ATOM     70  C   UNL A   1      44.155  35.578  32.091  1.00  0.00     0.060 A 
BRANCH  70  71
ATOM     71  S   UNL A   1      44.355  37.275  32.670  1.00  0.00     0.124 S 
ATOM     72  O   UNL A   1      44.209  38.023  31.424  1.00  0.00    -0.237 OA
ATOM     73  O   UNL A   1      43.261  37.419  33.625  1.00  0.00    -0.237 OA
ATOM     74  O   UNL A   1      45.694  37.277  33.250  1.00  0.00    -0.744 OA
ENDBRANCH  70  71
ENDBRANCH  49  63
BRANCH  50  75
ATOM     75  C   UNL A   1      42.718  23.683  27.639  1.00  0.00     0.058 A 
ATOM     76  C   UNL A   1      42.434  22.605  28.492  1.00  0.00     0.135 A 
ATOM     77  C   UNL A   1      42.823  23.425  26.265  1.00  0.00     0.135 A 
ATOM     78  F   UNL A   1      42.328  22.809  29.814  1.00  0.00    -0.206 F 
ATOM     79  C   UNL A   1      42.274  21.314  28.003  1.00  0.00     0.059 A 
ATOM     80  C   UNL A   1      42.652  22.143  25.751  1.00  0.00     0.059 A 
ATOM     81  F   UNL A   1      43.075  24.427  25.410  1.00  0.00    -0.206 F 
ATOM     82  C   UNL A   1      42.386  21.092  26.630  1.00  0.00     0.060 A 
BRANCH  82  83
ATOM     83  S   UNL A   1      42.122  19.424  25.992  1.00  0.00     0.124 S 
ATOM     84  O   UNL A   1      40.684  19.426  25.751  1.00  0.00    -0.237 OA
ATOM     85  O   UNL A   1      42.969  19.406  24.803  1.00  0.00    -0.237 OA
ATOM     86  O   UNL A   1      42.580  18.575  27.088  1.00  0.00    -0.744 OA
ENDBRANCH  82  83
ENDBRANCH  50  75
BRANCH  62  87
ATOM     87  C   UNL A   1      48.031  27.056  30.611  1.00  0.00     0.058 A 
ATOM     88  C   UNL A   1      49.107  27.166  29.718  1.00  0.00     0.135 A 
ATOM     89  C   UNL A   1      48.287  26.556  31.897  1.00  0.00     0.135 A 
ATOM     90  F   UNL A   1      48.909  27.633  28.476  1.00  0.00    -0.206 F 
ATOM     91  C   UNL A   1      50.390  26.771  30.080  1.00  0.00     0.059 A 
ATOM     92  C   UNL A   1      49.564  26.170  32.285  1.00  0.00     0.059 A 
ATOM     93  F   UNL A   1      47.288  26.439  32.787  1.00  0.00    -0.206 F 
ATOM     94  C   UNL A   1      50.608  26.269  31.365  1.00  0.00     0.060 A 
BRANCH  94  95
ATOM     95  S   UNL A   1      52.279  25.776  31.841  1.00  0.00     0.124 S 
ATOM     96  O   UNL A   1      52.518  26.633  32.997  1.00  0.00    -0.237 OA
ATOM     97  O   UNL A   1      52.123  24.354  32.127  1.00  0.00    -0.237 OA
ATOM     98  O   UNL A   1      53.071  26.085  30.653  1.00  0.00    -0.744 OA
ENDBRANCH  94  95
ENDBRANCH  62  87
ENDBRANCH  36  37
ENDBRANCH  28  31
ENDBRANCH  26  27
ENDBRANCH   1  26
TORSDOF 16
ENDMDL
MODEL 2
REMARK VINA RESULT:     -12.2      2.616      3.248
REMARK SMILES Cc1ccc(C(=O)N2C[C@H](C(=O)NCCCCNC(=O)c3ccc(-c4c5nc(c(-c6c(F)cc(S(=O)(=O)[O-])cc6F)c6ccc([nH]6)c(-c6c(F)cc(S(=O)(=O)[O-])cc6F)c6nc(c(-c7c(F)cc(S(=O)(=O)[O-])cc7F)c7ccc4[nH]7)C=C6)C=C5)cc3)Oc3ccccc32)o1
REMARK SMILES IDX 16 1 15 2 14 3 13 4 11 5 12 6 10 8 8 9 9 10 93 11 88 12
REMARK SMILES IDX 92 13 87 14 89 15 91 16 90 17 6 18 7 19 5 20 1 21 2 22 3 23
REMARK SMILES IDX 94 24 4 25 17 26 18 27 19 28 20 30 21 31 22 32 86 33 23 34
REMARK SMILES IDX 85 35 24 36 25 37 26 38 79 39 27 40 84 41 78 42 80 43 28 44
REMARK SMILES IDX 83 45 77 46 76 47 29 49 63 50 42 51 62 52 43 53 46 54 61 55
REMARK SMILES IDX 81 56 44 57 45 58 60 60 82 61 47 62 30 63 31 64 40 65 32 66
REMARK SMILES IDX 33 67 39 68 41 69 34 70 35 71 36 72 37 73 38 74 64 75 65 76
REMARK SMILES IDX 74 77 66 78 67 79 73 80 75 81 68 82 69 83 70 84 71 85 72 86
REMARK SMILES IDX 48 87 49 88 58 89 50 90 51 91 57 92 59 93 52 94 53 95 54 96
REMARK SMILES IDX 55 97 56 98
REMARK H PARENT 13 7 18 29 80 48 46 59
REMARK Flexibility Score: inf
ROOT
ATOM      1  C   UNL A   1      32.898  27.306  25.509  1.00  0.00     0.023 C 
ENDROOT
BRANCH   1   2
ATOM      2  C   UNL A   1      32.759  27.512  23.998  1.00  0.00     0.023 C 
BRANCH   2   3
ATOM      3  C   UNL A   1      31.675  26.668  23.328  1.00  0.00     0.116 C 
BRANCH   3   4
ATOM      4  N   UNL A   1      32.136  26.106  22.069  1.00  0.00    -0.353 N 
ATOM      5  C   UNL A   1      32.868  24.977  21.824  1.00  0.00     0.262 C 
ATOM      6  O   UNL A   1      33.162  24.726  20.651  1.00  0.00    -0.271 OA
ATOM      7  H   UNL A   1      31.881  26.618  21.268  1.00  0.00     0.163 HD
BRANCH   5   8
ATOM      8  C   UNL A   1      33.368  24.081  22.962  1.00  0.00     0.281 C 
ATOM      9  N   UNL A   1      33.106  21.832  23.959  1.00  0.00    -0.298 N 
ATOM     10  C   UNL A   1      32.613  22.759  22.941  1.00  0.00     0.181 C 
ATOM     11  C   UNL A   1      34.514  21.889  24.205  1.00  0.00     0.087 A 
ATOM     12  C   UNL A   1      35.289  22.897  23.608  1.00  0.00     0.144 A 
ATOM     13  C   UNL A   1      35.177  20.893  24.937  1.00  0.00     0.030 A 
ATOM     14  O   UNL A   1      34.782  23.921  22.850  1.00  0.00    -0.477 OA
ATOM     15  C   UNL A   1      36.682  22.893  23.720  1.00  0.00     0.049 A 
ATOM     16  C   UNL A   1      36.571  20.894  25.053  1.00  0.00     0.002 A 
ATOM     17  C   UNL A   1      37.324  21.889  24.440  1.00  0.00     0.004 A 
BRANCH   9  18
ATOM     18  C   UNL A   1      32.257  20.944  24.629  1.00  0.00     0.294 C 
ATOM     19  O   UNL A   1      31.486  21.340  25.516  1.00  0.00    -0.265 OA
BRANCH  18  20
ATOM     20  C   UNL A   1      32.355  19.532  24.290  1.00  0.00     0.192 A 
ATOM     21  C   UNL A   1      32.759  16.284  25.750  1.00  0.00     0.087 C 
ATOM     22  C   UNL A   1      32.616  17.394  24.789  1.00  0.00     0.101 A 
ATOM     23  C   UNL A   1      32.677  17.474  23.417  1.00  0.00     0.046 A 
ATOM     24  O   UNL A   1      32.410  18.628  25.321  1.00  0.00    -0.456 OA
ATOM     25  C   UNL A   1      32.523  18.846  23.096  1.00  0.00     0.056 A 
ENDBRANCH  18  20
ENDBRANCH   9  18
ENDBRANCH   5   8
ENDBRANCH   3   4
ENDBRANCH   2   3
ENDBRANCH   1   2
BRANCH   1  26
ATOM     26  C   UNL A   1      34.024  28.094  26.176  1.00  0.00     0.116 C 
BRANCH  26  27
ATOM     27  N   UNL A   1      33.660  29.469  26.469  1.00  0.00    -0.352 N 
ATOM     28  C   UNL A   1      34.289  30.381  27.280  1.00  0.00     0.251 C 
ATOM     29  H   UNL A   1      32.846  29.795  26.020  1.00  0.00     0.163 HD
ATOM     30  O   UNL A   1      33.753  31.467  27.487  1.00  0.00    -0.269 OA
BRANCH  28  31
ATOM     31  C   UNL A   1      35.580  30.054  27.926  1.00  0.00     0.039 A 
ATOM     32  C   UNL A   1      35.569  29.637  29.260  1.00  0.00     0.014 A 
ATOM     33  C   UNL A   1      36.795  30.191  27.247  1.00  0.00     0.014 A 
ATOM     34  C   UNL A   1      36.768  29.314  29.900  1.00  0.00     0.010 A 
ATOM     35  C   UNL A   1      37.986  29.819  27.869  1.00  0.00     0.010 A 
ATOM     36  C   UNL A   1      37.985  29.387  29.203  1.00  0.00    -0.014 A 
BRANCH  36  37
ATOM     37  C   UNL A   1      39.265  29.048  29.870  1.00  0.00     0.031 A 
ATOM     38  C   UNL A   1      39.695  29.801  31.100  1.00  0.00     0.074 A 
ATOM     39  C   UNL A   1      40.061  28.097  29.345  1.00  0.00     0.049 A 
ATOM     40  N   UNL A   1      40.797  29.689  31.793  1.00  0.00    -0.248 NA
ATOM     41  C   UNL A   1      38.772  30.832  31.599  1.00  0.00     0.031 C 
ATOM     42  C   UNL A   1      39.780  27.331  28.129  1.00  0.00     0.029 A 
ATOM     43  N   UNL A   1      41.276  27.617  29.767  1.00  0.00    -0.354 N 
ATOM     44  C   UNL A   1      40.714  30.649  32.795  1.00  0.00     0.074 A 
ATOM     45  C   UNL A   1      39.467  31.356  32.598  1.00  0.00     0.031 C 
ATOM     46  C   UNL A   1      40.784  26.464  27.914  1.00  0.00     0.029 A 
ATOM     47  C   UNL A   1      41.784  26.624  28.965  1.00  0.00     0.049 A 
ATOM     48  H   UNL A   1      41.738  27.952  30.569  1.00  0.00     0.167 HD
ATOM     49  C   UNL A   1      41.589  30.907  33.796  1.00  0.00     0.037 A 
ATOM     50  C   UNL A   1      42.925  25.916  29.072  1.00  0.00     0.037 A 
ATOM     51  C   UNL A   1      42.810  30.179  34.013  1.00  0.00     0.049 A 
ATOM     52  C   UNL A   1      43.840  26.167  30.238  1.00  0.00     0.074 A 
ATOM     53  C   UNL A   1      43.752  30.347  35.014  1.00  0.00     0.029 A 
ATOM     54  N   UNL A   1      43.249  29.126  33.224  1.00  0.00    -0.354 N 
ATOM     55  N   UNL A   1      43.731  27.059  31.193  1.00  0.00    -0.248 NA
ATOM     56  C   UNL A   1      45.024  25.304  30.350  1.00  0.00     0.031 C 
ATOM     57  C   UNL A   1      44.765  29.398  34.826  1.00  0.00     0.029 A 
ATOM     58  C   UNL A   1      44.441  28.626  33.721  1.00  0.00     0.049 A 
ATOM     59  H   UNL A   1      42.783  28.785  32.427  1.00  0.00     0.167 HD
ATOM     60  C   UNL A   1      44.816  26.847  32.035  1.00  0.00     0.074 A 
ATOM     61  C   UNL A   1      45.568  25.739  31.479  1.00  0.00     0.031 C 
ATOM     62  C   UNL A   1      45.160  27.509  33.166  1.00  0.00     0.037 A 
BRANCH  49  63
ATOM     63  C   UNL A   1      41.243  32.028  34.735  1.00  0.00     0.058 A 
ATOM     64  C   UNL A   1      41.738  33.326  34.535  1.00  0.00     0.135 A 
ATOM     65  C   UNL A   1      40.414  31.803  35.843  1.00  0.00     0.135 A 
ATOM     66  F   UNL A   1      42.551  33.587  33.499  1.00  0.00    -0.206 F 
ATOM     67  C   UNL A   1      41.448  34.357  35.421  1.00  0.00     0.059 A 
ATOM     68  C   UNL A   1      40.094  32.824  36.733  1.00  0.00     0.059 A 
ATOM     69  F   UNL A   1      39.918  30.578  36.080  1.00  0.00    -0.206 F 
ATOM     70  C   UNL A   1      40.633  34.094  36.524  1.00  0.00     0.060 A 
BRANCH  70  71
ATOM     71  S   UNL A   1      40.276  35.431  37.683  1.00  0.00     0.124 S 
ATOM     72  O   UNL A   1      39.194  34.848  38.470  1.00  0.00    -0.237 OA
ATOM     73  O   UNL A   1      41.548  35.597  38.381  1.00  0.00    -0.237 OA
ATOM     74  O   UNL A   1      39.895  36.538  36.812  1.00  0.00    -0.744 OA
ENDBRANCH  70  71
ENDBRANCH  49  63
BRANCH  50  75
ATOM     75  C   UNL A   1      43.237  24.863  28.075  1.00  0.00     0.058 A 
ATOM     76  C   UNL A   1      44.057  25.143  26.972  1.00  0.00     0.135 A 
ATOM     77  C   UNL A   1      42.741  23.559  28.213  1.00  0.00     0.135 A 
ATOM     78  F   UNL A   1      44.551  26.379  26.801  1.00  0.00    -0.206 F 
ATOM     79  C   UNL A   1      44.365  24.169  26.029  1.00  0.00     0.059 A 
ATOM     80  C   UNL A   1      43.047  22.564  27.290  1.00  0.00     0.059 A 
ATOM     81  F   UNL A   1      41.968  23.241  29.262  1.00  0.00    -0.206 F 
ATOM     82  C   UNL A   1      43.853  22.881  26.196  1.00  0.00     0.060 A 
BRANCH  82  83
ATOM     83  S   UNL A   1      44.299  21.603  25.000  1.00  0.00     0.124 S 
ATOM     84  O   UNL A   1      44.081  22.297  23.736  1.00  0.00    -0.237 OA
ATOM     85  O   UNL A   1      45.690  21.324  25.344  1.00  0.00    -0.237 OA
ATOM     86  O   UNL A   1      43.360  20.527  25.302  1.00  0.00    -0.744 OA
ENDBRANCH  82  83
ENDBRANCH  50  75
BRANCH  62  87
ATOM     87  C   UNL A   1      46.373  27.021  33.901  1.00  0.00     0.058 A 
ATOM     88  C   UNL A   1      47.650  27.536  33.632  1.00  0.00     0.135 A 
ATOM     89  C   UNL A   1      46.249  26.050  34.907  1.00  0.00     0.135 A 
ATOM     90  F   UNL A   1      47.817  28.461  32.675  1.00  0.00    -0.206 F 
ATOM     91  C   UNL A   1      48.770  27.086  34.322  1.00  0.00     0.059 A 
ATOM     92  C   UNL A   1      47.353  25.598  35.619  1.00  0.00     0.059 A 
ATOM     93  F   UNL A   1      45.045  25.535  35.203  1.00  0.00    -0.206 F 
ATOM     94  C   UNL A   1      48.613  26.112  35.311  1.00  0.00     0.060 A 
BRANCH  94  95
ATOM     95  S   UNL A   1      50.066  25.545  36.220  1.00  0.00     0.124 S 
ATOM     96  O   UNL A   1      50.020  26.394  37.405  1.00  0.00    -0.237 OA
ATOM     97  O   UNL A   1      49.772  24.132  36.441  1.00  0.00    -0.237 OA
ATOM     98  O   UNL A   1      51.165  25.811  35.295  1.00  0.00    -0.744 OA
ENDBRANCH  94  95
ENDBRANCH  62  87
ENDBRANCH  36  37
ENDBRANCH  28  31
ENDBRANCH  26  27
ENDBRANCH   1  26
TORSDOF 16
ENDMDL
MODEL 3
REMARK VINA RESULT:     -12.1      0.575      8.241
REMARK SMILES Cc1ccc(C(=O)N2C[C@H](C(=O)NCCCCNC(=O)c3ccc(-c4c5nc(c(-c6c(F)cc(S(=O)(=O)[O-])cc6F)c6ccc([nH]6)c(-c6c(F)cc(S(=O)(=O)[O-])cc6F)c6nc(c(-c7c(F)cc(S(=O)(=O)[O-])cc7F)c7ccc4[nH]7)C=C6)C=C5)cc3)Oc3ccccc32)o1
REMARK SMILES IDX 16 1 15 2 14 3 13 4 11 5 12 6 10 8 8 9 9 10 93 11 88 12
REMARK SMILES IDX 92 13 87 14 89 15 91 16 90 17 6 18 7 19 5 20 1 21 2 22 3 23
REMARK SMILES IDX 94 24 4 25 17 26 18 27 19 28 20 30 21 31 22 32 86 33 23 34
REMARK SMILES IDX 85 35 24 36 25 37 26 38 79 39 27 40 84 41 78 42 80 43 28 44
REMARK SMILES IDX 83 45 77 46 76 47 29 49 63 50 42 51 62 52 43 53 46 54 61 55
REMARK SMILES IDX 81 56 44 57 45 58 60 60 82 61 47 62 30 63 31 64 40 65 32 66
REMARK SMILES IDX 33 67 39 68 41 69 34 70 35 71 36 72 37 73 38 74 64 75 65 76
REMARK SMILES IDX 74 77 66 78 67 79 73 80 75 81 68 82 69 83 70 84 71 85 72 86
REMARK SMILES IDX 48 87 49 88 58 89 50 90 51 91 57 92 59 93 52 94 53 95 54 96
REMARK SMILES IDX 55 97 56 98
REMARK H PARENT 13 7 18 29 80 48 46 59
REMARK Flexibility Score: inf
ROOT
ATOM      1  C   UNL A   1      32.899  27.106  25.723  1.00  0.00     0.023 C 
ENDROOT
BRANCH   1   2
ATOM      2  C   UNL A   1      32.944  27.313  24.208  1.00  0.00     0.023 C 
BRANCH   2   3
ATOM      3  C   UNL A   1      31.771  26.706  23.437  1.00  0.00     0.116 C 
BRANCH   3   4
ATOM      4  N   UNL A   1      32.200  26.145  22.166  1.00  0.00    -0.353 N 
ATOM      5  C   UNL A   1      32.902  25.002  21.899  1.00  0.00     0.262 C 
ATOM      6  O   UNL A   1      33.171  24.756  20.720  1.00  0.00    -0.271 OA
ATOM      7  H   UNL A   1      31.944  26.671  21.374  1.00  0.00     0.163 HD
BRANCH   5   8
ATOM      8  C   UNL A   1      33.398  24.085  23.021  1.00  0.00     0.281 C 
ATOM      9  N   UNL A   1      33.122  21.822  23.983  1.00  0.00    -0.298 N 
ATOM     10  C   UNL A   1      32.632  22.769  22.981  1.00  0.00     0.181 C 
ATOM     11  C   UNL A   1      34.532  21.864  24.225  1.00  0.00     0.087 A 
ATOM     12  C   UNL A   1      35.312  22.876  23.642  1.00  0.00     0.144 A 
ATOM     13  C   UNL A   1      35.189  20.851  24.939  1.00  0.00     0.030 A 
ATOM     14  O   UNL A   1      34.810  23.915  22.902  1.00  0.00    -0.477 OA
ATOM     15  C   UNL A   1      36.706  22.858  23.749  1.00  0.00     0.049 A 
ATOM     16  C   UNL A   1      36.583  20.839  25.050  1.00  0.00     0.002 A 
ATOM     17  C   UNL A   1      37.342  21.839  24.451  1.00  0.00     0.004 A 
BRANCH   9  18
ATOM     18  C   UNL A   1      32.268  20.930  24.642  1.00  0.00     0.294 C 
ATOM     19  O   UNL A   1      31.497  21.319  25.531  1.00  0.00    -0.265 OA
BRANCH  18  20
ATOM     20  C   UNL A   1      32.361  19.521  24.287  1.00  0.00     0.192 A 
ATOM     21  C   UNL A   1      32.923  16.272  25.693  1.00  0.00     0.087 C 
ATOM     22  C   UNL A   1      32.691  17.385  24.752  1.00  0.00     0.101 A 
ATOM     23  C   UNL A   1      32.647  17.473  23.380  1.00  0.00     0.046 A 
ATOM     24  O   UNL A   1      32.508  18.613  25.307  1.00  0.00    -0.456 OA
ATOM     25  C   UNL A   1      32.449  18.844  23.080  1.00  0.00     0.056 A 
ENDBRANCH  18  20
ENDBRANCH   9  18
ENDBRANCH   5   8
ENDBRANCH   3   4
ENDBRANCH   2   3
ENDBRANCH   1   2
BRANCH   1  26
ATOM     26  C   UNL A   1      33.998  27.812  26.515  1.00  0.00     0.116 C 
BRANCH  26  27
ATOM     27  N   UNL A   1      33.595  29.118  27.007  1.00  0.00    -0.352 N 
ATOM     28  C   UNL A   1      34.320  30.039  27.721  1.00  0.00     0.251 C 
ATOM     29  H   UNL A   1      32.670  29.381  26.798  1.00  0.00     0.163 HD
ATOM     30  O   UNL A   1      33.757  31.044  28.148  1.00  0.00    -0.269 OA
BRANCH  28  31
ATOM     31  C   UNL A   1      35.756  29.815  28.007  1.00  0.00     0.039 A 
ATOM     32  C   UNL A   1      36.122  29.406  29.292  1.00  0.00     0.014 A 
ATOM     33  C   UNL A   1      36.739  30.038  27.039  1.00  0.00     0.014 A 
ATOM     34  C   UNL A   1      37.467  29.179  29.596  1.00  0.00     0.010 A 
ATOM     35  C   UNL A   1      38.075  29.761  27.325  1.00  0.00     0.010 A 
ATOM     36  C   UNL A   1      38.452  29.339  28.608  1.00  0.00    -0.014 A 
BRANCH  36  37
ATOM     37  C   UNL A   1      39.883  29.101  28.916  1.00  0.00     0.031 A 
ATOM     38  C   UNL A   1      40.515  27.778  28.581  1.00  0.00     0.074 A 
ATOM     39  C   UNL A   1      40.601  30.057  29.538  1.00  0.00     0.049 A 
ATOM     40  N   UNL A   1      41.731  27.361  28.816  1.00  0.00    -0.248 NA
ATOM     41  C   UNL A   1      39.657  26.785  27.916  1.00  0.00     0.031 C 
ATOM     42  C   UNL A   1      40.090  31.363  29.959  1.00  0.00     0.029 A 
ATOM     43  N   UNL A   1      41.916  30.073  29.928  1.00  0.00    -0.354 N 
ATOM     44  C   UNL A   1      41.780  26.052  28.352  1.00  0.00     0.074 A 
ATOM     45  C   UNL A   1      40.460  25.734  27.850  1.00  0.00     0.031 C 
ATOM     46  C   UNL A   1      41.085  32.059  30.532  1.00  0.00     0.029 A 
ATOM     47  C   UNL A   1      42.297  31.246  30.532  1.00  0.00     0.049 A 
ATOM     48  H   UNL A   1      42.529  29.316  29.787  1.00  0.00     0.167 HD
ATOM     49  C   UNL A   1      42.831  25.197  28.330  1.00  0.00     0.037 A 
ATOM     50  C   UNL A   1      43.492  31.625  31.023  1.00  0.00     0.037 A 
ATOM     51  C   UNL A   1      44.152  25.527  28.794  1.00  0.00     0.049 A 
ATOM     52  C   UNL A   1      44.664  30.690  30.914  1.00  0.00     0.074 A 
ATOM     53  C   UNL A   1      45.291  24.740  28.792  1.00  0.00     0.029 A 
ATOM     54  N   UNL A   1      44.515  26.755  29.326  1.00  0.00    -0.354 N 
ATOM     55  N   UNL A   1      44.698  29.465  30.445  1.00  0.00    -0.248 NA
ATOM     56  C   UNL A   1      45.961  31.192  31.386  1.00  0.00     0.031 C 
ATOM     57  C   UNL A   1      46.344  25.493  29.329  1.00  0.00     0.029 A 
ATOM     58  C   UNL A   1      45.863  26.754  29.645  1.00  0.00     0.049 A 
ATOM     59  H   UNL A   1      43.905  27.516  29.459  1.00  0.00     0.167 HD
ATOM     60  C   UNL A   1      46.024  29.061  30.538  1.00  0.00     0.074 A 
ATOM     61  C   UNL A   1      46.762  30.172  31.105  1.00  0.00     0.031 C 
ATOM     62  C   UNL A   1      46.582  27.878  30.186  1.00  0.00     0.037 A 
BRANCH  49  63
ATOM     63  C   UNL A   1      42.584  23.823  27.778  1.00  0.00     0.058 A 
ATOM     64  C   UNL A   1      42.380  22.722  28.625  1.00  0.00     0.135 A 
ATOM     65  C   UNL A   1      42.554  23.602  26.393  1.00  0.00     0.135 A 
ATOM     66  F   UNL A   1      42.418  22.879  29.957  1.00  0.00    -0.206 F 
ATOM     67  C   UNL A   1      42.187  21.442  28.117  1.00  0.00     0.059 A 
ATOM     68  C   UNL A   1      42.343  22.333  25.862  1.00  0.00     0.059 A 
ATOM     69  F   UNL A   1      42.747  24.622  25.541  1.00  0.00    -0.206 F 
ATOM     70  C   UNL A   1      42.180  21.256  26.733  1.00  0.00     0.060 A 
BRANCH  70  71
ATOM     71  S   UNL A   1      41.948  19.589  26.080  1.00  0.00     0.124 S 
ATOM     72  O   UNL A   1      40.523  19.599  25.765  1.00  0.00    -0.237 OA
ATOM     73  O   UNL A   1      42.849  19.569  24.931  1.00  0.00    -0.237 OA
ATOM     74  O   UNL A   1      42.340  18.733  27.194  1.00  0.00    -0.744 OA
ENDBRANCH  70  71
ENDBRANCH  49  63
BRANCH  50  75
ATOM     75  C   UNL A   1      43.654  32.978  31.612  1.00  0.00     0.058 A 
ATOM     76  C   UNL A   1      43.902  34.090  30.793  1.00  0.00     0.135 A 
ATOM     77  C   UNL A   1      43.546  33.189  32.993  1.00  0.00     0.135 A 
ATOM     78  F   UNL A   1      44.016  33.931  29.465  1.00  0.00    -0.206 F 
ATOM     79  C   UNL A   1      44.053  35.365  31.324  1.00  0.00     0.059 A 
ATOM     80  C   UNL A   1      43.677  34.458  33.547  1.00  0.00     0.059 A 
ATOM     81  F   UNL A   1      43.290  32.158  33.813  1.00  0.00    -0.206 F 
ATOM     82  C   UNL A   1      43.939  35.539  32.705  1.00  0.00     0.060 A 
BRANCH  82  83
ATOM     83  S   UNL A   1      44.080  37.205  33.388  1.00  0.00     0.124 S 
ATOM     84  O   UNL A   1      44.232  38.005  32.178  1.00  0.00    -0.237 OA
ATOM     85  O   UNL A   1      42.816  37.359  34.102  1.00  0.00    -0.237 OA
ATOM     86  O   UNL A   1      45.263  37.114  34.240  1.00  0.00    -0.744 OA
ENDBRANCH  82  83
ENDBRANCH  50  75
BRANCH  62  87
ATOM     87  C   UNL A   1      48.065  27.742  30.359  1.00  0.00     0.058 A 
ATOM     88  C   UNL A   1      48.626  27.303  31.568  1.00  0.00     0.135 A 
ATOM     89  C   UNL A   1      48.932  28.027  29.293  1.00  0.00     0.135 A 
ATOM     90  F   UNL A   1      47.836  27.024  32.617  1.00  0.00    -0.206 F 
ATOM     91  C   UNL A   1      50.002  27.172  31.721  1.00  0.00     0.059 A 
ATOM     92  C   UNL A   1      50.309  27.888  29.420  1.00  0.00     0.059 A 
ATOM     93  F   UNL A   1      48.440  28.444  28.115  1.00  0.00    -0.206 F 
ATOM     94  C   UNL A   1      50.836  27.472  30.643  1.00  0.00     0.060 A 
BRANCH  94  95
ATOM     95  S   UNL A   1      52.621  27.281  30.837  1.00  0.00     0.124 S 
ATOM     96  O   UNL A   1      52.709  26.699  32.171  1.00  0.00    -0.237 OA
ATOM     97  O   UNL A   1      52.969  26.392  29.733  1.00  0.00    -0.237 OA
ATOM     98  O   UNL A   1      53.120  28.649  30.711  1.00  0.00    -0.744 OA
ENDBRANCH  94  95
ENDBRANCH  62  87
ENDBRANCH  36  37
ENDBRANCH  28  31
ENDBRANCH  26  27
ENDBRANCH   1  26
TORSDOF 16
ENDMDL
