MODEL 1
REMARK VINA RESULT:     -11.9      0.000      0.000
REMARK SMILES O=C(NCCCCNC(=O)[C@H](CO)NC(=O)[C@H](CS)NC(=O)[C@H](Cc1ccccc1)NC(=O)c1ccc(F)cc1)c1ccc(-c2c3nc(c(-c4c(F)cc(S(=O)(=O)[O-])cc4F)c4ccc([nH]4)c(-c4c(F)cc(S(=O)(=O)[O-])cc4F)c4nc(c(-c5c(F)cc(S(=O)(=O)[O-])cc5F)c5ccc2[nH]5)C=C4)C=C3)cc1
REMARK SMILES IDX 7 1 6 2 5 3 4 4 3 5 1 6 2 7 41 9 42 10 106 11 43 12 105 13
REMARK SMILES IDX 44 14 45 15 46 16 99 17 47 18 104 19 98 20 100 21 48 22
REMARK SMILES IDX 103 23 97 24 96 25 49 27 83 28 62 29 82 30 63 31 66 32 81 33
REMARK SMILES IDX 101 34 64 35 65 36 80 38 102 39 67 40 50 41 51 42 60 43
REMARK SMILES IDX 52 44 53 45 59 46 61 47 54 48 55 49 56 50 57 51 58 52 84 53
REMARK SMILES IDX 85 54 94 55 86 56 87 57 93 58 95 59 88 60 89 61 90 62 91 63
REMARK SMILES IDX 92 64 68 65 69 66 78 67 70 68 71 69 77 70 79 71 72 72 73 73
REMARK SMILES IDX 74 74 75 75 76 76 8 77 9 78 10 80 11 81 14 82 15 83 16 85
REMARK SMILES IDX 17 86 20 87 21 88 22 90 23 91 31 92 32 93 33 95 34 96 35 97
REMARK SMILES IDX 40 98 36 99 39 100 37 101 38 102 24 103 25 104 26 105 30 106
REMARK SMILES IDX 27 107 29 108 28 109 18 110 19 111 12 113 13 114
REMARK H PARENT 3 8 100 26 66 37 8 79 14 84 20 89 31 94 19 112 13 115
REMARK Flexibility Score: inf
ROOT
ATOM      1  C   UNL A   1      36.274  21.542  25.554  1.00  0.00     0.116 C 
ENDROOT
BRANCH   1   2
ATOM      2  C   UNL A   1      37.370  22.542  25.196  1.00  0.00     0.023 C 
BRANCH   2   3
ATOM      3  C   UNL A   1      37.359  23.820  26.039  1.00  0.00     0.023 C 
BRANCH   3   4
ATOM      4  C   UNL A   1      38.605  24.046  26.888  1.00  0.00     0.116 C 
BRANCH   4   5
ATOM      5  N   UNL A   1      39.831  24.149  26.111  1.00  0.00    -0.352 N 
ATOM      6  O   UNL A   1      41.842  25.014  25.550  1.00  0.00    -0.269 OA
ATOM      7  C   UNL A   1      40.903  24.979  26.337  1.00  0.00     0.251 C 
ATOM      8  H   UNL A   1      39.900  23.555  25.329  1.00  0.00     0.163 HD
BRANCH   7   9
ATOM      9  C   UNL A   1      40.876  25.853  27.524  1.00  0.00     0.039 A 
ATOM     10  C   UNL A   1      39.875  25.700  28.485  1.00  0.00     0.014 A 
ATOM     11  C   UNL A   1      41.824  26.874  27.633  1.00  0.00     0.014 A 
ATOM     12  C   UNL A   1      39.741  26.650  29.490  1.00  0.00     0.010 A 
ATOM     13  C   UNL A   1      41.728  27.786  28.685  1.00  0.00     0.010 A 
ATOM     14  C   UNL A   1      40.669  27.699  29.601  1.00  0.00    -0.014 A 
BRANCH  14  15
ATOM     15  C   UNL A   1      40.541  28.668  30.714  1.00  0.00     0.031 A 
ATOM     16  C   UNL A   1      41.438  28.588  31.916  1.00  0.00     0.074 A 
ATOM     17  C   UNL A   1      39.610  29.635  30.617  1.00  0.00     0.049 A 
ATOM     18  N   UNL A   1      41.449  29.343  32.984  1.00  0.00    -0.248 NA
ATOM     19  C   UNL A   1      42.451  27.520  31.926  1.00  0.00     0.031 C 
ATOM     20  C   UNL A   1      38.682  29.799  29.494  1.00  0.00     0.029 A 
ATOM     21  N   UNL A   1      39.296  30.666  31.462  1.00  0.00    -0.354 N 
ATOM     22  C   UNL A   1      42.448  28.832  33.803  1.00  0.00     0.074 A 
ATOM     23  C   UNL A   1      43.013  27.691  33.115  1.00  0.00     0.031 C 
ATOM     24  C   UNL A   1      37.927  30.887  29.703  1.00  0.00     0.029 A 
ATOM     25  C   UNL A   1      38.276  31.461  30.997  1.00  0.00     0.049 A 
ATOM     26  H   UNL A   1      39.754  30.822  32.318  1.00  0.00     0.167 HD
ATOM     27  C   UNL A   1      42.855  29.278  35.017  1.00  0.00     0.037 A 
ATOM     28  C   UNL A   1      37.672  32.524  31.560  1.00  0.00     0.037 A 
ATOM     29  C   UNL A   1      42.293  30.427  35.683  1.00  0.00     0.049 A 
ATOM     30  C   UNL A   1      38.137  32.994  32.906  1.00  0.00     0.074 A 
ATOM     31  C   UNL A   1      42.653  30.979  36.900  1.00  0.00     0.029 A 
ATOM     32  N   UNL A   1      41.251  31.199  35.188  1.00  0.00    -0.354 N 
ATOM     33  N   UNL A   1      39.092  32.507  33.661  1.00  0.00    -0.248 NA
ATOM     34  C   UNL A   1      37.440  34.152  33.481  1.00  0.00     0.031 C 
ATOM     35  C   UNL A   1      41.807  32.064  37.157  1.00  0.00     0.029 A 
ATOM     36  C   UNL A   1      40.946  32.212  36.082  1.00  0.00     0.049 A 
ATOM     37  H   UNL A   1      40.797  31.049  34.328  1.00  0.00     0.167 HD
ATOM     38  C   UNL A   1      39.120  33.305  34.797  1.00  0.00     0.074 A 
ATOM     39  C   UNL A   1      38.095  34.315  34.623  1.00  0.00     0.031 C 
ATOM     40  C   UNL A   1      39.918  33.206  35.889  1.00  0.00     0.037 A 
BRANCH  27  41
ATOM     41  C   UNL A   1      43.945  28.512  35.713  1.00  0.00     0.058 A 
ATOM     42  C   UNL A   1      45.302  28.804  35.506  1.00  0.00     0.135 A 
ATOM     43  C   UNL A   1      43.626  27.492  36.624  1.00  0.00     0.135 A 
ATOM     44  F   UNL A   1      45.662  29.760  34.635  1.00  0.00    -0.206 F 
ATOM     45  C   UNL A   1      46.306  28.096  36.159  1.00  0.00     0.059 A 
ATOM     46  C   UNL A   1      44.614  26.784  37.304  1.00  0.00     0.059 A 
ATOM     47  F   UNL A   1      42.344  27.171  36.859  1.00  0.00    -0.206 F 
ATOM     48  C   UNL A   1      45.952  27.083  37.053  1.00  0.00     0.060 A 
BRANCH  48  49
ATOM     49  S   UNL A   1      47.265  26.163  37.886  1.00  0.00     0.124 S 
ATOM     50  O   UNL A   1      48.049  27.245  38.472  1.00  0.00    -0.237 OA
ATOM     51  O   UNL A   1      46.519  25.339  38.832  1.00  0.00    -0.237 OA
ATOM     52  O   UNL A   1      47.911  25.435  36.798  1.00  0.00    -0.744 OA
ENDBRANCH  48  49
ENDBRANCH  27  41
BRANCH  28  53
ATOM     53  C   UNL A   1      36.566  33.200  30.838  1.00  0.00     0.058 A 
ATOM     54  C   UNL A   1      35.230  32.980  31.198  1.00  0.00     0.135 A 
ATOM     55  C   UNL A   1      36.828  34.128  29.819  1.00  0.00     0.135 A 
ATOM     56  F   UNL A   1      34.931  32.101  32.166  1.00  0.00    -0.206 F 
ATOM     57  C   UNL A   1      34.189  33.657  30.572  1.00  0.00     0.059 A 
ATOM     58  C   UNL A   1      35.808  34.835  29.195  1.00  0.00     0.059 A 
ATOM     59  F   UNL A   1      38.094  34.387  29.455  1.00  0.00    -0.206 F 
ATOM     60  C   UNL A   1      34.489  34.588  29.575  1.00  0.00     0.060 A 
BRANCH  60  61
ATOM     61  S   UNL A   1      33.139  35.522  28.823  1.00  0.00     0.124 S 
ATOM     62  O   UNL A   1      33.869  36.523  28.054  1.00  0.00    -0.237 OA
ATOM     63  O   UNL A   1      32.448  34.497  28.047  1.00  0.00    -0.237 OA
ATOM     64  O   UNL A   1      32.399  36.026  29.977  1.00  0.00    -0.744 OA
ENDBRANCH  60  61
ENDBRANCH  28  53
BRANCH  40  65
ATOM     65  C   UNL A   1      39.724  34.231  36.968  1.00  0.00     0.058 A 
ATOM     66  C   UNL A   1      38.926  33.970  38.091  1.00  0.00     0.135 A 
ATOM     67  C   UNL A   1      40.373  35.474  36.893  1.00  0.00     0.135 A 
ATOM     68  F   UNL A   1      38.278  32.799  38.202  1.00  0.00    -0.206 F 
ATOM     69  C   UNL A   1      38.758  34.916  39.096  1.00  0.00     0.059 A 
ATOM     70  C   UNL A   1      40.237  36.427  37.897  1.00  0.00     0.059 A 
ATOM     71  F   UNL A   1      41.152  35.767  35.841  1.00  0.00    -0.206 F 
ATOM     72  C   UNL A   1      39.417  36.143  38.989  1.00  0.00     0.060 A 
BRANCH  72  73
ATOM     73  S   UNL A   1      39.217  37.354  40.312  1.00  0.00     0.124 S 
ATOM     74  O   UNL A   1      38.717  36.520  41.399  1.00  0.00    -0.237 OA
ATOM     75  O   UNL A   1      40.574  37.866  40.479  1.00  0.00    -0.237 OA
ATOM     76  O   UNL A   1      38.260  38.306  39.757  1.00  0.00    -0.744 OA
ENDBRANCH  72  73
ENDBRANCH  40  65
ENDBRANCH  14  15
ENDBRANCH   7   9
ENDBRANCH   4   5
ENDBRANCH   3   4
ENDBRANCH   2   3
ENDBRANCH   1   2
BRANCH   1  77
ATOM     77  N   UNL A   1      35.516  21.986  26.705  1.00  0.00    -0.354 N 
ATOM     78  C   UNL A   1      34.317  22.604  26.832  1.00  0.00     0.244 C 
ATOM     79  H   UNL A   1      35.959  21.802  27.565  1.00  0.00     0.163 HD
ATOM     80  O   UNL A   1      33.895  22.746  27.988  1.00  0.00    -0.273 OA
BRANCH  78  81
ATOM     81  C   UNL A   1      33.424  23.055  25.651  1.00  0.00     0.197 C 
BRANCH  81  82
ATOM     82  N   UNL A   1      34.051  23.393  24.382  1.00  0.00    -0.340 N 
ATOM     83  C   UNL A   1      33.970  24.479  23.573  1.00  0.00     0.244 C 
ATOM     84  H   UNL A   1      34.654  22.694  24.041  1.00  0.00     0.164 HD
ATOM     85  O   UNL A   1      34.721  24.447  22.590  1.00  0.00    -0.273 OA
BRANCH  83  86
ATOM     86  C   UNL A   1      32.921  25.608  23.717  1.00  0.00     0.181 C 
BRANCH  86  87
ATOM     87  N   UNL A   1      33.405  26.986  23.572  1.00  0.00    -0.342 N 
ATOM     88  C   UNL A   1      32.799  28.199  23.726  1.00  0.00     0.243 C 
ATOM     89  H   UNL A   1      34.353  27.046  23.312  1.00  0.00     0.164 HD
ATOM     90  O   UNL A   1      33.396  29.146  23.201  1.00  0.00    -0.273 OA
BRANCH  88  91
ATOM     91  C   UNL A   1      31.575  28.480  24.649  1.00  0.00     0.176 C 
BRANCH  91  92
ATOM     92  N   UNL A   1      30.375  27.726  24.281  1.00  0.00    -0.340 N 
ATOM     93  C   UNL A   1      29.302  28.063  23.505  1.00  0.00     0.251 C 
ATOM     94  H   UNL A   1      30.333  26.818  24.659  1.00  0.00     0.164 HD
ATOM     95  O   UNL A   1      28.486  27.191  23.216  1.00  0.00    -0.269 OA
BRANCH  93  96
ATOM     96  C   UNL A   1      29.040  29.463  23.105  1.00  0.00     0.040 A 
ATOM     97  C   UNL A   1      29.372  30.452  24.043  1.00  0.00     0.017 A 
ATOM     98  C   UNL A   1      28.486  29.826  21.873  1.00  0.00     0.017 A 
ATOM     99  C   UNL A   1      29.210  31.800  23.728  1.00  0.00     0.040 A 
ATOM    100  C   UNL A   1      28.337  31.180  21.556  1.00  0.00     0.040 A 
ATOM    101  C   UNL A   1      28.708  32.152  22.481  1.00  0.00     0.123 A 
ATOM    102  F   UNL A   1      28.576  33.447  22.168  1.00  0.00    -0.207 F 
ENDBRANCH  93  96
ENDBRANCH  91  92
BRANCH  91 103
ATOM    103  C   UNL A   1      31.907  28.224  26.132  1.00  0.00     0.070 C 
BRANCH 103 104
ATOM    104  C   UNL A   1      32.938  29.163  26.713  1.00  0.00    -0.045 A 
ATOM    105  C   UNL A   1      32.630  30.506  26.960  1.00  0.00     0.004 A 
ATOM    106  C   UNL A   1      34.231  28.711  26.998  1.00  0.00     0.004 A 
ATOM    107  C   UNL A   1      33.595  31.367  27.492  1.00  0.00     0.000 A 
ATOM    108  C   UNL A   1      35.195  29.568  27.529  1.00  0.00     0.000 A 
ATOM    109  C   UNL A   1      34.875  30.897  27.778  1.00  0.00     0.000 A 
ENDBRANCH 103 104
ENDBRANCH  91 103
ENDBRANCH  88  91
ENDBRANCH  86  87
BRANCH  86 110
ATOM    110  C   UNL A   1      31.790  25.300  22.699  1.00  0.00     0.101 C 
BRANCH 110 111
ATOM    111  S   UNL A   1      32.157  25.776  20.978  1.00  0.00    -0.177 SA
ATOM    112  H   UNL A   1      31.324  25.108  20.135  1.00  0.00     0.102 HD
ENDBRANCH 110 111
ENDBRANCH  86 110
ENDBRANCH  83  86
ENDBRANCH  81  82
BRANCH  81 113
ATOM    113  C   UNL A   1      32.376  21.938  25.452  1.00  0.00     0.191 C 
BRANCH 113 114
ATOM    114  O   UNL A   1      32.669  20.787  26.241  1.00  0.00    -0.394 OA
ATOM    115  H   UNL A   1      33.178  21.052  27.023  1.00  0.00     0.210 HD
ENDBRANCH 113 114
ENDBRANCH  81 113
ENDBRANCH  78  81
ENDBRANCH   1  77
TORSDOF 26
ENDMDL
MODEL 2
REMARK VINA RESULT:     -11.6      1.367      2.810
REMARK SMILES O=C(NCCCCNC(=O)[C@H](CO)NC(=O)[C@H](CS)NC(=O)[C@H](Cc1ccccc1)NC(=O)c1ccc(F)cc1)c1ccc(-c2c3nc(c(-c4c(F)cc(S(=O)(=O)[O-])cc4F)c4ccc([nH]4)c(-c4c(F)cc(S(=O)(=O)[O-])cc4F)c4nc(c(-c5c(F)cc(S(=O)(=O)[O-])cc5F)c5ccc2[nH]5)C=C4)C=C3)cc1
REMARK SMILES IDX 7 1 6 2 5 3 4 4 3 5 1 6 2 7 41 9 42 10 106 11 43 12 105 13
REMARK SMILES IDX 44 14 45 15 46 16 99 17 47 18 104 19 98 20 100 21 48 22
REMARK SMILES IDX 103 23 97 24 96 25 49 27 83 28 62 29 82 30 63 31 66 32 81 33
REMARK SMILES IDX 101 34 64 35 65 36 80 38 102 39 67 40 50 41 51 42 60 43
REMARK SMILES IDX 52 44 53 45 59 46 61 47 54 48 55 49 56 50 57 51 58 52 84 53
REMARK SMILES IDX 85 54 94 55 86 56 87 57 93 58 95 59 88 60 89 61 90 62 91 63
REMARK SMILES IDX 92 64 68 65 69 66 78 67 70 68 71 69 77 70 79 71 72 72 73 73
REMARK SMILES IDX 74 74 75 75 76 76 8 77 9 78 10 80 11 81 14 82 15 83 16 85
REMARK SMILES IDX 17 86 20 87 21 88 22 90 23 91 31 92 32 93 33 95 34 96 35 97
REMARK SMILES IDX 40 98 36 99 39 100 37 101 38 102 24 103 25 104 26 105 30 106
REMARK SMILES IDX 27 107 29 108 28 109 18 110 19 111 12 113 13 114
REMARK H PARENT 3 8 100 26 66 37 8 79 14 84 20 89 31 94 19 112 13 115
REMARK Flexibility Score: inf
ROOT
ATOM      1  C   UNL A   1      36.933  21.988  25.355  1.00  0.00     0.116 C 
ENDROOT
BRANCH   1   2
ATOM      2  C   UNL A   1      38.348  22.325  25.817  1.00  0.00     0.023 C 
BRANCH   2   3
ATOM      3  C   UNL A   1      38.528  23.766  26.299  1.00  0.00     0.023 C 
BRANCH   3   4
ATOM      4  C   UNL A   1      39.899  24.087  26.885  1.00  0.00     0.116 C 
BRANCH   4   5
ATOM      5  N   UNL A   1      40.895  24.436  25.882  1.00  0.00    -0.352 N 
ATOM      6  O   UNL A   1      42.472  25.735  24.917  1.00  0.00    -0.269 OA
ATOM      7  C   UNL A   1      41.732  25.525  25.872  1.00  0.00     0.251 C 
ATOM      8  H   UNL A   1      40.977  23.818  25.120  1.00  0.00     0.163 HD
BRANCH   7   9
ATOM      9  C   UNL A   1      41.689  26.456  27.015  1.00  0.00     0.039 A 
ATOM     10  C   UNL A   1      41.854  25.976  28.316  1.00  0.00     0.014 A 
ATOM     11  C   UNL A   1      41.412  27.804  26.779  1.00  0.00     0.014 A 
ATOM     12  C   UNL A   1      41.613  26.821  29.392  1.00  0.00     0.010 A 
ATOM     13  C   UNL A   1      41.241  28.667  27.862  1.00  0.00     0.010 A 
ATOM     14  C   UNL A   1      41.309  28.175  29.174  1.00  0.00    -0.014 A 
BRANCH  14  15
ATOM     15  C   UNL A   1      41.113  29.072  30.337  1.00  0.00     0.031 A 
ATOM     16  C   UNL A   1      42.049  29.032  31.511  1.00  0.00     0.074 A 
ATOM     17  C   UNL A   1      40.084  29.939  30.310  1.00  0.00     0.049 A 
ATOM     18  N   UNL A   1      42.012  29.734  32.615  1.00  0.00    -0.248 NA
ATOM     19  C   UNL A   1      43.168  28.078  31.443  1.00  0.00     0.031 C 
ATOM     20  C   UNL A   1      39.111  30.055  29.220  1.00  0.00     0.029 A 
ATOM     21  N   UNL A   1      39.688  30.890  31.213  1.00  0.00    -0.354 N 
ATOM     22  C   UNL A   1      43.083  29.293  33.383  1.00  0.00     0.074 A 
ATOM     23  C   UNL A   1      43.744  28.252  32.626  1.00  0.00     0.031 C 
ATOM     24  C   UNL A   1      38.252  31.046  29.501  1.00  0.00     0.029 A 
ATOM     25  C   UNL A   1      38.577  31.593  30.813  1.00  0.00     0.049 A 
ATOM     26  H   UNL A   1      40.153  31.054  32.064  1.00  0.00     0.167 HD
ATOM     27  C   UNL A   1      43.476  29.724  34.607  1.00  0.00     0.037 A 
ATOM     28  C   UNL A   1      37.883  32.559  31.442  1.00  0.00     0.037 A 
ATOM     29  C   UNL A   1      42.817  30.774  35.342  1.00  0.00     0.049 A 
ATOM     30  C   UNL A   1      38.335  33.013  32.798  1.00  0.00     0.074 A 
ATOM     31  C   UNL A   1      43.154  31.303  36.576  1.00  0.00     0.029 A 
ATOM     32  N   UNL A   1      41.686  31.453  34.912  1.00  0.00    -0.354 N 
ATOM     33  N   UNL A   1      39.358  32.595  33.504  1.00  0.00    -0.248 NA
ATOM     34  C   UNL A   1      37.538  34.062  33.446  1.00  0.00     0.031 C 
ATOM     35  C   UNL A   1      42.206  32.280  36.907  1.00  0.00     0.029 A 
ATOM     36  C   UNL A   1      41.303  32.386  35.862  1.00  0.00     0.049 A 
ATOM     37  H   UNL A   1      41.225  31.296  34.056  1.00  0.00     0.167 HD
ATOM     38  C   UNL A   1      39.335  33.337  34.678  1.00  0.00     0.074 A 
ATOM     39  C   UNL A   1      38.206  34.240  34.578  1.00  0.00     0.031 C 
ATOM     40  C   UNL A   1      40.172  33.273  35.743  1.00  0.00     0.037 A 
BRANCH  27  41
ATOM     41  C   UNL A   1      44.661  29.046  35.237  1.00  0.00     0.058 A 
ATOM     42  C   UNL A   1      45.973  29.484  35.006  1.00  0.00     0.135 A 
ATOM     43  C   UNL A   1      44.477  27.961  36.111  1.00  0.00     0.135 A 
ATOM     44  F   UNL A   1      46.206  30.507  34.168  1.00  0.00    -0.206 F 
ATOM     45  C   UNL A   1      47.065  28.857  35.599  1.00  0.00     0.059 A 
ATOM     46  C   UNL A   1      45.553  27.331  36.730  1.00  0.00     0.059 A 
ATOM     47  F   UNL A   1      43.243  27.500  36.366  1.00  0.00    -0.206 F 
ATOM     48  C   UNL A   1      46.845  27.776  36.456  1.00  0.00     0.060 A 
BRANCH  48  49
ATOM     49  S   UNL A   1      48.271  26.964  37.210  1.00  0.00     0.124 S 
ATOM     50  O   UNL A   1      49.272  28.024  37.154  1.00  0.00    -0.237 OA
ATOM     51  O   UNL A   1      47.775  26.632  38.542  1.00  0.00    -0.237 OA
ATOM     52  O   UNL A   1      48.513  25.822  36.333  1.00  0.00    -0.744 OA
ENDBRANCH  48  49
ENDBRANCH  27  41
BRANCH  28  53
ATOM     53  C   UNL A   1      36.691  33.146  30.782  1.00  0.00     0.058 A 
ATOM     54  C   UNL A   1      35.396  32.801  31.190  1.00  0.00     0.135 A 
ATOM     55  C   UNL A   1      36.826  34.115  29.775  1.00  0.00     0.135 A 
ATOM     56  F   UNL A   1      35.219  31.879  32.149  1.00  0.00    -0.206 F 
ATOM     57  C   UNL A   1      34.273  33.393  30.623  1.00  0.00     0.059 A 
ATOM     58  C   UNL A   1      35.721  34.739  29.209  1.00  0.00     0.059 A 
ATOM     59  F   UNL A   1      38.047  34.494  29.366  1.00  0.00    -0.206 F 
ATOM     60  C   UNL A   1      34.447  34.367  29.637  1.00  0.00     0.060 A 
BRANCH  60  61
ATOM     61  S   UNL A   1      32.988  35.191  28.963  1.00  0.00     0.124 S 
ATOM     62  O   UNL A   1      32.550  34.232  27.956  1.00  0.00    -0.237 OA
ATOM     63  O   UNL A   1      32.134  35.318  30.140  1.00  0.00    -0.237 OA
ATOM     64  O   UNL A   1      33.523  36.449  28.450  1.00  0.00    -0.744 OA
ENDBRANCH  60  61
ENDBRANCH  28  53
BRANCH  40  65
ATOM     65  C   UNL A   1      39.903  34.221  36.876  1.00  0.00     0.058 A 
ATOM     66  C   UNL A   1      39.177  33.822  38.007  1.00  0.00     0.135 A 
ATOM     67  C   UNL A   1      40.409  35.530  36.843  1.00  0.00     0.135 A 
ATOM     68  F   UNL A   1      38.665  32.583  38.080  1.00  0.00    -0.206 F 
ATOM     69  C   UNL A   1      38.941  34.697  39.062  1.00  0.00     0.059 A 
ATOM     70  C   UNL A   1      40.204  36.414  37.896  1.00  0.00     0.059 A 
ATOM     71  F   UNL A   1      41.116  35.954  35.785  1.00  0.00    -0.206 F 
ATOM     72  C   UNL A   1      39.458  35.992  38.996  1.00  0.00     0.060 A 
BRANCH  72  73
ATOM     73  S   UNL A   1      39.171  37.113  40.382  1.00  0.00     0.124 S 
ATOM     74  O   UNL A   1      38.252  38.079  39.791  1.00  0.00    -0.237 OA
ATOM     75  O   UNL A   1      38.598  36.227  41.391  1.00  0.00    -0.237 OA
ATOM     76  O   UNL A   1      40.506  37.619  40.688  1.00  0.00    -0.744 OA
ENDBRANCH  72  73
ENDBRANCH  40  65
ENDBRANCH  14  15
ENDBRANCH   7   9
ENDBRANCH   4   5
ENDBRANCH   3   4
ENDBRANCH   2   3
ENDBRANCH   1   2
BRANCH   1  77
ATOM     77  N   UNL A   1      36.030  21.863  26.479  1.00  0.00    -0.354 N 
ATOM     78  C   UNL A   1      34.681  21.935  26.585  1.00  0.00     0.244 C 
ATOM     79  H   UNL A   1      36.485  21.692  27.335  1.00  0.00     0.163 HD
ATOM     80  O   UNL A   1      34.205  21.666  27.697  1.00  0.00    -0.273 OA
BRANCH  78  81
ATOM     81  C   UNL A   1      33.716  22.239  25.415  1.00  0.00     0.197 C 
BRANCH  81  82
ATOM     82  N   UNL A   1      34.258  22.781  24.176  1.00  0.00    -0.340 N 
ATOM     83  C   UNL A   1      34.164  23.997  23.583  1.00  0.00     0.244 C 
ATOM     84  H   UNL A   1      34.799  22.136  23.668  1.00  0.00     0.164 HD
ATOM     85  O   UNL A   1      34.835  24.120  22.550  1.00  0.00    -0.273 OA
BRANCH  83  86
ATOM     86  C   UNL A   1      33.183  25.115  24.013  1.00  0.00     0.181 C 
BRANCH  86  87
ATOM     87  N   UNL A   1      33.735  26.468  24.145  1.00  0.00    -0.342 N 
ATOM     88  C   UNL A   1      33.157  27.704  24.152  1.00  0.00     0.243 C 
ATOM     89  H   UNL A   1      34.714  26.487  24.246  1.00  0.00     0.164 HD
ATOM     90  O   UNL A   1      33.937  28.641  23.940  1.00  0.00    -0.273 OA
BRANCH  88  91
ATOM     91  C   UNL A   1      31.694  28.008  24.592  1.00  0.00     0.176 C 
BRANCH  91  92
ATOM     92  N   UNL A   1      31.389  27.580  25.959  1.00  0.00    -0.340 N 
ATOM     93  C   UNL A   1      31.754  28.099  27.169  1.00  0.00     0.251 C 
ATOM     94  H   UNL A   1      30.821  26.778  26.016  1.00  0.00     0.164 HD
ATOM     95  O   UNL A   1      31.236  27.646  28.186  1.00  0.00    -0.269 OA
BRANCH  93  96
ATOM     96  C   UNL A   1      32.833  29.103  27.291  1.00  0.00     0.040 A 
ATOM     97  C   UNL A   1      34.139  28.603  27.408  1.00  0.00     0.017 A 
ATOM     98  C   UNL A   1      32.611  30.483  27.302  1.00  0.00     0.017 A 
ATOM     99  C   UNL A   1      35.222  29.478  27.472  1.00  0.00     0.040 A 
ATOM    100  C   UNL A   1      33.700  31.358  27.354  1.00  0.00     0.040 A 
ATOM    101  C   UNL A   1      34.993  30.848  27.429  1.00  0.00     0.123 A 
ATOM    102  F   UNL A   1      36.034  31.689  27.465  1.00  0.00    -0.207 F 
ENDBRANCH  93  96
ENDBRANCH  91  92
BRANCH  91 103
ATOM    103  C   UNL A   1      31.347  29.502  24.433  1.00  0.00     0.070 C 
BRANCH 103 104
ATOM    104  C   UNL A   1      29.987  29.767  23.833  1.00  0.00    -0.045 A 
ATOM    105  C   UNL A   1      29.456  31.063  23.797  1.00  0.00     0.004 A 
ATOM    106  C   UNL A   1      29.219  28.717  23.318  1.00  0.00     0.004 A 
ATOM    107  C   UNL A   1      28.193  31.294  23.245  1.00  0.00     0.000 A 
ATOM    108  C   UNL A   1      27.959  28.945  22.766  1.00  0.00     0.000 A 
ATOM    109  C   UNL A   1      27.446  30.237  22.728  1.00  0.00     0.000 A 
ENDBRANCH 103 104
ENDBRANCH  91 103
ENDBRANCH  88  91
ENDBRANCH  86  87
BRANCH  86 110
ATOM    110  C   UNL A   1      32.002  25.085  23.006  1.00  0.00     0.101 C 
BRANCH 110 111
ATOM    111  S   UNL A   1      30.709  23.854  23.377  1.00  0.00    -0.177 SA
ATOM    112  H   UNL A   1      31.016  22.676  22.770  1.00  0.00     0.102 HD
ENDBRANCH 110 111
ENDBRANCH  86 110
ENDBRANCH  83  86
ENDBRANCH  81  82
BRANCH  81 113
ATOM    113  C   UNL A   1      32.947  20.929  25.137  1.00  0.00     0.191 C 
BRANCH 113 114
ATOM    114  O   UNL A   1      31.601  20.994  25.600  1.00  0.00    -0.394 OA
ATOM    115  H   UNL A   1      31.514  21.718  26.241  1.00  0.00     0.210 HD
ENDBRANCH 113 114
ENDBRANCH  81 113
ENDBRANCH  78  81
ENDBRANCH   1  77
TORSDOF 26
ENDMDL
MODEL 3
REMARK VINA RESULT:     -11.4      0.607      7.781
REMARK SMILES O=C(NCCCCNC(=O)[C@H](CO)NC(=O)[C@H](CS)NC(=O)[C@H](Cc1ccccc1)NC(=O)c1ccc(F)cc1)c1ccc(-c2c3nc(c(-c4c(F)cc(S(=O)(=O)[O-])cc4F)c4ccc([nH]4)c(-c4c(F)cc(S(=O)(=O)[O-])cc4F)c4nc(c(-c5c(F)cc(S(=O)(=O)[O-])cc5F)c5ccc2[nH]5)C=C4)C=C3)cc1
REMARK SMILES IDX 7 1 6 2 5 3 4 4 3 5 1 6 2 7 41 9 42 10 106 11 43 12 105 13
REMARK SMILES IDX 44 14 45 15 46 16 99 17 47 18 104 19 98 20 100 21 48 22
REMARK SMILES IDX 103 23 97 24 96 25 49 27 83 28 62 29 82 30 63 31 66 32 81 33
REMARK SMILES IDX 101 34 64 35 65 36 80 38 102 39 67 40 50 41 51 42 60 43
REMARK SMILES IDX 52 44 53 45 59 46 61 47 54 48 55 49 56 50 57 51 58 52 84 53
REMARK SMILES IDX 85 54 94 55 86 56 87 57 93 58 95 59 88 60 89 61 90 62 91 63
REMARK SMILES IDX 92 64 68 65 69 66 78 67 70 68 71 69 77 70 79 71 72 72 73 73
REMARK SMILES IDX 74 74 75 75 76 76 8 77 9 78 10 80 11 81 14 82 15 83 16 85
REMARK SMILES IDX 17 86 20 87 21 88 22 90 23 91 31 92 32 93 33 95 34 96 35 97
REMARK SMILES IDX 40 98 36 99 39 100 37 101 38 102 24 103 25 104 26 105 30 106
REMARK SMILES IDX 27 107 29 108 28 109 18 110 19 111 12 113 13 114
REMARK H PARENT 3 8 100 26 66 37 8 79 14 84 20 89 31 94 19 112 13 115
REMARK Flexibility Score: inf
ROOT
ATOM      1  C   UNL A   1      36.358  21.541  25.562  1.00  0.00     0.116 C 
ENDROOT
BRANCH   1   2
ATOM      2  C   UNL A   1      37.312  22.658  25.148  1.00  0.00     0.023 C 
BRANCH   2   3
ATOM      3  C   UNL A   1      37.373  23.832  26.128  1.00  0.00     0.023 C 
BRANCH   3   4
ATOM      4  C   UNL A   1      38.690  23.979  26.882  1.00  0.00     0.116 C 
BRANCH   4   5
ATOM      5  N   UNL A   1      39.827  24.271  26.022  1.00  0.00    -0.352 N 
ATOM      6  O   UNL A   1      41.565  25.498  25.259  1.00  0.00    -0.269 OA
ATOM      7  C   UNL A   1      40.693  25.335  26.105  1.00  0.00     0.251 C 
ATOM      8  H   UNL A   1      39.994  23.632  25.292  1.00  0.00     0.163 HD
BRANCH   7   9
ATOM      9  C   UNL A   1      40.522  26.295  27.211  1.00  0.00     0.039 A 
ATOM     10  C   UNL A   1      41.238  27.494  27.216  1.00  0.00     0.014 A 
ATOM     11  C   UNL A   1      39.688  25.954  28.278  1.00  0.00     0.014 A 
ATOM     12  C   UNL A   1      41.223  28.294  28.351  1.00  0.00     0.010 A 
ATOM     13  C   UNL A   1      39.619  26.797  29.388  1.00  0.00     0.010 A 
ATOM     14  C   UNL A   1      40.410  27.956  29.445  1.00  0.00    -0.014 A 
BRANCH  14  15
ATOM     15  C   UNL A   1      40.364  28.854  30.622  1.00  0.00     0.031 A 
ATOM     16  C   UNL A   1      39.342  29.951  30.719  1.00  0.00     0.074 A 
ATOM     17  C   UNL A   1      41.251  28.655  31.614  1.00  0.00     0.049 A 
ATOM     18  N   UNL A   1      39.173  30.835  31.668  1.00  0.00    -0.248 NA
ATOM     19  C   UNL A   1      38.388  30.077  29.605  1.00  0.00     0.031 C 
ATOM     20  C   UNL A   1      42.290  27.622  31.618  1.00  0.00     0.029 A 
ATOM     21  N   UNL A   1      41.417  29.298  32.812  1.00  0.00    -0.354 N 
ATOM     22  C   UNL A   1      38.115  31.637  31.259  1.00  0.00     0.074 A 
ATOM     23  C   UNL A   1      37.688  31.144  29.967  1.00  0.00     0.031 C 
ATOM     24  C   UNL A   1      42.963  27.678  32.776  1.00  0.00     0.029 A 
ATOM     25  C   UNL A   1      42.443  28.786  33.569  1.00  0.00     0.049 A 
ATOM     26  H   UNL A   1      40.858  30.054  33.102  1.00  0.00     0.167 HD
ATOM     27  C   UNL A   1      37.553  32.686  31.908  1.00  0.00     0.037 A 
ATOM     28  C   UNL A   1      42.926  29.177  34.763  1.00  0.00     0.037 A 
ATOM     29  C   UNL A   1      37.979  33.156  33.203  1.00  0.00     0.049 A 
ATOM     30  C   UNL A   1      42.290  30.345  35.457  1.00  0.00     0.074 A 
ATOM     31  C   UNL A   1      37.457  34.192  33.957  1.00  0.00     0.029 A 
ATOM     32  N   UNL A   1      39.030  32.621  33.933  1.00  0.00    -0.354 N 
ATOM     33  N   UNL A   1      41.281  31.083  35.062  1.00  0.00    -0.248 NA
ATOM     34  C   UNL A   1      42.860  30.737  36.751  1.00  0.00     0.031 C 
ATOM     35  C   UNL A   1      38.214  34.305  35.129  1.00  0.00     0.029 A 
ATOM     36  C   UNL A   1      39.183  33.315  35.122  1.00  0.00     0.049 A 
ATOM     37  H   UNL A   1      39.586  31.860  33.648  1.00  0.00     0.167 HD
ATOM     38  C   UNL A   1      41.086  32.024  36.065  1.00  0.00     0.074 A 
ATOM     39  C   UNL A   1      42.073  31.750  37.091  1.00  0.00     0.031 C 
ATOM     40  C   UNL A   1      40.176  33.026  36.128  1.00  0.00     0.037 A 
BRANCH  27  41
ATOM     41  C   UNL A   1      36.430  33.412  31.219  1.00  0.00     0.058 A 
ATOM     42  C   UNL A   1      35.106  33.329  31.677  1.00  0.00     0.135 A 
ATOM     43  C   UNL A   1      36.688  34.226  30.105  1.00  0.00     0.135 A 
ATOM     44  F   UNL A   1      34.802  32.553  32.729  1.00  0.00    -0.206 F 
ATOM     45  C   UNL A   1      34.072  34.009  31.039  1.00  0.00     0.059 A 
ATOM     46  C   UNL A   1      35.672  34.931  29.463  1.00  0.00     0.059 A 
ATOM     47  F   UNL A   1      37.936  34.340  29.625  1.00  0.00    -0.206 F 
ATOM     48  C   UNL A   1      34.365  34.804  29.929  1.00  0.00     0.060 A 
BRANCH  48  49
ATOM     49  S   UNL A   1      33.013  35.672  29.104  1.00  0.00     0.124 S 
ATOM     50  O   UNL A   1      33.741  36.672  28.330  1.00  0.00    -0.237 OA
ATOM     51  O   UNL A   1      32.384  34.607  28.328  1.00  0.00    -0.237 OA
ATOM     52  O   UNL A   1      32.217  36.190  30.212  1.00  0.00    -0.744 OA
ENDBRANCH  48  49
ENDBRANCH  27  41
BRANCH  28  53
ATOM     53  C   UNL A   1      44.072  28.447  35.359  1.00  0.00     0.058 A 
ATOM     54  C   UNL A   1      45.392  28.814  35.067  1.00  0.00     0.135 A 
ATOM     55  C   UNL A   1      43.868  27.411  36.284  1.00  0.00     0.135 A 
ATOM     56  F   UNL A   1      45.636  29.798  34.188  1.00  0.00    -0.206 F 
ATOM     57  C   UNL A   1      46.473  28.179  35.669  1.00  0.00     0.059 A 
ATOM     58  C   UNL A   1      44.930  26.778  36.918  1.00  0.00     0.059 A 
ATOM     59  F   UNL A   1      42.620  27.039  36.612  1.00  0.00    -0.206 F 
ATOM     60  C   UNL A   1      46.231  27.166  36.599  1.00  0.00     0.060 A 
BRANCH  60  61
ATOM     61  S   UNL A   1      47.635  26.403  37.438  1.00  0.00     0.124 S 
ATOM     62  O   UNL A   1      48.758  27.090  36.814  1.00  0.00    -0.237 OA
ATOM     63  O   UNL A   1      47.378  26.736  38.836  1.00  0.00    -0.237 OA
ATOM     64  O   UNL A   1      47.493  24.988  37.106  1.00  0.00    -0.744 OA
ENDBRANCH  60  61
ENDBRANCH  28  53
BRANCH  40  65
ATOM     65  C   UNL A   1      40.196  33.887  37.358  1.00  0.00     0.058 A 
ATOM     66  C   UNL A   1      40.979  35.049  37.426  1.00  0.00     0.135 A 
ATOM     67  C   UNL A   1      39.397  33.563  38.466  1.00  0.00     0.135 A 
ATOM     68  F   UNL A   1      41.767  35.393  36.395  1.00  0.00    -0.206 F 
ATOM     69  C   UNL A   1      40.987  35.851  38.561  1.00  0.00     0.059 A 
ATOM     70  C   UNL A   1      39.372  34.364  39.603  1.00  0.00     0.059 A 
ATOM     71  F   UNL A   1      38.626  32.465  38.445  1.00  0.00    -0.206 F 
ATOM     72  C   UNL A   1      40.180  35.500  39.646  1.00  0.00     0.060 A 
BRANCH  72  73
ATOM     73  S   UNL A   1      40.174  36.563  41.104  1.00  0.00     0.124 S 
ATOM     74  O   UNL A   1      40.480  35.608  42.163  1.00  0.00    -0.237 OA
ATOM     75  O   UNL A   1      41.226  37.528  40.796  1.00  0.00    -0.237 OA
ATOM     76  O   UNL A   1      38.820  37.108  41.118  1.00  0.00    -0.744 OA
ENDBRANCH  72  73
ENDBRANCH  40  65
ENDBRANCH  14  15
ENDBRANCH   7   9
ENDBRANCH   4   5
ENDBRANCH   3   4
ENDBRANCH   2   3
ENDBRANCH   1   2
BRANCH   1  77
ATOM     77  N   UNL A   1      35.514  21.955  26.664  1.00  0.00    -0.354 N 
ATOM     78  C   UNL A   1      34.240  22.413  26.723  1.00  0.00     0.244 C 
ATOM     79  H   UNL A   1      35.952  21.891  27.543  1.00  0.00     0.163 HD
ATOM     80  O   UNL A   1      33.769  22.574  27.858  1.00  0.00    -0.273 OA
BRANCH  78  81
ATOM     81  C   UNL A   1      33.330  22.659  25.496  1.00  0.00     0.197 C 
BRANCH  81  82
ATOM     82  N   UNL A   1      33.946  22.889  24.196  1.00  0.00    -0.340 N 
ATOM     83  C   UNL A   1      33.943  23.947  23.348  1.00  0.00     0.244 C 
ATOM     84  H   UNL A   1      34.467  22.123  23.866  1.00  0.00     0.164 HD
ATOM     85  O   UNL A   1      34.655  23.807  22.346  1.00  0.00    -0.273 OA
BRANCH  83  86
ATOM     86  C   UNL A   1      33.012  25.178  23.478  1.00  0.00     0.181 C 
BRANCH  86  87
ATOM     87  N   UNL A   1      33.637  26.499  23.346  1.00  0.00    -0.342 N 
ATOM     88  C   UNL A   1      33.177  27.765  23.568  1.00  0.00     0.243 C 
ATOM     89  H   UNL A   1      34.571  26.465  23.035  1.00  0.00     0.164 HD
ATOM     90  O   UNL A   1      33.846  28.659  23.037  1.00  0.00    -0.273 OA
BRANCH  88  91
ATOM     91  C   UNL A   1      32.042  28.144  24.565  1.00  0.00     0.176 C 
BRANCH  91  92
ATOM     92  N   UNL A   1      30.774  27.459  24.304  1.00  0.00    -0.340 N 
ATOM     93  C   UNL A   1      29.656  27.860  23.628  1.00  0.00     0.251 C 
ATOM     94  H   UNL A   1      30.717  26.552  24.682  1.00  0.00     0.164 HD
ATOM     95  O   UNL A   1      28.772  27.035  23.410  1.00  0.00    -0.269 OA
BRANCH  93  96
ATOM     96  C   UNL A   1      29.436  29.274  23.257  1.00  0.00     0.040 A 
ATOM     97  C   UNL A   1      28.995  29.513  21.946  1.00  0.00     0.017 A 
ATOM     98  C   UNL A   1      29.648  30.347  24.128  1.00  0.00     0.017 A 
ATOM     99  C   UNL A   1      28.708  30.812  21.528  1.00  0.00     0.040 A 
ATOM    100  C   UNL A   1      29.347  31.646  23.710  1.00  0.00     0.040 A 
ATOM    101  C   UNL A   1      28.872  31.865  22.419  1.00  0.00     0.123 A 
ATOM    102  F   UNL A   1      28.573  33.110  22.027  1.00  0.00    -0.207 F 
ENDBRANCH  93  96
ENDBRANCH  91  92
BRANCH  91 103
ATOM    103  C   UNL A   1      32.462  27.904  26.029  1.00  0.00     0.070 C 
BRANCH 103 104
ATOM    104  C   UNL A   1      33.191  29.063  26.668  1.00  0.00    -0.045 A 
ATOM    105  C   UNL A   1      32.560  30.301  26.843  1.00  0.00     0.004 A 
ATOM    106  C   UNL A   1      34.521  28.926  27.081  1.00  0.00     0.004 A 
ATOM    107  C   UNL A   1      33.247  31.367  27.430  1.00  0.00     0.000 A 
ATOM    108  C   UNL A   1      35.208  29.989  27.667  1.00  0.00     0.000 A 
ATOM    109  C   UNL A   1      34.569  31.210  27.844  1.00  0.00     0.000 A 
ENDBRANCH 103 104
ENDBRANCH  91 103
ENDBRANCH  88  91
ENDBRANCH  86  87
BRANCH  86 110
ATOM    110  C   UNL A   1      31.873  24.988  22.440  1.00  0.00     0.101 C 
BRANCH 110 111
ATOM    111  S   UNL A   1      32.217  25.680  20.790  1.00  0.00    -0.177 SA
ATOM    112  H   UNL A   1      32.687  26.951  20.919  1.00  0.00     0.102 HD
ENDBRANCH 110 111
ENDBRANCH  86 110
ENDBRANCH  83  86
ENDBRANCH  81  82
BRANCH  81 113
ATOM    113  C   UNL A   1      32.363  21.457  25.428  1.00  0.00     0.191 C 
BRANCH 113 114
ATOM    114  O   UNL A   1      31.186  21.679  26.201  1.00  0.00    -0.394 OA
ATOM    115  H   UNL A   1      31.415  22.165  27.008  1.00  0.00     0.210 HD
ENDBRANCH 113 114
ENDBRANCH  81 113
ENDBRANCH  78  81
ENDBRANCH   1  77
TORSDOF 26
ENDMDL
