MODEL 1
REMARK VINA RESULT:     -12.2      0.000      0.000
REMARK SMILES O=C(NCCCCNC(=O)[C@@]1([NH2+]C2CC2)CCC[C@@H]([NH+]2CCS(=O)(=O)CC2)C1)c1ccc(-c2c3nc(c(-c4c(F)cc(S(=O)(=O)[O-])cc4F)c4ccc([nH]4)c(-c4c(F)cc(S(=O)(=O)[O-])cc4F)c4nc(c(-c5c(F)cc(S(=O)(=O)[O-])cc5F)c5ccc2[nH]5)C=C4)C=C3)cc1
REMARK SMILES IDX 5 1 4 2 3 3 1 4 2 5 29 7 30 8 94 9 31 10 93 11 32 12 33 13
REMARK SMILES IDX 34 14 87 15 35 16 92 17 86 18 88 19 36 20 91 21 85 22 84 23
REMARK SMILES IDX 37 25 71 26 50 27 70 28 51 29 54 30 69 31 89 32 52 33 53 34
REMARK SMILES IDX 68 36 90 37 55 38 38 39 39 40 48 41 40 42 41 43 47 44 49 45
REMARK SMILES IDX 42 46 43 47 44 48 45 49 46 50 72 51 73 52 82 53 74 54 75 55
REMARK SMILES IDX 81 56 83 57 76 58 77 59 78 60 79 61 80 62 56 63 57 64 66 65
REMARK SMILES IDX 58 66 59 67 65 68 67 69 60 70 61 71 62 72 63 73 64 74 6 75
REMARK SMILES IDX 7 76 8 77 9 78 10 80 11 81 16 82 28 83 17 84 19 85 18 86
REMARK SMILES IDX 12 87 13 90 14 91 15 92 20 93 21 94 27 95 22 97 26 98 23 99
REMARK SMILES IDX 24 100 25 101
REMARK H PARENT 3 6 88 24 54 35 8 79 12 88 12 89 20 96
REMARK Flexibility Score: inf
ROOT
ATOM      1  C   UNL A   1      40.384  21.832  27.306  1.00  0.00     0.023 C 
ENDROOT
BRANCH   1   2
ATOM      2  C   UNL A   1      41.227  23.091  27.445  1.00  0.00     0.116 C 
BRANCH   2   3
ATOM      3  N   UNL A   1      41.294  23.878  26.220  1.00  0.00    -0.352 N 
ATOM      4  O   UNL A   1      41.181  25.778  24.998  1.00  0.00    -0.269 OA
ATOM      5  C   UNL A   1      41.221  25.246  26.097  1.00  0.00     0.251 C 
ATOM      6  H   UNL A   1      41.405  23.371  25.384  1.00  0.00     0.163 HD
BRANCH   5   7
ATOM      7  C   UNL A   1      41.160  26.044  27.336  1.00  0.00     0.039 A 
ATOM      8  C   UNL A   1      40.067  25.898  28.190  1.00  0.00     0.014 A 
ATOM      9  C   UNL A   1      42.148  26.997  27.590  1.00  0.00     0.014 A 
ATOM     10  C   UNL A   1      39.886  26.804  29.221  1.00  0.00     0.010 A 
ATOM     11  C   UNL A   1      42.012  27.848  28.689  1.00  0.00     0.010 A 
ATOM     12  C   UNL A   1      40.867  27.774  29.495  1.00  0.00    -0.014 A 
BRANCH  12  13
ATOM     13  C   UNL A   1      40.687  28.632  30.691  1.00  0.00     0.031 A 
ATOM     14  C   UNL A   1      41.601  28.530  31.879  1.00  0.00     0.074 A 
ATOM     15  C   UNL A   1      39.714  29.563  30.647  1.00  0.00     0.049 A 
ATOM     16  N   UNL A   1      41.604  29.250  32.971  1.00  0.00    -0.248 NA
ATOM     17  C   UNL A   1      42.637  27.485  31.847  1.00  0.00     0.031 C 
ATOM     18  C   UNL A   1      38.759  29.725  29.545  1.00  0.00     0.029 A 
ATOM     19  N   UNL A   1      39.389  30.569  31.517  1.00  0.00    -0.354 N 
ATOM     20  C   UNL A   1      42.627  28.741  33.764  1.00  0.00     0.074 A 
ATOM     21  C   UNL A   1      43.211  27.635  33.034  1.00  0.00     0.031 C 
ATOM     22  C   UNL A   1      38.003  30.807  29.772  1.00  0.00     0.029 A 
ATOM     23  C   UNL A   1      38.372  31.374  31.063  1.00  0.00     0.049 A 
ATOM     24  H   UNL A   1      39.840  30.701  32.382  1.00  0.00     0.167 HD
ATOM     25  C   UNL A   1      43.036  29.166  34.983  1.00  0.00     0.037 A 
ATOM     26  C   UNL A   1      37.789  32.446  31.629  1.00  0.00     0.037 A 
ATOM     27  C   UNL A   1      42.449  30.280  35.687  1.00  0.00     0.049 A 
ATOM     28  C   UNL A   1      38.282  32.907  32.966  1.00  0.00     0.074 A 
ATOM     29  C   UNL A   1      42.787  30.790  36.929  1.00  0.00     0.029 A 
ATOM     30  N   UNL A   1      41.409  31.063  35.205  1.00  0.00    -0.354 N 
ATOM     31  N   UNL A   1      39.244  32.404  33.704  1.00  0.00    -0.248 NA
ATOM     32  C   UNL A   1      37.611  34.071  33.554  1.00  0.00     0.031 C 
ATOM     33  C   UNL A   1      41.933  31.863  37.210  1.00  0.00     0.029 A 
ATOM     34  C   UNL A   1      41.089  32.048  36.127  1.00  0.00     0.049 A 
ATOM     35  H   UNL A   1      40.964  30.938  34.336  1.00  0.00     0.167 HD
ATOM     36  C   UNL A   1      39.286  33.185  34.851  1.00  0.00     0.074 A 
ATOM     37  C   UNL A   1      38.282  34.219  34.687  1.00  0.00     0.031 C 
ATOM     38  C   UNL A   1      40.072  33.051  35.947  1.00  0.00     0.037 A 
BRANCH  25  39
ATOM     39  C   UNL A   1      44.166  28.426  35.645  1.00  0.00     0.058 A 
ATOM     40  C   UNL A   1      45.505  28.798  35.446  1.00  0.00     0.135 A 
ATOM     41  C   UNL A   1      43.905  27.376  36.540  1.00  0.00     0.135 A 
ATOM     42  F   UNL A   1      45.813  29.782  34.588  1.00  0.00    -0.206 F 
ATOM     43  C   UNL A   1      46.546  28.148  36.104  1.00  0.00     0.059 A 
ATOM     44  C   UNL A   1      44.929  26.725  37.224  1.00  0.00     0.059 A 
ATOM     45  F   UNL A   1      42.643  26.978  36.765  1.00  0.00    -0.206 F 
ATOM     46  C   UNL A   1      46.248  27.113  36.993  1.00  0.00     0.060 A 
BRANCH  46  47
ATOM     47  S   UNL A   1      47.608  26.297  37.858  1.00  0.00     0.124 S 
ATOM     48  O   UNL A   1      47.847  25.142  36.999  1.00  0.00    -0.237 OA
ATOM     49  O   UNL A   1      48.648  27.322  37.845  1.00  0.00    -0.237 OA
ATOM     50  O   UNL A   1      47.045  25.998  39.171  1.00  0.00    -0.744 OA
ENDBRANCH  46  47
ENDBRANCH  25  39
BRANCH  26  51
ATOM     51  C   UNL A   1      36.665  33.124  30.935  1.00  0.00     0.058 A 
ATOM     52  C   UNL A   1      35.343  32.979  31.375  1.00  0.00     0.135 A 
ATOM     53  C   UNL A   1      36.903  33.963  29.834  1.00  0.00     0.135 A 
ATOM     54  F   UNL A   1      35.067  32.189  32.423  1.00  0.00    -0.206 F 
ATOM     55  C   UNL A   1      34.290  33.629  30.738  1.00  0.00     0.059 A 
ATOM     56  C   UNL A   1      35.873  34.646  29.199  1.00  0.00     0.059 A 
ATOM     57  F   UNL A   1      38.156  34.152  29.391  1.00  0.00    -0.206 F 
ATOM     58  C   UNL A   1      34.567  34.461  29.651  1.00  0.00     0.060 A 
BRANCH  58  59
ATOM     59  S   UNL A   1      33.208  35.346  28.856  1.00  0.00     0.124 S 
ATOM     60  O   UNL A   1      33.929  36.346  28.078  1.00  0.00    -0.237 OA
ATOM     61  O   UNL A   1      32.554  34.288  28.090  1.00  0.00    -0.237 OA
ATOM     62  O   UNL A   1      32.438  35.856  29.986  1.00  0.00    -0.744 OA
ENDBRANCH  58  59
ENDBRANCH  26  51
BRANCH  38  63
ATOM     63  C   UNL A   1      39.857  34.050  37.046  1.00  0.00     0.058 A 
ATOM     64  C   UNL A   1      39.065  33.743  38.164  1.00  0.00     0.135 A 
ATOM     65  C   UNL A   1      40.439  35.325  36.979  1.00  0.00     0.135 A 
ATOM     66  F   UNL A   1      38.482  32.538  38.269  1.00  0.00    -0.206 F 
ATOM     67  C   UNL A   1      38.824  34.682  39.161  1.00  0.00     0.059 A 
ATOM     68  C   UNL A   1      40.231  36.271  37.976  1.00  0.00     0.059 A 
ATOM     69  F   UNL A   1      41.210  35.662  35.934  1.00  0.00    -0.206 F 
ATOM     70  C   UNL A   1      39.405  35.947  39.053  1.00  0.00     0.060 A 
BRANCH  70  71
ATOM     71  S   UNL A   1      39.080  37.163  40.346  1.00  0.00     0.124 S 
ATOM     72  O   UNL A   1      40.417  37.380  40.886  1.00  0.00    -0.237 OA
ATOM     73  O   UNL A   1      38.510  38.278  39.595  1.00  0.00    -0.237 OA
ATOM     74  O   UNL A   1      38.147  36.472  41.231  1.00  0.00    -0.744 OA
ENDBRANCH  70  71
ENDBRANCH  38  63
ENDBRANCH  12  13
ENDBRANCH   5   7
ENDBRANCH   2   3
ENDBRANCH   1   2
BRANCH   1  75
ATOM     75  C   UNL A   1      39.758  21.647  25.923  1.00  0.00     0.023 C 
BRANCH  75  76
ATOM     76  C   UNL A   1      38.249  21.855  25.906  1.00  0.00     0.116 C 
BRANCH  76  77
ATOM     77  N   UNL A   1      37.806  22.391  24.638  1.00  0.00    -0.351 N 
ATOM     78  C   UNL A   1      36.590  22.613  24.081  1.00  0.00     0.281 C 
ATOM     79  H   UNL A   1      38.552  22.654  24.051  1.00  0.00     0.163 HD
ATOM     80  O   UNL A   1      36.637  22.930  22.882  1.00  0.00    -0.268 OA
BRANCH  78  81
ATOM     81  C   UNL A   1      35.222  22.638  24.855  1.00  0.00     0.181 C 
ATOM     82  C   UNL A   1      35.022  23.582  26.048  1.00  0.00     0.079 C 
ATOM     83  C   UNL A   1      34.289  23.174  23.723  1.00  0.00     0.144 C 
ATOM     84  C   UNL A   1      33.572  23.666  26.525  1.00  0.00     0.013 C 
ATOM     85  C   UNL A   1      32.847  23.560  24.073  1.00  0.00     0.190 C 
ATOM     86  C   UNL A   1      32.713  24.288  25.427  1.00  0.00     0.065 C 
BRANCH  81  87
ATOM     87  N   UNL A   1      34.800  21.254  25.181  1.00  0.00    -0.331 N 
ATOM     88  H   UNL A   1      34.424  21.300  26.128  1.00  0.00     0.347 HD
ATOM     89  H   UNL A   1      35.659  20.745  24.970  1.00  0.00     0.347 HD
BRANCH  87  90
ATOM     90  C   UNL A   1      33.829  20.468  24.413  1.00  0.00     0.183 C 
ATOM     91  C   UNL A   1      33.533  19.008  24.571  1.00  0.00     0.071 C 
ATOM     92  C   UNL A   1      32.491  20.029  24.929  1.00  0.00     0.071 C 
ENDBRANCH  87  90
ENDBRANCH  81  87
BRANCH  85  93
ATOM     93  N   UNL A   1      32.162  24.336  23.013  1.00  0.00    -0.331 N 
ATOM     94  C   UNL A   1      32.904  25.469  22.452  1.00  0.00     0.278 C 
ATOM     95  C   UNL A   1      30.716  24.582  23.116  1.00  0.00     0.278 C 
ATOM     96  H   UNL A   1      32.188  23.603  22.303  1.00  0.00     0.348 HD
ATOM     97  C   UNL A   1      32.764  26.788  23.188  1.00  0.00     0.198 C 
ATOM     98  C   UNL A   1      30.247  25.827  23.854  1.00  0.00     0.198 C 
ATOM     99  S   UNL A   1      31.065  27.281  23.272  1.00  0.00     0.161 S 
ATOM    100  O   UNL A   1      30.947  28.298  24.300  1.00  0.00    -0.228 OA
ATOM    101  O   UNL A   1      30.602  27.549  21.921  1.00  0.00    -0.228 OA
ENDBRANCH  85  93
ENDBRANCH  78  81
ENDBRANCH  76  77
ENDBRANCH  75  76
ENDBRANCH   1  75
TORSDOF 17
ENDMDL
MODEL 2
REMARK VINA RESULT:     -12.1      2.137      3.622
REMARK SMILES O=C(NCCCCNC(=O)[C@@]1([NH2+]C2CC2)CCC[C@@H]([NH+]2CCS(=O)(=O)CC2)C1)c1ccc(-c2c3nc(c(-c4c(F)cc(S(=O)(=O)[O-])cc4F)c4ccc([nH]4)c(-c4c(F)cc(S(=O)(=O)[O-])cc4F)c4nc(c(-c5c(F)cc(S(=O)(=O)[O-])cc5F)c5ccc2[nH]5)C=C4)C=C3)cc1
REMARK SMILES IDX 5 1 4 2 3 3 1 4 2 5 29 7 30 8 94 9 31 10 93 11 32 12 33 13
REMARK SMILES IDX 34 14 87 15 35 16 92 17 86 18 88 19 36 20 91 21 85 22 84 23
REMARK SMILES IDX 37 25 71 26 50 27 70 28 51 29 54 30 69 31 89 32 52 33 53 34
REMARK SMILES IDX 68 36 90 37 55 38 38 39 39 40 48 41 40 42 41 43 47 44 49 45
REMARK SMILES IDX 42 46 43 47 44 48 45 49 46 50 72 51 73 52 82 53 74 54 75 55
REMARK SMILES IDX 81 56 83 57 76 58 77 59 78 60 79 61 80 62 56 63 57 64 66 65
REMARK SMILES IDX 58 66 59 67 65 68 67 69 60 70 61 71 62 72 63 73 64 74 6 75
REMARK SMILES IDX 7 76 8 77 9 78 10 80 11 81 16 82 28 83 17 84 19 85 18 86
REMARK SMILES IDX 12 87 13 90 14 91 15 92 20 93 21 94 27 95 22 97 26 98 23 99
REMARK SMILES IDX 24 100 25 101
REMARK H PARENT 3 6 88 24 54 35 8 79 12 88 12 89 20 96
REMARK Flexibility Score: inf
ROOT
ATOM      1  C   UNL A   1      37.470  23.508  25.817  1.00  0.00     0.023 C 
ENDROOT
BRANCH   1   2
ATOM      2  C   UNL A   1      38.575  24.101  26.680  1.00  0.00     0.116 C 
BRANCH   2   3
ATOM      3  N   UNL A   1      39.802  24.367  25.941  1.00  0.00    -0.352 N 
ATOM      4  O   UNL A   1      41.635  25.568  25.380  1.00  0.00    -0.269 OA
ATOM      5  C   UNL A   1      40.696  25.393  26.141  1.00  0.00     0.251 C 
ATOM      6  H   UNL A   1      40.017  23.738  25.215  1.00  0.00     0.163 HD
BRANCH   5   7
ATOM      7  C   UNL A   1      40.462  26.294  27.286  1.00  0.00     0.039 A 
ATOM      8  C   UNL A   1      41.107  27.530  27.327  1.00  0.00     0.014 A 
ATOM      9  C   UNL A   1      39.672  25.860  28.352  1.00  0.00     0.014 A 
ATOM     10  C   UNL A   1      41.081  28.270  28.497  1.00  0.00     0.010 A 
ATOM     11  C   UNL A   1      39.568  26.655  29.496  1.00  0.00     0.010 A 
ATOM     12  C   UNL A   1      40.294  27.853  29.585  1.00  0.00    -0.014 A 
BRANCH  12  13
ATOM     13  C   UNL A   1      40.195  28.749  30.761  1.00  0.00     0.031 A 
ATOM     14  C   UNL A   1      41.145  28.638  31.919  1.00  0.00     0.074 A 
ATOM     15  C   UNL A   1      39.263  29.722  30.724  1.00  0.00     0.049 A 
ATOM     16  N   UNL A   1      41.218  29.387  32.990  1.00  0.00    -0.248 NA
ATOM     17  C   UNL A   1      42.131  27.547  31.882  1.00  0.00     0.031 C 
ATOM     18  C   UNL A   1      38.277  29.898  29.650  1.00  0.00     0.029 A 
ATOM     19  N   UNL A   1      39.014  30.765  31.575  1.00  0.00    -0.354 N 
ATOM     20  C   UNL A   1      42.245  28.854  33.761  1.00  0.00     0.074 A 
ATOM     21  C   UNL A   1      42.753  27.703  33.044  1.00  0.00     0.031 C 
ATOM     22  C   UNL A   1      37.579  31.019  29.872  1.00  0.00     0.029 A 
ATOM     23  C   UNL A   1      38.018  31.603  31.133  1.00  0.00     0.049 A 
ATOM     24  H   UNL A   1      39.500  30.900  32.420  1.00  0.00     0.167 HD
ATOM     25  C   UNL A   1      42.715  29.293  34.953  1.00  0.00     0.037 A 
ATOM     26  C   UNL A   1      37.504  32.715  31.688  1.00  0.00     0.037 A 
ATOM     27  C   UNL A   1      42.204  30.451  35.645  1.00  0.00     0.049 A 
ATOM     28  C   UNL A   1      38.064  33.189  32.993  1.00  0.00     0.074 A 
ATOM     29  C   UNL A   1      42.608  30.979  36.859  1.00  0.00     0.029 A 
ATOM     30  N   UNL A   1      41.183  31.267  35.176  1.00  0.00    -0.354 N 
ATOM     31  N   UNL A   1      39.028  32.664  33.712  1.00  0.00    -0.248 NA
ATOM     32  C   UNL A   1      37.467  34.399  33.570  1.00  0.00     0.031 C 
ATOM     33  C   UNL A   1      41.813  32.097  37.138  1.00  0.00     0.029 A 
ATOM     34  C   UNL A   1      40.940  32.290  36.080  1.00  0.00     0.049 A 
ATOM     35  H   UNL A   1      40.703  31.139  34.326  1.00  0.00     0.167 HD
ATOM     36  C   UNL A   1      39.146  33.473  34.834  1.00  0.00     0.074 A 
ATOM     37  C   UNL A   1      38.183  34.546  34.675  1.00  0.00     0.031 C 
ATOM     38  C   UNL A   1      39.963  33.333  35.906  1.00  0.00     0.037 A 
BRANCH  25  39
ATOM     39  C   UNL A   1      43.835  28.520  35.597  1.00  0.00     0.058 A 
ATOM     40  C   UNL A   1      45.180  28.807  35.320  1.00  0.00     0.135 A 
ATOM     41  C   UNL A   1      43.560  27.527  36.551  1.00  0.00     0.135 A 
ATOM     42  F   UNL A   1      45.500  29.733  34.403  1.00  0.00    -0.206 F 
ATOM     43  C   UNL A   1      46.215  28.129  35.959  1.00  0.00     0.059 A 
ATOM     44  C   UNL A   1      44.579  26.851  37.218  1.00  0.00     0.059 A 
ATOM     45  F   UNL A   1      42.291  27.211  36.852  1.00  0.00    -0.206 F 
ATOM     46  C   UNL A   1      45.905  27.153  36.909  1.00  0.00     0.060 A 
BRANCH  46  47
ATOM     47  S   UNL A   1      47.258  26.302  37.749  1.00  0.00     0.124 S 
ATOM     48  O   UNL A   1      47.466  27.161  38.910  1.00  0.00    -0.237 OA
ATOM     49  O   UNL A   1      46.678  24.991  38.028  1.00  0.00    -0.237 OA
ATOM     50  O   UNL A   1      48.331  26.311  36.760  1.00  0.00    -0.744 OA
ENDBRANCH  46  47
ENDBRANCH  25  39
BRANCH  26  51
ATOM     51  C   UNL A   1      36.388  33.425  31.013  1.00  0.00     0.058 A 
ATOM     52  C   UNL A   1      35.085  33.389  31.527  1.00  0.00     0.135 A 
ATOM     53  C   UNL A   1      36.616  34.185  29.854  1.00  0.00     0.135 A 
ATOM     54  F   UNL A   1      34.819  32.677  32.633  1.00  0.00    -0.206 F 
ATOM     55  C   UNL A   1      34.041  34.069  30.908  1.00  0.00     0.059 A 
ATOM     56  C   UNL A   1      35.596  34.896  29.234  1.00  0.00     0.059 A 
ATOM     57  F   UNL A   1      37.852  34.269  29.338  1.00  0.00    -0.206 F 
ATOM     58  C   UNL A   1      34.308  34.821  29.762  1.00  0.00     0.060 A 
BRANCH  58  59
ATOM     59  S   UNL A   1      32.965  35.745  28.986  1.00  0.00     0.124 S 
ATOM     60  O   UNL A   1      32.362  34.725  28.138  1.00  0.00    -0.237 OA
ATOM     61  O   UNL A   1      32.173  36.169  30.138  1.00  0.00    -0.237 OA
ATOM     62  O   UNL A   1      33.662  36.820  28.288  1.00  0.00    -0.744 OA
ENDBRANCH  58  59
ENDBRANCH  26  51
BRANCH  38  63
ATOM     63  C   UNL A   1      39.832  34.370  36.982  1.00  0.00     0.058 A 
ATOM     64  C   UNL A   1      38.985  34.172  38.085  1.00  0.00     0.135 A 
ATOM     65  C   UNL A   1      40.550  35.573  36.909  1.00  0.00     0.135 A 
ATOM     66  F   UNL A   1      38.273  33.039  38.194  1.00  0.00    -0.206 F 
ATOM     67  C   UNL A   1      38.824  35.150  39.060  1.00  0.00     0.059 A 
ATOM     68  C   UNL A   1      40.422  36.556  37.885  1.00  0.00     0.059 A 
ATOM     69  F   UNL A   1      41.378  35.805  35.879  1.00  0.00    -0.206 F 
ATOM     70  C   UNL A   1      39.541  36.342  38.946  1.00  0.00     0.060 A 
BRANCH  70  71
ATOM     71  S   UNL A   1      39.319  37.611  40.209  1.00  0.00     0.124 S 
ATOM     72  O   UNL A   1      40.648  38.212  40.257  1.00  0.00    -0.237 OA
ATOM     73  O   UNL A   1      38.265  38.445  39.638  1.00  0.00    -0.237 OA
ATOM     74  O   UNL A   1      38.931  36.846  41.391  1.00  0.00    -0.744 OA
ENDBRANCH  70  71
ENDBRANCH  38  63
ENDBRANCH  12  13
ENDBRANCH   5   7
ENDBRANCH   2   3
ENDBRANCH   1   2
BRANCH   1  75
ATOM     75  C   UNL A   1      37.782  22.114  25.271  1.00  0.00     0.023 C 
BRANCH  75  76
ATOM     76  C   UNL A   1      36.551  21.227  25.131  1.00  0.00     0.116 C 
BRANCH  76  77
ATOM     77  N   UNL A   1      35.720  21.292  26.313  1.00  0.00    -0.351 N 
ATOM     78  C   UNL A   1      34.398  21.508  26.525  1.00  0.00     0.281 C 
ATOM     79  H   UNL A   1      36.225  21.145  27.146  1.00  0.00     0.163 HD
ATOM     80  O   UNL A   1      34.100  21.662  27.720  1.00  0.00    -0.268 OA
BRANCH  78  81
ATOM     81  C   UNL A   1      33.272  21.429  25.431  1.00  0.00     0.181 C 
ATOM     82  C   UNL A   1      33.566  21.844  23.984  1.00  0.00     0.079 C 
ATOM     83  C   UNL A   1      33.047  19.883  25.397  1.00  0.00     0.144 C 
ATOM     84  C   UNL A   1      32.452  21.472  23.004  1.00  0.00     0.013 C 
ATOM     85  C   UNL A   1      32.148  19.290  24.306  1.00  0.00     0.190 C 
ATOM     86  C   UNL A   1      32.334  19.952  22.924  1.00  0.00     0.065 C 
BRANCH  81  87
ATOM     87  N   UNL A   1      32.031  22.063  25.937  1.00  0.00    -0.331 N 
ATOM     88  H   UNL A   1      31.974  21.803  26.921  1.00  0.00     0.347 HD
ATOM     89  H   UNL A   1      31.357  21.721  25.252  1.00  0.00     0.347 HD
BRANCH  87  90
ATOM     90  C   UNL A   1      31.746  23.501  25.895  1.00  0.00     0.183 C 
ATOM     91  C   UNL A   1      30.798  24.199  24.967  1.00  0.00     0.071 C 
ATOM     92  C   UNL A   1      30.500  24.138  26.438  1.00  0.00     0.071 C 
ENDBRANCH  87  90
ENDBRANCH  81  87
BRANCH  85  93
ATOM     93  N   UNL A   1      32.254  17.818  24.178  1.00  0.00    -0.331 N 
ATOM     94  C   UNL A   1      32.160  17.048  25.422  1.00  0.00     0.278 C 
ATOM     95  C   UNL A   1      33.196  17.242  23.208  1.00  0.00     0.278 C 
ATOM     96  H   UNL A   1      31.366  17.683  23.695  1.00  0.00     0.348 HD
ATOM     97  C   UNL A   1      33.457  16.844  26.181  1.00  0.00     0.198 C 
ATOM     98  C   UNL A   1      34.621  16.961  23.664  1.00  0.00     0.198 C 
ATOM     99  S   UNL A   1      34.656  16.029  25.164  1.00  0.00     0.161 S 
ATOM    100  O   UNL A   1      35.959  16.220  25.774  1.00  0.00    -0.228 OA
ATOM    101  O   UNL A   1      34.172  14.691  24.876  1.00  0.00    -0.228 OA
ENDBRANCH  85  93
ENDBRANCH  78  81
ENDBRANCH  76  77
ENDBRANCH  75  76
ENDBRANCH   1  75
TORSDOF 17
ENDMDL
MODEL 3
REMARK VINA RESULT:     -11.9      6.667     12.107
REMARK SMILES O=C(NCCCCNC(=O)[C@@]1([NH2+]C2CC2)CCC[C@@H]([NH+]2CCS(=O)(=O)CC2)C1)c1ccc(-c2c3nc(c(-c4c(F)cc(S(=O)(=O)[O-])cc4F)c4ccc([nH]4)c(-c4c(F)cc(S(=O)(=O)[O-])cc4F)c4nc(c(-c5c(F)cc(S(=O)(=O)[O-])cc5F)c5ccc2[nH]5)C=C4)C=C3)cc1
REMARK SMILES IDX 5 1 4 2 3 3 1 4 2 5 29 7 30 8 94 9 31 10 93 11 32 12 33 13
REMARK SMILES IDX 34 14 87 15 35 16 92 17 86 18 88 19 36 20 91 21 85 22 84 23
REMARK SMILES IDX 37 25 71 26 50 27 70 28 51 29 54 30 69 31 89 32 52 33 53 34
REMARK SMILES IDX 68 36 90 37 55 38 38 39 39 40 48 41 40 42 41 43 47 44 49 45
REMARK SMILES IDX 42 46 43 47 44 48 45 49 46 50 72 51 73 52 82 53 74 54 75 55
REMARK SMILES IDX 81 56 83 57 76 58 77 59 78 60 79 61 80 62 56 63 57 64 66 65
REMARK SMILES IDX 58 66 59 67 65 68 67 69 60 70 61 71 62 72 63 73 64 74 6 75
REMARK SMILES IDX 7 76 8 77 9 78 10 80 11 81 16 82 28 83 17 84 19 85 18 86
REMARK SMILES IDX 12 87 13 90 14 91 15 92 20 93 21 94 27 95 22 97 26 98 23 99
REMARK SMILES IDX 24 100 25 101
REMARK H PARENT 3 6 88 24 54 35 8 79 12 88 12 89 20 96
REMARK Flexibility Score: inf
ROOT
ATOM      1  C   UNL A   1      34.624  30.137  26.883  1.00  0.00     0.023 C 
ENDROOT
BRANCH   1   2
ATOM      2  C   UNL A   1      35.380  29.366  27.954  1.00  0.00     0.116 C 
BRANCH   2   3
ATOM      3  N   UNL A   1      35.403  30.044  29.244  1.00  0.00    -0.352 N 
ATOM      4  O   UNL A   1      36.348  30.729  31.181  1.00  0.00    -0.269 OA
ATOM      5  C   UNL A   1      36.485  30.238  30.071  1.00  0.00     0.251 C 
ATOM      6  H   UNL A   1      34.543  30.404  29.560  1.00  0.00     0.163 HD
BRANCH   5   7
ATOM      7  C   UNL A   1      37.808  29.804  29.584  1.00  0.00     0.039 A 
ATOM      8  C   UNL A   1      38.741  29.304  30.493  1.00  0.00     0.014 A 
ATOM      9  C   UNL A   1      38.138  29.983  28.239  1.00  0.00     0.014 A 
ATOM     10  C   UNL A   1      40.052  29.120  30.086  1.00  0.00     0.010 A 
ATOM     11  C   UNL A   1      39.438  29.704  27.811  1.00  0.00     0.010 A 
ATOM     12  C   UNL A   1      40.409  29.296  28.737  1.00  0.00    -0.014 A 
BRANCH  12  13
ATOM     13  C   UNL A   1      41.794  28.956  28.331  1.00  0.00     0.031 A 
ATOM     14  C   UNL A   1      42.904  29.965  28.394  1.00  0.00     0.074 A 
ATOM     15  C   UNL A   1      42.039  27.682  27.969  1.00  0.00     0.049 A 
ATOM     16  N   UNL A   1      44.174  29.800  28.127  1.00  0.00    -0.248 NA
ATOM     17  C   UNL A   1      42.551  31.335  28.799  1.00  0.00     0.031 C 
ATOM     18  C   UNL A   1      41.020  26.632  27.853  1.00  0.00     0.029 A 
ATOM     19  N   UNL A   1      43.211  27.038  27.673  1.00  0.00    -0.354 N 
ATOM     20  C   UNL A   1      44.771  31.042  28.315  1.00  0.00     0.074 A 
ATOM     21  C   UNL A   1      43.718  31.958  28.700  1.00  0.00     0.031 C 
ATOM     22  C   UNL A   1      41.618  25.465  27.581  1.00  0.00     0.029 A 
ATOM     23  C   UNL A   1      43.050  25.694  27.435  1.00  0.00     0.049 A 
ATOM     24  H   UNL A   1      44.082  27.494  27.635  1.00  0.00     0.167 HD
ATOM     25  C   UNL A   1      46.077  31.375  28.181  1.00  0.00     0.037 A 
ATOM     26  C   UNL A   1      43.953  24.750  27.119  1.00  0.00     0.037 A 
ATOM     27  C   UNL A   1      47.113  30.443  27.810  1.00  0.00     0.049 A 
ATOM     28  C   UNL A   1      45.394  25.146  27.004  1.00  0.00     0.074 A 
ATOM     29  C   UNL A   1      48.467  30.680  27.642  1.00  0.00     0.029 A 
ATOM     30  N   UNL A   1      46.912  29.092  27.559  1.00  0.00    -0.354 N 
ATOM     31  N   UNL A   1      45.936  26.329  27.176  1.00  0.00    -0.248 NA
ATOM     32  C   UNL A   1      46.345  24.088  26.648  1.00  0.00     0.031 C 
ATOM     33  C   UNL A   1      49.079  29.479  27.263  1.00  0.00     0.029 A 
ATOM     34  C   UNL A   1      48.114  28.485  27.233  1.00  0.00     0.049 A 
ATOM     35  H   UNL A   1      46.042  28.633  27.607  1.00  0.00     0.167 HD
ATOM     36  C   UNL A   1      47.292  26.160  26.935  1.00  0.00     0.074 A 
ATOM     37  C   UNL A   1      47.491  24.752  26.649  1.00  0.00     0.031 C 
ATOM     38  C   UNL A   1      48.281  27.086  26.934  1.00  0.00     0.037 A 
BRANCH  25  39
ATOM     39  C   UNL A   1      46.468  32.807  28.427  1.00  0.00     0.058 A 
ATOM     40  C   UNL A   1      46.888  33.248  29.691  1.00  0.00     0.135 A 
ATOM     41  C   UNL A   1      46.485  33.734  27.372  1.00  0.00     0.135 A 
ATOM     42  F   UNL A   1      46.874  32.409  30.739  1.00  0.00    -0.206 F 
ATOM     43  C   UNL A   1      47.303  34.560  29.904  1.00  0.00     0.059 A 
ATOM     44  C   UNL A   1      46.915  35.046  27.557  1.00  0.00     0.059 A 
ATOM     45  F   UNL A   1      46.090  33.367  26.143  1.00  0.00    -0.206 F 
ATOM     46  C   UNL A   1      47.315  35.452  28.830  1.00  0.00     0.060 A 
BRANCH  46  47
ATOM     47  S   UNL A   1      47.881  37.143  29.115  1.00  0.00     0.124 S 
ATOM     48  O   UNL A   1      47.149  37.494  30.328  1.00  0.00    -0.237 OA
ATOM     49  O   UNL A   1      49.322  36.970  29.274  1.00  0.00    -0.237 OA
ATOM     50  O   UNL A   1      47.467  37.849  27.907  1.00  0.00    -0.744 OA
ENDBRANCH  46  47
ENDBRANCH  25  39
BRANCH  26  51
ATOM     51  C   UNL A   1      43.505  23.357  26.870  1.00  0.00     0.058 A 
ATOM     52  C   UNL A   1      43.445  22.831  25.573  1.00  0.00     0.135 A 
ATOM     53  C   UNL A   1      43.160  22.512  27.938  1.00  0.00     0.135 A 
ATOM     54  F   UNL A   1      43.767  23.599  24.522  1.00  0.00    -0.206 F 
ATOM     55  C   UNL A   1      43.044  21.519  25.339  1.00  0.00     0.059 A 
ATOM     56  C   UNL A   1      42.783  21.190  27.732  1.00  0.00     0.059 A 
ATOM     57  F   UNL A   1      43.224  22.963  29.201  1.00  0.00    -0.206 F 
ATOM     58  C   UNL A   1      42.716  20.706  26.427  1.00  0.00     0.060 A 
BRANCH  58  59
ATOM     59  S   UNL A   1      42.244  18.989  26.128  1.00  0.00     0.124 S 
ATOM     60  O   UNL A   1      40.832  19.130  25.796  1.00  0.00    -0.237 OA
ATOM     61  O   UNL A   1      43.126  18.611  25.027  1.00  0.00    -0.237 OA
ATOM     62  O   UNL A   1      42.534  18.340  27.402  1.00  0.00    -0.744 OA
ENDBRANCH  58  59
ENDBRANCH  26  51
BRANCH  38  63
ATOM     63  C   UNL A   1      49.658  26.590  26.605  1.00  0.00     0.058 A 
ATOM     64  C   UNL A   1      50.547  26.186  27.614  1.00  0.00     0.135 A 
ATOM     65  C   UNL A   1      50.096  26.525  25.273  1.00  0.00     0.135 A 
ATOM     66  F   UNL A   1      50.175  26.237  28.902  1.00  0.00    -0.206 F 
ATOM     67  C   UNL A   1      51.841  25.771  27.316  1.00  0.00     0.059 A 
ATOM     68  C   UNL A   1      51.378  26.092  24.951  1.00  0.00     0.059 A 
ATOM     69  F   UNL A   1      49.280  26.893  24.274  1.00  0.00    -0.206 F 
ATOM     70  C   UNL A   1      52.249  25.735  25.981  1.00  0.00     0.060 A 
BRANCH  70  71
ATOM     71  S   UNL A   1      53.932  25.206  25.604  1.00  0.00     0.124 S 
ATOM     72  O   UNL A   1      54.475  26.396  24.958  1.00  0.00    -0.237 OA
ATOM     73  O   UNL A   1      54.472  24.900  26.926  1.00  0.00    -0.237 OA
ATOM     74  O   UNL A   1      53.735  24.051  24.733  1.00  0.00    -0.744 OA
ENDBRANCH  70  71
ENDBRANCH  38  63
ENDBRANCH  12  13
ENDBRANCH   5   7
ENDBRANCH   2   3
ENDBRANCH   1   2
BRANCH   1  75
ATOM     75  C   UNL A   1      33.438  30.944  27.411  1.00  0.00     0.023 C 
BRANCH  75  76
ATOM     76  C   UNL A   1      32.140  30.681  26.656  1.00  0.00     0.116 C 
BRANCH  76  77
ATOM     77  N   UNL A   1      31.762  29.288  26.730  1.00  0.00    -0.351 N 
ATOM     78  C   UNL A   1      31.582  28.309  25.809  1.00  0.00     0.281 C 
ATOM     79  H   UNL A   1      31.601  28.982  27.653  1.00  0.00     0.163 HD
ATOM     80  O   UNL A   1      31.077  27.273  26.269  1.00  0.00    -0.268 OA
BRANCH  78  81
ATOM     81  C   UNL A   1      32.082  28.354  24.320  1.00  0.00     0.181 C 
ATOM     82  C   UNL A   1      33.582  28.428  24.006  1.00  0.00     0.079 C 
ATOM     83  C   UNL A   1      31.614  26.942  23.842  1.00  0.00     0.144 C 
ATOM     84  C   UNL A   1      33.909  28.211  22.529  1.00  0.00     0.013 C 
ATOM     85  C   UNL A   1      32.064  26.439  22.466  1.00  0.00     0.190 C 
ATOM     86  C   UNL A   1      33.529  26.787  22.130  1.00  0.00     0.065 C 
BRANCH  81  87
ATOM     87  N   UNL A   1      31.318  29.373  23.560  1.00  0.00    -0.331 N 
ATOM     88  H   UNL A   1      31.614  29.268  22.590  1.00  0.00     0.347 HD
ATOM     89  H   UNL A   1      31.538  30.210  24.100  1.00  0.00     0.347 HD
BRANCH  87  90
ATOM     90  C   UNL A   1      29.854  29.464  23.515  1.00  0.00     0.183 C 
ATOM     91  C   UNL A   1      29.036  30.719  23.491  1.00  0.00     0.071 C 
ATOM     92  C   UNL A   1      29.061  29.816  22.290  1.00  0.00     0.071 C 
ENDBRANCH  87  90
ENDBRANCH  81  87
BRANCH  85  93
ATOM     93  N   UNL A   1      31.828  24.992  22.252  1.00  0.00    -0.331 N 
ATOM     94  C   UNL A   1      30.865  24.349  23.151  1.00  0.00     0.278 C 
ATOM     95  C   UNL A   1      32.954  24.121  21.888  1.00  0.00     0.278 C 
ATOM     96  H   UNL A   1      31.354  25.088  21.353  1.00  0.00     0.348 HD
ATOM     97  C   UNL A   1      31.422  23.829  24.463  1.00  0.00     0.198 C 
ATOM     98  C   UNL A   1      33.758  23.474  23.007  1.00  0.00     0.198 C 
ATOM     99  S   UNL A   1      32.714  22.653  24.172  1.00  0.00     0.161 S 
ATOM    100  O   UNL A   1      33.461  22.500  25.406  1.00  0.00    -0.228 OA
ATOM    101  O   UNL A   1      32.134  21.492  23.519  1.00  0.00    -0.228 OA
ENDBRANCH  85  93
ENDBRANCH  78  81
ENDBRANCH  76  77
ENDBRANCH  75  76
ENDBRANCH   1  75
TORSDOF 17
ENDMDL
