MODEL 1
REMARK VINA RESULT:     -11.9      0.000      0.000
REMARK SMILES Cc1cc(Cl)c2c(c1)C=C(C(=O)NCCCCNC(=O)c1ccc(-c3c4nc(c(-c5c(F)cc(S(=O)(=O)[O-])cc5F)c5ccc([nH]5)c(-c5c(F)cc(S(=O)(=O)[O-])cc5F)c5nc(c(-c6c(F)cc(S(=O)(=O)[O-])cc6F)c6ccc3[nH]6)C=C5)C=C4)cc1)[C@@H](C(F)(F)F)O2
REMARK SMILES IDX 16 1 15 2 14 3 13 4 11 5 12 6 10 8 1 9 2 10 3 11 8 12 4 13
REMARK SMILES IDX 7 14 5 15 6 16 9 17 92 18 87 19 88 20 89 21 90 22 91 23
REMARK SMILES IDX 17 24 18 25 19 26 20 28 21 29 22 30 86 31 23 32 85 33 24 34
REMARK SMILES IDX 25 35 26 36 79 37 27 38 84 39 78 40 80 41 28 42 83 43 77 44
REMARK SMILES IDX 76 45 29 47 63 48 42 49 62 50 43 51 46 52 61 53 81 54 44 55
REMARK SMILES IDX 45 56 60 58 82 59 47 60 30 61 31 62 40 63 32 64 33 65 39 66
REMARK SMILES IDX 41 67 34 68 35 69 36 70 37 71 38 72 64 73 65 74 74 75 66 76
REMARK SMILES IDX 67 77 73 78 75 79 68 80 69 81 70 82 71 83 72 84 48 85 49 86
REMARK SMILES IDX 58 87 50 88 51 89 57 90 59 91 52 92 53 93 54 94 55 95 56 96
REMARK H PARENT 13 7 18 27 80 46 46 57
REMARK Flexibility Score: inf
ROOT
ATOM      1  C   UNL A   1      34.004  28.586  25.330  1.00  0.00     0.023 C 
ENDROOT
BRANCH   1   2
ATOM      2  C   UNL A   1      32.780  28.843  24.448  1.00  0.00     0.023 C 
BRANCH   2   3
ATOM      3  C   UNL A   1      32.052  27.577  24.006  1.00  0.00     0.116 C 
BRANCH   3   4
ATOM      4  N   UNL A   1      31.227  27.029  25.068  1.00  0.00    -0.352 N 
ATOM      5  C   UNL A   1      31.144  25.865  25.753  1.00  0.00     0.251 C 
ATOM      6  O   UNL A   1      30.252  25.820  26.606  1.00  0.00    -0.270 OA
ATOM      7  H   UNL A   1      30.549  27.676  25.370  1.00  0.00     0.163 HD
BRANCH   5   8
ATOM      8  C   UNL A   1      32.029  24.679  25.554  1.00  0.00     0.067 C 
ATOM      9  C   UNL A   1      38.001  23.125  25.942  1.00  0.00     0.044 C 
ATOM     10  C   UNL A   1      36.530  22.889  25.765  1.00  0.00    -0.049 A 
ATOM     11  C   UNL A   1      36.042  21.622  25.424  1.00  0.00     0.028 A 
ATOM     12  C   UNL A   1      35.626  23.949  25.924  1.00  0.00     0.015 A 
ATOM     13  C   UNL A   1      34.671  21.418  25.253  1.00  0.00     0.084 A 
ATOM     14  C   UNL A   1      34.252  23.749  25.746  1.00  0.00     0.019 A 
ATOM     15  Cl  UNL A   1      34.120  19.835  24.839  1.00  0.00    -0.080 Cl
ATOM     16  C   UNL A   1      33.776  22.481  25.405  1.00  0.00     0.146 A 
ATOM     17  C   UNL A   1      33.308  24.842  25.944  1.00  0.00     0.025 C 
ATOM     18  O   UNL A   1      32.436  22.240  25.259  1.00  0.00    -0.474 OA
ATOM     19  C   UNL A   1      31.602  23.384  24.924  1.00  0.00     0.314 C 
BRANCH  19  20
ATOM     20  C   UNL A   1      31.467  23.486  23.392  1.00  0.00     0.429 C 
ATOM     21  F   UNL A   1      30.226  23.914  23.052  1.00  0.00    -0.167 F 
ATOM     22  F   UNL A   1      32.340  24.367  22.851  1.00  0.00    -0.167 F 
ATOM     23  F   UNL A   1      31.670  22.300  22.774  1.00  0.00    -0.167 F 
ENDBRANCH  19  20
ENDBRANCH   5   8
ENDBRANCH   3   4
ENDBRANCH   2   3
ENDBRANCH   1   2
BRANCH   1  24
ATOM     24  C   UNL A   1      33.731  28.525  26.833  1.00  0.00     0.116 C 
BRANCH  24  25
ATOM     25  N   UNL A   1      33.559  29.830  27.452  1.00  0.00    -0.352 N 
ATOM     26  C   UNL A   1      34.481  30.557  28.168  1.00  0.00     0.251 C 
ATOM     27  H   UNL A   1      32.673  30.245  27.345  1.00  0.00     0.163 HD
ATOM     28  O   UNL A   1      34.165  31.615  28.698  1.00  0.00    -0.269 OA
BRANCH  26  29
ATOM     29  C   UNL A   1      35.843  30.014  28.322  1.00  0.00     0.039 A 
ATOM     30  C   UNL A   1      36.736  30.128  27.256  1.00  0.00     0.014 A 
ATOM     31  C   UNL A   1      36.248  29.465  29.542  1.00  0.00     0.014 A 
ATOM     32  C   UNL A   1      38.066  29.752  27.437  1.00  0.00     0.010 A 
ATOM     33  C   UNL A   1      37.587  29.145  29.737  1.00  0.00     0.010 A 
ATOM     34  C   UNL A   1      38.508  29.292  28.688  1.00  0.00    -0.014 A 
BRANCH  34  35
ATOM     35  C   UNL A   1      39.932  28.950  28.914  1.00  0.00     0.031 A 
ATOM     36  C   UNL A   1      40.861  29.974  29.500  1.00  0.00     0.074 A 
ATOM     37  C   UNL A   1      40.392  27.738  28.549  1.00  0.00     0.049 A 
ATOM     38  N   UNL A   1      42.144  29.886  29.730  1.00  0.00    -0.248 NA
ATOM     39  C   UNL A   1      40.273  31.277  29.852  1.00  0.00     0.031 C 
ATOM     40  C   UNL A   1      39.591  26.677  27.932  1.00  0.00     0.029 A 
ATOM     41  N   UNL A   1      41.647  27.192  28.645  1.00  0.00    -0.354 N 
ATOM     42  C   UNL A   1      42.519  31.120  30.246  1.00  0.00     0.074 A 
ATOM     43  C   UNL A   1      41.340  31.957  30.244  1.00  0.00     0.031 C 
ATOM     44  C   UNL A   1      40.367  25.599  27.735  1.00  0.00     0.029 A 
ATOM     45  C   UNL A   1      41.724  25.899  28.185  1.00  0.00     0.049 A 
ATOM     46  H   UNL A   1      42.420  27.680  29.010  1.00  0.00     0.167 HD
ATOM     47  C   UNL A   1      43.730  31.509  30.707  1.00  0.00     0.037 A 
ATOM     48  C   UNL A   1      42.770  25.052  28.138  1.00  0.00     0.037 A 
ATOM     49  C   UNL A   1      44.892  30.662  30.734  1.00  0.00     0.049 A 
ATOM     50  C   UNL A   1      44.106  25.507  28.655  1.00  0.00     0.074 A 
ATOM     51  C   UNL A   1      46.155  30.947  31.222  1.00  0.00     0.029 A 
ATOM     52  N   UNL A   1      44.931  29.360  30.259  1.00  0.00    -0.354 N 
ATOM     53  N   UNL A   1      44.434  26.665  29.175  1.00  0.00    -0.248 NA
ATOM     54  C   UNL A   1      45.214  24.544  28.576  1.00  0.00     0.031 C 
ATOM     55  C   UNL A   1      46.964  29.824  31.022  1.00  0.00     0.029 A 
ATOM     56  C   UNL A   1      46.197  28.830  30.433  1.00  0.00     0.049 A 
ATOM     57  H   UNL A   1      44.169  28.882  29.857  1.00  0.00     0.167 HD
ATOM     58  C   UNL A   1      45.782  26.566  29.500  1.00  0.00     0.074 A 
ATOM     59  C   UNL A   1      46.206  25.232  29.128  1.00  0.00     0.031 C 
ATOM     60  C   UNL A   1      46.596  27.498  30.054  1.00  0.00     0.037 A 
BRANCH  47  61
ATOM     61  C   UNL A   1      43.847  32.908  31.237  1.00  0.00     0.058 A 
ATOM     62  C   UNL A   1      44.188  33.979  30.395  1.00  0.00     0.135 A 
ATOM     63  C   UNL A   1      43.603  33.187  32.591  1.00  0.00     0.135 A 
ATOM     64  F   UNL A   1      44.450  33.760  29.097  1.00  0.00    -0.206 F 
ATOM     65  C   UNL A   1      44.314  35.275  30.884  1.00  0.00     0.059 A 
ATOM     66  C   UNL A   1      43.701  34.481  33.096  1.00  0.00     0.059 A 
ATOM     67  F   UNL A   1      43.278  32.198  33.438  1.00  0.00    -0.206 F 
ATOM     68  C   UNL A   1      44.071  35.515  32.237  1.00  0.00     0.060 A 
BRANCH  68  69
ATOM     69  S   UNL A   1      44.243  37.202  32.855  1.00  0.00     0.124 S 
ATOM     70  O   UNL A   1      43.067  37.317  33.712  1.00  0.00    -0.237 OA
ATOM     71  O   UNL A   1      45.528  37.154  33.545  1.00  0.00    -0.237 OA
ATOM     72  O   UNL A   1      44.217  38.013  31.643  1.00  0.00    -0.744 OA
ENDBRANCH  68  69
ENDBRANCH  47  61
BRANCH  48  73
ATOM     73  C   UNL A   1      42.581  23.672  27.619  1.00  0.00     0.058 A 
ATOM     74  C   UNL A   1      42.648  23.413  26.242  1.00  0.00     0.135 A 
ATOM     75  C   UNL A   1      42.360  22.588  28.480  1.00  0.00     0.135 A 
ATOM     76  F   UNL A   1      42.851  24.421  25.380  1.00  0.00    -0.206 F 
ATOM     77  C   UNL A   1      42.496  22.127  25.735  1.00  0.00     0.059 A 
ATOM     78  C   UNL A   1      42.222  21.290  27.999  1.00  0.00     0.059 A 
ATOM     79  F   UNL A   1      42.303  22.784  29.807  1.00  0.00    -0.206 F 
ATOM     80  C   UNL A   1      42.287  21.070  26.623  1.00  0.00     0.060 A 
BRANCH  80  81
ATOM     81  S   UNL A   1      42.153  19.396  25.958  1.00  0.00     0.124 S 
ATOM     82  O   UNL A   1      40.721  19.295  25.702  1.00  0.00    -0.237 OA
ATOM     83  O   UNL A   1      43.010  19.466  24.778  1.00  0.00    -0.237 OA
ATOM     84  O   UNL A   1      42.662  18.563  27.043  1.00  0.00    -0.744 OA
ENDBRANCH  80  81
ENDBRANCH  48  73
BRANCH  60  85
ATOM     85  C   UNL A   1      48.025  27.109  30.299  1.00  0.00     0.058 A 
ATOM     86  C   UNL A   1      49.032  27.430  29.378  1.00  0.00     0.135 A 
ATOM     87  C   UNL A   1      48.399  26.482  31.497  1.00  0.00     0.135 A 
ATOM     88  F   UNL A   1      48.722  28.024  28.215  1.00  0.00    -0.206 F 
ATOM     89  C   UNL A   1      50.368  27.139  29.636  1.00  0.00     0.059 A 
ATOM     90  C   UNL A   1      49.730  26.198  31.784  1.00  0.00     0.059 A 
ATOM     91  F   UNL A   1      47.469  26.162  32.412  1.00  0.00    -0.206 F 
ATOM     92  C   UNL A   1      50.706  26.526  30.845  1.00  0.00     0.060 A 
BRANCH  92  93
ATOM     93  S   UNL A   1      52.450  26.206  31.192  1.00  0.00     0.124 S 
ATOM     94  O   UNL A   1      53.013  26.164  29.847  1.00  0.00    -0.237 OA
ATOM     95  O   UNL A   1      52.825  27.361  32.000  1.00  0.00    -0.237 OA
ATOM     96  O   UNL A   1      52.424  24.932  31.904  1.00  0.00    -0.744 OA
ENDBRANCH  92  93
ENDBRANCH  60  85
ENDBRANCH  34  35
ENDBRANCH  26  29
ENDBRANCH  24  25
ENDBRANCH   1  24
TORSDOF 15
ENDMDL
MODEL 2
REMARK VINA RESULT:     -11.8      1.125      1.885
REMARK SMILES Cc1cc(Cl)c2c(c1)C=C(C(=O)NCCCCNC(=O)c1ccc(-c3c4nc(c(-c5c(F)cc(S(=O)(=O)[O-])cc5F)c5ccc([nH]5)c(-c5c(F)cc(S(=O)(=O)[O-])cc5F)c5nc(c(-c6c(F)cc(S(=O)(=O)[O-])cc6F)c6ccc3[nH]6)C=C5)C=C4)cc1)[C@@H](C(F)(F)F)O2
REMARK SMILES IDX 16 1 15 2 14 3 13 4 11 5 12 6 10 8 1 9 2 10 3 11 8 12 4 13
REMARK SMILES IDX 7 14 5 15 6 16 9 17 92 18 87 19 88 20 89 21 90 22 91 23
REMARK SMILES IDX 17 24 18 25 19 26 20 28 21 29 22 30 86 31 23 32 85 33 24 34
REMARK SMILES IDX 25 35 26 36 79 37 27 38 84 39 78 40 80 41 28 42 83 43 77 44
REMARK SMILES IDX 76 45 29 47 63 48 42 49 62 50 43 51 46 52 61 53 81 54 44 55
REMARK SMILES IDX 45 56 60 58 82 59 47 60 30 61 31 62 40 63 32 64 33 65 39 66
REMARK SMILES IDX 41 67 34 68 35 69 36 70 37 71 38 72 64 73 65 74 74 75 66 76
REMARK SMILES IDX 67 77 73 78 75 79 68 80 69 81 70 82 71 83 72 84 48 85 49 86
REMARK SMILES IDX 58 87 50 88 51 89 57 90 59 91 52 92 53 93 54 94 55 95 56 96
REMARK H PARENT 13 7 18 27 80 46 46 57
REMARK Flexibility Score: inf
ROOT
ATOM      1  C   UNL A   1      34.013  28.100  25.652  1.00  0.00     0.023 C 
ENDROOT
BRANCH   1   2
ATOM      2  C   UNL A   1      33.321  28.950  24.583  1.00  0.00     0.023 C 
BRANCH   2   3
ATOM      3  C   UNL A   1      32.171  28.242  23.871  1.00  0.00     0.116 C 
BRANCH   3   4
ATOM      4  N   UNL A   1      32.629  27.505  22.707  1.00  0.00    -0.352 N 
ATOM      5  C   UNL A   1      33.129  26.274  22.452  1.00  0.00     0.251 C 
ATOM      6  O   UNL A   1      33.404  26.052  21.269  1.00  0.00    -0.270 OA
ATOM      7  H   UNL A   1      32.556  28.043  21.886  1.00  0.00     0.163 HD
BRANCH   5   8
ATOM      8  C   UNL A   1      33.357  25.205  23.470  1.00  0.00     0.067 C 
ATOM      9  C   UNL A   1      37.445  20.769  24.828  1.00  0.00     0.044 C 
ATOM     10  C   UNL A   1      36.251  21.650  25.050  1.00  0.00    -0.049 A 
ATOM     11  C   UNL A   1      35.409  21.455  26.152  1.00  0.00     0.028 A 
ATOM     12  C   UNL A   1      35.956  22.674  24.138  1.00  0.00     0.015 A 
ATOM     13  C   UNL A   1      34.296  22.277  26.342  1.00  0.00     0.084 A 
ATOM     14  C   UNL A   1      34.837  23.495  24.323  1.00  0.00     0.019 A 
ATOM     15  Cl  UNL A   1      33.294  21.999  27.721  1.00  0.00    -0.080 Cl
ATOM     16  C   UNL A   1      34.003  23.290  25.425  1.00  0.00     0.146 A 
ATOM     17  C   UNL A   1      34.548  24.581  23.395  1.00  0.00     0.025 C 
ATOM     18  O   UNL A   1      32.921  24.096  25.657  1.00  0.00    -0.474 OA
ATOM     19  C   UNL A   1      32.354  24.772  24.501  1.00  0.00     0.314 C 
BRANCH  19  20
ATOM     20  C   UNL A   1      31.228  23.904  23.904  1.00  0.00     0.429 C 
ATOM     21  F   UNL A   1      30.679  23.114  24.860  1.00  0.00    -0.167 F 
ATOM     22  F   UNL A   1      30.219  24.645  23.390  1.00  0.00    -0.167 F 
ATOM     23  F   UNL A   1      31.667  23.095  22.913  1.00  0.00    -0.167 F 
ENDBRANCH  19  20
ENDBRANCH   5   8
ENDBRANCH   3   4
ENDBRANCH   2   3
ENDBRANCH   1   2
BRANCH   1  24
ATOM     24  C   UNL A   1      33.538  28.332  27.086  1.00  0.00     0.116 C 
BRANCH  24  25
ATOM     25  N   UNL A   1      33.404  29.738  27.439  1.00  0.00    -0.352 N 
ATOM     26  C   UNL A   1      34.352  30.568  27.988  1.00  0.00     0.251 C 
ATOM     27  H   UNL A   1      32.525  30.144  27.263  1.00  0.00     0.163 HD
ATOM     28  O   UNL A   1      34.067  31.717  28.305  1.00  0.00    -0.269 OA
BRANCH  26  29
ATOM     29  C   UNL A   1      35.704  30.034  28.230  1.00  0.00     0.039 A 
ATOM     30  C   UNL A   1      36.650  30.110  27.206  1.00  0.00     0.014 A 
ATOM     31  C   UNL A   1      36.048  29.530  29.487  1.00  0.00     0.014 A 
ATOM     32  C   UNL A   1      37.970  29.743  27.467  1.00  0.00     0.010 A 
ATOM     33  C   UNL A   1      37.376  29.220  29.761  1.00  0.00     0.010 A 
ATOM     34  C   UNL A   1      38.348  29.329  28.755  1.00  0.00    -0.014 A 
BRANCH  34  35
ATOM     35  C   UNL A   1      39.759  28.998  29.064  1.00  0.00     0.031 A 
ATOM     36  C   UNL A   1      40.629  30.010  29.751  1.00  0.00     0.074 A 
ATOM     37  C   UNL A   1      40.263  27.808  28.685  1.00  0.00     0.049 A 
ATOM     38  N   UNL A   1      41.895  29.931  30.065  1.00  0.00    -0.248 NA
ATOM     39  C   UNL A   1      39.998  31.290  30.112  1.00  0.00     0.031 C 
ATOM     40  C   UNL A   1      39.523  26.762  27.974  1.00  0.00     0.029 A 
ATOM     41  N   UNL A   1      41.517  27.276  28.845  1.00  0.00    -0.354 N 
ATOM     42  C   UNL A   1      42.214  31.148  30.653  1.00  0.00     0.074 A 
ATOM     43  C   UNL A   1      41.025  31.969  30.603  1.00  0.00     0.031 C 
ATOM     44  C   UNL A   1      40.328  25.703  27.789  1.00  0.00     0.029 A 
ATOM     45  C   UNL A   1      41.645  26.003  28.341  1.00  0.00     0.049 A 
ATOM     46  H   UNL A   1      42.255  27.760  29.280  1.00  0.00     0.167 HD
ATOM     47  C   UNL A   1      43.385  31.536  31.210  1.00  0.00     0.037 A 
ATOM     48  C   UNL A   1      42.706  25.173  28.333  1.00  0.00     0.037 A 
ATOM     49  C   UNL A   1      44.556  30.705  31.284  1.00  0.00     0.049 A 
ATOM     50  C   UNL A   1      43.996  25.625  28.957  1.00  0.00     0.074 A 
ATOM     51  C   UNL A   1      45.778  30.987  31.867  1.00  0.00     0.029 A 
ATOM     52  N   UNL A   1      44.648  29.423  30.762  1.00  0.00    -0.354 N 
ATOM     53  N   UNL A   1      44.270  26.767  29.543  1.00  0.00    -0.248 NA
ATOM     54  C   UNL A   1      45.122  24.682  28.917  1.00  0.00     0.031 C 
ATOM     55  C   UNL A   1      46.617  29.883  31.679  1.00  0.00     0.029 A 
ATOM     56  C   UNL A   1      45.908  28.903  31.001  1.00  0.00     0.049 A 
ATOM     57  H   UNL A   1      43.923  28.951  30.291  1.00  0.00     0.167 HD
ATOM     58  C   UNL A   1      45.594  26.673  29.955  1.00  0.00     0.074 A 
ATOM     59  C   UNL A   1      46.063  25.360  29.562  1.00  0.00     0.031 C 
ATOM     60  C   UNL A   1      46.353  27.593  30.600  1.00  0.00     0.037 A 
BRANCH  47  61
ATOM     61  C   UNL A   1      43.442  32.914  31.801  1.00  0.00     0.058 A 
ATOM     62  C   UNL A   1      43.253  33.124  33.176  1.00  0.00     0.135 A 
ATOM     63  C   UNL A   1      43.700  34.033  30.994  1.00  0.00     0.135 A 
ATOM     64  F   UNL A   1      42.984  32.088  33.987  1.00  0.00    -0.206 F 
ATOM     65  C   UNL A   1      43.289  34.400  33.727  1.00  0.00     0.059 A 
ATOM     66  C   UNL A   1      43.763  35.317  31.529  1.00  0.00     0.059 A 
ATOM     67  F   UNL A   1      43.883  33.887  29.672  1.00  0.00    -0.206 F 
ATOM     68  C   UNL A   1      43.541  35.491  32.895  1.00  0.00     0.060 A 
BRANCH  68  69
ATOM     69  S   UNL A   1      43.579  37.140  33.625  1.00  0.00     0.124 S 
ATOM     70  O   UNL A   1      42.251  37.222  34.227  1.00  0.00    -0.237 OA
ATOM     71  O   UNL A   1      44.694  37.044  34.561  1.00  0.00    -0.237 OA
ATOM     72  O   UNL A   1      43.801  38.015  32.478  1.00  0.00    -0.744 OA
ENDBRANCH  68  69
ENDBRANCH  47  61
BRANCH  48  73
ATOM     73  C   UNL A   1      42.576  23.813  27.749  1.00  0.00     0.058 A 
ATOM     74  C   UNL A   1      42.667  23.620  26.363  1.00  0.00     0.135 A 
ATOM     75  C   UNL A   1      42.385  22.683  28.557  1.00  0.00     0.135 A 
ATOM     76  F   UNL A   1      42.843  24.673  25.551  1.00  0.00    -0.206 F 
ATOM     77  C   UNL A   1      42.570  22.354  25.796  1.00  0.00     0.059 A 
ATOM     78  C   UNL A   1      42.302  21.403  28.016  1.00  0.00     0.059 A 
ATOM     79  F   UNL A   1      42.305  22.816  29.891  1.00  0.00    -0.206 F 
ATOM     80  C   UNL A   1      42.391  21.250  26.632  1.00  0.00     0.060 A 
BRANCH  80  81
ATOM     81  S   UNL A   1      42.328  19.604  25.890  1.00  0.00     0.124 S 
ATOM     82  O   UNL A   1      43.334  19.716  24.841  1.00  0.00    -0.237 OA
ATOM     83  O   UNL A   1      42.676  18.746  27.019  1.00  0.00    -0.237 OA
ATOM     84  O   UNL A   1      40.947  19.495  25.433  1.00  0.00    -0.744 OA
ENDBRANCH  80  81
ENDBRANCH  48  73
BRANCH  60  85
ATOM     85  C   UNL A   1      47.768  27.215  30.925  1.00  0.00     0.058 A 
ATOM     86  C   UNL A   1      48.073  26.449  32.060  1.00  0.00     0.135 A 
ATOM     87  C   UNL A   1      48.816  27.554  30.055  1.00  0.00     0.135 A 
ATOM     88  F   UNL A   1      47.105  26.106  32.924  1.00  0.00    -0.206 F 
ATOM     89  C   UNL A   1      49.373  26.033  32.324  1.00  0.00     0.059 A 
ATOM     90  C   UNL A   1      50.121  27.134  30.290  1.00  0.00     0.059 A 
ATOM     91  F   UNL A   1      48.571  28.281  28.953  1.00  0.00    -0.206 F 
ATOM     92  C   UNL A   1      50.390  26.378  31.430  1.00  0.00     0.060 A 
BRANCH  92  93
ATOM     93  S   UNL A   1      52.064  25.782  31.755  1.00  0.00     0.124 S 
ATOM     94  O   UNL A   1      52.464  26.629  32.873  1.00  0.00    -0.237 OA
ATOM     95  O   UNL A   1      51.839  24.376  32.073  1.00  0.00    -0.237 OA
ATOM     96  O   UNL A   1      52.761  26.030  30.496  1.00  0.00    -0.744 OA
ENDBRANCH  92  93
ENDBRANCH  60  85
ENDBRANCH  34  35
ENDBRANCH  26  29
ENDBRANCH  24  25
ENDBRANCH   1  24
TORSDOF 15
ENDMDL
MODEL 3
REMARK VINA RESULT:     -11.7      4.981     10.492
REMARK SMILES Cc1cc(Cl)c2c(c1)C=C(C(=O)NCCCCNC(=O)c1ccc(-c3c4nc(c(-c5c(F)cc(S(=O)(=O)[O-])cc5F)c5ccc([nH]5)c(-c5c(F)cc(S(=O)(=O)[O-])cc5F)c5nc(c(-c6c(F)cc(S(=O)(=O)[O-])cc6F)c6ccc3[nH]6)C=C5)C=C4)cc1)[C@@H](C(F)(F)F)O2
REMARK SMILES IDX 16 1 15 2 14 3 13 4 11 5 12 6 10 8 1 9 2 10 3 11 8 12 4 13
REMARK SMILES IDX 7 14 5 15 6 16 9 17 92 18 87 19 88 20 89 21 90 22 91 23
REMARK SMILES IDX 17 24 18 25 19 26 20 28 21 29 22 30 86 31 23 32 85 33 24 34
REMARK SMILES IDX 25 35 26 36 79 37 27 38 84 39 78 40 80 41 28 42 83 43 77 44
REMARK SMILES IDX 76 45 29 47 63 48 42 49 62 50 43 51 46 52 61 53 81 54 44 55
REMARK SMILES IDX 45 56 60 58 82 59 47 60 30 61 31 62 40 63 32 64 33 65 39 66
REMARK SMILES IDX 41 67 34 68 35 69 36 70 37 71 38 72 64 73 65 74 74 75 66 76
REMARK SMILES IDX 67 77 73 78 75 79 68 80 69 81 70 82 71 83 72 84 48 85 49 86
REMARK SMILES IDX 58 87 50 88 51 89 57 90 59 91 52 92 53 93 54 94 55 95 56 96
REMARK H PARENT 13 7 18 27 80 46 46 57
REMARK Flexibility Score: inf
ROOT
ATOM      1  C   UNL A   1      37.191  23.643  25.268  1.00  0.00     0.023 C 
ENDROOT
BRANCH   1   2
ATOM      2  C   UNL A   1      37.539  22.194  24.919  1.00  0.00     0.023 C 
BRANCH   2   3
ATOM      3  C   UNL A   1      36.940  21.162  25.870  1.00  0.00     0.116 C 
BRANCH   3   4
ATOM      4  N   UNL A   1      35.952  20.327  25.210  1.00  0.00    -0.352 N 
ATOM      5  C   UNL A   1      34.672  20.455  24.794  1.00  0.00     0.251 C 
ATOM      6  O   UNL A   1      34.189  19.451  24.262  1.00  0.00    -0.270 OA
ATOM      7  H   UNL A   1      36.310  19.431  25.013  1.00  0.00     0.163 HD
BRANCH   5   8
ATOM      8  C   UNL A   1      33.837  21.687  24.927  1.00  0.00     0.067 C 
ATOM      9  C   UNL A   1      33.236  27.285  22.373  1.00  0.00     0.044 C 
ATOM     10  C   UNL A   1      32.866  26.136  23.264  1.00  0.00    -0.049 A 
ATOM     11  C   UNL A   1      31.801  26.240  24.167  1.00  0.00     0.028 A 
ATOM     12  C   UNL A   1      33.602  24.943  23.211  1.00  0.00     0.015 A 
ATOM     13  C   UNL A   1      31.473  25.166  24.996  1.00  0.00     0.084 A 
ATOM     14  C   UNL A   1      33.279  23.867  24.047  1.00  0.00     0.019 A 
ATOM     15  Cl  UNL A   1      30.146  25.344  26.087  1.00  0.00    -0.080 Cl
ATOM     16  C   UNL A   1      32.216  23.983  24.944  1.00  0.00     0.146 A 
ATOM     17  C   UNL A   1      34.021  22.615  23.969  1.00  0.00     0.025 C 
ATOM     18  O   UNL A   1      31.849  22.940  25.751  1.00  0.00    -0.474 OA
ATOM     19  C   UNL A   1      32.879  21.957  26.052  1.00  0.00     0.314 C 
BRANCH  19  20
ATOM     20  C   UNL A   1      33.593  22.351  27.359  1.00  0.00     0.429 C 
ATOM     21  F   UNL A   1      34.262  21.290  27.874  1.00  0.00    -0.167 F 
ATOM     22  F   UNL A   1      34.509  23.331  27.175  1.00  0.00    -0.167 F 
ATOM     23  F   UNL A   1      32.734  22.788  28.308  1.00  0.00    -0.167 F 
ENDBRANCH  19  20
ENDBRANCH   5   8
ENDBRANCH   3   4
ENDBRANCH   2   3
ENDBRANCH   1   2
BRANCH   1  24
ATOM     24  C   UNL A   1      38.112  24.313  26.287  1.00  0.00     0.116 C 
BRANCH  24  25
ATOM     25  N   UNL A   1      39.517  23.974  26.119  1.00  0.00    -0.352 N 
ATOM     26  C   UNL A   1      40.610  24.574  26.700  1.00  0.00     0.251 C 
ATOM     27  H   UNL A   1      39.710  23.221  25.515  1.00  0.00     0.163 HD
ATOM     28  O   UNL A   1      41.746  24.225  26.401  1.00  0.00    -0.269 OA
BRANCH  26  29
ATOM     29  C   UNL A   1      40.387  25.675  27.654  1.00  0.00     0.039 A 
ATOM     30  C   UNL A   1      39.451  25.500  28.675  1.00  0.00     0.014 A 
ATOM     31  C   UNL A   1      41.155  26.839  27.578  1.00  0.00     0.014 A 
ATOM     32  C   UNL A   1      39.334  26.472  29.668  1.00  0.00     0.010 A 
ATOM     33  C   UNL A   1      41.078  27.779  28.600  1.00  0.00     0.010 A 
ATOM     34  C   UNL A   1      40.171  27.600  29.656  1.00  0.00    -0.014 A 
BRANCH  34  35
ATOM     35  C   UNL A   1      40.104  28.609  30.739  1.00  0.00     0.031 A 
ATOM     36  C   UNL A   1      41.021  28.495  31.923  1.00  0.00     0.074 A 
ATOM     37  C   UNL A   1      39.189  29.596  30.675  1.00  0.00     0.049 A 
ATOM     38  N   UNL A   1      41.084  29.245  32.990  1.00  0.00    -0.248 NA
ATOM     39  C   UNL A   1      41.975  27.375  31.915  1.00  0.00     0.031 C 
ATOM     40  C   UNL A   1      38.219  29.783  29.594  1.00  0.00     0.029 A 
ATOM     41  N   UNL A   1      38.926  30.629  31.538  1.00  0.00    -0.354 N 
ATOM     42  C   UNL A   1      42.079  28.687  33.784  1.00  0.00     0.074 A 
ATOM     43  C   UNL A   1      42.552  27.504  33.101  1.00  0.00     0.031 C 
ATOM     44  C   UNL A   1      37.489  30.883  29.843  1.00  0.00     0.029 A 
ATOM     45  C   UNL A   1      37.920  31.462  31.112  1.00  0.00     0.049 A 
ATOM     46  H   UNL A   1      39.413  30.761  32.383  1.00  0.00     0.167 HD
ATOM     47  C   UNL A   1      42.571  29.136  34.961  1.00  0.00     0.037 A 
ATOM     48  C   UNL A   1      37.408  32.572  31.680  1.00  0.00     0.037 A 
ATOM     49  C   UNL A   1      42.117  30.330  35.621  1.00  0.00     0.049 A 
ATOM     50  C   UNL A   1      37.971  33.052  32.989  1.00  0.00     0.074 A 
ATOM     51  C   UNL A   1      42.582  30.896  36.795  1.00  0.00     0.029 A 
ATOM     52  N   UNL A   1      41.095  31.147  35.160  1.00  0.00    -0.354 N 
ATOM     53  N   UNL A   1      38.938  32.532  33.707  1.00  0.00    -0.248 NA
ATOM     54  C   UNL A   1      37.374  34.264  33.566  1.00  0.00     0.031 C 
ATOM     55  C   UNL A   1      41.826  32.044  37.055  1.00  0.00     0.029 A 
ATOM     56  C   UNL A   1      40.908  32.208  36.028  1.00  0.00     0.049 A 
ATOM     57  H   UNL A   1      40.580  30.995  34.334  1.00  0.00     0.167 HD
ATOM     58  C   UNL A   1      39.076  33.362  34.814  1.00  0.00     0.074 A 
ATOM     59  C   UNL A   1      38.101  34.424  34.665  1.00  0.00     0.031 C 
ATOM     60  C   UNL A   1      39.931  33.253  35.860  1.00  0.00     0.037 A 
BRANCH  47  61
ATOM     61  C   UNL A   1      43.674  28.339  35.594  1.00  0.00     0.058 A 
ATOM     62  C   UNL A   1      43.393  27.277  36.469  1.00  0.00     0.135 A 
ATOM     63  C   UNL A   1      45.020  28.626  35.318  1.00  0.00     0.135 A 
ATOM     64  F   UNL A   1      42.123  26.976  36.780  1.00  0.00    -0.206 F 
ATOM     65  C   UNL A   1      44.410  26.545  37.071  1.00  0.00     0.059 A 
ATOM     66  C   UNL A   1      46.053  27.890  35.893  1.00  0.00     0.059 A 
ATOM     67  F   UNL A   1      45.341  29.634  34.492  1.00  0.00    -0.206 F 
ATOM     68  C   UNL A   1      45.738  26.861  36.780  1.00  0.00     0.060 A 
BRANCH  68  69
ATOM     69  S   UNL A   1      47.045  25.905  37.574  1.00  0.00     0.124 S 
ATOM     70  O   UNL A   1      48.211  26.300  36.789  1.00  0.00    -0.237 OA
ATOM     71  O   UNL A   1      47.008  26.400  38.946  1.00  0.00    -0.237 OA
ATOM     72  O   UNL A   1      46.610  24.523  37.398  1.00  0.00    -0.744 OA
ENDBRANCH  68  69
ENDBRANCH  47  61
BRANCH  48  73
ATOM     73  C   UNL A   1      36.330  33.326  30.990  1.00  0.00     0.058 A 
ATOM     74  C   UNL A   1      35.010  33.276  31.462  1.00  0.00     0.135 A 
ATOM     75  C   UNL A   1      36.597  34.127  29.871  1.00  0.00     0.135 A 
ATOM     76  F   UNL A   1      34.708  32.517  32.526  1.00  0.00    -0.206 F 
ATOM     77  C   UNL A   1      33.990  33.991  30.845  1.00  0.00     0.059 A 
ATOM     78  C   UNL A   1      35.596  34.865  29.246  1.00  0.00     0.059 A 
ATOM     79  F   UNL A   1      37.848  34.218  29.391  1.00  0.00    -0.206 F 
ATOM     80  C   UNL A   1      34.293  34.786  29.738  1.00  0.00     0.060 A 
BRANCH  80  81
ATOM     81  S   UNL A   1      32.971  35.759  28.983  1.00  0.00     0.124 S 
ATOM     82  O   UNL A   1      32.349  34.776  28.104  1.00  0.00    -0.237 OA
ATOM     83  O   UNL A   1      32.187  36.164  30.145  1.00  0.00    -0.237 OA
ATOM     84  O   UNL A   1      33.690  36.839  28.315  1.00  0.00    -0.744 OA
ENDBRANCH  80  81
ENDBRANCH  48  73
BRANCH  60  85
ATOM     85  C   UNL A   1      39.858  34.308  36.924  1.00  0.00     0.058 A 
ATOM     86  C   UNL A   1      40.537  35.528  36.786  1.00  0.00     0.135 A 
ATOM     87  C   UNL A   1      39.042  34.129  38.052  1.00  0.00     0.135 A 
ATOM     88  F   UNL A   1      41.334  35.742  35.728  1.00  0.00    -0.206 F 
ATOM     89  C   UNL A   1      40.411  36.537  37.735  1.00  0.00     0.059 A 
ATOM     90  C   UNL A   1      38.887  35.132  39.004  1.00  0.00     0.059 A 
ATOM     91  F   UNL A   1      38.368  32.980  38.223  1.00  0.00    -0.206 F 
ATOM     92  C   UNL A   1      39.580  36.330  38.838  1.00  0.00     0.060 A 
BRANCH  92  93
ATOM     93  S   UNL A   1      39.380  37.671  40.032  1.00  0.00     0.124 S 
ATOM     94  O   UNL A   1      39.141  36.931  41.266  1.00  0.00    -0.237 OA
ATOM     95  O   UNL A   1      40.663  38.361  39.944  1.00  0.00    -0.237 OA
ATOM     96  O   UNL A   1      38.237  38.417  39.514  1.00  0.00    -0.744 OA
ENDBRANCH  92  93
ENDBRANCH  60  85
ENDBRANCH  34  35
ENDBRANCH  26  29
ENDBRANCH  24  25
ENDBRANCH   1  24
TORSDOF 15
ENDMDL
