MODEL 1
REMARK VINA RESULT:     -12.4      0.000      0.000
REMARK SMILES Cc1coc2c(C)c3oc(=O)c(CCC(=O)N[C@H](CC(C)C)C(=O)NCCCCNC(=O)c4ccc(-c5c6nc(c(-c7c(F)cc(S(=O)(=O)[O-])cc7F)c7ccc([nH]7)c(-c7c(F)cc(S(=O)(=O)[O-])cc7F)c7nc(c(-c8c(F)cc(S(=O)(=O)[O-])cc8F)c8ccc5[nH]8)C=C7)C=C6)cc4)c(C)c3cc12
REMARK SMILES IDX 27 1 26 2 25 3 23 4 24 5 18 7 17 8 15 9 16 10 14 12 13 13
REMARK SMILES IDX 12 14 1 15 2 16 3 17 103 18 4 19 5 20 102 21 6 22 101 23
REMARK SMILES IDX 7 24 8 25 99 26 9 27 100 28 10 29 11 30 19 31 20 32 21 33
REMARK SMILES IDX 22 34 28 35 29 36 30 37 31 38 32 40 33 41 34 42 98 43 35 44
REMARK SMILES IDX 97 45 36 46 37 47 38 48 91 49 39 50 96 51 90 52 92 53 40 54
REMARK SMILES IDX 95 55 89 56 88 57 41 59 75 60 54 61 74 62 55 63 58 64 73 65
REMARK SMILES IDX 93 66 56 67 57 68 72 70 94 71 59 72 42 73 43 74 52 75 44 76
REMARK SMILES IDX 45 77 51 78 53 79 46 80 47 81 48 82 49 83 50 84 76 85 77 86
REMARK SMILES IDX 86 87 78 88 79 89 85 90 87 91 80 92 81 93 82 94 83 95 84 96
REMARK SMILES IDX 60 97 61 98 70 99 62 100 63 101 69 102 71 103 64 104 65 105
REMARK SMILES IDX 66 106 67 107 68 108
REMARK H PARENT 25 6 17 11 30 39 92 58 58 69
REMARK Flexibility Score: inf
ROOT
ATOM      1  C   UNL A   1      40.004  22.129  27.032  1.00  0.00     0.023 C 
ENDROOT
BRANCH   1   2
ATOM      2  C   UNL A   1      38.628  22.443  26.426  1.00  0.00     0.116 C 
BRANCH   2   3
ATOM      3  N   UNL A   1      38.468  21.818  25.130  1.00  0.00    -0.354 N 
ATOM      4  C   UNL A   1      37.616  20.762  24.956  1.00  0.00     0.242 C 
ATOM      5  O   UNL A   1      38.104  19.638  24.824  1.00  0.00    -0.273 OA
ATOM      6  H   UNL A   1      38.979  22.159  24.362  1.00  0.00     0.163 HD
BRANCH   4   7
ATOM      7  C   UNL A   1      36.101  20.948  25.139  1.00  0.00     0.171 C 
BRANCH   7   8
ATOM      8  N   UNL A   1      35.303  19.799  24.713  1.00  0.00    -0.344 N 
ATOM      9  C   UNL A   1      33.998  19.499  24.969  1.00  0.00     0.220 C 
ATOM     10  O   UNL A   1      33.561  18.417  24.575  1.00  0.00    -0.275 OA
ATOM     11  H   UNL A   1      35.781  19.141  24.158  1.00  0.00     0.164 HD
BRANCH   9  12
ATOM     12  C   UNL A   1      33.107  20.472  25.719  1.00  0.00     0.105 C 
BRANCH  12  13
ATOM     13  C   UNL A   1      31.765  20.808  25.043  1.00  0.00     0.053 C 
BRANCH  13  14
ATOM     14  C   UNL A   1      31.632  22.245  24.567  1.00  0.00     0.042 A 
ATOM     15  C   UNL A   1      31.613  28.490  27.543  1.00  0.00     0.048 C 
ATOM     16  C   UNL A   1      31.934  28.223  26.121  1.00  0.00    -0.005 A 
ATOM     17  C   UNL A   1      32.538  29.076  25.222  1.00  0.00     0.199 A 
ATOM     18  C   UNL A   1      31.739  27.001  25.410  1.00  0.00     0.024 A 
ATOM     19  O   UNL A   1      32.777  28.451  24.041  1.00  0.00    -0.464 OA
ATOM     20  C   UNL A   1      32.316  27.172  24.160  1.00  0.00     0.140 A 
ATOM     21  C   UNL A   1      31.220  25.741  25.749  1.00  0.00     0.024 A 
ATOM     22  C   UNL A   1      32.462  26.158  23.205  1.00  0.00     0.036 A 
ATOM     23  C   UNL A   1      31.405  24.654  24.880  1.00  0.00     0.022 A 
ATOM     24  C   UNL A   1      33.236  26.380  21.945  1.00  0.00     0.052 C 
ATOM     25  C   UNL A   1      31.987  24.892  23.628  1.00  0.00     0.145 A 
ATOM     26  C   UNL A   1      31.218  23.262  25.352  1.00  0.00    -0.030 A 
ATOM     27  O   UNL A   1      32.208  23.802  22.756  1.00  0.00    -0.422 OA
ATOM     28  C   UNL A   1      30.739  23.079  26.774  1.00  0.00     0.046 C 
ATOM     29  C   UNL A   1      32.026  22.486  23.149  1.00  0.00     0.339 A 
ATOM     30  O   UNL A   1      32.236  21.560  22.371  1.00  0.00    -0.246 OA
ENDBRANCH  13  14
ENDBRANCH  12  13
ENDBRANCH   9  12
ENDBRANCH   7   8
BRANCH   7  31
ATOM     31  C   UNL A   1      35.684  22.265  24.472  1.00  0.00     0.038 C 
BRANCH  31  32
ATOM     32  C   UNL A   1      34.872  23.225  25.367  1.00  0.00    -0.015 C 
ATOM     33  C   UNL A   1      35.065  22.978  26.867  1.00  0.00     0.007 C 
ATOM     34  C   UNL A   1      35.278  24.665  25.052  1.00  0.00     0.007 C 
ENDBRANCH  31  32
ENDBRANCH   7  31
ENDBRANCH   4   7
ENDBRANCH   2   3
ENDBRANCH   1   2
BRANCH   1  35
ATOM     35  C   UNL A   1      40.617  20.778  26.629  1.00  0.00     0.023 C 
BRANCH  35  36
ATOM     36  C   UNL A   1      41.960  20.491  27.280  1.00  0.00     0.116 C 
BRANCH  36  37
ATOM     37  N   UNL A   1      43.021  20.318  26.294  1.00  0.00    -0.352 N 
ATOM     38  C   UNL A   1      43.700  21.290  25.587  1.00  0.00     0.251 C 
ATOM     39  H   UNL A   1      43.286  19.388  26.108  1.00  0.00     0.163 HD
ATOM     40  O   UNL A   1      44.328  21.003  24.584  1.00  0.00    -0.269 OA
BRANCH  38  41
ATOM     41  C   UNL A   1      43.641  22.680  26.072  1.00  0.00     0.039 A 
ATOM     42  C   UNL A   1      42.873  23.633  25.401  1.00  0.00     0.014 A 
ATOM     43  C   UNL A   1      44.350  23.012  27.225  1.00  0.00     0.014 A 
ATOM     44  C   UNL A   1      42.762  24.909  25.945  1.00  0.00     0.010 A 
ATOM     45  C   UNL A   1      44.146  24.233  27.821  1.00  0.00     0.010 A 
ATOM     46  C   UNL A   1      43.382  25.197  27.170  1.00  0.00    -0.014 A 
BRANCH  46  47
ATOM     47  C   UNL A   1      43.142  26.474  27.838  1.00  0.00     0.031 A 
ATOM     48  C   UNL A   1      44.143  27.539  27.541  1.00  0.00     0.074 A 
ATOM     49  C   UNL A   1      42.000  26.751  28.502  1.00  0.00     0.049 A 
ATOM     50  N   UNL A   1      44.981  28.084  28.359  1.00  0.00    -0.248 NA
ATOM     51  C   UNL A   1      44.332  27.958  26.141  1.00  0.00     0.031 C 
ATOM     52  C   UNL A   1      40.792  25.929  28.645  1.00  0.00     0.029 A 
ATOM     53  N   UNL A   1      41.642  27.906  29.123  1.00  0.00    -0.354 N 
ATOM     54  C   UNL A   1      45.662  29.061  27.636  1.00  0.00     0.074 A 
ATOM     55  C   UNL A   1      45.340  28.827  26.252  1.00  0.00     0.031 C 
ATOM     56  C   UNL A   1      39.772  26.694  29.091  1.00  0.00     0.029 A 
ATOM     57  C   UNL A   1      40.289  28.007  29.430  1.00  0.00     0.049 A 
ATOM     58  H   UNL A   1      42.290  28.616  29.339  1.00  0.00     0.167 HD
ATOM     59  C   UNL A   1      46.281  30.106  28.255  1.00  0.00     0.037 A 
ATOM     60  C   UNL A   1      39.644  29.101  29.909  1.00  0.00     0.037 A 
ATOM     61  C   UNL A   1      46.421  29.860  29.669  1.00  0.00     0.049 A 
ATOM     62  C   UNL A   1      40.682  29.964  30.536  1.00  0.00     0.074 A 
ATOM     63  C   UNL A   1      47.062  28.896  30.423  1.00  0.00     0.029 A 
ATOM     64  N   UNL A   1      45.515  30.454  30.517  1.00  0.00    -0.354 N 
ATOM     65  N   UNL A   1      41.357  29.620  31.601  1.00  0.00    -0.248 NA
ATOM     66  C   UNL A   1      41.307  30.982  29.705  1.00  0.00     0.031 C 
ATOM     67  C   UNL A   1      46.167  28.618  31.496  1.00  0.00     0.029 A 
ATOM     68  C   UNL A   1      45.076  29.481  31.380  1.00  0.00     0.049 A 
ATOM     69  H   UNL A   1      45.236  31.398  30.507  1.00  0.00     0.167 HD
ATOM     70  C   UNL A   1      42.654  30.046  31.353  1.00  0.00     0.074 A 
ATOM     71  C   UNL A   1      42.545  30.947  30.206  1.00  0.00     0.031 C 
ATOM     72  C   UNL A   1      43.732  29.416  31.911  1.00  0.00     0.037 A 
BRANCH  59  73
ATOM     73  C   UNL A   1      46.462  31.486  27.668  1.00  0.00     0.058 A 
ATOM     74  C   UNL A   1      47.766  32.000  27.496  1.00  0.00     0.135 A 
ATOM     75  C   UNL A   1      45.416  32.426  27.540  1.00  0.00     0.135 A 
ATOM     76  F   UNL A   1      48.837  31.195  27.593  1.00  0.00    -0.206 F 
ATOM     77  C   UNL A   1      48.015  33.358  27.298  1.00  0.00     0.059 A 
ATOM     78  C   UNL A   1      45.640  33.776  27.290  1.00  0.00     0.059 A 
ATOM     79  F   UNL A   1      44.136  32.099  27.749  1.00  0.00    -0.206 F 
ATOM     80  C   UNL A   1      46.943  34.241  27.216  1.00  0.00     0.060 A 
BRANCH  80  81
ATOM     81  S   UNL A   1      47.267  36.009  27.087  1.00  0.00     0.124 S 
ATOM     82  O   UNL A   1      48.289  36.192  28.111  1.00  0.00    -0.237 OA
ATOM     83  O   UNL A   1      47.715  36.133  25.704  1.00  0.00    -0.237 OA
ATOM     84  O   UNL A   1      45.968  36.609  27.378  1.00  0.00    -0.744 OA
ENDBRANCH  80  81
ENDBRANCH  59  73
BRANCH  60  85
ATOM     85  C   UNL A   1      38.285  29.589  29.549  1.00  0.00     0.058 A 
ATOM     86  C   UNL A   1      37.391  30.049  30.533  1.00  0.00     0.135 A 
ATOM     87  C   UNL A   1      37.936  29.883  28.213  1.00  0.00     0.135 A 
ATOM     88  F   UNL A   1      37.647  29.830  31.832  1.00  0.00    -0.206 F 
ATOM     89  C   UNL A   1      36.255  30.807  30.218  1.00  0.00     0.059 A 
ATOM     90  C   UNL A   1      36.805  30.625  27.875  1.00  0.00     0.059 A 
ATOM     91  F   UNL A   1      38.738  29.537  27.195  1.00  0.00    -0.206 F 
ATOM     92  C   UNL A   1      35.985  31.111  28.885  1.00  0.00     0.060 A 
BRANCH  92  93
ATOM     93  S   UNL A   1      34.633  32.245  28.483  1.00  0.00     0.124 S 
ATOM     94  O   UNL A   1      35.312  33.252  27.677  1.00  0.00    -0.237 OA
ATOM     95  O   UNL A   1      33.706  31.373  27.769  1.00  0.00    -0.237 OA
ATOM     96  O   UNL A   1      34.173  32.699  29.793  1.00  0.00    -0.744 OA
ENDBRANCH  92  93
ENDBRANCH  60  85
BRANCH  72  97
ATOM     97  C   UNL A   1      43.494  28.402  33.004  1.00  0.00     0.058 A 
ATOM     98  C   UNL A   1      43.214  28.728  34.344  1.00  0.00     0.135 A 
ATOM     99  C   UNL A   1      43.359  27.055  32.636  1.00  0.00     0.135 A 
ATOM    100  F   UNL A   1      43.218  30.000  34.760  1.00  0.00    -0.206 F 
ATOM    101  C   UNL A   1      42.848  27.757  35.280  1.00  0.00     0.059 A 
ATOM    102  C   UNL A   1      42.964  26.075  33.543  1.00  0.00     0.059 A 
ATOM    103  F   UNL A   1      43.550  26.685  31.359  1.00  0.00    -0.206 F 
ATOM    104  C   UNL A   1      42.719  26.432  34.867  1.00  0.00     0.060 A 
BRANCH 104 105
ATOM    105  S   UNL A   1      42.164  25.192  36.058  1.00  0.00     0.124 S 
ATOM    106  O   UNL A   1      42.504  23.944  35.384  1.00  0.00    -0.237 OA
ATOM    107  O   UNL A   1      42.959  25.512  37.240  1.00  0.00    -0.237 OA
ATOM    108  O   UNL A   1      40.733  25.461  36.189  1.00  0.00    -0.744 OA
ENDBRANCH 104 105
ENDBRANCH  72  97
ENDBRANCH  46  47
ENDBRANCH  38  41
ENDBRANCH  36  37
ENDBRANCH  35  36
ENDBRANCH   1  35
TORSDOF 20
ENDMDL
MODEL 2
REMARK VINA RESULT:     -12.2      1.911      2.764
REMARK SMILES Cc1coc2c(C)c3oc(=O)c(CCC(=O)N[C@H](CC(C)C)C(=O)NCCCCNC(=O)c4ccc(-c5c6nc(c(-c7c(F)cc(S(=O)(=O)[O-])cc7F)c7ccc([nH]7)c(-c7c(F)cc(S(=O)(=O)[O-])cc7F)c7nc(c(-c8c(F)cc(S(=O)(=O)[O-])cc8F)c8ccc5[nH]8)C=C7)C=C6)cc4)c(C)c3cc12
REMARK SMILES IDX 27 1 26 2 25 3 23 4 24 5 18 7 17 8 15 9 16 10 14 12 13 13
REMARK SMILES IDX 12 14 1 15 2 16 3 17 103 18 4 19 5 20 102 21 6 22 101 23
REMARK SMILES IDX 7 24 8 25 99 26 9 27 100 28 10 29 11 30 19 31 20 32 21 33
REMARK SMILES IDX 22 34 28 35 29 36 30 37 31 38 32 40 33 41 34 42 98 43 35 44
REMARK SMILES IDX 97 45 36 46 37 47 38 48 91 49 39 50 96 51 90 52 92 53 40 54
REMARK SMILES IDX 95 55 89 56 88 57 41 59 75 60 54 61 74 62 55 63 58 64 73 65
REMARK SMILES IDX 93 66 56 67 57 68 72 70 94 71 59 72 42 73 43 74 52 75 44 76
REMARK SMILES IDX 45 77 51 78 53 79 46 80 47 81 48 82 49 83 50 84 76 85 77 86
REMARK SMILES IDX 86 87 78 88 79 89 85 90 87 91 80 92 81 93 82 94 83 95 84 96
REMARK SMILES IDX 60 97 61 98 70 99 62 100 63 101 69 102 71 103 64 104 65 105
REMARK SMILES IDX 66 106 67 107 68 108
REMARK H PARENT 25 6 17 11 30 39 92 58 58 69
REMARK Flexibility Score: inf
ROOT
ATOM      1  C   UNL A   1      38.530  23.633  26.415  1.00  0.00     0.023 C 
ENDROOT
BRANCH   1   2
ATOM      2  C   UNL A   1      37.071  23.631  25.935  1.00  0.00     0.116 C 
BRANCH   2   3
ATOM      3  N   UNL A   1      36.987  23.833  24.504  1.00  0.00    -0.354 N 
ATOM      4  C   UNL A   1      36.238  23.003  23.717  1.00  0.00     0.242 C 
ATOM      5  O   UNL A   1      36.827  22.184  23.009  1.00  0.00    -0.273 OA
ATOM      6  H   UNL A   1      37.476  24.581  24.092  1.00  0.00     0.163 HD
BRANCH   4   7
ATOM      7  C   UNL A   1      34.709  22.953  23.876  1.00  0.00     0.171 C 
BRANCH   7   8
ATOM      8  N   UNL A   1      34.206  21.689  24.413  1.00  0.00    -0.344 N 
ATOM      9  C   UNL A   1      33.832  21.368  25.684  1.00  0.00     0.220 C 
ATOM     10  O   UNL A   1      33.521  20.199  25.922  1.00  0.00    -0.275 OA
ATOM     11  H   UNL A   1      34.127  20.959  23.757  1.00  0.00     0.164 HD
BRANCH   9  12
ATOM     12  C   UNL A   1      33.798  22.421  26.777  1.00  0.00     0.105 C 
BRANCH  12  13
ATOM     13  C   UNL A   1      32.409  22.735  27.360  1.00  0.00     0.053 C 
BRANCH  13  14
ATOM     14  C   UNL A   1      31.756  23.993  26.814  1.00  0.00     0.042 A 
ATOM     15  C   UNL A   1      33.604  29.097  22.526  1.00  0.00     0.048 C 
ATOM     16  C   UNL A   1      32.209  28.707  22.837  1.00  0.00    -0.005 A 
ATOM     17  C   UNL A   1      31.065  29.069  22.157  1.00  0.00     0.199 A 
ATOM     18  C   UNL A   1      31.772  27.823  23.869  1.00  0.00     0.024 A 
ATOM     19  O   UNL A   1      29.978  28.429  22.659  1.00  0.00    -0.464 OA
ATOM     20  C   UNL A   1      30.409  27.644  23.688  1.00  0.00     0.140 A 
ATOM     21  C   UNL A   1      32.426  27.085  24.869  1.00  0.00     0.024 A 
ATOM     22  C   UNL A   1      29.623  26.737  24.410  1.00  0.00     0.036 A 
ATOM     23  C   UNL A   1      31.724  26.095  25.576  1.00  0.00     0.022 A 
ATOM     24  C   UNL A   1      28.193  26.486  24.050  1.00  0.00     0.052 C 
ATOM     25  C   UNL A   1      30.347  25.968  25.354  1.00  0.00     0.145 A 
ATOM     26  C   UNL A   1      32.444  25.057  26.349  1.00  0.00    -0.030 A 
ATOM     27  O   UNL A   1      29.634  24.955  26.035  1.00  0.00    -0.422 OA
ATOM     28  C   UNL A   1      33.950  25.169  26.410  1.00  0.00     0.046 C 
ATOM     29  C   UNL A   1      30.264  23.977  26.787  1.00  0.00     0.339 A 
ATOM     30  O   UNL A   1      29.617  23.104  27.358  1.00  0.00    -0.246 OA
ENDBRANCH  13  14
ENDBRANCH  12  13
ENDBRANCH   9  12
ENDBRANCH   7   8
BRANCH   7  31
ATOM     31  C   UNL A   1      34.062  23.355  22.544  1.00  0.00     0.038 C 
BRANCH  31  32
ATOM     32  C   UNL A   1      32.912  24.377  22.656  1.00  0.00    -0.015 C 
ATOM     33  C   UNL A   1      32.730  25.239  21.402  1.00  0.00     0.007 C 
ATOM     34  C   UNL A   1      31.605  23.629  22.929  1.00  0.00     0.007 C 
ENDBRANCH  31  32
ENDBRANCH   7  31
ENDBRANCH   4   7
ENDBRANCH   2   3
ENDBRANCH   1   2
BRANCH   1  35
ATOM     35  C   UNL A   1      39.199  22.252  26.522  1.00  0.00     0.023 C 
BRANCH  35  36
ATOM     36  C   UNL A   1      40.539  22.269  27.239  1.00  0.00     0.116 C 
BRANCH  36  37
ATOM     37  N   UNL A   1      41.656  22.121  26.312  1.00  0.00    -0.352 N 
ATOM     38  C   UNL A   1      42.415  23.111  25.721  1.00  0.00     0.251 C 
ATOM     39  H   UNL A   1      41.900  21.197  26.079  1.00  0.00     0.163 HD
ATOM     40  O   UNL A   1      43.098  22.868  24.742  1.00  0.00    -0.269 OA
BRANCH  38  41
ATOM     41  C   UNL A   1      42.373  24.466  26.298  1.00  0.00     0.039 A 
ATOM     42  C   UNL A   1      41.610  25.469  25.697  1.00  0.00     0.014 A 
ATOM     43  C   UNL A   1      43.094  24.714  27.465  1.00  0.00     0.014 A 
ATOM     44  C   UNL A   1      41.515  26.707  26.326  1.00  0.00     0.010 A 
ATOM     45  C   UNL A   1      42.906  25.894  28.142  1.00  0.00     0.010 A 
ATOM     46  C   UNL A   1      42.147  26.907  27.563  1.00  0.00    -0.014 A 
BRANCH  46  47
ATOM     47  C   UNL A   1      41.924  28.139  28.316  1.00  0.00     0.031 A 
ATOM     48  C   UNL A   1      42.983  29.177  28.155  1.00  0.00     0.074 A 
ATOM     49  C   UNL A   1      40.760  28.416  28.941  1.00  0.00     0.049 A 
ATOM     50  N   UNL A   1      43.797  29.619  29.055  1.00  0.00    -0.248 NA
ATOM     51  C   UNL A   1      43.265  29.692  26.804  1.00  0.00     0.031 C 
ATOM     52  C   UNL A   1      39.513  27.642  28.957  1.00  0.00     0.029 A 
ATOM     53  N   UNL A   1      40.417  29.535  29.632  1.00  0.00    -0.354 N 
ATOM     54  C   UNL A   1      44.557  30.616  28.447  1.00  0.00     0.074 A 
ATOM     55  C   UNL A   1      44.301  30.503  27.034  1.00  0.00     0.031 C 
ATOM     56  C   UNL A   1      38.503  28.416  29.409  1.00  0.00     0.029 A 
ATOM     57  C   UNL A   1      39.055  29.674  29.876  1.00  0.00     0.049 A 
ATOM     58  H   UNL A   1      41.081  30.196  29.935  1.00  0.00     0.167 HD
ATOM     59  C   UNL A   1      45.183  31.581  29.177  1.00  0.00     0.037 A 
ATOM     60  C   UNL A   1      38.431  30.756  30.406  1.00  0.00     0.037 A 
ATOM     61  C   UNL A   1      45.236  31.222  30.572  1.00  0.00     0.049 A 
ATOM     62  C   UNL A   1      39.467  31.521  31.151  1.00  0.00     0.074 A 
ATOM     63  C   UNL A   1      45.795  30.175  31.279  1.00  0.00     0.029 A 
ATOM     64  N   UNL A   1      44.311  31.790  31.417  1.00  0.00    -0.354 N 
ATOM     65  N   UNL A   1      40.069  31.066  32.218  1.00  0.00    -0.248 NA
ATOM     66  C   UNL A   1      40.178  32.570  30.435  1.00  0.00     0.031 C 
ATOM     67  C   UNL A   1      44.832  29.857  32.281  1.00  0.00     0.029 A 
ATOM     68  C   UNL A   1      43.786  30.775  32.177  1.00  0.00     0.049 A 
ATOM     69  H   UNL A   1      44.072  32.744  31.467  1.00  0.00     0.167 HD
ATOM     70  C   UNL A   1      41.394  31.450  32.072  1.00  0.00     0.074 A 
ATOM     71  C   UNL A   1      41.385  32.440  30.995  1.00  0.00     0.031 C 
ATOM     72  C   UNL A   1      42.413  30.732  32.633  1.00  0.00     0.037 A 
BRANCH  59  73
ATOM     73  C   UNL A   1      45.453  32.993  28.710  1.00  0.00     0.058 A 
ATOM     74  C   UNL A   1      46.772  33.497  28.754  1.00  0.00     0.135 A 
ATOM     75  C   UNL A   1      44.441  33.954  28.498  1.00  0.00     0.135 A 
ATOM     76  F   UNL A   1      47.813  32.672  28.948  1.00  0.00    -0.206 F 
ATOM     77  C   UNL A   1      47.054  34.861  28.680  1.00  0.00     0.059 A 
ATOM     78  C   UNL A   1      44.707  35.314  28.369  1.00  0.00     0.059 A 
ATOM     79  F   UNL A   1      43.142  33.634  28.506  1.00  0.00    -0.206 F 
ATOM     80  C   UNL A   1      46.010  35.763  28.507  1.00  0.00     0.060 A 
BRANCH  80  81
ATOM     81  S   UNL A   1      46.359  37.530  28.537  1.00  0.00     0.124 S 
ATOM     82  O   UNL A   1      45.615  37.993  27.371  1.00  0.00    -0.237 OA
ATOM     83  O   UNL A   1      45.821  37.921  29.836  1.00  0.00    -0.237 OA
ATOM     84  O   UNL A   1      47.812  37.587  28.422  1.00  0.00    -0.744 OA
ENDBRANCH  80  81
ENDBRANCH  59  73
BRANCH  60  85
ATOM     85  C   UNL A   1      37.114  31.332  30.016  1.00  0.00     0.058 A 
ATOM     86  C   UNL A   1      36.290  31.971  30.960  1.00  0.00     0.135 A 
ATOM     87  C   UNL A   1      36.763  31.522  28.663  1.00  0.00     0.135 A 
ATOM     88  F   UNL A   1      36.555  31.861  32.271  1.00  0.00    -0.206 F 
ATOM     89  C   UNL A   1      35.222  32.797  30.586  1.00  0.00     0.059 A 
ATOM     90  C   UNL A   1      35.699  32.330  28.266  1.00  0.00     0.059 A 
ATOM     91  F   UNL A   1      37.506  31.001  27.675  1.00  0.00    -0.206 F 
ATOM     92  C   UNL A   1      34.950  32.990  29.232  1.00  0.00     0.060 A 
BRANCH  92  93
ATOM     93  S   UNL A   1      33.700  34.200  28.735  1.00  0.00     0.124 S 
ATOM     94  O   UNL A   1      34.514  35.236  28.109  1.00  0.00    -0.237 OA
ATOM     95  O   UNL A   1      32.858  33.418  27.836  1.00  0.00    -0.237 OA
ATOM     96  O   UNL A   1      33.074  34.577  30.000  1.00  0.00    -0.744 OA
ENDBRANCH  92  93
ENDBRANCH  60  85
BRANCH  72  97
ATOM     97  C   UNL A   1      42.074  29.649  33.628  1.00  0.00     0.058 A 
ATOM     98  C   UNL A   1      41.827  28.305  33.288  1.00  0.00     0.135 A 
ATOM     99  C   UNL A   1      42.191  29.947  34.994  1.00  0.00     0.135 A 
ATOM    100  F   UNL A   1      41.801  27.911  32.010  1.00  0.00    -0.206 F 
ATOM    101  C   UNL A   1      41.672  27.313  34.260  1.00  0.00     0.059 A 
ATOM    102  C   UNL A   1      42.073  28.970  35.979  1.00  0.00     0.059 A 
ATOM    103  F   UNL A   1      42.489  31.197  35.385  1.00  0.00    -0.206 F 
ATOM    104  C   UNL A   1      41.804  27.655  35.605  1.00  0.00     0.060 A 
BRANCH 104 105
ATOM    105  S   UNL A   1      41.687  26.356  36.855  1.00  0.00     0.124 S 
ATOM    106  O   UNL A   1      42.856  26.625  37.687  1.00  0.00    -0.237 OA
ATOM    107  O   UNL A   1      40.393  26.628  37.473  1.00  0.00    -0.237 OA
ATOM    108  O   UNL A   1      41.748  25.123  36.073  1.00  0.00    -0.744 OA
ENDBRANCH 104 105
ENDBRANCH  72  97
ENDBRANCH  46  47
ENDBRANCH  38  41
ENDBRANCH  36  37
ENDBRANCH  35  36
ENDBRANCH   1  35
TORSDOF 20
ENDMDL
MODEL 3
REMARK VINA RESULT:     -12.2      2.793      9.217
REMARK SMILES Cc1coc2c(C)c3oc(=O)c(CCC(=O)N[C@H](CC(C)C)C(=O)NCCCCNC(=O)c4ccc(-c5c6nc(c(-c7c(F)cc(S(=O)(=O)[O-])cc7F)c7ccc([nH]7)c(-c7c(F)cc(S(=O)(=O)[O-])cc7F)c7nc(c(-c8c(F)cc(S(=O)(=O)[O-])cc8F)c8ccc5[nH]8)C=C7)C=C6)cc4)c(C)c3cc12
REMARK SMILES IDX 27 1 26 2 25 3 23 4 24 5 18 7 17 8 15 9 16 10 14 12 13 13
REMARK SMILES IDX 12 14 1 15 2 16 3 17 103 18 4 19 5 20 102 21 6 22 101 23
REMARK SMILES IDX 7 24 8 25 99 26 9 27 100 28 10 29 11 30 19 31 20 32 21 33
REMARK SMILES IDX 22 34 28 35 29 36 30 37 31 38 32 40 33 41 34 42 98 43 35 44
REMARK SMILES IDX 97 45 36 46 37 47 38 48 91 49 39 50 96 51 90 52 92 53 40 54
REMARK SMILES IDX 95 55 89 56 88 57 41 59 75 60 54 61 74 62 55 63 58 64 73 65
REMARK SMILES IDX 93 66 56 67 57 68 72 70 94 71 59 72 42 73 43 74 52 75 44 76
REMARK SMILES IDX 45 77 51 78 53 79 46 80 47 81 48 82 49 83 50 84 76 85 77 86
REMARK SMILES IDX 86 87 78 88 79 89 85 90 87 91 80 92 81 93 82 94 83 95 84 96
REMARK SMILES IDX 60 97 61 98 70 99 62 100 63 101 69 102 71 103 64 104 65 105
REMARK SMILES IDX 66 106 67 107 68 108
REMARK H PARENT 25 6 17 11 30 39 92 58 58 69
REMARK Flexibility Score: inf
ROOT
ATOM      1  C   UNL A   1      31.830  30.320  26.024  1.00  0.00     0.023 C 
ENDROOT
BRANCH   1   2
ATOM      2  C   UNL A   1      31.872  29.642  24.647  1.00  0.00     0.116 C 
BRANCH   2   3
ATOM      3  N   UNL A   1      30.608  29.779  23.953  1.00  0.00    -0.354 N 
ATOM      4  C   UNL A   1      30.421  29.235  22.713  1.00  0.00     0.242 C 
ATOM      5  O   UNL A   1      30.405  29.993  21.742  1.00  0.00    -0.273 OA
ATOM      6  H   UNL A   1      29.872  30.272  24.383  1.00  0.00     0.163 HD
BRANCH   4   7
ATOM      7  C   UNL A   1      30.446  27.709  22.523  1.00  0.00     0.171 C 
BRANCH   7   8
ATOM      8  N   UNL A   1      29.440  26.993  23.308  1.00  0.00    -0.344 N 
ATOM      9  C   UNL A   1      29.532  26.445  24.552  1.00  0.00     0.220 C 
ATOM     10  O   UNL A   1      28.569  25.805  24.979  1.00  0.00    -0.275 OA
ATOM     11  H   UNL A   1      28.564  26.893  22.871  1.00  0.00     0.164 HD
BRANCH   9  12
ATOM     12  C   UNL A   1      30.786  26.616  25.390  1.00  0.00     0.105 C 
BRANCH  12  13
ATOM     13  C   UNL A   1      31.197  25.397  26.235  1.00  0.00     0.053 C 
BRANCH  13  14
ATOM     14  C   UNL A   1      32.366  24.600  25.683  1.00  0.00     0.042 A 
ATOM     15  C   UNL A   1      39.216  24.502  26.646  1.00  0.00     0.048 C 
ATOM     16  C   UNL A   1      38.412  23.375  26.116  1.00  0.00    -0.005 A 
ATOM     17  C   UNL A   1      38.798  22.058  25.984  1.00  0.00     0.199 A 
ATOM     18  C   UNL A   1      37.050  23.414  25.693  1.00  0.00     0.024 A 
ATOM     19  O   UNL A   1      37.761  21.286  25.570  1.00  0.00    -0.464 OA
ATOM     20  C   UNL A   1      36.682  22.106  25.418  1.00  0.00     0.140 A 
ATOM     21  C   UNL A   1      36.075  24.423  25.618  1.00  0.00     0.024 A 
ATOM     22  C   UNL A   1      35.380  21.695  25.104  1.00  0.00     0.036 A 
ATOM     23  C   UNL A   1      34.732  24.078  25.395  1.00  0.00     0.022 A 
ATOM     24  C   UNL A   1      35.029  20.246  24.976  1.00  0.00     0.052 C 
ATOM     25  C   UNL A   1      34.424  22.741  25.115  1.00  0.00     0.145 A 
ATOM     26  C   UNL A   1      33.643  25.040  25.681  1.00  0.00    -0.030 A 
ATOM     27  O   UNL A   1      33.073  22.375  24.919  1.00  0.00    -0.422 OA
ATOM     28  C   UNL A   1      34.051  26.423  26.136  1.00  0.00     0.046 C 
ATOM     29  C   UNL A   1      32.024  23.248  25.154  1.00  0.00     0.339 A 
ATOM     30  O   UNL A   1      30.860  22.897  24.985  1.00  0.00    -0.246 OA
ENDBRANCH  13  14
ENDBRANCH  12  13
ENDBRANCH   9  12
ENDBRANCH   7   8
BRANCH   7  31
ATOM     31  C   UNL A   1      31.877  27.208  22.757  1.00  0.00     0.038 C 
BRANCH  31  32
ATOM     32  C   UNL A   1      32.220  25.865  22.077  1.00  0.00    -0.015 C 
ATOM     33  C   UNL A   1      31.979  25.863  20.564  1.00  0.00     0.007 C 
ATOM     34  C   UNL A   1      33.690  25.535  22.338  1.00  0.00     0.007 C 
ENDBRANCH  31  32
ENDBRANCH   7  31
ENDBRANCH   4   7
ENDBRANCH   2   3
ENDBRANCH   1   2
BRANCH   1  35
ATOM     35  C   UNL A   1      32.756  29.717  27.093  1.00  0.00     0.023 C 
BRANCH  35  36
ATOM     36  C   UNL A   1      34.073  30.457  27.259  1.00  0.00     0.116 C 
BRANCH  36  37
ATOM     37  N   UNL A   1      34.011  31.452  28.324  1.00  0.00    -0.352 N 
ATOM     38  C   UNL A   1      34.902  31.656  29.358  1.00  0.00     0.251 C 
ATOM     39  H   UNL A   1      33.233  32.055  28.303  1.00  0.00     0.163 HD
ATOM     40  O   UNL A   1      34.577  32.298  30.341  1.00  0.00    -0.269 OA
BRANCH  38  41
ATOM     41  C   UNL A   1      36.251  31.073  29.247  1.00  0.00     0.039 A 
ATOM     42  C   UNL A   1      37.362  31.892  29.036  1.00  0.00     0.014 A 
ATOM     43  C   UNL A   1      36.390  29.693  29.380  1.00  0.00     0.014 A 
ATOM     44  C   UNL A   1      38.629  31.315  29.038  1.00  0.00     0.010 A 
ATOM     45  C   UNL A   1      37.645  29.145  29.497  1.00  0.00     0.010 A 
ATOM     46  C   UNL A   1      38.767  29.942  29.293  1.00  0.00    -0.014 A 
BRANCH  46  47
ATOM     47  C   UNL A   1      40.092  29.352  29.462  1.00  0.00     0.031 A 
ATOM     48  C   UNL A   1      40.529  29.180  30.879  1.00  0.00     0.074 A 
ATOM     49  C   UNL A   1      40.789  28.807  28.443  1.00  0.00     0.049 A 
ATOM     50  N   UNL A   1      41.503  29.778  31.481  1.00  0.00    -0.248 NA
ATOM     51  C   UNL A   1      39.708  28.347  31.773  1.00  0.00     0.031 C 
ATOM     52  C   UNL A   1      40.387  28.626  27.043  1.00  0.00     0.029 A 
ATOM     53  N   UNL A   1      42.001  28.194  28.480  1.00  0.00    -0.354 N 
ATOM     54  C   UNL A   1      41.555  29.249  32.769  1.00  0.00     0.074 A 
ATOM     55  C   UNL A   1      40.336  28.501  32.941  1.00  0.00     0.031 C 
ATOM     56  C   UNL A   1      41.222  27.751  26.440  1.00  0.00     0.029 A 
ATOM     57  C   UNL A   1      42.311  27.447  27.349  1.00  0.00     0.049 A 
ATOM     58  H   UNL A   1      42.613  28.274  29.247  1.00  0.00     0.167 HD
ATOM     59  C   UNL A   1      42.692  29.309  33.519  1.00  0.00     0.037 A 
ATOM     60  C   UNL A   1      43.377  26.622  27.186  1.00  0.00     0.037 A 
ATOM     61  C   UNL A   1      43.632  30.248  32.961  1.00  0.00     0.049 A 
ATOM     62  C   UNL A   1      44.402  27.056  28.174  1.00  0.00     0.074 A 
ATOM     63  C   UNL A   1      43.603  31.606  32.704  1.00  0.00     0.029 A 
ATOM     64  N   UNL A   1      44.670  29.749  32.208  1.00  0.00    -0.354 N 
ATOM     65  N   UNL A   1      45.006  28.213  28.123  1.00  0.00    -0.248 NA
ATOM     66  C   UNL A   1      44.397  26.413  29.480  1.00  0.00     0.031 C 
ATOM     67  C   UNL A   1      44.265  31.753  31.451  1.00  0.00     0.029 A 
ATOM     68  C   UNL A   1      44.726  30.496  31.058  1.00  0.00     0.049 A 
ATOM     69  H   UNL A   1      45.260  28.999  32.450  1.00  0.00     0.167 HD
ATOM     70  C   UNL A   1      45.076  28.637  29.443  1.00  0.00     0.074 A 
ATOM     71  C   UNL A   1      44.757  27.452  30.238  1.00  0.00     0.031 C 
ATOM     72  C   UNL A   1      45.105  29.965  29.766  1.00  0.00     0.037 A 
BRANCH  59  73
ATOM     73  C   UNL A   1      43.108  28.292  34.557  1.00  0.00     0.058 A 
ATOM     74  C   UNL A   1      43.399  28.723  35.870  1.00  0.00     0.135 A 
ATOM     75  C   UNL A   1      43.507  26.974  34.247  1.00  0.00     0.135 A 
ATOM     76  F   UNL A   1      43.062  29.958  36.276  1.00  0.00    -0.206 F 
ATOM     77  C   UNL A   1      44.110  27.935  36.776  1.00  0.00     0.059 A 
ATOM     78  C   UNL A   1      44.170  26.153  35.153  1.00  0.00     0.059 A 
ATOM     79  F   UNL A   1      43.362  26.456  33.021  1.00  0.00    -0.206 F 
ATOM     80  C   UNL A   1      44.508  26.657  36.398  1.00  0.00     0.060 A 
BRANCH  80  81
ATOM     81  S   UNL A   1      45.533  25.687  37.518  1.00  0.00     0.124 S 
ATOM     82  O   UNL A   1      44.524  24.949  38.269  1.00  0.00    -0.237 OA
ATOM     83  O   UNL A   1      46.339  24.905  36.588  1.00  0.00    -0.237 OA
ATOM     84  O   UNL A   1      46.261  26.704  38.271  1.00  0.00    -0.744 OA
ENDBRANCH  80  81
ENDBRANCH  59  73
BRANCH  60  85
ATOM     85  C   UNL A   1      43.413  25.304  26.496  1.00  0.00     0.058 A 
ATOM     86  C   UNL A   1      44.210  25.100  25.355  1.00  0.00     0.135 A 
ATOM     87  C   UNL A   1      42.895  24.139  27.102  1.00  0.00     0.135 A 
ATOM     88  F   UNL A   1      44.759  26.147  24.720  1.00  0.00    -0.206 F 
ATOM     89  C   UNL A   1      44.525  23.820  24.879  1.00  0.00     0.059 A 
ATOM     90  C   UNL A   1      43.185  22.856  26.640  1.00  0.00     0.059 A 
ATOM     91  F   UNL A   1      42.163  24.208  28.224  1.00  0.00    -0.206 F 
ATOM     92  C   UNL A   1      44.026  22.702  25.546  1.00  0.00     0.060 A 
BRANCH  92  93
ATOM     93  S   UNL A   1      44.580  21.050  25.057  1.00  0.00     0.124 S 
ATOM     94  O   UNL A   1      45.918  20.995  25.636  1.00  0.00    -0.237 OA
ATOM     95  O   UNL A   1      43.577  20.195  25.684  1.00  0.00    -0.237 OA
ATOM     96  O   UNL A   1      44.531  21.096  23.598  1.00  0.00    -0.744 OA
ENDBRANCH  92  93
ENDBRANCH  60  85
BRANCH  72  97
ATOM     97  C   UNL A   1      45.312  30.976  28.664  1.00  0.00     0.058 A 
ATOM     98  C   UNL A   1      44.275  31.544  27.901  1.00  0.00     0.135 A 
ATOM     99  C   UNL A   1      46.592  31.528  28.506  1.00  0.00     0.135 A 
ATOM    100  F   UNL A   1      43.006  31.150  28.060  1.00  0.00    -0.206 F 
ATOM    101  C   UNL A   1      44.505  32.588  27.002  1.00  0.00     0.059 A 
ATOM    102  C   UNL A   1      46.840  32.590  27.641  1.00  0.00     0.059 A 
ATOM    103  F   UNL A   1      47.615  31.075  29.251  1.00  0.00    -0.206 F 
ATOM    104  C   UNL A   1      45.792  33.110  26.883  1.00  0.00     0.060 A 
BRANCH 104 105
ATOM    105  S   UNL A   1      46.072  34.515  25.783  1.00  0.00     0.124 S 
ATOM    106  O   UNL A   1      45.713  35.646  26.632  1.00  0.00    -0.237 OA
ATOM    107  O   UNL A   1      47.489  34.387  25.462  1.00  0.00    -0.237 OA
ATOM    108  O   UNL A   1      45.163  34.260  24.667  1.00  0.00    -0.744 OA
ENDBRANCH 104 105
ENDBRANCH  72  97
ENDBRANCH  46  47
ENDBRANCH  38  41
ENDBRANCH  36  37
ENDBRANCH  35  36
ENDBRANCH   1  35
TORSDOF 20
ENDMDL
