MODEL 1
REMARK VINA RESULT:     -12.0      0.000      0.000
REMARK SMILES [NH3+][C@@H](CNc1ccc(C(=O)NCCCCNC(=O)c2ccc(-c3c4nc(c(-c5c(F)cc(S(=O)(=O)[O-])cc5F)c5ccc([nH]5)c(-c5c(F)cc(S(=O)(=O)[O-])cc5F)c5nc(c(-c6c(F)cc(S(=O)(=O)[O-])cc6F)c6ccc3[nH]6)C=C5)C=C4)cc2)c(F)c1F)c1ccccc1
REMARK SMILES IDX 13 1 12 2 11 3 9 4 10 5 8 7 5 8 6 9 87 10 7 11 85 12 88 13
REMARK SMILES IDX 86 14 4 15 3 17 2 18 1 19 89 23 90 24 94 25 91 26 93 27
REMARK SMILES IDX 92 28 14 29 15 30 16 31 17 32 18 34 19 35 20 36 84 37 21 38
REMARK SMILES IDX 83 39 22 40 23 41 24 42 77 43 25 44 82 45 76 46 78 47 26 48
REMARK SMILES IDX 81 49 75 50 74 51 27 53 61 54 40 55 60 56 41 57 44 58 59 59
REMARK SMILES IDX 79 60 42 61 43 62 58 64 80 65 45 66 28 67 29 68 38 69 30 70
REMARK SMILES IDX 31 71 37 72 39 73 32 74 33 75 34 76 35 77 36 78 62 79 63 80
REMARK SMILES IDX 72 81 64 82 65 83 71 84 73 85 66 86 67 87 68 88 69 89 70 90
REMARK SMILES IDX 46 91 47 92 56 93 48 94 49 95 55 96 57 97 50 98 51 99 52 100
REMARK SMILES IDX 53 101 54 102
REMARK H PARENT 11 6 4 16 1 20 1 21 1 22 16 33 78 52 44 63
REMARK Flexibility Score: inf
ROOT
ATOM      1  C   UNL A   1      38.502  23.091  26.175  1.00  0.00     0.023 C 
ENDROOT
BRANCH   1   2
ATOM      2  C   UNL A   1      37.489  22.261  25.391  1.00  0.00     0.116 C 
BRANCH   2   3
ATOM      3  N   UNL A   1      36.369  21.799  26.190  1.00  0.00    -0.352 N 
ATOM      4  C   UNL A   1      35.047  22.170  26.166  1.00  0.00     0.254 C 
ATOM      5  O   UNL A   1      34.263  21.642  26.954  1.00  0.00    -0.269 OA
ATOM      6  H   UNL A   1      36.593  21.109  26.855  1.00  0.00     0.163 HD
BRANCH   4   7
ATOM      7  C   UNL A   1      34.540  23.240  25.284  1.00  0.00     0.078 A 
ATOM      8  C   UNL A   1      33.670  25.416  23.690  1.00  0.00     0.074 A 
ATOM      9  C   UNL A   1      34.150  25.625  24.986  1.00  0.00     0.030 A 
ATOM     10  C   UNL A   1      33.569  24.086  23.248  1.00  0.00     0.182 A 
ATOM     11  C   UNL A   1      34.583  24.552  25.776  1.00  0.00     0.019 A 
ATOM     12  C   UNL A   1      33.977  23.011  24.035  1.00  0.00     0.173 A 
ATOM     13  F   UNL A   1      33.087  23.848  22.015  1.00  0.00    -0.201 F 
ATOM     14  F   UNL A   1      33.813  21.766  23.564  1.00  0.00    -0.203 F 
BRANCH   8  15
ATOM     15  N   UNL A   1      33.300  26.457  22.846  1.00  0.00    -0.376 N 
ATOM     16  H   UNL A   1      34.005  26.986  22.408  1.00  0.00     0.160 HD
BRANCH  15  17
ATOM     17  C   UNL A   1      31.900  26.796  22.583  1.00  0.00     0.183 C 
BRANCH  17  18
ATOM     18  C   UNL A   1      31.518  28.219  23.101  1.00  0.00     0.231 C 
BRANCH  18  19
ATOM     19  N   UNL A   1      32.074  29.300  22.265  1.00  0.00    -0.350 N 
ATOM     20  H   UNL A   1      33.018  29.052  21.970  1.00  0.00     0.345 HD
ATOM     21  H   UNL A   1      32.102  30.166  22.803  1.00  0.00     0.345 HD
ATOM     22  H   UNL A   1      31.485  29.431  21.442  1.00  0.00     0.345 HD
ENDBRANCH  18  19
BRANCH  18  23
ATOM     23  C   UNL A   1      31.831  28.389  24.583  1.00  0.00     0.011 A 
ATOM     24  C   UNL A   1      32.817  29.271  25.054  1.00  0.00     0.010 A 
ATOM     25  C   UNL A   1      31.152  27.593  25.522  1.00  0.00     0.010 A 
ATOM     26  C   UNL A   1      33.107  29.362  26.419  1.00  0.00     0.001 A 
ATOM     27  C   UNL A   1      31.446  27.681  26.886  1.00  0.00     0.001 A 
ATOM     28  C   UNL A   1      32.422  28.567  27.333  1.00  0.00     0.000 A 
ENDBRANCH  18  23
ENDBRANCH  17  18
ENDBRANCH  15  17
ENDBRANCH   8  15
ENDBRANCH   4   7
ENDBRANCH   2   3
ENDBRANCH   1   2
BRANCH   1  29
ATOM     29  C   UNL A   1      39.718  22.346  26.720  1.00  0.00     0.023 C 
BRANCH  29  30
ATOM     30  C   UNL A   1      40.932  23.198  27.080  1.00  0.00     0.116 C 
BRANCH  30  31
ATOM     31  N   UNL A   1      41.383  24.060  25.999  1.00  0.00    -0.352 N 
ATOM     32  C   UNL A   1      41.669  25.407  25.997  1.00  0.00     0.251 C 
ATOM     33  H   UNL A   1      41.503  23.610  25.132  1.00  0.00     0.163 HD
ATOM     34  O   UNL A   1      41.956  25.963  24.944  1.00  0.00    -0.269 OA
BRANCH  32  35
ATOM     35  C   UNL A   1      41.588  26.193  27.251  1.00  0.00     0.039 A 
ATOM     36  C   UNL A   1      42.548  27.181  27.486  1.00  0.00     0.014 A 
ATOM     37  C   UNL A   1      40.571  25.973  28.182  1.00  0.00     0.014 A 
ATOM     38  C   UNL A   1      42.434  28.010  28.606  1.00  0.00     0.010 A 
ATOM     39  C   UNL A   1      40.415  26.848  29.255  1.00  0.00     0.010 A 
ATOM     40  C   UNL A   1      41.337  27.881  29.475  1.00  0.00    -0.014 A 
BRANCH  40  41
ATOM     41  C   UNL A   1      41.124  28.832  30.598  1.00  0.00     0.031 A 
ATOM     42  C   UNL A   1      41.935  28.715  31.860  1.00  0.00     0.074 A 
ATOM     43  C   UNL A   1      40.131  29.741  30.520  1.00  0.00     0.049 A 
ATOM     44  N   UNL A   1      41.830  29.389  32.976  1.00  0.00    -0.248 NA
ATOM     45  C   UNL A   1      42.979  27.677  31.881  1.00  0.00     0.031 C 
ATOM     46  C   UNL A   1      39.224  29.908  29.382  1.00  0.00     0.029 A 
ATOM     47  N   UNL A   1      39.702  30.681  31.425  1.00  0.00    -0.354 N 
ATOM     48  C   UNL A   1      42.769  28.841  33.841  1.00  0.00     0.074 A 
ATOM     49  C   UNL A   1      43.405  27.750  33.133  1.00  0.00     0.031 C 
ATOM     50  C   UNL A   1      38.353  30.893  29.654  1.00  0.00     0.029 A 
ATOM     51  C   UNL A   1      38.617  31.408  30.994  1.00  0.00     0.049 A 
ATOM     52  H   UNL A   1      40.132  30.822  32.299  1.00  0.00     0.167 HD
ATOM     53  C   UNL A   1      43.087  29.223  35.102  1.00  0.00     0.037 A 
ATOM     54  C   UNL A   1      37.906  32.373  31.609  1.00  0.00     0.037 A 
ATOM     55  C   UNL A   1      42.477  30.332  35.787  1.00  0.00     0.049 A 
ATOM     56  C   UNL A   1      38.309  32.818  32.988  1.00  0.00     0.074 A 
ATOM     57  C   UNL A   1      42.794  30.858  37.027  1.00  0.00     0.029 A 
ATOM     58  N   UNL A   1      41.423  31.086  35.292  1.00  0.00    -0.354 N 
ATOM     59  N   UNL A   1      39.262  32.349  33.757  1.00  0.00    -0.248 NA
ATOM     60  C   UNL A   1      37.551  33.929  33.577  1.00  0.00     0.031 C 
ATOM     61  C   UNL A   1      41.907  31.906  37.298  1.00  0.00     0.029 A 
ATOM     62  C   UNL A   1      41.063  32.060  36.209  1.00  0.00     0.049 A 
ATOM     63  H   UNL A   1      40.992  30.949  34.416  1.00  0.00     0.167 HD
ATOM     64  C   UNL A   1      39.229  33.117  34.915  1.00  0.00     0.074 A 
ATOM     65  C   UNL A   1      38.172  34.092  34.738  1.00  0.00     0.031 C 
ATOM     66  C   UNL A   1      40.007  33.024  36.022  1.00  0.00     0.037 A 
BRANCH  53  67
ATOM     67  C   UNL A   1      44.143  28.428  35.819  1.00  0.00     0.058 A 
ATOM     68  C   UNL A   1      45.511  28.710  35.666  1.00  0.00     0.135 A 
ATOM     69  C   UNL A   1      43.785  27.373  36.673  1.00  0.00     0.135 A 
ATOM     70  F   UNL A   1      45.910  29.700  34.852  1.00  0.00    -0.206 F 
ATOM     71  C   UNL A   1      46.487  27.946  36.298  1.00  0.00     0.059 A 
ATOM     72  C   UNL A   1      44.744  26.613  37.339  1.00  0.00     0.059 A 
ATOM     73  F   UNL A   1      42.493  27.062  36.860  1.00  0.00    -0.206 F 
ATOM     74  C   UNL A   1      46.093  26.894  37.127  1.00  0.00     0.060 A 
BRANCH  74  75
ATOM     75  S   UNL A   1      47.369  25.894  37.921  1.00  0.00     0.124 S 
ATOM     76  O   UNL A   1      48.538  26.218  37.106  1.00  0.00    -0.237 OA
ATOM     77  O   UNL A   1      47.381  26.422  39.281  1.00  0.00    -0.237 OA
ATOM     78  O   UNL A   1      46.866  24.531  37.784  1.00  0.00    -0.744 OA
ENDBRANCH  74  75
ENDBRANCH  53  67
BRANCH  54  79
ATOM     79  C   UNL A   1      36.755  32.997  30.905  1.00  0.00     0.058 A 
ATOM     80  C   UNL A   1      35.436  32.700  31.274  1.00  0.00     0.135 A 
ATOM     81  C   UNL A   1      36.954  33.939  29.883  1.00  0.00     0.135 A 
ATOM     82  F   UNL A   1      35.196  31.801  32.240  1.00  0.00    -0.206 F 
ATOM     83  C   UNL A   1      34.351  33.313  30.655  1.00  0.00     0.059 A 
ATOM     84  C   UNL A   1      35.886  34.581  29.264  1.00  0.00     0.059 A 
ATOM     85  F   UNL A   1      38.198  34.269  29.507  1.00  0.00    -0.206 F 
ATOM     86  C   UNL A   1      34.587  34.258  29.655  1.00  0.00     0.060 A 
BRANCH  86  87
ATOM     87  S   UNL A   1      33.175  35.110  28.917  1.00  0.00     0.124 S 
ATOM     88  O   UNL A   1      33.811  36.289  28.342  1.00  0.00    -0.237 OA
ATOM     89  O   UNL A   1      32.683  34.120  27.963  1.00  0.00    -0.237 OA
ATOM     90  O   UNL A   1      32.299  35.356  30.058  1.00  0.00    -0.744 OA
ENDBRANCH  86  87
ENDBRANCH  54  79
BRANCH  66  91
ATOM     91  C   UNL A   1      39.758  34.012  37.127  1.00  0.00     0.058 A 
ATOM     92  C   UNL A   1      38.997  33.676  38.257  1.00  0.00     0.135 A 
ATOM     93  C   UNL A   1      40.333  35.292  37.079  1.00  0.00     0.135 A 
ATOM     94  F   UNL A   1      38.421  32.468  38.348  1.00  0.00    -0.206 F 
ATOM     95  C   UNL A   1      38.800  34.581  39.295  1.00  0.00     0.059 A 
ATOM     96  C   UNL A   1      40.168  36.206  38.115  1.00  0.00     0.059 A 
ATOM     97  F   UNL A   1      41.077  35.660  36.023  1.00  0.00    -0.206 F 
ATOM     98  C   UNL A   1      39.391  35.844  39.215  1.00  0.00     0.060 A 
BRANCH  98  99
ATOM     99  S   UNL A   1      39.160  36.999  40.583  1.00  0.00     0.124 S 
ATOM    100  O   UNL A   1      38.509  36.151  41.577  1.00  0.00    -0.237 OA
ATOM    101  O   UNL A   1      40.530  37.400  40.892  1.00  0.00    -0.237 OA
ATOM    102  O   UNL A   1      38.323  38.046  40.006  1.00  0.00    -0.744 OA
ENDBRANCH  98  99
ENDBRANCH  66  91
ENDBRANCH  40  41
ENDBRANCH  32  35
ENDBRANCH  30  31
ENDBRANCH  29  30
ENDBRANCH   1  29
TORSDOF 19
ENDMDL
MODEL 2
REMARK VINA RESULT:     -11.6      3.133      3.989
REMARK SMILES [NH3+][C@@H](CNc1ccc(C(=O)NCCCCNC(=O)c2ccc(-c3c4nc(c(-c5c(F)cc(S(=O)(=O)[O-])cc5F)c5ccc([nH]5)c(-c5c(F)cc(S(=O)(=O)[O-])cc5F)c5nc(c(-c6c(F)cc(S(=O)(=O)[O-])cc6F)c6ccc3[nH]6)C=C5)C=C4)cc2)c(F)c1F)c1ccccc1
REMARK SMILES IDX 13 1 12 2 11 3 9 4 10 5 8 7 5 8 6 9 87 10 7 11 85 12 88 13
REMARK SMILES IDX 86 14 4 15 3 17 2 18 1 19 89 23 90 24 94 25 91 26 93 27
REMARK SMILES IDX 92 28 14 29 15 30 16 31 17 32 18 34 19 35 20 36 84 37 21 38
REMARK SMILES IDX 83 39 22 40 23 41 24 42 77 43 25 44 82 45 76 46 78 47 26 48
REMARK SMILES IDX 81 49 75 50 74 51 27 53 61 54 40 55 60 56 41 57 44 58 59 59
REMARK SMILES IDX 79 60 42 61 43 62 58 64 80 65 45 66 28 67 29 68 38 69 30 70
REMARK SMILES IDX 31 71 37 72 39 73 32 74 33 75 34 76 35 77 36 78 62 79 63 80
REMARK SMILES IDX 72 81 64 82 65 83 71 84 73 85 66 86 67 87 68 88 69 89 70 90
REMARK SMILES IDX 46 91 47 92 56 93 48 94 49 95 55 96 57 97 50 98 51 99 52 100
REMARK SMILES IDX 53 101 54 102
REMARK H PARENT 11 6 4 16 1 20 1 21 1 22 16 33 78 52 44 63
REMARK Flexibility Score: inf
ROOT
ATOM      1  C   UNL A   1      35.345  22.162  26.534  1.00  0.00     0.023 C 
ENDROOT
BRANCH   1   2
ATOM      2  C   UNL A   1      35.402  21.051  25.490  1.00  0.00     0.116 C 
BRANCH   2   3
ATOM      3  N   UNL A   1      34.245  20.175  25.503  1.00  0.00    -0.352 N 
ATOM      4  C   UNL A   1      32.980  20.365  25.006  1.00  0.00     0.254 C 
ATOM      5  O   UNL A   1      32.143  19.474  25.141  1.00  0.00    -0.269 OA
ATOM      6  H   UNL A   1      34.391  19.304  25.940  1.00  0.00     0.163 HD
BRANCH   4   7
ATOM      7  C   UNL A   1      32.556  21.636  24.384  1.00  0.00     0.078 A 
ATOM      8  C   UNL A   1      31.798  24.004  23.023  1.00  0.00     0.074 A 
ATOM      9  C   UNL A   1      32.751  23.139  22.478  1.00  0.00     0.030 A 
ATOM     10  C   UNL A   1      31.297  23.688  24.298  1.00  0.00     0.182 A 
ATOM     11  C   UNL A   1      33.126  21.967  23.146  1.00  0.00     0.019 A 
ATOM     12  C   UNL A   1      31.681  22.535  24.979  1.00  0.00     0.173 A 
ATOM     13  F   UNL A   1      30.398  24.513  24.863  1.00  0.00    -0.201 F 
ATOM     14  F   UNL A   1      31.192  22.318  26.209  1.00  0.00    -0.203 F 
BRANCH   8  15
ATOM     15  N   UNL A   1      31.343  25.138  22.362  1.00  0.00    -0.376 N 
ATOM     16  H   UNL A   1      30.382  25.350  22.389  1.00  0.00     0.160 HD
BRANCH  15  17
ATOM     17  C   UNL A   1      32.238  26.032  21.625  1.00  0.00     0.183 C 
BRANCH  17  18
ATOM     18  C   UNL A   1      32.427  27.412  22.332  1.00  0.00     0.231 C 
BRANCH  18  19
ATOM     19  N   UNL A   1      33.548  28.192  21.773  1.00  0.00    -0.350 N 
ATOM     20  H   UNL A   1      33.727  27.892  20.815  1.00  0.00     0.345 HD
ATOM     21  H   UNL A   1      34.383  28.041  22.338  1.00  0.00     0.345 HD
ATOM     22  H   UNL A   1      33.309  29.184  21.779  1.00  0.00     0.345 HD
ENDBRANCH  18  19
BRANCH  18  23
ATOM     23  C   UNL A   1      32.495  27.271  23.848  1.00  0.00     0.011 A 
ATOM     24  C   UNL A   1      33.580  26.669  24.507  1.00  0.00     0.010 A 
ATOM     25  C   UNL A   1      31.408  27.704  24.626  1.00  0.00     0.010 A 
ATOM     26  C   UNL A   1      33.582  26.515  25.896  1.00  0.00     0.001 A 
ATOM     27  C   UNL A   1      31.408  27.546  26.015  1.00  0.00     0.001 A 
ATOM     28  C   UNL A   1      32.496  26.952  26.649  1.00  0.00     0.000 A 
ENDBRANCH  18  23
ENDBRANCH  17  18
ENDBRANCH  15  17
ENDBRANCH   8  15
ENDBRANCH   4   7
ENDBRANCH   2   3
ENDBRANCH   1   2
BRANCH   1  29
ATOM     29  C   UNL A   1      35.815  23.544  26.086  1.00  0.00     0.023 C 
BRANCH  29  30
ATOM     30  C   UNL A   1      36.957  23.578  25.075  1.00  0.00     0.116 C 
BRANCH  30  31
ATOM     31  N   UNL A   1      38.043  22.662  25.387  1.00  0.00    -0.352 N 
ATOM     32  C   UNL A   1      39.202  22.868  26.101  1.00  0.00     0.251 C 
ATOM     33  H   UNL A   1      37.932  21.750  25.033  1.00  0.00     0.163 HD
ATOM     34  O   UNL A   1      40.036  21.973  26.175  1.00  0.00    -0.269 OA
BRANCH  32  35
ATOM     35  C   UNL A   1      39.466  24.179  26.741  1.00  0.00     0.039 A 
ATOM     36  C   UNL A   1      38.970  24.410  28.027  1.00  0.00     0.014 A 
ATOM     37  C   UNL A   1      40.206  25.169  26.091  1.00  0.00     0.014 A 
ATOM     38  C   UNL A   1      39.295  25.593  28.697  1.00  0.00     0.010 A 
ATOM     39  C   UNL A   1      40.593  26.313  26.788  1.00  0.00     0.010 A 
ATOM     40  C   UNL A   1      40.150  26.534  28.100  1.00  0.00    -0.014 A 
BRANCH  40  41
ATOM     41  C   UNL A   1      40.615  27.737  28.840  1.00  0.00     0.031 A 
ATOM     42  C   UNL A   1      41.963  27.747  29.508  1.00  0.00     0.074 A 
ATOM     43  C   UNL A   1      39.781  28.785  28.994  1.00  0.00     0.049 A 
ATOM     44  N   UNL A   1      42.501  28.663  30.271  1.00  0.00    -0.248 NA
ATOM     45  C   UNL A   1      42.803  26.553  29.320  1.00  0.00     0.031 C 
ATOM     46  C   UNL A   1      38.420  28.870  28.460  1.00  0.00     0.029 A 
ATOM     47  N   UNL A   1      39.947  29.973  29.664  1.00  0.00    -0.354 N 
ATOM     48  C   UNL A   1      43.725  28.147  30.679  1.00  0.00     0.074 A 
ATOM     49  C   UNL A   1      43.831  26.819  30.113  1.00  0.00     0.031 C 
ATOM     50  C   UNL A   1      37.879  30.045  28.817  1.00  0.00     0.029 A 
ATOM     51  C   UNL A   1      38.840  30.787  29.629  1.00  0.00     0.049 A 
ATOM     52  H   UNL A   1      40.781  30.218  30.126  1.00  0.00     0.167 HD
ATOM     53  C   UNL A   1      44.681  28.733  31.440  1.00  0.00     0.037 A 
ATOM     54  C   UNL A   1      38.614  31.989  30.195  1.00  0.00     0.037 A 
ATOM     55  C   UNL A   1      44.587  30.068  31.969  1.00  0.00     0.049 A 
ATOM     56  C   UNL A   1      39.709  32.644  30.991  1.00  0.00     0.074 A 
ATOM     57  C   UNL A   1      45.540  30.785  32.671  1.00  0.00     0.029 A 
ATOM     58  N   UNL A   1      43.473  30.887  31.859  1.00  0.00    -0.354 N 
ATOM     59  N   UNL A   1      40.898  32.178  31.291  1.00  0.00    -0.248 NA
ATOM     60  C   UNL A   1      39.438  33.988  31.515  1.00  0.00     0.031 C 
ATOM     61  C   UNL A   1      44.988  32.024  33.017  1.00  0.00     0.029 A 
ATOM     62  C   UNL A   1      43.706  32.095  32.495  1.00  0.00     0.049 A 
ATOM     63  H   UNL A   1      42.637  30.645  31.395  1.00  0.00     0.167 HD
ATOM     64  C   UNL A   1      41.524  33.179  32.025  1.00  0.00     0.074 A 
ATOM     65  C   UNL A   1      40.588  34.281  32.110  1.00  0.00     0.031 C 
ATOM     66  C   UNL A   1      42.764  33.184  32.575  1.00  0.00     0.037 A 
BRANCH  53  67
ATOM     67  C   UNL A   1      45.914  27.925  31.743  1.00  0.00     0.058 A 
ATOM     68  C   UNL A   1      47.083  28.043  30.975  1.00  0.00     0.135 A 
ATOM     69  C   UNL A   1      45.927  27.021  32.818  1.00  0.00     0.135 A 
ATOM     70  F   UNL A   1      47.121  28.883  29.928  1.00  0.00    -0.206 F 
ATOM     71  C   UNL A   1      48.206  27.264  31.232  1.00  0.00     0.059 A 
ATOM     72  C   UNL A   1      47.049  26.251  33.112  1.00  0.00     0.059 A 
ATOM     73  F   UNL A   1      44.839  26.870  33.589  1.00  0.00    -0.206 F 
ATOM     74  C   UNL A   1      48.177  26.365  32.299  1.00  0.00     0.060 A 
BRANCH  74  75
ATOM     75  S   UNL A   1      49.631  25.341  32.607  1.00  0.00     0.124 S 
ATOM     76  O   UNL A   1      49.087  24.330  33.511  1.00  0.00    -0.237 OA
ATOM     77  O   UNL A   1      49.975  24.872  31.270  1.00  0.00    -0.237 OA
ATOM     78  O   UNL A   1      50.581  26.273  33.206  1.00  0.00    -0.744 OA
ENDBRANCH  74  75
ENDBRANCH  53  67
BRANCH  54  79
ATOM     79  C   UNL A   1      37.300  32.656  29.999  1.00  0.00     0.058 A 
ATOM     80  C   UNL A   1      36.230  32.410  30.870  1.00  0.00     0.135 A 
ATOM     81  C   UNL A   1      37.107  33.589  28.969  1.00  0.00     0.135 A 
ATOM     82  F   UNL A   1      36.365  31.521  31.865  1.00  0.00    -0.206 F 
ATOM     83  C   UNL A   1      35.010  33.064  30.727  1.00  0.00     0.059 A 
ATOM     84  C   UNL A   1      35.903  34.271  28.818  1.00  0.00     0.059 A 
ATOM     85  F   UNL A   1      38.107  33.871  28.121  1.00  0.00    -0.206 F 
ATOM     86  C   UNL A   1      34.859  33.999  29.701  1.00  0.00     0.060 A 
BRANCH  86  87
ATOM     87  S   UNL A   1      33.300  34.903  29.575  1.00  0.00     0.124 S 
ATOM     88  O   UNL A   1      33.746  36.185  29.041  1.00  0.00    -0.237 OA
ATOM     89  O   UNL A   1      32.530  34.064  28.662  1.00  0.00    -0.237 OA
ATOM     90  O   UNL A   1      32.814  34.926  30.951  1.00  0.00    -0.744 OA
ENDBRANCH  86  87
ENDBRANCH  54  79
BRANCH  66  91
ATOM     91  C   UNL A   1      43.190  34.426  33.306  1.00  0.00     0.058 A 
ATOM     92  C   UNL A   1      43.843  35.479  32.648  1.00  0.00     0.135 A 
ATOM     93  C   UNL A   1      42.893  34.586  34.669  1.00  0.00     0.135 A 
ATOM     94  F   UNL A   1      44.156  35.373  31.348  1.00  0.00    -0.206 F 
ATOM     95  C   UNL A   1      44.203  36.643  33.321  1.00  0.00     0.059 A 
ATOM     96  C   UNL A   1      43.222  35.750  35.356  1.00  0.00     0.059 A 
ATOM     97  F   UNL A   1      42.261  33.611  35.342  1.00  0.00    -0.206 F 
ATOM     98  C   UNL A   1      43.887  36.769  34.675  1.00  0.00     0.060 A 
BRANCH  98  99
ATOM     99  S   UNL A   1      44.326  38.298  35.530  1.00  0.00     0.124 S 
ATOM    100  O   UNL A   1      45.781  38.293  35.413  1.00  0.00    -0.237 OA
ATOM    101  O   UNL A   1      43.630  39.310  34.741  1.00  0.00    -0.237 OA
ATOM    102  O   UNL A   1      43.803  38.095  36.877  1.00  0.00    -0.744 OA
ENDBRANCH  98  99
ENDBRANCH  66  91
ENDBRANCH  40  41
ENDBRANCH  32  35
ENDBRANCH  30  31
ENDBRANCH  29  30
ENDBRANCH   1  29
TORSDOF 19
ENDMDL
MODEL 3
REMARK VINA RESULT:     -11.6      4.552      6.998
REMARK SMILES [NH3+][C@@H](CNc1ccc(C(=O)NCCCCNC(=O)c2ccc(-c3c4nc(c(-c5c(F)cc(S(=O)(=O)[O-])cc5F)c5ccc([nH]5)c(-c5c(F)cc(S(=O)(=O)[O-])cc5F)c5nc(c(-c6c(F)cc(S(=O)(=O)[O-])cc6F)c6ccc3[nH]6)C=C5)C=C4)cc2)c(F)c1F)c1ccccc1
REMARK SMILES IDX 13 1 12 2 11 3 9 4 10 5 8 7 5 8 6 9 87 10 7 11 85 12 88 13
REMARK SMILES IDX 86 14 4 15 3 17 2 18 1 19 89 23 90 24 94 25 91 26 93 27
REMARK SMILES IDX 92 28 14 29 15 30 16 31 17 32 18 34 19 35 20 36 84 37 21 38
REMARK SMILES IDX 83 39 22 40 23 41 24 42 77 43 25 44 82 45 76 46 78 47 26 48
REMARK SMILES IDX 81 49 75 50 74 51 27 53 61 54 40 55 60 56 41 57 44 58 59 59
REMARK SMILES IDX 79 60 42 61 43 62 58 64 80 65 45 66 28 67 29 68 38 69 30 70
REMARK SMILES IDX 31 71 37 72 39 73 32 74 33 75 34 76 35 77 36 78 62 79 63 80
REMARK SMILES IDX 72 81 64 82 65 83 71 84 73 85 66 86 67 87 68 88 69 89 70 90
REMARK SMILES IDX 46 91 47 92 56 93 48 94 49 95 55 96 57 97 50 98 51 99 52 100
REMARK SMILES IDX 53 101 54 102
REMARK H PARENT 11 6 4 16 1 20 1 21 1 22 16 33 78 52 44 63
REMARK Flexibility Score: inf
ROOT
ATOM      1  C   UNL A   1      42.881  23.160  25.544  1.00  0.00     0.023 C 
ENDROOT
BRANCH   1   2
ATOM      2  C   UNL A   1      43.976  23.915  26.291  1.00  0.00     0.116 C 
BRANCH   2   3
ATOM      3  N   UNL A   1      45.093  24.308  25.451  1.00  0.00    -0.352 N 
ATOM      4  C   UNL A   1      45.672  25.538  25.261  1.00  0.00     0.254 C 
ATOM      5  O   UNL A   1      46.619  25.639  24.482  1.00  0.00    -0.269 OA
ATOM      6  H   UNL A   1      45.499  23.575  24.934  1.00  0.00     0.163 HD
BRANCH   4   7
ATOM      7  C   UNL A   1      45.153  26.765  25.897  1.00  0.00     0.078 A 
ATOM      8  C   UNL A   1      44.333  29.166  27.161  1.00  0.00     0.074 A 
ATOM      9  C   UNL A   1      45.550  28.563  27.490  1.00  0.00     0.030 A 
ATOM     10  C   UNL A   1      43.509  28.493  26.241  1.00  0.00     0.182 A 
ATOM     11  C   UNL A   1      45.960  27.379  26.866  1.00  0.00     0.019 A 
ATOM     12  C   UNL A   1      43.900  27.303  25.632  1.00  0.00     0.173 A 
ATOM     13  F   UNL A   1      42.320  29.033  25.922  1.00  0.00    -0.201 F 
ATOM     14  F   UNL A   1      43.046  26.695  24.795  1.00  0.00    -0.203 F 
BRANCH   8  15
ATOM     15  N   UNL A   1      43.921  30.379  27.701  1.00  0.00    -0.376 N 
ATOM     16  H   UNL A   1      43.587  30.397  28.627  1.00  0.00     0.160 HD
BRANCH  15  17
ATOM     17  C   UNL A   1      43.965  31.632  26.945  1.00  0.00     0.183 C 
BRANCH  17  18
ATOM     18  C   UNL A   1      44.576  32.810  27.767  1.00  0.00     0.231 C 
BRANCH  18  19
ATOM     19  N   UNL A   1      45.052  32.391  29.099  1.00  0.00    -0.350 N 
ATOM     20  H   UNL A   1      45.229  33.215  29.673  1.00  0.00     0.345 HD
ATOM     21  H   UNL A   1      45.915  31.855  29.000  1.00  0.00     0.345 HD
ATOM     22  H   UNL A   1      44.343  31.811  29.548  1.00  0.00     0.345 HD
ENDBRANCH  18  19
BRANCH  18  23
ATOM     23  C   UNL A   1      43.644  34.014  27.817  1.00  0.00     0.011 A 
ATOM     24  C   UNL A   1      42.783  34.263  28.900  1.00  0.00     0.010 A 
ATOM     25  C   UNL A   1      43.590  34.886  26.716  1.00  0.00     0.010 A 
ATOM     26  C   UNL A   1      41.907  35.352  28.885  1.00  0.00     0.001 A 
ATOM     27  C   UNL A   1      42.711  35.973  26.701  1.00  0.00     0.001 A 
ATOM     28  C   UNL A   1      41.871  36.206  27.786  1.00  0.00     0.000 A 
ENDBRANCH  18  23
ENDBRANCH  17  18
ENDBRANCH  15  17
ENDBRANCH   8  15
ENDBRANCH   4   7
ENDBRANCH   2   3
ENDBRANCH   1   2
BRANCH   1  29
ATOM     29  C   UNL A   1      42.380  21.869  26.189  1.00  0.00     0.023 C 
BRANCH  29  30
ATOM     30  C   UNL A   1      41.154  21.991  27.090  1.00  0.00     0.116 C 
BRANCH  30  31
ATOM     31  N   UNL A   1      39.901  22.099  26.360  1.00  0.00    -0.352 N 
ATOM     32  C   UNL A   1      39.021  23.154  26.256  1.00  0.00     0.251 C 
ATOM     33  H   UNL A   1      39.639  21.291  25.862  1.00  0.00     0.163 HD
ATOM     34  O   UNL A   1      37.966  23.005  25.651  1.00  0.00    -0.269 OA
BRANCH  32  35
ATOM     35  C   UNL A   1      39.324  24.450  26.908  1.00  0.00     0.039 A 
ATOM     36  C   UNL A   1      38.894  24.657  28.222  1.00  0.00     0.014 A 
ATOM     37  C   UNL A   1      40.035  25.450  26.242  1.00  0.00     0.014 A 
ATOM     38  C   UNL A   1      39.258  25.825  28.898  1.00  0.00     0.010 A 
ATOM     39  C   UNL A   1      40.462  26.578  26.941  1.00  0.00     0.010 A 
ATOM     40  C   UNL A   1      40.087  26.774  28.278  1.00  0.00    -0.014 A 
BRANCH  40  41
ATOM     41  C   UNL A   1      40.594  27.960  29.017  1.00  0.00     0.031 A 
ATOM     42  C   UNL A   1      41.954  27.933  29.660  1.00  0.00     0.074 A 
ATOM     43  C   UNL A   1      39.789  29.027  29.195  1.00  0.00     0.049 A 
ATOM     44  N   UNL A   1      42.529  28.830  30.419  1.00  0.00    -0.248 NA
ATOM     45  C   UNL A   1      42.762  26.721  29.448  1.00  0.00     0.031 C 
ATOM     46  C   UNL A   1      38.421  29.149  28.688  1.00  0.00     0.029 A 
ATOM     47  N   UNL A   1      39.996  30.205  29.870  1.00  0.00    -0.354 N 
ATOM     48  C   UNL A   1      43.748  28.282  30.801  1.00  0.00     0.074 A 
ATOM     49  C   UNL A   1      43.810  26.956  30.223  1.00  0.00     0.031 C 
ATOM     50  C   UNL A   1      37.915  30.334  29.063  1.00  0.00     0.029 A 
ATOM     51  C   UNL A   1      38.908  31.046  29.862  1.00  0.00     0.049 A 
ATOM     52  H   UNL A   1      40.845  30.427  30.318  1.00  0.00     0.167 HD
ATOM     53  C   UNL A   1      44.732  28.838  31.547  1.00  0.00     0.037 A 
ATOM     54  C   UNL A   1      38.723  32.249  30.440  1.00  0.00     0.037 A 
ATOM     55  C   UNL A   1      44.680  30.171  32.088  1.00  0.00     0.049 A 
ATOM     56  C   UNL A   1      39.847  32.871  31.220  1.00  0.00     0.074 A 
ATOM     57  C   UNL A   1      45.662  30.860  32.776  1.00  0.00     0.029 A 
ATOM     58  N   UNL A   1      43.583  31.018  32.004  1.00  0.00    -0.354 N 
ATOM     59  N   UNL A   1      41.030  32.375  31.494  1.00  0.00    -0.248 NA
ATOM     60  C   UNL A   1      39.619  34.217  31.759  1.00  0.00     0.031 C 
ATOM     61  C   UNL A   1      45.147  32.109  33.142  1.00  0.00     0.029 A 
ATOM     62  C   UNL A   1      43.857  32.215  32.645  1.00  0.00     0.049 A 
ATOM     63  H   UNL A   1      42.734  30.800  31.555  1.00  0.00     0.167 HD
ATOM     64  C   UNL A   1      41.694  33.355  32.223  1.00  0.00     0.074 A 
ATOM     65  C   UNL A   1      40.786  34.478  32.334  1.00  0.00     0.031 C 
ATOM     66  C   UNL A   1      42.943  33.326  32.750  1.00  0.00     0.037 A 
BRANCH  53  67
ATOM     67  C   UNL A   1      45.949  27.999  31.821  1.00  0.00     0.058 A 
ATOM     68  C   UNL A   1      47.127  28.136  31.068  1.00  0.00     0.135 A 
ATOM     69  C   UNL A   1      45.941  27.046  32.853  1.00  0.00     0.135 A 
ATOM     70  F   UNL A   1      47.186  29.024  30.062  1.00  0.00    -0.206 F 
ATOM     71  C   UNL A   1      48.236  27.329  31.297  1.00  0.00     0.059 A 
ATOM     72  C   UNL A   1      47.049  26.246  33.119  1.00  0.00     0.059 A 
ATOM     73  F   UNL A   1      44.844  26.874  33.607  1.00  0.00    -0.206 F 
ATOM     74  C   UNL A   1      48.185  26.381  32.320  1.00  0.00     0.060 A 
BRANCH  74  75
ATOM     75  S   UNL A   1      49.622  25.322  32.591  1.00  0.00     0.124 S 
ATOM     76  O   UNL A   1      49.068  24.305  33.481  1.00  0.00    -0.237 OA
ATOM     77  O   UNL A   1      49.940  24.873  31.240  1.00  0.00    -0.237 OA
ATOM     78  O   UNL A   1      50.597  26.223  33.195  1.00  0.00    -0.744 OA
ENDBRANCH  74  75
ENDBRANCH  53  67
BRANCH  54  79
ATOM     79  C   UNL A   1      37.422  32.948  30.274  1.00  0.00     0.058 A 
ATOM     80  C   UNL A   1      37.154  33.712  29.130  1.00  0.00     0.135 A 
ATOM     81  C   UNL A   1      36.403  32.824  31.233  1.00  0.00     0.135 A 
ATOM     82  F   UNL A   1      38.098  33.866  28.190  1.00  0.00    -0.206 F 
ATOM     83  C   UNL A   1      35.922  34.332  28.940  1.00  0.00     0.059 A 
ATOM     84  C   UNL A   1      35.157  33.417  31.056  1.00  0.00     0.059 A 
ATOM     85  F   UNL A   1      36.606  32.088  32.336  1.00  0.00    -0.206 F 
ATOM     86  C   UNL A   1      34.928  34.173  29.907  1.00  0.00     0.060 A 
BRANCH  86  87
ATOM     87  S   UNL A   1      33.306  34.911  29.612  1.00  0.00     0.124 S 
ATOM     88  O   UNL A   1      33.670  36.215  29.071  1.00  0.00    -0.237 OA
ATOM     89  O   UNL A   1      32.707  33.972  28.668  1.00  0.00    -0.237 OA
ATOM     90  O   UNL A   1      32.698  34.924  30.939  1.00  0.00    -0.744 OA
ENDBRANCH  86  87
ENDBRANCH  54  79
BRANCH  66  91
ATOM     91  C   UNL A   1      43.413  34.551  33.482  1.00  0.00     0.058 A 
ATOM     92  C   UNL A   1      44.007  35.629  32.807  1.00  0.00     0.135 A 
ATOM     93  C   UNL A   1      43.217  34.672  34.867  1.00  0.00     0.135 A 
ATOM     94  F   UNL A   1      44.224  35.561  31.485  1.00  0.00    -0.206 F 
ATOM     95  C   UNL A   1      44.407  36.777  33.483  1.00  0.00     0.059 A 
ATOM     96  C   UNL A   1      43.588  35.819  35.560  1.00  0.00     0.059 A 
ATOM     97  F   UNL A   1      42.644  33.672  35.558  1.00  0.00    -0.206 F 
ATOM     98  C   UNL A   1      44.192  36.863  34.860  1.00  0.00     0.060 A 
BRANCH  98  99
ATOM     99  S   UNL A   1      44.681  38.373  35.723  1.00  0.00     0.124 S 
ATOM    100  O   UNL A   1      44.131  39.403  34.847  1.00  0.00    -0.237 OA
ATOM    101  O   UNL A   1      44.021  38.223  37.016  1.00  0.00    -0.237 OA
ATOM    102  O   UNL A   1      46.137  38.288  35.756  1.00  0.00    -0.744 OA
ENDBRANCH  98  99
ENDBRANCH  66  91
ENDBRANCH  40  41
ENDBRANCH  32  35
ENDBRANCH  30  31
ENDBRANCH  29  30
ENDBRANCH   1  29
TORSDOF 19
ENDMDL
