MODEL 1
REMARK VINA RESULT:     -10.3      0.000      0.000
REMARK SMILES O=C(CCCCC(=O)c1ccc(-c2ccccc2)cc1)NCCCCNC(=O)c1ccc(-c2c3nc(c(-c4c(F)cc(S(=O)(=O)[O-])cc4F)c4ccc([nH]4)c(-c4c(F)cc(S(=O)(=O)[O-])cc4F)c4nc(c(-c5c(F)cc(S(=O)(=O)[O-])cc5F)c5ccc2[nH]5)C=C4)C=C3)cc1
REMARK SMILES IDX 22 1 21 2 1 3 2 4 3 6 4 7 5 8 6 9 7 10 8 11 9 12 10 13 20 14
REMARK SMILES IDX 11 15 19 16 12 17 13 18 14 19 18 20 15 21 17 22 16 23 23 24
REMARK SMILES IDX 24 25 25 26 26 27 27 28 28 30 29 31 30 32 94 33 31 34 93 35
REMARK SMILES IDX 32 36 33 37 34 38 87 39 35 40 92 41 86 42 88 43 36 44 91 45
REMARK SMILES IDX 85 46 84 47 37 49 71 50 50 51 70 52 51 53 54 54 69 55 89 56
REMARK SMILES IDX 52 57 53 58 68 60 90 61 55 62 38 63 39 64 48 65 40 66 41 67
REMARK SMILES IDX 47 68 49 69 42 70 43 71 44 72 45 73 46 74 72 75 73 76 82 77
REMARK SMILES IDX 74 78 75 79 81 80 83 81 76 82 77 83 78 84 79 85 80 86 56 87
REMARK SMILES IDX 57 88 66 89 58 90 59 91 65 92 67 93 60 94 61 95 62 96 63 97
REMARK SMILES IDX 64 98
REMARK H PARENT 21 5 26 29 88 48 54 59
REMARK Flexibility Score: inf
ROOT
ATOM      1  C   UNL A   1      42.651  18.651  26.298  1.00  0.00     0.116 C 
ENDROOT
BRANCH   1   2
ATOM      2  N   UNL A   1      43.469  19.451  25.415  1.00  0.00    -0.356 N 
ATOM      3  O   UNL A   1      45.292  18.050  25.382  1.00  0.00    -0.275 OA
ATOM      4  C   UNL A   1      44.717  19.066  24.998  1.00  0.00     0.219 C 
ATOM      5  H   UNL A   1      43.114  20.313  25.098  1.00  0.00     0.163 HD
BRANCH   4   6
ATOM      6  C   UNL A   1      45.337  20.014  23.998  1.00  0.00     0.100 C 
BRANCH   6   7
ATOM      7  C   UNL A   1      45.957  21.233  24.685  1.00  0.00     0.010 C 
BRANCH   7   8
ATOM      8  C   UNL A   1      45.807  22.606  24.001  1.00  0.00     0.009 C 
BRANCH   8   9
ATOM      9  C   UNL A   1      44.775  23.596  24.547  1.00  0.00     0.081 C 
BRANCH   9  10
ATOM     10  C   UNL A   1      43.679  23.049  25.453  1.00  0.00     0.162 C 
ATOM     11  O   UNL A   1      42.760  22.356  25.032  1.00  0.00    -0.294 OA
BRANCH  10  12
ATOM     12  C   UNL A   1      43.811  23.226  26.909  1.00  0.00     0.018 A 
ATOM     13  C   UNL A   1      45.076  23.374  27.471  1.00  0.00     0.012 A 
ATOM     14  C   UNL A   1      42.682  23.235  27.716  1.00  0.00     0.012 A 
ATOM     15  C   UNL A   1      45.196  23.618  28.845  1.00  0.00     0.009 A 
ATOM     16  C   UNL A   1      42.804  23.537  29.072  1.00  0.00     0.009 A 
ATOM     17  C   UNL A   1      44.061  23.740  29.672  1.00  0.00    -0.018 A 
BRANCH  17  18
ATOM     18  C   UNL A   1      44.173  24.049  31.117  1.00  0.00    -0.018 A 
ATOM     19  C   UNL A   1      43.938  23.072  32.102  1.00  0.00     0.009 A 
ATOM     20  C   UNL A   1      44.530  25.336  31.563  1.00  0.00     0.009 A 
ATOM     21  C   UNL A   1      44.039  23.373  33.465  1.00  0.00     0.001 A 
ATOM     22  C   UNL A   1      44.646  25.636  32.922  1.00  0.00     0.001 A 
ATOM     23  C   UNL A   1      44.394  24.655  33.873  1.00  0.00     0.000 A 
ENDBRANCH  17  18
ENDBRANCH  10  12
ENDBRANCH   9  10
ENDBRANCH   8   9
ENDBRANCH   7   8
ENDBRANCH   6   7
ENDBRANCH   4   6
ENDBRANCH   1   2
BRANCH   1  24
ATOM     24  C   UNL A   1      41.761  19.522  27.177  1.00  0.00     0.023 C 
BRANCH  24  25
ATOM     25  C   UNL A   1      40.520  20.089  26.479  1.00  0.00     0.023 C 
BRANCH  25  26
ATOM     26  C   UNL A   1      40.045  21.447  26.989  1.00  0.00     0.116 C 
BRANCH  26  27
ATOM     27  N   UNL A   1      38.921  21.961  26.224  1.00  0.00    -0.352 N 
ATOM     28  C   UNL A   1      38.424  23.239  26.148  1.00  0.00     0.251 C 
ATOM     29  H   UNL A   1      38.445  21.293  25.678  1.00  0.00     0.163 HD
ATOM     30  O   UNL A   1      37.342  23.436  25.601  1.00  0.00    -0.269 OA
BRANCH  28  31
ATOM     31  C   UNL A   1      39.173  24.371  26.738  1.00  0.00     0.039 A 
ATOM     32  C   UNL A   1      40.016  25.122  25.916  1.00  0.00     0.014 A 
ATOM     33  C   UNL A   1      39.062  24.682  28.096  1.00  0.00     0.014 A 
ATOM     34  C   UNL A   1      40.698  26.224  26.441  1.00  0.00     0.010 A 
ATOM     35  C   UNL A   1      39.683  25.824  28.600  1.00  0.00     0.010 A 
ATOM     36  C   UNL A   1      40.509  26.607  27.780  1.00  0.00    -0.014 A 
BRANCH  36  37
ATOM     37  C   UNL A   1      41.158  27.828  28.330  1.00  0.00     0.031 A 
ATOM     38  C   UNL A   1      42.659  27.923  28.405  1.00  0.00     0.074 A 
ATOM     39  C   UNL A   1      40.395  28.826  28.817  1.00  0.00     0.049 A 
ATOM     40  N   UNL A   1      43.402  28.875  28.910  1.00  0.00    -0.248 NA
ATOM     41  C   UNL A   1      43.426  26.790  27.862  1.00  0.00     0.031 C 
ATOM     42  C   UNL A   1      38.931  28.834  28.844  1.00  0.00     0.029 A 
ATOM     43  N   UNL A   1      40.742  30.023  29.393  1.00  0.00    -0.354 N 
ATOM     44  C   UNL A   1      44.718  28.454  28.754  1.00  0.00     0.074 A 
ATOM     45  C   UNL A   1      44.670  27.136  28.160  1.00  0.00     0.031 C 
ATOM     46  C   UNL A   1      38.506  29.985  29.390  1.00  0.00     0.029 A 
ATOM     47  C   UNL A   1      39.663  30.778  29.793  1.00  0.00     0.049 A 
ATOM     48  H   UNL A   1      41.675  30.313  29.512  1.00  0.00     0.167 HD
ATOM     49  C   UNL A   1      45.861  29.115  29.057  1.00  0.00     0.037 A 
ATOM     50  C   UNL A   1      39.608  31.968  30.423  1.00  0.00     0.037 A 
ATOM     51  C   UNL A   1      45.902  30.434  29.638  1.00  0.00     0.049 A 
ATOM     52  C   UNL A   1      40.892  32.676  30.766  1.00  0.00     0.074 A 
ATOM     53  C   UNL A   1      47.010  31.206  29.938  1.00  0.00     0.029 A 
ATOM     54  N   UNL A   1      44.789  31.171  30.013  1.00  0.00    -0.354 N 
ATOM     55  N   UNL A   1      42.128  32.290  30.553  1.00  0.00    -0.248 NA
ATOM     56  C   UNL A   1      40.776  33.983  31.426  1.00  0.00     0.031 C 
ATOM     57  C   UNL A   1      46.569  32.390  30.541  1.00  0.00     0.029 A 
ATOM     58  C   UNL A   1      45.183  32.381  30.561  1.00  0.00     0.049 A 
ATOM     59  H   UNL A   1      43.854  30.878  29.905  1.00  0.00     0.167 HD
ATOM     60  C   UNL A   1      42.935  33.319  31.026  1.00  0.00     0.074 A 
ATOM     61  C   UNL A   1      42.047  34.349  31.524  1.00  0.00     0.031 C 
ATOM     62  C   UNL A   1      44.289  33.403  31.047  1.00  0.00     0.037 A 
BRANCH  49  63
ATOM     63  C   UNL A   1      47.167  28.426  28.762  1.00  0.00     0.058 A 
ATOM     64  C   UNL A   1      47.783  27.580  29.700  1.00  0.00     0.135 A 
ATOM     65  C   UNL A   1      47.792  28.578  27.514  1.00  0.00     0.135 A 
ATOM     66  F   UNL A   1      47.239  27.407  30.915  1.00  0.00    -0.206 F 
ATOM     67  C   UNL A   1      48.986  26.938  29.424  1.00  0.00     0.059 A 
ATOM     68  C   UNL A   1      48.979  27.920  27.204  1.00  0.00     0.059 A 
ATOM     69  F   UNL A   1      47.249  29.371  26.578  1.00  0.00    -0.206 F 
ATOM     70  C   UNL A   1      49.577  27.114  28.172  1.00  0.00     0.060 A 
BRANCH  70  71
ATOM     71  S   UNL A   1      51.135  26.269  27.830  1.00  0.00     0.124 S 
ATOM     72  O   UNL A   1      51.838  26.434  29.099  1.00  0.00    -0.237 OA
ATOM     73  O   UNL A   1      50.693  24.913  27.522  1.00  0.00    -0.237 OA
ATOM     74  O   UNL A   1      51.689  27.016  26.705  1.00  0.00    -0.744 OA
ENDBRANCH  70  71
ENDBRANCH  49  63
BRANCH  50  75
ATOM     75  C   UNL A   1      38.290  32.569  30.762  1.00  0.00     0.058 A 
ATOM     76  C   UNL A   1      37.655  32.285  31.980  1.00  0.00     0.135 A 
ATOM     77  C   UNL A   1      37.643  33.448  29.879  1.00  0.00     0.135 A 
ATOM     78  F   UNL A   1      38.228  31.445  32.855  1.00  0.00    -0.206 F 
ATOM     79  C   UNL A   1      36.420  32.837  32.305  1.00  0.00     0.059 A 
ATOM     80  C   UNL A   1      36.421  34.036  30.194  1.00  0.00     0.059 A 
ATOM     81  F   UNL A   1      38.215  33.767  28.707  1.00  0.00    -0.206 F 
ATOM     82  C   UNL A   1      35.812  33.714  31.406  1.00  0.00     0.060 A 
BRANCH  82  83
ATOM     83  S   UNL A   1      34.233  34.463  31.860  1.00  0.00     0.124 S 
ATOM     84  O   UNL A   1      33.714  33.496  32.820  1.00  0.00    -0.237 OA
ATOM     85  O   UNL A   1      34.650  35.748  32.409  1.00  0.00    -0.237 OA
ATOM     86  O   UNL A   1      33.518  34.535  30.588  1.00  0.00    -0.744 OA
ENDBRANCH  82  83
ENDBRANCH  50  75
BRANCH  62  87
ATOM     87  C   UNL A   1      44.899  34.668  31.589  1.00  0.00     0.058 A 
ATOM     88  C   UNL A   1      45.267  34.796  32.938  1.00  0.00     0.135 A 
ATOM     89  C   UNL A   1      45.168  35.749  30.733  1.00  0.00     0.135 A 
ATOM     90  F   UNL A   1      45.028  33.796  33.802  1.00  0.00    -0.206 F 
ATOM     91  C   UNL A   1      45.858  35.959  33.423  1.00  0.00     0.059 A 
ATOM     92  C   UNL A   1      45.785  36.908  31.190  1.00  0.00     0.059 A 
ATOM     93  F   UNL A   1      44.846  35.678  29.431  1.00  0.00    -0.206 F 
ATOM     94  C   UNL A   1      46.115  37.009  32.540  1.00  0.00     0.060 A 
BRANCH  94  95
ATOM     95  S   UNL A   1      46.914  38.498  33.178  1.00  0.00     0.124 S 
ATOM     96  O   UNL A   1      47.665  37.967  34.310  1.00  0.00    -0.237 OA
ATOM     97  O   UNL A   1      47.711  38.937  32.037  1.00  0.00    -0.237 OA
ATOM     98  O   UNL A   1      45.791  39.366  33.521  1.00  0.00    -0.744 OA
ENDBRANCH  94  95
ENDBRANCH  62  87
ENDBRANCH  36  37
ENDBRANCH  28  31
ENDBRANCH  26  27
ENDBRANCH  25  26
ENDBRANCH  24  25
ENDBRANCH   1  24
TORSDOF 20
ENDMDL
MODEL 2
REMARK VINA RESULT:     -10.0      4.983     11.390
REMARK SMILES O=C(CCCCC(=O)c1ccc(-c2ccccc2)cc1)NCCCCNC(=O)c1ccc(-c2c3nc(c(-c4c(F)cc(S(=O)(=O)[O-])cc4F)c4ccc([nH]4)c(-c4c(F)cc(S(=O)(=O)[O-])cc4F)c4nc(c(-c5c(F)cc(S(=O)(=O)[O-])cc5F)c5ccc2[nH]5)C=C4)C=C3)cc1
REMARK SMILES IDX 22 1 21 2 1 3 2 4 3 6 4 7 5 8 6 9 7 10 8 11 9 12 10 13 20 14
REMARK SMILES IDX 11 15 19 16 12 17 13 18 14 19 18 20 15 21 17 22 16 23 23 24
REMARK SMILES IDX 24 25 25 26 26 27 27 28 28 30 29 31 30 32 94 33 31 34 93 35
REMARK SMILES IDX 32 36 33 37 34 38 87 39 35 40 92 41 86 42 88 43 36 44 91 45
REMARK SMILES IDX 85 46 84 47 37 49 71 50 50 51 70 52 51 53 54 54 69 55 89 56
REMARK SMILES IDX 52 57 53 58 68 60 90 61 55 62 38 63 39 64 48 65 40 66 41 67
REMARK SMILES IDX 47 68 49 69 42 70 43 71 44 72 45 73 46 74 72 75 73 76 82 77
REMARK SMILES IDX 74 78 75 79 81 80 83 81 76 82 77 83 78 84 79 85 80 86 56 87
REMARK SMILES IDX 57 88 66 89 58 90 59 91 65 92 67 93 60 94 61 95 62 96 63 97
REMARK SMILES IDX 64 98
REMARK H PARENT 21 5 26 29 88 48 54 59
REMARK Flexibility Score: inf
ROOT
ATOM      1  C   UNL A   1      30.750  26.294  26.619  1.00  0.00     0.116 C 
ENDROOT
BRANCH   1   2
ATOM      2  N   UNL A   1      31.839  25.348  26.520  1.00  0.00    -0.356 N 
ATOM      3  O   UNL A   1      30.672  23.507  27.250  1.00  0.00    -0.275 OA
ATOM      4  C   UNL A   1      31.700  24.016  26.811  1.00  0.00     0.219 C 
ATOM      5  H   UNL A   1      32.720  25.676  26.228  1.00  0.00     0.163 HD
BRANCH   4   6
ATOM      6  C   UNL A   1      32.946  23.206  26.535  1.00  0.00     0.100 C 
BRANCH   6   7
ATOM      7  C   UNL A   1      32.631  21.940  25.736  1.00  0.00     0.010 C 
BRANCH   7   8
ATOM      8  C   UNL A   1      33.194  21.825  24.306  1.00  0.00     0.009 C 
BRANCH   8   9
ATOM      9  C   UNL A   1      32.340  22.309  23.132  1.00  0.00     0.081 C 
BRANCH   9  10
ATOM     10  C   UNL A   1      32.744  23.612  22.453  1.00  0.00     0.162 C 
ATOM     11  O   UNL A   1      33.635  23.669  21.612  1.00  0.00    -0.294 OA
BRANCH  10  12
ATOM     12  C   UNL A   1      31.935  24.818  22.696  1.00  0.00     0.018 A 
ATOM     13  C   UNL A   1      32.435  26.066  22.332  1.00  0.00     0.012 A 
ATOM     14  C   UNL A   1      30.687  24.713  23.294  1.00  0.00     0.012 A 
ATOM     15  C   UNL A   1      31.635  27.203  22.495  1.00  0.00     0.009 A 
ATOM     16  C   UNL A   1      29.872  25.840  23.398  1.00  0.00     0.009 A 
ATOM     17  C   UNL A   1      30.322  27.113  22.998  1.00  0.00    -0.018 A 
BRANCH  17  18
ATOM     18  C   UNL A   1      29.448  28.302  23.126  1.00  0.00    -0.018 A 
ATOM     19  C   UNL A   1      28.048  28.207  23.014  1.00  0.00     0.009 A 
ATOM     20  C   UNL A   1      29.985  29.580  23.376  1.00  0.00     0.009 A 
ATOM     21  C   UNL A   1      27.229  29.336  23.129  1.00  0.00     0.001 A 
ATOM     22  C   UNL A   1      29.169  30.706  23.506  1.00  0.00     0.001 A 
ATOM     23  C   UNL A   1      27.791  30.585  23.376  1.00  0.00     0.000 A 
ENDBRANCH  17  18
ENDBRANCH  10  12
ENDBRANCH   9  10
ENDBRANCH   8   9
ENDBRANCH   7   8
ENDBRANCH   6   7
ENDBRANCH   4   6
ENDBRANCH   1   2
BRANCH   1  24
ATOM     24  C   UNL A   1      31.233  27.725  26.412  1.00  0.00     0.023 C 
BRANCH  24  25
ATOM     25  C   UNL A   1      32.719  27.860  26.060  1.00  0.00     0.023 C 
BRANCH  25  26
ATOM     26  C   UNL A   1      33.631  28.260  27.217  1.00  0.00     0.116 C 
BRANCH  26  27
ATOM     27  N   UNL A   1      33.523  29.674  27.540  1.00  0.00    -0.352 N 
ATOM     28  C   UNL A   1      34.433  30.507  28.143  1.00  0.00     0.251 C 
ATOM     29  H   UNL A   1      32.669  30.097  27.288  1.00  0.00     0.163 HD
ATOM     30  O   UNL A   1      34.078  31.625  28.511  1.00  0.00    -0.269 OA
BRANCH  28  31
ATOM     31  C   UNL A   1      35.825  30.059  28.369  1.00  0.00     0.039 A 
ATOM     32  C   UNL A   1      36.722  30.080  27.298  1.00  0.00     0.014 A 
ATOM     33  C   UNL A   1      36.243  29.602  29.622  1.00  0.00     0.014 A 
ATOM     34  C   UNL A   1      38.053  29.705  27.500  1.00  0.00     0.010 A 
ATOM     35  C   UNL A   1      37.586  29.300  29.839  1.00  0.00     0.010 A 
ATOM     36  C   UNL A   1      38.507  29.346  28.781  1.00  0.00    -0.014 A 
BRANCH  36  37
ATOM     37  C   UNL A   1      39.939  29.029  29.029  1.00  0.00     0.031 A 
ATOM     38  C   UNL A   1      40.869  30.080  29.575  1.00  0.00     0.074 A 
ATOM     39  C   UNL A   1      40.416  27.810  28.706  1.00  0.00     0.049 A 
ATOM     40  N   UNL A   1      42.156  30.010  29.795  1.00  0.00    -0.248 NA
ATOM     41  C   UNL A   1      40.277  31.389  29.895  1.00  0.00     0.031 C 
ATOM     42  C   UNL A   1      39.628  26.720  28.127  1.00  0.00     0.029 A 
ATOM     43  N   UNL A   1      41.681  27.285  28.807  1.00  0.00    -0.354 N 
ATOM     44  C   UNL A   1      42.531  31.262  30.269  1.00  0.00     0.074 A 
ATOM     45  C   UNL A   1      41.344  32.090  30.251  1.00  0.00     0.031 C 
ATOM     46  C   UNL A   1      40.421  25.653  27.942  1.00  0.00     0.029 A 
ATOM     47  C   UNL A   1      41.782  25.993  28.346  1.00  0.00     0.049 A 
ATOM     48  H   UNL A   1      42.444  27.786  29.174  1.00  0.00     0.167 HD
ATOM     49  C   UNL A   1      43.745  31.678  30.702  1.00  0.00     0.037 A 
ATOM     50  C   UNL A   1      42.849  25.176  28.246  1.00  0.00     0.037 A 
ATOM     51  C   UNL A   1      44.921  30.844  30.729  1.00  0.00     0.049 A 
ATOM     52  C   UNL A   1      44.193  25.666  28.717  1.00  0.00     0.074 A 
ATOM     53  C   UNL A   1      46.186  31.158  31.193  1.00  0.00     0.029 A 
ATOM     54  N   UNL A   1      44.979  29.537  30.268  1.00  0.00    -0.354 N 
ATOM     55  N   UNL A   1      44.515  26.833  29.222  1.00  0.00    -0.248 NA
ATOM     56  C   UNL A   1      45.317  24.726  28.613  1.00  0.00     0.031 C 
ATOM     57  C   UNL A   1      47.022  30.058  30.966  1.00  0.00     0.029 A 
ATOM     58  C   UNL A   1      46.262  29.037  30.416  1.00  0.00     0.049 A 
ATOM     59  H   UNL A   1      44.218  29.037  29.891  1.00  0.00     0.167 HD
ATOM     60  C   UNL A   1      45.870  26.757  29.522  1.00  0.00     0.074 A 
ATOM     61  C   UNL A   1      46.305  25.426  29.154  1.00  0.00     0.031 C 
ATOM     62  C   UNL A   1      46.682  27.706  30.053  1.00  0.00     0.037 A 
BRANCH  49  63
ATOM     63  C   UNL A   1      43.868  33.098  31.187  1.00  0.00     0.058 A 
ATOM     64  C   UNL A   1      44.115  34.161  30.302  1.00  0.00     0.135 A 
ATOM     65  C   UNL A   1      43.697  33.408  32.546  1.00  0.00     0.135 A 
ATOM     66  F   UNL A   1      44.301  33.923  28.994  1.00  0.00    -0.206 F 
ATOM     67  C   UNL A   1      44.220  35.474  30.751  1.00  0.00     0.059 A 
ATOM     68  C   UNL A   1      43.766  34.718  33.013  1.00  0.00     0.059 A 
ATOM     69  F   UNL A   1      43.456  32.434  33.437  1.00  0.00    -0.206 F 
ATOM     70  C   UNL A   1      44.044  35.743  32.108  1.00  0.00     0.060 A 
BRANCH  70  71
ATOM     71  S   UNL A   1      44.180  37.453  32.672  1.00  0.00     0.124 S 
ATOM     72  O   UNL A   1      43.044  37.548  33.584  1.00  0.00    -0.237 OA
ATOM     73  O   UNL A   1      45.498  37.470  33.298  1.00  0.00    -0.237 OA
ATOM     74  O   UNL A   1      44.063  38.228  31.441  1.00  0.00    -0.744 OA
ENDBRANCH  70  71
ENDBRANCH  49  63
BRANCH  50  75
ATOM     75  C   UNL A   1      42.688  23.807  27.685  1.00  0.00     0.058 A 
ATOM     76  C   UNL A   1      42.666  23.590  26.300  1.00  0.00     0.135 A 
ATOM     77  C   UNL A   1      42.563  22.689  28.523  1.00  0.00     0.135 A 
ATOM     78  F   UNL A   1      42.774  24.627  25.456  1.00  0.00    -0.206 F 
ATOM     79  C   UNL A   1      42.510  22.314  25.764  1.00  0.00     0.059 A 
ATOM     80  C   UNL A   1      42.434  21.400  28.012  1.00  0.00     0.059 A 
ATOM     81  F   UNL A   1      42.593  22.839  29.857  1.00  0.00    -0.206 F 
ATOM     82  C   UNL A   1      42.398  21.225  26.629  1.00  0.00     0.060 A 
BRANCH  82  83
ATOM     83  S   UNL A   1      42.244  19.570  25.923  1.00  0.00     0.124 S 
ATOM     84  O   UNL A   1      42.495  18.730  27.088  1.00  0.00    -0.237 OA
ATOM     85  O   UNL A   1      40.874  19.577  25.422  1.00  0.00    -0.237 OA
ATOM     86  O   UNL A   1      43.280  19.547  24.893  1.00  0.00    -0.744 OA
ENDBRANCH  82  83
ENDBRANCH  50  75
BRANCH  62  87
ATOM     87  C   UNL A   1      48.117  27.330  30.310  1.00  0.00     0.058 A 
ATOM     88  C   UNL A   1      49.137  27.621  29.391  1.00  0.00     0.135 A 
ATOM     89  C   UNL A   1      48.483  26.715  31.519  1.00  0.00     0.135 A 
ATOM     90  F   UNL A   1      48.843  28.201  28.216  1.00  0.00    -0.206 F 
ATOM     91  C   UNL A   1      50.464  27.294  29.650  1.00  0.00     0.059 A 
ATOM     92  C   UNL A   1      49.807  26.408  31.813  1.00  0.00     0.059 A 
ATOM     93  F   UNL A   1      47.549  26.422  32.439  1.00  0.00    -0.206 F 
ATOM     94  C   UNL A   1      50.790  26.691  30.866  1.00  0.00     0.060 A 
BRANCH  94  95
ATOM     95  S   UNL A   1      52.522  26.305  31.203  1.00  0.00     0.124 S 
ATOM     96  O   UNL A   1      53.064  26.183  29.855  1.00  0.00    -0.237 OA
ATOM     97  O   UNL A   1      52.959  27.474  31.960  1.00  0.00    -0.237 OA
ATOM     98  O   UNL A   1      52.451  25.062  31.967  1.00  0.00    -0.744 OA
ENDBRANCH  94  95
ENDBRANCH  62  87
ENDBRANCH  36  37
ENDBRANCH  28  31
ENDBRANCH  26  27
ENDBRANCH  25  26
ENDBRANCH  24  25
ENDBRANCH   1  24
TORSDOF 20
ENDMDL
MODEL 3
REMARK VINA RESULT:     -10.0      4.238      5.478
REMARK SMILES O=C(CCCCC(=O)c1ccc(-c2ccccc2)cc1)NCCCCNC(=O)c1ccc(-c2c3nc(c(-c4c(F)cc(S(=O)(=O)[O-])cc4F)c4ccc([nH]4)c(-c4c(F)cc(S(=O)(=O)[O-])cc4F)c4nc(c(-c5c(F)cc(S(=O)(=O)[O-])cc5F)c5ccc2[nH]5)C=C4)C=C3)cc1
REMARK SMILES IDX 22 1 21 2 1 3 2 4 3 6 4 7 5 8 6 9 7 10 8 11 9 12 10 13 20 14
REMARK SMILES IDX 11 15 19 16 12 17 13 18 14 19 18 20 15 21 17 22 16 23 23 24
REMARK SMILES IDX 24 25 25 26 26 27 27 28 28 30 29 31 30 32 94 33 31 34 93 35
REMARK SMILES IDX 32 36 33 37 34 38 87 39 35 40 92 41 86 42 88 43 36 44 91 45
REMARK SMILES IDX 85 46 84 47 37 49 71 50 50 51 70 52 51 53 54 54 69 55 89 56
REMARK SMILES IDX 52 57 53 58 68 60 90 61 55 62 38 63 39 64 48 65 40 66 41 67
REMARK SMILES IDX 47 68 49 69 42 70 43 71 44 72 45 73 46 74 72 75 73 76 82 77
REMARK SMILES IDX 74 78 75 79 81 80 83 81 76 82 77 83 78 84 79 85 80 86 56 87
REMARK SMILES IDX 57 88 66 89 58 90 59 91 65 92 67 93 60 94 61 95 62 96 63 97
REMARK SMILES IDX 64 98
REMARK H PARENT 21 5 26 29 88 48 54 59
REMARK Flexibility Score: inf
ROOT
ATOM      1  C   UNL A   1      41.802  19.572  26.110  1.00  0.00     0.116 C 
ENDROOT
BRANCH   1   2
ATOM      2  N   UNL A   1      43.107  20.157  25.896  1.00  0.00    -0.356 N 
ATOM      3  O   UNL A   1      44.132  18.261  25.097  1.00  0.00    -0.275 OA
ATOM      4  C   UNL A   1      44.163  19.458  25.370  1.00  0.00     0.219 C 
ATOM      5  H   UNL A   1      43.244  21.101  26.139  1.00  0.00     0.163 HD
BRANCH   4   6
ATOM      6  C   UNL A   1      45.393  20.305  25.144  1.00  0.00     0.100 C 
BRANCH   6   7
ATOM      7  C   UNL A   1      45.130  21.425  24.136  1.00  0.00     0.010 C 
BRANCH   7   8
ATOM      8  C   UNL A   1      45.268  22.883  24.616  1.00  0.00     0.009 C 
BRANCH   8   9
ATOM      9  C   UNL A   1      44.239  23.439  25.603  1.00  0.00     0.081 C 
BRANCH   9  10
ATOM     10  C   UNL A   1      44.649  24.631  26.458  1.00  0.00     0.162 C 
ATOM     11  O   UNL A   1      44.935  25.722  25.975  1.00  0.00    -0.294 OA
BRANCH  10  12
ATOM     12  C   UNL A   1      44.551  24.519  27.923  1.00  0.00     0.018 A 
ATOM     13  C   UNL A   1      44.011  23.367  28.489  1.00  0.00     0.012 A 
ATOM     14  C   UNL A   1      44.984  25.560  28.733  1.00  0.00     0.012 A 
ATOM     15  C   UNL A   1      43.988  23.230  29.883  1.00  0.00     0.009 A 
ATOM     16  C   UNL A   1      45.012  25.392  30.117  1.00  0.00     0.009 A 
ATOM     17  C   UNL A   1      44.520  24.224  30.728  1.00  0.00    -0.018 A 
BRANCH  17  18
ATOM     18  C   UNL A   1      44.547  24.067  32.202  1.00  0.00    -0.018 A 
ATOM     19  C   UNL A   1      43.658  23.204  32.870  1.00  0.00     0.009 A 
ATOM     20  C   UNL A   1      45.473  24.772  32.994  1.00  0.00     0.009 A 
ATOM     21  C   UNL A   1      43.685  23.067  34.262  1.00  0.00     0.001 A 
ATOM     22  C   UNL A   1      45.512  24.626  34.382  1.00  0.00     0.001 A 
ATOM     23  C   UNL A   1      44.614  23.777  35.017  1.00  0.00     0.000 A 
ENDBRANCH  17  18
ENDBRANCH  10  12
ENDBRANCH   9  10
ENDBRANCH   8   9
ENDBRANCH   7   8
ENDBRANCH   6   7
ENDBRANCH   4   6
ENDBRANCH   1   2
BRANCH   1  24
ATOM     24  C   UNL A   1      40.749  20.641  26.377  1.00  0.00     0.023 C 
BRANCH  24  25
ATOM     25  C   UNL A   1      41.009  21.509  27.614  1.00  0.00     0.023 C 
BRANCH  25  26
ATOM     26  C   UNL A   1      40.393  22.905  27.574  1.00  0.00     0.116 C 
BRANCH  26  27
ATOM     27  N   UNL A   1      40.810  23.658  26.402  1.00  0.00    -0.352 N 
ATOM     28  C   UNL A   1      40.973  25.012  26.244  1.00  0.00     0.251 C 
ATOM     29  H   UNL A   1      41.003  23.115  25.603  1.00  0.00     0.163 HD
ATOM     30  O   UNL A   1      41.139  25.473  25.117  1.00  0.00    -0.269 OA
BRANCH  28  31
ATOM     31  C   UNL A   1      40.931  25.915  27.416  1.00  0.00     0.039 A 
ATOM     32  C   UNL A   1      41.903  26.912  27.533  1.00  0.00     0.014 A 
ATOM     33  C   UNL A   1      39.953  25.772  28.404  1.00  0.00     0.014 A 
ATOM     34  C   UNL A   1      41.855  27.804  28.608  1.00  0.00     0.010 A 
ATOM     35  C   UNL A   1      39.862  26.708  29.433  1.00  0.00     0.010 A 
ATOM     36  C   UNL A   1      40.813  27.734  29.548  1.00  0.00    -0.014 A 
BRANCH  36  37
ATOM     37  C   UNL A   1      40.698  28.730  30.647  1.00  0.00     0.031 A 
ATOM     38  C   UNL A   1      41.568  28.617  31.871  1.00  0.00     0.074 A 
ATOM     39  C   UNL A   1      39.770  29.704  30.568  1.00  0.00     0.049 A 
ATOM     40  N   UNL A   1      41.566  29.348  32.956  1.00  0.00    -0.248 NA
ATOM     41  C   UNL A   1      42.552  27.522  31.889  1.00  0.00     0.031 C 
ATOM     42  C   UNL A   1      38.836  29.894  29.456  1.00  0.00     0.029 A 
ATOM     43  N   UNL A   1      39.448  30.711  31.444  1.00  0.00    -0.354 N 
ATOM     44  C   UNL A   1      42.538  28.801  33.786  1.00  0.00     0.074 A 
ATOM     45  C   UNL A   1      43.069  27.641  33.103  1.00  0.00     0.031 C 
ATOM     46  C   UNL A   1      38.061  30.961  29.709  1.00  0.00     0.029 A 
ATOM     47  C   UNL A   1      38.410  31.506  31.017  1.00  0.00     0.049 A 
ATOM     48  H   UNL A   1      39.916  30.851  32.299  1.00  0.00     0.167 HD
ATOM     49  C   UNL A   1      42.966  29.238  34.995  1.00  0.00     0.037 A 
ATOM     50  C   UNL A   1      37.797  32.548  31.613  1.00  0.00     0.037 A 
ATOM     51  C   UNL A   1      42.442  30.403  35.663  1.00  0.00     0.049 A 
ATOM     52  C   UNL A   1      38.278  33.005  32.965  1.00  0.00     0.074 A 
ATOM     53  C   UNL A   1      42.841  30.954  36.869  1.00  0.00     0.029 A 
ATOM     54  N   UNL A   1      41.402  31.190  35.191  1.00  0.00    -0.354 N 
ATOM     55  N   UNL A   1      39.241  32.513  33.707  1.00  0.00    -0.248 NA
ATOM     56  C   UNL A   1      37.594  34.163  33.557  1.00  0.00     0.031 C 
ATOM     57  C   UNL A   1      42.009  32.044  37.149  1.00  0.00     0.029 A 
ATOM     58  C   UNL A   1      41.130  32.209  36.090  1.00  0.00     0.049 A 
ATOM     59  H   UNL A   1      40.926  31.045  34.341  1.00  0.00     0.167 HD
ATOM     60  C   UNL A   1      39.299  33.319  34.839  1.00  0.00     0.074 A 
ATOM     61  C   UNL A   1      38.282  34.337  34.678  1.00  0.00     0.031 C 
ATOM     62  C   UNL A   1      40.120  33.223  35.915  1.00  0.00     0.037 A 
BRANCH  49  63
ATOM     63  C   UNL A   1      44.060  28.458  35.674  1.00  0.00     0.058 A 
ATOM     64  C   UNL A   1      43.775  27.453  36.614  1.00  0.00     0.135 A 
ATOM     65  C   UNL A   1      45.408  28.688  35.356  1.00  0.00     0.135 A 
ATOM     66  F   UNL A   1      42.505  27.200  36.969  1.00  0.00    -0.206 F 
ATOM     67  C   UNL A   1      44.786  26.728  37.236  1.00  0.00     0.059 A 
ATOM     68  C   UNL A   1      46.435  27.952  35.942  1.00  0.00     0.059 A 
ATOM     69  F   UNL A   1      45.741  29.633  34.463  1.00  0.00    -0.206 F 
ATOM     70  C   UNL A   1      46.113  26.985  36.893  1.00  0.00     0.060 A 
BRANCH  70  71
ATOM     71  S   UNL A   1      47.412  26.030  37.707  1.00  0.00     0.124 S 
ATOM     72  O   UNL A   1      48.422  25.961  36.656  1.00  0.00    -0.237 OA
ATOM     73  O   UNL A   1      47.746  26.872  38.851  1.00  0.00    -0.237 OA
ATOM     74  O   UNL A   1      46.756  24.767  38.031  1.00  0.00    -0.744 OA
ENDBRANCH  70  71
ENDBRANCH  49  63
BRANCH  50  75
ATOM     75  C   UNL A   1      36.667  33.235  30.931  1.00  0.00     0.058 A 
ATOM     76  C   UNL A   1      35.344  33.056  31.360  1.00  0.00     0.135 A 
ATOM     77  C   UNL A   1      36.890  34.093  29.842  1.00  0.00     0.135 A 
ATOM     78  F   UNL A   1      35.078  32.241  32.391  1.00  0.00    -0.206 F 
ATOM     79  C   UNL A   1      34.279  33.690  30.726  1.00  0.00     0.059 A 
ATOM     80  C   UNL A   1      35.845  34.761  29.209  1.00  0.00     0.059 A 
ATOM     81  F   UNL A   1      38.138  34.312  29.401  1.00  0.00    -0.206 F 
ATOM     82  C   UNL A   1      34.541  34.543  29.653  1.00  0.00     0.060 A 
BRANCH  82  83
ATOM     83  S   UNL A   1      33.157  35.397  28.869  1.00  0.00     0.124 S 
ATOM     84  O   UNL A   1      32.413  35.878  30.027  1.00  0.00    -0.237 OA
ATOM     85  O   UNL A   1      33.836  36.417  28.077  1.00  0.00    -0.237 OA
ATOM     86  O   UNL A   1      32.506  34.344  28.094  1.00  0.00    -0.744 OA
ENDBRANCH  82  83
ENDBRANCH  50  75
BRANCH  62  87
ATOM     87  C   UNL A   1      39.985  34.269  36.989  1.00  0.00     0.058 A 
ATOM     88  C   UNL A   1      39.104  34.113  38.071  1.00  0.00     0.135 A 
ATOM     89  C   UNL A   1      40.787  35.421  36.961  1.00  0.00     0.135 A 
ATOM     90  F   UNL A   1      38.308  33.034  38.144  1.00  0.00    -0.206 F 
ATOM     91  C   UNL A   1      39.007  35.072  39.074  1.00  0.00     0.059 A 
ATOM     92  C   UNL A   1      40.729  36.378  37.969  1.00  0.00     0.059 A 
ATOM     93  F   UNL A   1      41.654  35.618  35.954  1.00  0.00    -0.206 F 
ATOM     94  C   UNL A   1      39.826  36.201  39.015  1.00  0.00     0.060 A 
BRANCH  94  95
ATOM     95  S   UNL A   1      39.714  37.421  40.342  1.00  0.00     0.124 S 
ATOM     96  O   UNL A   1      40.252  36.674  41.474  1.00  0.00    -0.237 OA
ATOM     97  O   UNL A   1      40.553  38.504  39.841  1.00  0.00    -0.237 OA
ATOM     98  O   UNL A   1      38.287  37.721  40.409  1.00  0.00    -0.744 OA
ENDBRANCH  94  95
ENDBRANCH  62  87
ENDBRANCH  36  37
ENDBRANCH  28  31
ENDBRANCH  26  27
ENDBRANCH  25  26
ENDBRANCH  24  25
ENDBRANCH   1  24
TORSDOF 20
ENDMDL
