MODEL 1
REMARK VINA RESULT:     -12.1      0.000      0.000
REMARK SMILES O=C(NCCCCNC(=O)c1ccc(-c2c3nc(c(-c4c(F)cc(S(=O)(=O)[O-])cc4F)c4ccc([nH]4)c(-c4c(F)cc(S(=O)(=O)[O-])cc4F)c4nc(c(-c5c(F)cc(S(=O)(=O)[O-])cc5F)c5ccc2[nH]5)C=C4)C=C3)cc1)C1=Cc2ccc(Cl)c(Cl)c2O[C@@H]1C(F)(F)F
REMARK SMILES IDX 6 1 5 2 4 3 3 4 1 5 2 6 77 8 78 9 88 10 79 11 87 12 80 13
REMARK SMILES IDX 86 14 81 15 84 16 82 17 85 18 83 19 89 20 90 21 91 22 92 23
REMARK SMILES IDX 7 24 8 25 9 26 10 28 11 29 12 30 76 31 13 32 75 33 14 34
REMARK SMILES IDX 15 35 16 36 69 37 17 38 74 39 68 40 70 41 18 42 73 43 67 44
REMARK SMILES IDX 66 45 19 47 53 48 32 49 52 50 33 51 36 52 51 53 71 54 34 55
REMARK SMILES IDX 35 56 50 58 72 59 37 60 20 61 21 62 30 63 22 64 23 65 29 66
REMARK SMILES IDX 31 67 24 68 25 69 26 70 27 71 28 72 54 73 55 74 64 75 56 76
REMARK SMILES IDX 57 77 63 78 65 79 58 80 59 81 60 82 61 83 62 84 38 85 39 86
REMARK SMILES IDX 48 87 40 88 41 89 47 90 49 91 42 92 43 93 44 94 45 95 46 96
REMARK H PARENT 3 7 8 27 70 46 36 57
REMARK Flexibility Score: inf
ROOT
ATOM      1  C   UNL A   1      32.155  28.457  26.313  1.00  0.00     0.023 C 
ENDROOT
BRANCH   1   2
ATOM      2  C   UNL A   1      31.158  27.442  26.870  1.00  0.00     0.023 C 
BRANCH   2   3
ATOM      3  C   UNL A   1      31.037  26.160  26.044  1.00  0.00     0.116 C 
BRANCH   3   4
ATOM      4  N   UNL A   1      31.057  24.934  26.847  1.00  0.00    -0.352 N 
ATOM      5  O   UNL A   1      31.935  22.990  27.636  1.00  0.00    -0.270 OA
ATOM      6  C   UNL A   1      31.872  23.828  26.746  1.00  0.00     0.251 C 
ATOM      7  H   UNL A   1      30.388  24.895  27.567  1.00  0.00     0.163 HD
BRANCH   6   8
ATOM      8  C   UNL A   1      32.741  23.730  25.558  1.00  0.00     0.067 C 
ATOM      9  C   UNL A   1      33.798  24.547  25.478  1.00  0.00     0.025 C 
ATOM     10  C   UNL A   1      32.605  22.510  24.703  1.00  0.00     0.314 C 
ATOM     11  C   UNL A   1      35.040  23.833  25.143  1.00  0.00     0.019 A 
ATOM     12  O   UNL A   1      33.839  21.757  24.651  1.00  0.00    -0.474 OA
ATOM     13  C   UNL A   1      36.240  24.446  25.513  1.00  0.00     0.013 A 
ATOM     14  C   UNL A   1      35.011  22.442  24.893  1.00  0.00     0.148 A 
ATOM     15  C   UNL A   1      37.382  23.672  25.718  1.00  0.00     0.023 A 
ATOM     16  C   UNL A   1      36.172  21.670  25.069  1.00  0.00     0.102 A 
ATOM     17  C   UNL A   1      37.348  22.289  25.510  1.00  0.00     0.063 A 
ATOM     18  Cl  UNL A   1      36.086  19.947  24.874  1.00  0.00    -0.079 Cl
ATOM     19  Cl  UNL A   1      38.776  21.398  25.899  1.00  0.00    -0.083 Cl
BRANCH  10  20
ATOM     20  C   UNL A   1      32.124  22.863  23.285  1.00  0.00     0.429 C 
ATOM     21  F   UNL A   1      33.016  23.662  22.648  1.00  0.00    -0.167 F 
ATOM     22  F   UNL A   1      31.962  21.764  22.513  1.00  0.00    -0.167 F 
ATOM     23  F   UNL A   1      30.939  23.522  23.294  1.00  0.00    -0.167 F 
ENDBRANCH  10  20
ENDBRANCH   6   8
ENDBRANCH   3   4
ENDBRANCH   2   3
ENDBRANCH   1   2
BRANCH   1  24
ATOM     24  C   UNL A   1      33.393  28.733  27.167  1.00  0.00     0.116 C 
BRANCH  24  25
ATOM     25  N   UNL A   1      33.475  30.087  27.700  1.00  0.00    -0.352 N 
ATOM     26  C   UNL A   1      34.558  30.713  28.281  1.00  0.00     0.251 C 
ATOM     27  H   UNL A   1      32.651  30.624  27.638  1.00  0.00     0.163 HD
ATOM     28  O   UNL A   1      34.452  31.847  28.740  1.00  0.00    -0.269 OA
BRANCH  26  29
ATOM     29  C   UNL A   1      35.832  29.971  28.404  1.00  0.00     0.039 A 
ATOM     30  C   UNL A   1      36.699  29.933  27.310  1.00  0.00     0.014 A 
ATOM     31  C   UNL A   1      36.217  29.427  29.632  1.00  0.00     0.014 A 
ATOM     32  C   UNL A   1      38.005  29.464  27.483  1.00  0.00     0.010 A 
ATOM     33  C   UNL A   1      37.539  29.032  29.820  1.00  0.00     0.010 A 
ATOM     34  C   UNL A   1      38.454  29.075  28.756  1.00  0.00    -0.014 A 
BRANCH  34  35
ATOM     35  C   UNL A   1      39.886  28.767  29.015  1.00  0.00     0.031 A 
ATOM     36  C   UNL A   1      40.803  29.837  29.538  1.00  0.00     0.074 A 
ATOM     37  C   UNL A   1      40.379  27.558  28.671  1.00  0.00     0.049 A 
ATOM     38  N   UNL A   1      42.101  29.803  29.703  1.00  0.00    -0.248 NA
ATOM     39  C   UNL A   1      40.188  31.127  29.890  1.00  0.00     0.031 C 
ATOM     40  C   UNL A   1      39.604  26.457  28.090  1.00  0.00     0.029 A 
ATOM     41  N   UNL A   1      41.657  27.057  28.738  1.00  0.00    -0.354 N 
ATOM     42  C   UNL A   1      42.460  31.072  30.141  1.00  0.00     0.074 A 
ATOM     43  C   UNL A   1      41.250  31.863  30.188  1.00  0.00     0.031 C 
ATOM     44  C   UNL A   1      40.417  25.411  27.868  1.00  0.00     0.029 A 
ATOM     45  C   UNL A   1      41.777  25.774  28.253  1.00  0.00     0.049 A 
ATOM     46  H   UNL A   1      42.417  27.568  29.100  1.00  0.00     0.167 HD
ATOM     47  C   UNL A   1      43.686  31.529  30.488  1.00  0.00     0.037 A 
ATOM     48  C   UNL A   1      42.861  24.984  28.121  1.00  0.00     0.037 A 
ATOM     49  C   UNL A   1      44.876  30.720  30.496  1.00  0.00     0.049 A 
ATOM     50  C   UNL A   1      44.204  25.505  28.559  1.00  0.00     0.074 A 
ATOM     51  C   UNL A   1      46.145  31.064  30.927  1.00  0.00     0.029 A 
ATOM     52  N   UNL A   1      44.943  29.407  30.057  1.00  0.00    -0.354 N 
ATOM     53  N   UNL A   1      44.508  26.681  29.053  1.00  0.00    -0.248 NA
ATOM     54  C   UNL A   1      45.350  24.595  28.425  1.00  0.00     0.031 C 
ATOM     55  C   UNL A   1      46.988  29.969  30.719  1.00  0.00     0.029 A 
ATOM     56  C   UNL A   1      46.236  28.931  30.191  1.00  0.00     0.049 A 
ATOM     57  H   UNL A   1      44.185  28.890  29.702  1.00  0.00     0.167 HD
ATOM     58  C   UNL A   1      45.873  26.640  29.318  1.00  0.00     0.074 A 
ATOM     59  C   UNL A   1      46.334  25.322  28.936  1.00  0.00     0.031 C 
ATOM     60  C   UNL A   1      46.671  27.607  29.830  1.00  0.00     0.037 A 
BRANCH  47  61
ATOM     61  C   UNL A   1      43.809  32.968  30.901  1.00  0.00     0.058 A 
ATOM     62  C   UNL A   1      43.665  33.366  32.239  1.00  0.00     0.135 A 
ATOM     63  C   UNL A   1      44.137  33.953  29.955  1.00  0.00     0.135 A 
ATOM     64  F   UNL A   1      43.336  32.466  33.179  1.00  0.00    -0.206 F 
ATOM     65  C   UNL A   1      43.827  34.692  32.624  1.00  0.00     0.059 A 
ATOM     66  C   UNL A   1      44.327  35.283  30.321  1.00  0.00     0.059 A 
ATOM     67  F   UNL A   1      44.284  33.627  28.661  1.00  0.00    -0.206 F 
ATOM     68  C   UNL A   1      44.160  35.644  31.658  1.00  0.00     0.060 A 
BRANCH  68  69
ATOM     69  S   UNL A   1      44.397  37.355  32.179  1.00  0.00     0.124 S 
ATOM     70  O   UNL A   1      45.826  37.372  32.479  1.00  0.00    -0.237 OA
ATOM     71  O   UNL A   1      43.990  38.103  30.993  1.00  0.00    -0.237 OA
ATOM     72  O   UNL A   1      43.512  37.485  33.332  1.00  0.00    -0.744 OA
ENDBRANCH  68  69
ENDBRANCH  47  61
BRANCH  48  73
ATOM     73  C   UNL A   1      42.732  23.611  27.562  1.00  0.00     0.058 A 
ATOM     74  C   UNL A   1      42.493  22.512  28.400  1.00  0.00     0.135 A 
ATOM     75  C   UNL A   1      42.870  23.365  26.188  1.00  0.00     0.135 A 
ATOM     76  F   UNL A   1      42.358  22.695  29.723  1.00  0.00    -0.206 F 
ATOM     77  C   UNL A   1      42.426  21.214  27.902  1.00  0.00     0.059 A 
ATOM     78  C   UNL A   1      42.784  22.079  25.662  1.00  0.00     0.059 A 
ATOM     79  F   UNL A   1      43.081  24.384  25.340  1.00  0.00    -0.206 F 
ATOM     80  C   UNL A   1      42.580  21.007  26.531  1.00  0.00     0.060 A 
BRANCH  80  81
ATOM     81  S   UNL A   1      42.477  19.322  25.887  1.00  0.00     0.124 S 
ATOM     82  O   UNL A   1      43.312  19.413  24.696  1.00  0.00    -0.237 OA
ATOM     83  O   UNL A   1      43.020  18.536  26.990  1.00  0.00    -0.237 OA
ATOM     84  O   UNL A   1      41.048  19.145  25.647  1.00  0.00    -0.744 OA
ENDBRANCH  80  81
ENDBRANCH  48  73
BRANCH  60  85
ATOM     85  C   UNL A   1      48.117  27.267  30.052  1.00  0.00     0.058 A 
ATOM     86  C   UNL A   1      49.098  27.568  29.098  1.00  0.00     0.135 A 
ATOM     87  C   UNL A   1      48.531  26.700  31.268  1.00  0.00     0.135 A 
ATOM     88  F   UNL A   1      48.750  28.104  27.917  1.00  0.00    -0.206 F 
ATOM     89  C   UNL A   1      50.443  27.308  29.335  1.00  0.00     0.059 A 
ATOM     90  C   UNL A   1      49.873  26.452  31.536  1.00  0.00     0.059 A 
ATOM     91  F   UNL A   1      47.629  26.402  32.218  1.00  0.00    -0.206 F 
ATOM     92  C   UNL A   1      50.821  26.753  30.560  1.00  0.00     0.060 A 
BRANCH  92  93
ATOM     93  S   UNL A   1      52.575  26.469  30.880  1.00  0.00     0.124 S 
ATOM     94  O   UNL A   1      53.101  26.326  29.527  1.00  0.00    -0.237 OA
ATOM     95  O   UNL A   1      52.966  27.685  31.587  1.00  0.00    -0.237 OA
ATOM     96  O   UNL A   1      52.579  25.254  31.689  1.00  0.00    -0.744 OA
ENDBRANCH  92  93
ENDBRANCH  60  85
ENDBRANCH  34  35
ENDBRANCH  26  29
ENDBRANCH  24  25
ENDBRANCH   1  24
TORSDOF 15
ENDMDL
MODEL 2
REMARK VINA RESULT:     -12.0      5.209     10.557
REMARK SMILES O=C(NCCCCNC(=O)c1ccc(-c2c3nc(c(-c4c(F)cc(S(=O)(=O)[O-])cc4F)c4ccc([nH]4)c(-c4c(F)cc(S(=O)(=O)[O-])cc4F)c4nc(c(-c5c(F)cc(S(=O)(=O)[O-])cc5F)c5ccc2[nH]5)C=C4)C=C3)cc1)C1=Cc2ccc(Cl)c(Cl)c2O[C@@H]1C(F)(F)F
REMARK SMILES IDX 6 1 5 2 4 3 3 4 1 5 2 6 77 8 78 9 88 10 79 11 87 12 80 13
REMARK SMILES IDX 86 14 81 15 84 16 82 17 85 18 83 19 89 20 90 21 91 22 92 23
REMARK SMILES IDX 7 24 8 25 9 26 10 28 11 29 12 30 76 31 13 32 75 33 14 34
REMARK SMILES IDX 15 35 16 36 69 37 17 38 74 39 68 40 70 41 18 42 73 43 67 44
REMARK SMILES IDX 66 45 19 47 53 48 32 49 52 50 33 51 36 52 51 53 71 54 34 55
REMARK SMILES IDX 35 56 50 58 72 59 37 60 20 61 21 62 30 63 22 64 23 65 29 66
REMARK SMILES IDX 31 67 24 68 25 69 26 70 27 71 28 72 54 73 55 74 64 75 56 76
REMARK SMILES IDX 57 77 63 78 65 79 58 80 59 81 60 82 61 83 62 84 38 85 39 86
REMARK SMILES IDX 48 87 40 88 41 89 47 90 49 91 42 92 43 93 44 94 45 95 46 96
REMARK H PARENT 3 7 8 27 70 46 36 57
REMARK Flexibility Score: inf
ROOT
ATOM      1  C   UNL A   1      40.069  22.113  27.035  1.00  0.00     0.023 C 
ENDROOT
BRANCH   1   2
ATOM      2  C   UNL A   1      38.805  22.682  26.392  1.00  0.00     0.023 C 
BRANCH   2   3
ATOM      3  C   UNL A   1      37.986  21.661  25.601  1.00  0.00     0.116 C 
BRANCH   3   4
ATOM      4  N   UNL A   1      37.628  22.105  24.252  1.00  0.00    -0.352 N 
ATOM      5  O   UNL A   1      36.465  23.300  22.706  1.00  0.00    -0.270 OA
ATOM      6  C   UNL A   1      36.512  22.783  23.813  1.00  0.00     0.251 C 
ATOM      7  H   UNL A   1      38.285  21.887  23.552  1.00  0.00     0.163 HD
BRANCH   6   8
ATOM      8  C   UNL A   1      35.397  22.942  24.765  1.00  0.00     0.067 C 
ATOM      9  C   UNL A   1      35.324  24.077  25.471  1.00  0.00     0.025 C 
ATOM     10  C   UNL A   1      34.236  22.007  24.632  1.00  0.00     0.314 C 
ATOM     11  C   UNL A   1      33.986  24.686  25.426  1.00  0.00     0.019 A 
ATOM     12  O   UNL A   1      33.011  22.718  24.345  1.00  0.00    -0.474 OA
ATOM     13  C   UNL A   1      33.908  26.060  25.675  1.00  0.00     0.013 A 
ATOM     14  C   UNL A   1      32.936  24.038  24.735  1.00  0.00     0.148 A 
ATOM     15  C   UNL A   1      32.840  26.799  25.167  1.00  0.00     0.023 A 
ATOM     16  C   UNL A   1      31.846  24.782  24.252  1.00  0.00     0.102 A 
ATOM     17  C   UNL A   1      31.819  26.168  24.447  1.00  0.00     0.063 A 
ATOM     18  Cl  UNL A   1      30.629  23.989  23.301  1.00  0.00    -0.079 Cl
ATOM     19  Cl  UNL A   1      30.599  27.179  23.759  1.00  0.00    -0.083 Cl
BRANCH  10  20
ATOM     20  C   UNL A   1      34.074  21.126  25.883  1.00  0.00     0.429 C 
ATOM     21  F   UNL A   1      34.014  19.812  25.554  1.00  0.00    -0.167 F 
ATOM     22  F   UNL A   1      35.108  21.267  26.744  1.00  0.00    -0.167 F 
ATOM     23  F   UNL A   1      32.941  21.413  26.570  1.00  0.00    -0.167 F 
ENDBRANCH  10  20
ENDBRANCH   6   8
ENDBRANCH   3   4
ENDBRANCH   2   3
ENDBRANCH   1   2
BRANCH   1  24
ATOM     24  C   UNL A   1      41.289  23.034  27.069  1.00  0.00     0.116 C 
BRANCH  24  25
ATOM     25  N   UNL A   1      41.351  24.002  25.981  1.00  0.00    -0.352 N 
ATOM     26  C   UNL A   1      41.393  25.378  26.063  1.00  0.00     0.251 C 
ATOM     27  H   UNL A   1      41.365  23.625  25.071  1.00  0.00     0.163 HD
ATOM     28  O   UNL A   1      41.383  26.064  25.045  1.00  0.00    -0.269 OA
BRANCH  26  29
ATOM     29  C   UNL A   1      41.381  26.016  27.398  1.00  0.00     0.039 A 
ATOM     30  C   UNL A   1      42.511  26.720  27.819  1.00  0.00     0.014 A 
ATOM     31  C   UNL A   1      40.215  26.022  28.167  1.00  0.00     0.014 A 
ATOM     32  C   UNL A   1      42.430  27.538  28.950  1.00  0.00     0.010 A 
ATOM     33  C   UNL A   1      40.115  26.894  29.248  1.00  0.00     0.010 A 
ATOM     34  C   UNL A   1      41.211  27.684  29.632  1.00  0.00    -0.014 A 
BRANCH  34  35
ATOM     35  C   UNL A   1      41.037  28.695  30.708  1.00  0.00     0.031 A 
ATOM     36  C   UNL A   1      41.856  28.604  31.966  1.00  0.00     0.074 A 
ATOM     37  C   UNL A   1      40.063  29.623  30.598  1.00  0.00     0.049 A 
ATOM     38  N   UNL A   1      41.759  29.307  33.065  1.00  0.00    -0.248 NA
ATOM     39  C   UNL A   1      42.898  27.566  32.008  1.00  0.00     0.031 C 
ATOM     40  C   UNL A   1      39.154  29.771  29.456  1.00  0.00     0.029 A 
ATOM     41  N   UNL A   1      39.655  30.606  31.467  1.00  0.00    -0.354 N 
ATOM     42  C   UNL A   1      42.699  28.774  33.939  1.00  0.00     0.074 A 
ATOM     43  C   UNL A   1      43.336  27.669  33.255  1.00  0.00     0.031 C 
ATOM     44  C   UNL A   1      38.310  30.789  29.689  1.00  0.00     0.029 A 
ATOM     45  C   UNL A   1      38.587  31.345  31.009  1.00  0.00     0.049 A 
ATOM     46  H   UNL A   1      40.087  30.768  32.337  1.00  0.00     0.167 HD
ATOM     47  C   UNL A   1      43.013  29.179  35.191  1.00  0.00     0.037 A 
ATOM     48  C   UNL A   1      37.901  32.347  31.593  1.00  0.00     0.037 A 
ATOM     49  C   UNL A   1      42.418  30.316  35.844  1.00  0.00     0.049 A 
ATOM     50  C   UNL A   1      38.303  32.807  32.969  1.00  0.00     0.074 A 
ATOM     51  C   UNL A   1      42.740  30.867  37.071  1.00  0.00     0.029 A 
ATOM     52  N   UNL A   1      41.383  31.076  35.321  1.00  0.00    -0.354 N 
ATOM     53  N   UNL A   1      39.254  32.344  33.744  1.00  0.00    -0.248 NA
ATOM     54  C   UNL A   1      37.545  33.925  33.549  1.00  0.00     0.031 C 
ATOM     55  C   UNL A   1      41.878  31.942  37.307  1.00  0.00     0.029 A 
ATOM     56  C   UNL A   1      41.043  32.083  36.210  1.00  0.00     0.049 A 
ATOM     57  H   UNL A   1      40.954  30.924  34.449  1.00  0.00     0.167 HD
ATOM     58  C   UNL A   1      39.228  33.134  34.889  1.00  0.00     0.074 A 
ATOM     59  C   UNL A   1      38.172  34.107  34.703  1.00  0.00     0.031 C 
ATOM     60  C   UNL A   1      40.006  33.059  35.994  1.00  0.00     0.037 A 
BRANCH  47  61
ATOM     61  C   UNL A   1      44.056  28.402  35.943  1.00  0.00     0.058 A 
ATOM     62  C   UNL A   1      43.713  27.332  36.784  1.00  0.00     0.135 A 
ATOM     63  C   UNL A   1      45.419  28.690  35.770  1.00  0.00     0.135 A 
ATOM     64  F   UNL A   1      42.424  27.026  36.996  1.00  0.00    -0.206 F 
ATOM     65  C   UNL A   1      44.685  26.585  37.441  1.00  0.00     0.059 A 
ATOM     66  C   UNL A   1      46.410  27.941  36.398  1.00  0.00     0.059 A 
ATOM     67  F   UNL A   1      45.801  29.705  34.977  1.00  0.00    -0.206 F 
ATOM     68  C   UNL A   1      46.031  26.895  37.240  1.00  0.00     0.060 A 
BRANCH  68  69
ATOM     69  S   UNL A   1      47.281  25.896  38.074  1.00  0.00     0.124 S 
ATOM     70  O   UNL A   1      47.883  25.185  36.950  1.00  0.00    -0.237 OA
ATOM     71  O   UNL A   1      48.121  26.909  38.706  1.00  0.00    -0.237 OA
ATOM     72  O   UNL A   1      46.500  25.073  38.992  1.00  0.00    -0.744 OA
ENDBRANCH  68  69
ENDBRANCH  47  61
BRANCH  48  73
ATOM     73  C   UNL A   1      36.767  32.999  30.883  1.00  0.00     0.058 A 
ATOM     74  C   UNL A   1      36.999  33.932  29.860  1.00  0.00     0.135 A 
ATOM     75  C   UNL A   1      35.435  32.727  31.228  1.00  0.00     0.135 A 
ATOM     76  F   UNL A   1      38.256  34.229  29.497  1.00  0.00    -0.206 F 
ATOM     77  C   UNL A   1      35.953  34.594  29.224  1.00  0.00     0.059 A 
ATOM     78  C   UNL A   1      34.370  33.360  30.590  1.00  0.00     0.059 A 
ATOM     79  F   UNL A   1      35.157  31.830  32.186  1.00  0.00    -0.206 F 
ATOM     80  C   UNL A   1      34.641  34.305  29.601  1.00  0.00     0.060 A 
BRANCH  80  81
ATOM     81  S   UNL A   1      33.286  35.156  28.762  1.00  0.00     0.124 S 
ATOM     82  O   UNL A   1      34.005  36.177  28.008  1.00  0.00    -0.237 OA
ATOM     83  O   UNL A   1      32.687  34.083  27.975  1.00  0.00    -0.237 OA
ATOM     84  O   UNL A   1      32.466  35.644  29.867  1.00  0.00    -0.744 OA
ENDBRANCH  80  81
ENDBRANCH  48  73
BRANCH  60  85
ATOM     85  C   UNL A   1      39.783  34.081  37.072  1.00  0.00     0.058 A 
ATOM     86  C   UNL A   1      38.978  33.810  38.186  1.00  0.00     0.135 A 
ATOM     87  C   UNL A   1      40.444  35.319  37.020  1.00  0.00     0.135 A 
ATOM     88  F   UNL A   1      38.319  32.643  38.277  1.00  0.00    -0.206 F 
ATOM     89  C   UNL A   1      38.824  34.738  39.211  1.00  0.00     0.059 A 
ATOM     90  C   UNL A   1      40.323  36.252  38.044  1.00  0.00     0.059 A 
ATOM     91  F   UNL A   1      41.233  35.621  35.976  1.00  0.00    -0.206 F 
ATOM     92  C   UNL A   1      39.504  35.955  39.133  1.00  0.00     0.060 A 
BRANCH  92  93
ATOM     93  S   UNL A   1      39.342  37.130  40.493  1.00  0.00     0.124 S 
ATOM     94  O   UNL A   1      38.570  38.198  39.868  1.00  0.00    -0.237 OA
ATOM     95  O   UNL A   1      38.636  36.346  41.503  1.00  0.00    -0.237 OA
ATOM     96  O   UNL A   1      40.724  37.461  40.822  1.00  0.00    -0.744 OA
ENDBRANCH  92  93
ENDBRANCH  60  85
ENDBRANCH  34  35
ENDBRANCH  26  29
ENDBRANCH  24  25
ENDBRANCH   1  24
TORSDOF 15
ENDMDL
MODEL 3
REMARK VINA RESULT:     -12.0      2.978      4.168
REMARK SMILES O=C(NCCCCNC(=O)c1ccc(-c2c3nc(c(-c4c(F)cc(S(=O)(=O)[O-])cc4F)c4ccc([nH]4)c(-c4c(F)cc(S(=O)(=O)[O-])cc4F)c4nc(c(-c5c(F)cc(S(=O)(=O)[O-])cc5F)c5ccc2[nH]5)C=C4)C=C3)cc1)C1=Cc2ccc(Cl)c(Cl)c2O[C@@H]1C(F)(F)F
REMARK SMILES IDX 6 1 5 2 4 3 3 4 1 5 2 6 77 8 78 9 88 10 79 11 87 12 80 13
REMARK SMILES IDX 86 14 81 15 84 16 82 17 85 18 83 19 89 20 90 21 91 22 92 23
REMARK SMILES IDX 7 24 8 25 9 26 10 28 11 29 12 30 76 31 13 32 75 33 14 34
REMARK SMILES IDX 15 35 16 36 69 37 17 38 74 39 68 40 70 41 18 42 73 43 67 44
REMARK SMILES IDX 66 45 19 47 53 48 32 49 52 50 33 51 36 52 51 53 71 54 34 55
REMARK SMILES IDX 35 56 50 58 72 59 37 60 20 61 21 62 30 63 22 64 23 65 29 66
REMARK SMILES IDX 31 67 24 68 25 69 26 70 27 71 28 72 54 73 55 74 64 75 56 76
REMARK SMILES IDX 57 77 63 78 65 79 58 80 59 81 60 82 61 83 62 84 38 85 39 86
REMARK SMILES IDX 48 87 40 88 41 89 47 90 49 91 42 92 43 93 44 94 45 95 46 96
REMARK H PARENT 3 7 8 27 70 46 36 57
REMARK Flexibility Score: inf
ROOT
ATOM      1  C   UNL A   1      35.124  31.977  27.828  1.00  0.00     0.023 C 
ENDROOT
BRANCH   1   2
ATOM      2  C   UNL A   1      34.550  30.572  27.649  1.00  0.00     0.023 C 
BRANCH   2   3
ATOM      3  C   UNL A   1      33.208  30.528  26.915  1.00  0.00     0.116 C 
BRANCH   3   4
ATOM      4  N   UNL A   1      32.250  29.581  27.489  1.00  0.00    -0.352 N 
ATOM      5  O   UNL A   1      31.323  27.535  27.850  1.00  0.00    -0.270 OA
ATOM      6  C   UNL A   1      31.970  28.282  27.127  1.00  0.00     0.251 C 
ATOM      7  H   UNL A   1      31.726  29.924  28.248  1.00  0.00     0.163 HD
BRANCH   6   8
ATOM      8  C   UNL A   1      32.556  27.786  25.868  1.00  0.00     0.067 C 
ATOM      9  C   UNL A   1      33.705  27.102  25.931  1.00  0.00     0.025 C 
ATOM     10  C   UNL A   1      31.675  27.761  24.659  1.00  0.00     0.314 C 
ATOM     11  C   UNL A   1      33.654  25.840  25.175  1.00  0.00     0.019 A 
ATOM     12  O   UNL A   1      31.507  26.418  24.151  1.00  0.00    -0.474 OA
ATOM     13  C   UNL A   1      34.552  24.839  25.557  1.00  0.00     0.013 A 
ATOM     14  C   UNL A   1      32.493  25.500  24.444  1.00  0.00     0.148 A 
ATOM     15  C   UNL A   1      34.256  23.502  25.290  1.00  0.00     0.023 A 
ATOM     16  C   UNL A   1      32.215  24.154  24.150  1.00  0.00     0.102 A 
ATOM     17  C   UNL A   1      33.088  23.157  24.602  1.00  0.00     0.063 A 
ATOM     18  Cl  UNL A   1      30.725  23.747  23.358  1.00  0.00    -0.079 Cl
ATOM     19  Cl  UNL A   1      32.748  21.474  24.419  1.00  0.00    -0.083 Cl
BRANCH  10  20
ATOM     20  C   UNL A   1      32.201  28.698  23.557  1.00  0.00     0.429 C 
ATOM     21  F   UNL A   1      32.796  27.997  22.560  1.00  0.00    -0.167 F 
ATOM     22  F   UNL A   1      31.210  29.423  22.988  1.00  0.00    -0.167 F 
ATOM     23  F   UNL A   1      33.119  29.577  24.026  1.00  0.00    -0.167 F 
ENDBRANCH  10  20
ENDBRANCH   6   8
ENDBRANCH   3   4
ENDBRANCH   2   3
ENDBRANCH   1   2
BRANCH   1  24
ATOM     24  C   UNL A   1      35.834  32.257  29.153  1.00  0.00     0.116 C 
BRANCH  24  25
ATOM     25  N   UNL A   1      35.624  31.247  30.182  1.00  0.00    -0.352 N 
ATOM     26  C   UNL A   1      36.532  30.336  30.683  1.00  0.00     0.251 C 
ATOM     27  H   UNL A   1      34.719  31.208  30.568  1.00  0.00     0.163 HD
ATOM     28  O   UNL A   1      36.184  29.502  31.513  1.00  0.00    -0.269 OA
BRANCH  26  29
ATOM     29  C   UNL A   1      37.913  30.338  30.154  1.00  0.00     0.039 A 
ATOM     30  C   UNL A   1      38.969  30.609  31.027  1.00  0.00     0.014 A 
ATOM     31  C   UNL A   1      38.166  29.949  28.836  1.00  0.00     0.014 A 
ATOM     32  C   UNL A   1      40.283  30.365  30.615  1.00  0.00     0.010 A 
ATOM     33  C   UNL A   1      39.467  29.637  28.454  1.00  0.00     0.010 A 
ATOM     34  C   UNL A   1      40.535  29.812  29.349  1.00  0.00    -0.014 A 
BRANCH  34  35
ATOM     35  C   UNL A   1      41.894  29.352  28.957  1.00  0.00     0.031 A 
ATOM     36  C   UNL A   1      43.019  30.343  28.839  1.00  0.00     0.074 A 
ATOM     37  C   UNL A   1      42.084  28.064  28.600  1.00  0.00     0.049 A 
ATOM     38  N   UNL A   1      44.234  30.161  28.388  1.00  0.00    -0.248 NA
ATOM     39  C   UNL A   1      42.732  31.727  29.248  1.00  0.00     0.031 C 
ATOM     40  C   UNL A   1      41.054  27.019  28.606  1.00  0.00     0.029 A 
ATOM     41  N   UNL A   1      43.203  27.414  28.139  1.00  0.00    -0.354 N 
ATOM     42  C   UNL A   1      44.842  31.409  28.426  1.00  0.00     0.074 A 
ATOM     43  C   UNL A   1      43.855  32.348  28.914  1.00  0.00     0.031 C 
ATOM     44  C   UNL A   1      41.592  25.863  28.184  1.00  0.00     0.029 A 
ATOM     45  C   UNL A   1      42.992  26.086  27.842  1.00  0.00     0.049 A 
ATOM     46  H   UNL A   1      44.076  27.857  28.032  1.00  0.00     0.167 HD
ATOM     47  C   UNL A   1      46.113  31.740  28.098  1.00  0.00     0.037 A 
ATOM     48  C   UNL A   1      43.828  25.158  27.337  1.00  0.00     0.037 A 
ATOM     49  C   UNL A   1      47.107  30.792  27.669  1.00  0.00     0.049 A 
ATOM     50  C   UNL A   1      45.250  25.544  27.024  1.00  0.00     0.074 A 
ATOM     51  C   UNL A   1      48.449  31.012  27.411  1.00  0.00     0.029 A 
ATOM     52  N   UNL A   1      46.870  29.445  27.440  1.00  0.00    -0.354 N 
ATOM     53  N   UNL A   1      45.830  26.714  27.150  1.00  0.00    -0.248 NA
ATOM     54  C   UNL A   1      46.132  24.488  26.507  1.00  0.00     0.031 C 
ATOM     55  C   UNL A   1      49.017  29.804  26.994  1.00  0.00     0.029 A 
ATOM     56  C   UNL A   1      48.037  28.825  27.027  1.00  0.00     0.049 A 
ATOM     57  H   UNL A   1      46.002  28.996  27.554  1.00  0.00     0.167 HD
ATOM     58  C   UNL A   1      47.150  26.526  26.756  1.00  0.00     0.074 A 
ATOM     59  C   UNL A   1      47.286  25.131  26.395  1.00  0.00     0.031 C 
ATOM     60  C   UNL A   1      48.159  27.428  26.698  1.00  0.00     0.037 A 
BRANCH  47  61
ATOM     61  C   UNL A   1      46.513  33.184  28.198  1.00  0.00     0.058 A 
ATOM     62  C   UNL A   1      47.071  33.714  29.371  1.00  0.00     0.135 A 
ATOM     63  C   UNL A   1      46.396  34.033  27.085  1.00  0.00     0.135 A 
ATOM     64  F   UNL A   1      47.190  32.949  30.468  1.00  0.00    -0.206 F 
ATOM     65  C   UNL A   1      47.484  35.040  29.445  1.00  0.00     0.059 A 
ATOM     66  C   UNL A   1      46.824  35.356  27.128  1.00  0.00     0.059 A 
ATOM     67  F   UNL A   1      45.867  33.576  25.939  1.00  0.00    -0.206 F 
ATOM     68  C   UNL A   1      47.359  35.853  28.316  1.00  0.00     0.060 A 
BRANCH  68  69
ATOM     69  S   UNL A   1      47.928  37.563  28.417  1.00  0.00     0.124 S 
ATOM     70  O   UNL A   1      47.436  38.108  27.155  1.00  0.00    -0.237 OA
ATOM     71  O   UNL A   1      47.257  38.046  29.620  1.00  0.00    -0.237 OA
ATOM     72  O   UNL A   1      49.378  37.432  28.522  1.00  0.00    -0.744 OA
ENDBRANCH  68  69
ENDBRANCH  47  61
BRANCH  48  73
ATOM     73  C   UNL A   1      43.358  23.766  27.101  1.00  0.00     0.058 A 
ATOM     74  C   UNL A   1      42.949  23.350  25.824  1.00  0.00     0.135 A 
ATOM     75  C   UNL A   1      43.281  22.833  28.146  1.00  0.00     0.135 A 
ATOM     76  F   UNL A   1      43.000  24.208  24.793  1.00  0.00    -0.206 F 
ATOM     77  C   UNL A   1      42.453  22.070  25.596  1.00  0.00     0.059 A 
ATOM     78  C   UNL A   1      42.811  21.539  27.939  1.00  0.00     0.059 A 
ATOM     79  F   UNL A   1      43.677  23.173  29.382  1.00  0.00    -0.206 F 
ATOM     80  C   UNL A   1      42.382  21.173  26.662  1.00  0.00     0.060 A 
BRANCH  80  81
ATOM     81  S   UNL A   1      41.752  19.508  26.358  1.00  0.00     0.124 S 
ATOM     82  O   UNL A   1      42.141  18.819  27.583  1.00  0.00    -0.237 OA
ATOM     83  O   UNL A   1      40.322  19.744  26.185  1.00  0.00    -0.237 OA
ATOM     84  O   UNL A   1      42.461  19.100  25.149  1.00  0.00    -0.744 OA
ENDBRANCH  80  81
ENDBRANCH  48  73
BRANCH  60  85
ATOM     85  C   UNL A   1      49.511  26.932  26.273  1.00  0.00     0.058 A 
ATOM     86  C   UNL A   1      50.365  26.271  27.166  1.00  0.00     0.135 A 
ATOM     87  C   UNL A   1      49.922  27.057  24.936  1.00  0.00     0.135 A 
ATOM     88  F   UNL A   1      50.019  26.134  28.456  1.00  0.00    -0.206 F 
ATOM     89  C   UNL A   1      51.590  25.759  26.751  1.00  0.00     0.059 A 
ATOM     90  C   UNL A   1      51.132  26.533  24.495  1.00  0.00     0.059 A 
ATOM     91  F   UNL A   1      49.134  27.675  24.041  1.00  0.00    -0.206 F 
ATOM     92  C   UNL A   1      51.963  25.892  25.412  1.00  0.00     0.060 A 
BRANCH  92  93
ATOM     93  S   UNL A   1      53.530  25.177  24.872  1.00  0.00     0.124 S 
ATOM     94  O   UNL A   1      53.361  23.779  25.253  1.00  0.00    -0.237 OA
ATOM     95  O   UNL A   1      53.522  25.448  23.437  1.00  0.00    -0.237 OA
ATOM     96  O   UNL A   1      54.524  25.922  25.637  1.00  0.00    -0.744 OA
ENDBRANCH  92  93
ENDBRANCH  60  85
ENDBRANCH  34  35
ENDBRANCH  26  29
ENDBRANCH  24  25
ENDBRANCH   1  24
TORSDOF 15
ENDMDL
