MODEL 1
REMARK VINA RESULT:     -11.6      0.000      0.000
REMARK SMILES CN(CC(F)(F)F)C(=O)N1CC(n2cc(C(=O)NCCCCNC(=O)c3ccc(-c4c5nc(c(-c6c(F)cc(S(=O)(=O)[O-])cc6F)c6ccc([nH]6)c(-c6c(F)cc(S(=O)(=O)[O-])cc6F)c6nc(c(-c7c(F)cc(S(=O)(=O)[O-])cc7F)c7ccc4[nH]7)C=C6)C=C5)cc3)nn2)C1
REMARK SMILES IDX 20 1 19 2 18 3 16 4 17 5 15 7 13 8 14 9 93 10 92 11 12 12
REMARK SMILES IDX 8 13 9 14 10 15 11 16 94 17 2 18 1 19 3 20 4 21 5 22 6 23
REMARK SMILES IDX 7 24 21 25 22 26 23 27 24 28 25 30 26 31 27 32 91 33 28 34
REMARK SMILES IDX 90 35 29 36 30 37 31 38 84 39 32 40 89 41 83 42 85 43 33 44
REMARK SMILES IDX 88 45 82 46 81 47 34 49 68 50 47 51 67 52 48 53 51 54 66 55
REMARK SMILES IDX 86 56 49 57 50 58 65 60 87 61 52 62 35 63 36 64 45 65 37 66
REMARK SMILES IDX 38 67 44 68 46 69 39 70 40 71 41 72 42 73 43 74 69 75 70 76
REMARK SMILES IDX 79 77 71 78 72 79 78 80 80 81 73 82 74 83 75 84 76 85 77 86
REMARK SMILES IDX 53 87 54 88 63 89 55 90 56 91 62 92 64 93 57 94 58 95 59 96
REMARK SMILES IDX 60 97 61 98
REMARK H PARENT 18 6 23 29 85 48 51 59
REMARK Flexibility Score: inf
ROOT
ATOM      1  C   UNL A   1      40.264  21.438  26.849  1.00  0.00     0.023 C 
ENDROOT
BRANCH   1   2
ATOM      2  C   UNL A   1      39.071  21.845  25.978  1.00  0.00     0.116 C 
BRANCH   2   3
ATOM      3  N   UNL A   1      38.312  20.692  25.530  1.00  0.00    -0.351 N 
ATOM      4  C   UNL A   1      37.028  20.554  25.052  1.00  0.00     0.273 C 
ATOM      5  O   UNL A   1      36.702  19.428  24.675  1.00  0.00    -0.267 OA
ATOM      6  H   UNL A   1      38.812  19.845  25.578  1.00  0.00     0.163 HD
BRANCH   4   7
ATOM      7  C   UNL A   1      36.100  21.680  24.980  1.00  0.00     0.170 A 
ATOM      8  N   UNL A   1      34.620  23.245  25.270  1.00  0.00    -0.245 N 
ATOM      9  C   UNL A   1      35.083  22.083  25.823  1.00  0.00     0.145 A 
ATOM     10  N   UNL A   1      35.231  23.512  24.112  1.00  0.00    -0.066 NA
ATOM     11  N   UNL A   1      36.122  22.552  23.906  1.00  0.00    -0.125 NA
BRANCH   8  12
ATOM     12  C   UNL A   1      33.651  24.086  25.898  1.00  0.00     0.148 C 
ATOM     13  C   UNL A   1      31.475  26.477  25.783  1.00  0.00     0.320 C 
ATOM     14  O   UNL A   1      30.565  26.127  26.535  1.00  0.00    -0.248 OA
ATOM     15  N   UNL A   1      32.355  25.564  25.266  1.00  0.00    -0.320 N 
ATOM     16  C   UNL A   1      32.243  24.101  25.306  1.00  0.00     0.150 C 
ATOM     17  C   UNL A   1      33.806  25.536  25.414  1.00  0.00     0.150 C 
BRANCH  13  18
ATOM     18  N   UNL A   1      31.633  27.796  25.388  1.00  0.00    -0.319 N 
ATOM     19  C   UNL A   1      31.705  28.801  26.436  1.00  0.00     0.149 C 
BRANCH  18  20
ATOM     20  C   UNL A   1      31.602  28.279  23.992  1.00  0.00     0.236 C 
BRANCH  20  21
ATOM     21  C   UNL A   1      30.219  28.645  23.447  1.00  0.00     0.406 C 
ATOM     22  F   UNL A   1      30.209  28.755  22.102  1.00  0.00    -0.169 F 
ATOM     23  F   UNL A   1      29.316  27.695  23.779  1.00  0.00    -0.169 F 
ATOM     24  F   UNL A   1      29.783  29.819  23.956  1.00  0.00    -0.169 F 
ENDBRANCH  20  21
ENDBRANCH  18  20
ENDBRANCH  13  18
ENDBRANCH   8  12
ENDBRANCH   4   7
ENDBRANCH   2   3
ENDBRANCH   1   2
BRANCH   1  25
ATOM     25  C   UNL A   1      40.829  20.033  26.576  1.00  0.00     0.023 C 
BRANCH  25  26
ATOM     26  C   UNL A   1      42.229  19.777  27.134  1.00  0.00     0.116 C 
BRANCH  26  27
ATOM     27  N   UNL A   1      43.226  19.553  26.089  1.00  0.00    -0.352 N 
ATOM     28  C   UNL A   1      43.813  20.490  25.254  1.00  0.00     0.251 C 
ATOM     29  H   UNL A   1      43.516  18.621  25.961  1.00  0.00     0.163 HD
ATOM     30  O   UNL A   1      44.302  20.153  24.189  1.00  0.00    -0.269 OA
BRANCH  28  31
ATOM     31  C   UNL A   1      43.844  21.901  25.685  1.00  0.00     0.039 A 
ATOM     32  C   UNL A   1      42.963  22.844  25.147  1.00  0.00     0.014 A 
ATOM     33  C   UNL A   1      44.761  22.262  26.667  1.00  0.00     0.014 A 
ATOM     34  C   UNL A   1      42.952  24.133  25.676  1.00  0.00     0.010 A 
ATOM     35  C   UNL A   1      44.663  23.490  27.274  1.00  0.00     0.010 A 
ATOM     36  C   UNL A   1      43.790  24.445  26.759  1.00  0.00    -0.014 A 
BRANCH  36  37
ATOM     37  C   UNL A   1      43.647  25.714  27.474  1.00  0.00     0.031 A 
ATOM     38  C   UNL A   1      44.694  26.722  27.140  1.00  0.00     0.074 A 
ATOM     39  C   UNL A   1      42.528  26.047  28.158  1.00  0.00     0.049 A 
ATOM     40  N   UNL A   1      45.605  27.213  27.913  1.00  0.00    -0.248 NA
ATOM     41  C   UNL A   1      44.845  27.120  25.728  1.00  0.00     0.031 C 
ATOM     42  C   UNL A   1      41.289  25.267  28.277  1.00  0.00     0.029 A 
ATOM     43  N   UNL A   1      42.200  27.210  28.784  1.00  0.00    -0.354 N 
ATOM     44  C   UNL A   1      46.268  28.176  27.153  1.00  0.00     0.074 A 
ATOM     45  C   UNL A   1      45.922  27.907  25.783  1.00  0.00     0.031 C 
ATOM     46  C   UNL A   1      40.288  26.067  28.701  1.00  0.00     0.029 A 
ATOM     47  C   UNL A   1      40.840  27.363  29.046  1.00  0.00     0.049 A 
ATOM     48  H   UNL A   1      42.870  27.889  29.031  1.00  0.00     0.167 HD
ATOM     49  C   UNL A   1      46.805  29.286  27.735  1.00  0.00     0.037 A 
ATOM     50  C   UNL A   1      40.205  28.482  29.483  1.00  0.00     0.037 A 
ATOM     51  C   UNL A   1      46.938  29.103  29.161  1.00  0.00     0.049 A 
ATOM     52  C   UNL A   1      41.239  29.362  30.083  1.00  0.00     0.074 A 
ATOM     53  C   UNL A   1      47.573  28.185  29.975  1.00  0.00     0.029 A 
ATOM     54  N   UNL A   1      46.029  29.746  29.966  1.00  0.00    -0.354 N 
ATOM     55  N   UNL A   1      41.903  29.070  31.165  1.00  0.00    -0.248 NA
ATOM     56  C   UNL A   1      41.852  30.366  29.229  1.00  0.00     0.031 C 
ATOM     57  C   UNL A   1      46.685  27.990  31.075  1.00  0.00     0.029 A 
ATOM     58  C   UNL A   1      45.602  28.855  30.914  1.00  0.00     0.049 A 
ATOM     59  H   UNL A   1      45.736  30.682  29.876  1.00  0.00     0.167 HD
ATOM     60  C   UNL A   1      43.199  29.492  30.909  1.00  0.00     0.074 A 
ATOM     61  C   UNL A   1      43.080  30.378  29.752  1.00  0.00     0.031 C 
ATOM     62  C   UNL A   1      44.268  28.859  31.476  1.00  0.00     0.037 A 
BRANCH  49  63
ATOM     63  C   UNL A   1      46.818  30.666  27.102  1.00  0.00     0.058 A 
ATOM     64  C   UNL A   1      48.016  31.415  27.114  1.00  0.00     0.135 A 
ATOM     65  C   UNL A   1      45.657  31.397  26.754  1.00  0.00     0.135 A 
ATOM     66  F   UNL A   1      49.183  30.832  27.429  1.00  0.00    -0.206 F 
ATOM     67  C   UNL A   1      48.043  32.793  26.891  1.00  0.00     0.059 A 
ATOM     68  C   UNL A   1      45.672  32.758  26.474  1.00  0.00     0.059 A 
ATOM     69  F   UNL A   1      44.435  30.857  26.762  1.00  0.00    -0.206 F 
ATOM     70  C   UNL A   1      46.860  33.458  26.588  1.00  0.00     0.060 A 
BRANCH  70  71
ATOM     71  S   UNL A   1      46.871  35.248  26.396  1.00  0.00     0.124 S 
ATOM     72  O   UNL A   1      45.479  35.508  26.047  1.00  0.00    -0.237 OA
ATOM     73  O   UNL A   1      47.294  35.691  27.720  1.00  0.00    -0.237 OA
ATOM     74  O   UNL A   1      47.844  35.464  25.330  1.00  0.00    -0.744 OA
ENDBRANCH  70  71
ENDBRANCH  49  63
BRANCH  50  75
ATOM     75  C   UNL A   1      38.840  28.976  29.145  1.00  0.00     0.058 A 
ATOM     76  C   UNL A   1      37.890  29.231  30.151  1.00  0.00     0.135 A 
ATOM     77  C   UNL A   1      38.539  29.486  27.866  1.00  0.00     0.135 A 
ATOM     78  F   UNL A   1      38.098  28.795  31.403  1.00  0.00    -0.206 F 
ATOM     79  C   UNL A   1      36.741  29.998  29.918  1.00  0.00     0.059 A 
ATOM     80  C   UNL A   1      37.396  30.245  27.608  1.00  0.00     0.059 A 
ATOM     81  F   UNL A   1      39.397  29.345  26.845  1.00  0.00    -0.206 F 
ATOM     82  C   UNL A   1      36.516  30.523  28.648  1.00  0.00     0.060 A 
BRANCH  82  83
ATOM     83  S   UNL A   1      35.139  31.668  28.387  1.00  0.00     0.124 S 
ATOM     84  O   UNL A   1      34.762  32.003  29.755  1.00  0.00    -0.237 OA
ATOM     85  O   UNL A   1      35.768  32.736  27.618  1.00  0.00    -0.237 OA
ATOM     86  O   UNL A   1      34.166  30.865  27.651  1.00  0.00    -0.744 OA
ENDBRANCH  82  83
ENDBRANCH  50  75
BRANCH  62  87
ATOM     87  C   UNL A   1      44.012  27.948  32.651  1.00  0.00     0.058 A 
ATOM     88  C   UNL A   1      43.800  28.369  33.977  1.00  0.00     0.135 A 
ATOM     89  C   UNL A   1      43.879  26.574  32.394  1.00  0.00     0.135 A 
ATOM     90  F   UNL A   1      43.792  29.670  34.297  1.00  0.00    -0.206 F 
ATOM     91  C   UNL A   1      43.539  27.461  35.006  1.00  0.00     0.059 A 
ATOM     92  C   UNL A   1      43.582  25.656  33.396  1.00  0.00     0.059 A 
ATOM     93  F   UNL A   1      44.002  26.109  31.139  1.00  0.00    -0.206 F 
ATOM     94  C   UNL A   1      43.440  26.104  34.707  1.00  0.00     0.060 A 
BRANCH  94  95
ATOM     95  S   UNL A   1      43.084  24.929  36.032  1.00  0.00     0.124 S 
ATOM     96  O   UNL A   1      41.824  24.342  35.591  1.00  0.00    -0.237 OA
ATOM     97  O   UNL A   1      44.246  24.045  35.993  1.00  0.00    -0.237 OA
ATOM     98  O   UNL A   1      42.996  25.774  37.221  1.00  0.00    -0.744 OA
ENDBRANCH  94  95
ENDBRANCH  62  87
ENDBRANCH  36  37
ENDBRANCH  28  31
ENDBRANCH  26  27
ENDBRANCH  25  26
ENDBRANCH   1  25
TORSDOF 18
ENDMDL
MODEL 2
REMARK VINA RESULT:     -11.3      1.212      1.762
REMARK SMILES CN(CC(F)(F)F)C(=O)N1CC(n2cc(C(=O)NCCCCNC(=O)c3ccc(-c4c5nc(c(-c6c(F)cc(S(=O)(=O)[O-])cc6F)c6ccc([nH]6)c(-c6c(F)cc(S(=O)(=O)[O-])cc6F)c6nc(c(-c7c(F)cc(S(=O)(=O)[O-])cc7F)c7ccc4[nH]7)C=C6)C=C5)cc3)nn2)C1
REMARK SMILES IDX 20 1 19 2 18 3 16 4 17 5 15 7 13 8 14 9 93 10 92 11 12 12
REMARK SMILES IDX 8 13 9 14 10 15 11 16 94 17 2 18 1 19 3 20 4 21 5 22 6 23
REMARK SMILES IDX 7 24 21 25 22 26 23 27 24 28 25 30 26 31 27 32 91 33 28 34
REMARK SMILES IDX 90 35 29 36 30 37 31 38 84 39 32 40 89 41 83 42 85 43 33 44
REMARK SMILES IDX 88 45 82 46 81 47 34 49 68 50 47 51 67 52 48 53 51 54 66 55
REMARK SMILES IDX 86 56 49 57 50 58 65 60 87 61 52 62 35 63 36 64 45 65 37 66
REMARK SMILES IDX 38 67 44 68 46 69 39 70 40 71 41 72 42 73 43 74 69 75 70 76
REMARK SMILES IDX 79 77 71 78 72 79 78 80 80 81 73 82 74 83 75 84 76 85 77 86
REMARK SMILES IDX 53 87 54 88 63 89 55 90 56 91 62 92 64 93 57 94 58 95 59 96
REMARK SMILES IDX 60 97 61 98
REMARK H PARENT 18 6 23 29 85 48 51 59
REMARK Flexibility Score: inf
ROOT
ATOM      1  C   UNL A   1      38.971  22.302  26.279  1.00  0.00     0.023 C 
ENDROOT
BRANCH   1   2
ATOM      2  C   UNL A   1      37.718  22.513  25.423  1.00  0.00     0.116 C 
BRANCH   2   3
ATOM      3  N   UNL A   1      37.030  21.264  25.158  1.00  0.00    -0.351 N 
ATOM      4  C   UNL A   1      35.716  20.877  25.304  1.00  0.00     0.273 C 
ATOM      5  O   UNL A   1      35.430  19.747  24.907  1.00  0.00    -0.267 OA
ATOM      6  H   UNL A   1      37.616  20.556  24.805  1.00  0.00     0.163 HD
BRANCH   4   7
ATOM      7  C   UNL A   1      34.707  21.758  25.886  1.00  0.00     0.170 A 
ATOM      8  N   UNL A   1      33.135  23.185  26.349  1.00  0.00    -0.245 N 
ATOM      9  C   UNL A   1      33.964  22.786  25.338  1.00  0.00     0.145 A 
ATOM     10  N   UNL A   1      33.394  22.528  27.483  1.00  0.00    -0.066 NA
ATOM     11  N   UNL A   1      34.371  21.668  27.224  1.00  0.00    -0.125 NA
BRANCH   8  12
ATOM     12  C   UNL A   1      32.086  24.141  26.178  1.00  0.00     0.148 C 
ATOM     13  C   UNL A   1      30.368  26.160  24.325  1.00  0.00     0.320 C 
ATOM     14  O   UNL A   1      29.209  26.071  24.730  1.00  0.00    -0.248 OA
ATOM     15  N   UNL A   1      31.285  25.176  24.580  1.00  0.00    -0.320 N 
ATOM     16  C   UNL A   1      31.023  23.837  25.124  1.00  0.00     0.150 C 
ATOM     17  C   UNL A   1      32.557  25.298  25.285  1.00  0.00     0.150 C 
BRANCH  13  18
ATOM     18  N   UNL A   1      30.795  27.231  23.556  1.00  0.00    -0.319 N 
ATOM     19  C   UNL A   1      31.418  26.927  22.278  1.00  0.00     0.149 C 
BRANCH  18  20
ATOM     20  C   UNL A   1      30.791  28.646  23.985  1.00  0.00     0.236 C 
BRANCH  20  21
ATOM     21  C   UNL A   1      29.770  29.547  23.286  1.00  0.00     0.406 C 
ATOM     22  F   UNL A   1      28.597  28.918  23.061  1.00  0.00    -0.169 F 
ATOM     23  F   UNL A   1      29.502  30.633  24.046  1.00  0.00    -0.169 F 
ATOM     24  F   UNL A   1      30.233  29.988  22.095  1.00  0.00    -0.169 F 
ENDBRANCH  20  21
ENDBRANCH  18  20
ENDBRANCH  13  18
ENDBRANCH   8  12
ENDBRANCH   4   7
ENDBRANCH   2   3
ENDBRANCH   1   2
BRANCH   1  25
ATOM     25  C   UNL A   1      39.674  20.947  26.094  1.00  0.00     0.023 C 
BRANCH  25  26
ATOM     26  C   UNL A   1      40.808  20.664  27.078  1.00  0.00     0.116 C 
BRANCH  26  27
ATOM     27  N   UNL A   1      42.049  20.265  26.418  1.00  0.00    -0.352 N 
ATOM     28  C   UNL A   1      43.014  21.080  25.847  1.00  0.00     0.251 C 
ATOM     29  H   UNL A   1      42.222  19.297  26.371  1.00  0.00     0.163 HD
ATOM     30  O   UNL A   1      43.771  20.645  24.996  1.00  0.00    -0.269 OA
BRANCH  28  31
ATOM     31  C   UNL A   1      43.112  22.482  26.298  1.00  0.00     0.039 A 
ATOM     32  C   UNL A   1      42.502  23.518  25.586  1.00  0.00     0.014 A 
ATOM     33  C   UNL A   1      43.810  22.740  27.474  1.00  0.00     0.014 A 
ATOM     34  C   UNL A   1      42.522  24.805  26.120  1.00  0.00     0.010 A 
ATOM     35  C   UNL A   1      43.720  23.978  28.063  1.00  0.00     0.010 A 
ATOM     36  C   UNL A   1      43.112  25.025  27.375  1.00  0.00    -0.014 A 
BRANCH  36  37
ATOM     37  C   UNL A   1      42.959  26.311  28.058  1.00  0.00     0.031 A 
ATOM     38  C   UNL A   1      44.023  27.304  27.732  1.00  0.00     0.074 A 
ATOM     39  C   UNL A   1      41.825  26.665  28.704  1.00  0.00     0.049 A 
ATOM     40  N   UNL A   1      44.916  27.805  28.519  1.00  0.00    -0.248 NA
ATOM     41  C   UNL A   1      44.215  27.671  26.317  1.00  0.00     0.031 C 
ATOM     42  C   UNL A   1      40.577  25.896  28.806  1.00  0.00     0.029 A 
ATOM     43  N   UNL A   1      41.489  27.844  29.296  1.00  0.00    -0.354 N 
ATOM     44  C   UNL A   1      45.606  28.748  27.758  1.00  0.00     0.074 A 
ATOM     45  C   UNL A   1      45.296  28.452  26.385  1.00  0.00     0.031 C 
ATOM     46  C   UNL A   1      39.571  26.712  29.185  1.00  0.00     0.029 A 
ATOM     47  C   UNL A   1      40.122  28.011  29.517  1.00  0.00     0.049 A 
ATOM     48  H   UNL A   1      42.156  28.523  29.548  1.00  0.00     0.167 HD
ATOM     49  C   UNL A   1      46.135  29.866  28.330  1.00  0.00     0.037 A 
ATOM     50  C   UNL A   1      39.484  29.143  29.913  1.00  0.00     0.037 A 
ATOM     51  C   UNL A   1      46.228  29.713  29.763  1.00  0.00     0.049 A 
ATOM     52  C   UNL A   1      40.507  30.029  30.523  1.00  0.00     0.074 A 
ATOM     53  C   UNL A   1      46.833  28.808  30.613  1.00  0.00     0.029 A 
ATOM     54  N   UNL A   1      45.301  30.379  30.529  1.00  0.00    -0.354 N 
ATOM     55  N   UNL A   1      41.140  29.755  31.629  1.00  0.00    -0.248 NA
ATOM     56  C   UNL A   1      41.151  31.010  29.666  1.00  0.00     0.031 C 
ATOM     57  C   UNL A   1      45.915  28.642  31.692  1.00  0.00     0.029 A 
ATOM     58  C   UNL A   1      44.842  29.511  31.484  1.00  0.00     0.049 A 
ATOM     59  H   UNL A   1      45.018  31.315  30.412  1.00  0.00     0.167 HD
ATOM     60  C   UNL A   1      42.445  30.164  31.400  1.00  0.00     0.074 A 
ATOM     61  C   UNL A   1      42.365  31.025  30.221  1.00  0.00     0.031 C 
ATOM     62  C   UNL A   1      43.494  29.535  32.008  1.00  0.00     0.037 A 
BRANCH  49  63
ATOM     63  C   UNL A   1      46.175  31.232  27.669  1.00  0.00     0.058 A 
ATOM     64  C   UNL A   1      47.360  31.998  27.748  1.00  0.00     0.135 A 
ATOM     65  C   UNL A   1      45.033  31.939  27.225  1.00  0.00     0.135 A 
ATOM     66  F   UNL A   1      48.509  31.438  28.156  1.00  0.00    -0.206 F 
ATOM     67  C   UNL A   1      47.386  33.372  27.496  1.00  0.00     0.059 A 
ATOM     68  C   UNL A   1      45.050  33.295  26.916  1.00  0.00     0.059 A 
ATOM     69  F   UNL A   1      43.819  31.383  27.160  1.00  0.00    -0.206 F 
ATOM     70  C   UNL A   1      46.219  34.013  27.097  1.00  0.00     0.060 A 
BRANCH  70  71
ATOM     71  S   UNL A   1      46.221  35.799  26.866  1.00  0.00     0.124 S 
ATOM     72  O   UNL A   1      47.132  35.942  25.737  1.00  0.00    -0.237 OA
ATOM     73  O   UNL A   1      44.813  36.068  26.593  1.00  0.00    -0.237 OA
ATOM     74  O   UNL A   1      46.712  36.300  28.146  1.00  0.00    -0.744 OA
ENDBRANCH  70  71
ENDBRANCH  49  63
BRANCH  50  75
ATOM     75  C   UNL A   1      38.133  29.639  29.528  1.00  0.00     0.058 A 
ATOM     76  C   UNL A   1      37.220  30.091  30.499  1.00  0.00     0.135 A 
ATOM     77  C   UNL A   1      37.820  29.955  28.191  1.00  0.00     0.135 A 
ATOM     78  F   UNL A   1      37.443  29.848  31.799  1.00  0.00    -0.206 F 
ATOM     79  C   UNL A   1      36.099  30.863  30.170  1.00  0.00     0.059 A 
ATOM     80  C   UNL A   1      36.703  30.715  27.838  1.00  0.00     0.059 A 
ATOM     81  F   UNL A   1      38.644  29.617  27.188  1.00  0.00    -0.206 F 
ATOM     82  C   UNL A   1      35.862  31.191  28.837  1.00  0.00     0.060 A 
BRANCH  82  83
ATOM     83  S   UNL A   1      34.528  32.342  28.426  1.00  0.00     0.124 S 
ATOM     84  O   UNL A   1      34.093  32.785  29.745  1.00  0.00    -0.237 OA
ATOM     85  O   UNL A   1      35.219  33.338  27.613  1.00  0.00    -0.237 OA
ATOM     86  O   UNL A   1      33.573  31.507  27.701  1.00  0.00    -0.744 OA
ENDBRANCH  82  83
ENDBRANCH  50  75
BRANCH  62  87
ATOM     87  C   UNL A   1      43.200  28.651  33.195  1.00  0.00     0.058 A 
ATOM     88  C   UNL A   1      43.007  27.258  33.145  1.00  0.00     0.135 A 
ATOM     89  C   UNL A   1      43.212  29.244  34.468  1.00  0.00     0.135 A 
ATOM     90  F   UNL A   1      43.094  26.588  31.988  1.00  0.00    -0.206 F 
ATOM     91  C   UNL A   1      42.767  26.505  34.297  1.00  0.00     0.059 A 
ATOM     92  C   UNL A   1      43.013  28.508  35.632  1.00  0.00     0.059 A 
ATOM     93  F   UNL A   1      43.457  30.559  34.596  1.00  0.00    -0.206 F 
ATOM     94  C   UNL A   1      42.764  27.142  35.537  1.00  0.00     0.060 A 
BRANCH  94  95
ATOM     95  S   UNL A   1      42.473  26.168  37.030  1.00  0.00     0.124 S 
ATOM     96  O   UNL A   1      41.021  26.227  37.156  1.00  0.00    -0.237 OA
ATOM     97  O   UNL A   1      43.028  24.866  36.674  1.00  0.00    -0.237 OA
ATOM     98  O   UNL A   1      43.217  26.891  38.059  1.00  0.00    -0.744 OA
ENDBRANCH  94  95
ENDBRANCH  62  87
ENDBRANCH  36  37
ENDBRANCH  28  31
ENDBRANCH  26  27
ENDBRANCH  25  26
ENDBRANCH   1  25
TORSDOF 18
ENDMDL
MODEL 3
REMARK VINA RESULT:     -11.3      3.460      9.605
REMARK SMILES CN(CC(F)(F)F)C(=O)N1CC(n2cc(C(=O)NCCCCNC(=O)c3ccc(-c4c5nc(c(-c6c(F)cc(S(=O)(=O)[O-])cc6F)c6ccc([nH]6)c(-c6c(F)cc(S(=O)(=O)[O-])cc6F)c6nc(c(-c7c(F)cc(S(=O)(=O)[O-])cc7F)c7ccc4[nH]7)C=C6)C=C5)cc3)nn2)C1
REMARK SMILES IDX 20 1 19 2 18 3 16 4 17 5 15 7 13 8 14 9 93 10 92 11 12 12
REMARK SMILES IDX 8 13 9 14 10 15 11 16 94 17 2 18 1 19 3 20 4 21 5 22 6 23
REMARK SMILES IDX 7 24 21 25 22 26 23 27 24 28 25 30 26 31 27 32 91 33 28 34
REMARK SMILES IDX 90 35 29 36 30 37 31 38 84 39 32 40 89 41 83 42 85 43 33 44
REMARK SMILES IDX 88 45 82 46 81 47 34 49 68 50 47 51 67 52 48 53 51 54 66 55
REMARK SMILES IDX 86 56 49 57 50 58 65 60 87 61 52 62 35 63 36 64 45 65 37 66
REMARK SMILES IDX 38 67 44 68 46 69 39 70 40 71 41 72 42 73 43 74 69 75 70 76
REMARK SMILES IDX 79 77 71 78 72 79 78 80 80 81 73 82 74 83 75 84 76 85 77 86
REMARK SMILES IDX 53 87 54 88 63 89 55 90 56 91 62 92 64 93 57 94 58 95 59 96
REMARK SMILES IDX 60 97 61 98
REMARK H PARENT 18 6 23 29 85 48 51 59
REMARK Flexibility Score: inf
ROOT
ATOM      1  C   UNL A   1      32.916  29.146  24.671  1.00  0.00     0.023 C 
ENDROOT
BRANCH   1   2
ATOM      2  C   UNL A   1      31.469  29.287  25.156  1.00  0.00     0.116 C 
BRANCH   2   3
ATOM      3  N   UNL A   1      30.535  28.625  24.265  1.00  0.00    -0.351 N 
ATOM      4  C   UNL A   1      30.135  27.312  24.149  1.00  0.00     0.273 C 
ATOM      5  O   UNL A   1      29.248  27.081  23.326  1.00  0.00    -0.267 OA
ATOM      6  H   UNL A   1      30.105  29.231  23.620  1.00  0.00     0.163 HD
BRANCH   4   7
ATOM      7  C   UNL A   1      30.715  26.247  24.962  1.00  0.00     0.170 A 
ATOM      8  N   UNL A   1      31.752  24.534  25.806  1.00  0.00    -0.245 N 
ATOM      9  C   UNL A   1      31.385  25.091  24.612  1.00  0.00     0.145 A 
ATOM     10  N   UNL A   1      31.271  25.231  26.839  1.00  0.00    -0.066 NA
ATOM     11  N   UNL A   1      30.613  26.269  26.341  1.00  0.00    -0.125 NA
BRANCH   8  12
ATOM     12  C   UNL A   1      32.597  23.386  25.914  1.00  0.00     0.148 C 
ATOM     13  C   UNL A   1      33.750  20.597  24.750  1.00  0.00     0.320 C 
ATOM     14  O   UNL A   1      34.941  20.579  25.062  1.00  0.00    -0.248 OA
ATOM     15  N   UNL A   1      33.047  21.771  24.708  1.00  0.00    -0.320 N 
ATOM     16  C   UNL A   1      33.588  23.134  24.780  1.00  0.00     0.150 C 
ATOM     17  C   UNL A   1      31.848  22.125  25.461  1.00  0.00     0.150 C 
BRANCH  13  18
ATOM     18  N   UNL A   1      33.070  19.445  24.385  1.00  0.00    -0.319 N 
ATOM     19  C   UNL A   1      32.283  19.496  23.164  1.00  0.00     0.149 C 
BRANCH  18  20
ATOM     20  C   UNL A   1      32.972  18.217  25.200  1.00  0.00     0.236 C 
BRANCH  20  21
ATOM     21  C   UNL A   1      33.840  17.044  24.738  1.00  0.00     0.406 C 
ATOM     22  F   UNL A   1      33.210  16.262  23.836  1.00  0.00    -0.169 F 
ATOM     23  F   UNL A   1      34.973  17.497  24.154  1.00  0.00    -0.169 F 
ATOM     24  F   UNL A   1      34.203  16.258  25.777  1.00  0.00    -0.169 F 
ENDBRANCH  20  21
ENDBRANCH  18  20
ENDBRANCH  13  18
ENDBRANCH   8  12
ENDBRANCH   4   7
ENDBRANCH   2   3
ENDBRANCH   1   2
BRANCH   1  25
ATOM     25  C   UNL A   1      33.874  28.449  25.652  1.00  0.00     0.023 C 
BRANCH  25  26
ATOM     26  C   UNL A   1      33.966  29.092  27.036  1.00  0.00     0.116 C 
BRANCH  26  27
ATOM     27  N   UNL A   1      34.070  30.549  26.981  1.00  0.00    -0.352 N 
ATOM     28  C   UNL A   1      34.930  31.370  27.692  1.00  0.00     0.251 C 
ATOM     29  H   UNL A   1      33.453  31.004  26.363  1.00  0.00     0.163 HD
ATOM     30  O   UNL A   1      34.663  32.547  27.869  1.00  0.00    -0.269 OA
BRANCH  28  31
ATOM     31  C   UNL A   1      36.182  30.795  28.221  1.00  0.00     0.039 A 
ATOM     32  C   UNL A   1      36.442  29.424  28.142  1.00  0.00     0.014 A 
ATOM     33  C   UNL A   1      37.114  31.666  28.778  1.00  0.00     0.014 A 
ATOM     34  C   UNL A   1      37.689  28.951  28.544  1.00  0.00     0.010 A 
ATOM     35  C   UNL A   1      38.384  31.220  29.054  1.00  0.00     0.010 A 
ATOM     36  C   UNL A   1      38.668  29.859  28.978  1.00  0.00    -0.014 A 
BRANCH  36  37
ATOM     37  C   UNL A   1      40.048  29.423  29.198  1.00  0.00     0.031 A 
ATOM     38  C   UNL A   1      40.405  29.235  30.634  1.00  0.00     0.074 A 
ATOM     39  C   UNL A   1      40.839  28.967  28.200  1.00  0.00     0.049 A 
ATOM     40  N   UNL A   1      41.261  29.900  31.337  1.00  0.00    -0.248 NA
ATOM     41  C   UNL A   1      39.599  28.291  31.429  1.00  0.00     0.031 C 
ATOM     42  C   UNL A   1      40.481  28.788  26.787  1.00  0.00     0.029 A 
ATOM     43  N   UNL A   1      42.093  28.438  28.251  1.00  0.00    -0.354 N 
ATOM     44  C   UNL A   1      41.290  29.279  32.585  1.00  0.00     0.074 A 
ATOM     45  C   UNL A   1      40.102  28.470  32.653  1.00  0.00     0.031 C 
ATOM     46  C   UNL A   1      41.379  27.976  26.189  1.00  0.00     0.029 A 
ATOM     47  C   UNL A   1      42.461  27.714  27.118  1.00  0.00     0.049 A 
ATOM     48  H   UNL A   1      42.690  28.558  29.025  1.00  0.00     0.167 HD
ATOM     49  C   UNL A   1      42.429  29.254  33.334  1.00  0.00     0.037 A 
ATOM     50  C   UNL A   1      43.560  26.929  26.963  1.00  0.00     0.037 A 
ATOM     51  C   UNL A   1      43.373  30.241  32.865  1.00  0.00     0.049 A 
ATOM     52  C   UNL A   1      44.535  27.335  28.005  1.00  0.00     0.074 A 
ATOM     53  C   UNL A   1      43.346  31.609  32.679  1.00  0.00     0.029 A 
ATOM     54  N   UNL A   1      44.448  29.788  32.138  1.00  0.00    -0.354 N 
ATOM     55  N   UNL A   1      45.121  28.499  28.039  1.00  0.00    -0.248 NA
ATOM     56  C   UNL A   1      44.523  26.610  29.264  1.00  0.00     0.031 C 
ATOM     57  C   UNL A   1      44.090  31.835  31.483  1.00  0.00     0.029 A 
ATOM     58  C   UNL A   1      44.596  30.608  31.050  1.00  0.00     0.049 A 
ATOM     59  H   UNL A   1      45.012  29.013  32.361  1.00  0.00     0.167 HD
ATOM     60  C   UNL A   1      45.138  28.847  29.381  1.00  0.00     0.074 A 
ATOM     61  C   UNL A   1      44.859  27.601  30.093  1.00  0.00     0.031 C 
ATOM     62  C   UNL A   1      45.090  30.156  29.768  1.00  0.00     0.037 A 
BRANCH  49  63
ATOM     63  C   UNL A   1      42.861  28.083  34.198  1.00  0.00     0.058 A 
ATOM     64  C   UNL A   1      43.110  28.300  35.572  1.00  0.00     0.135 A 
ATOM     65  C   UNL A   1      43.323  26.844  33.694  1.00  0.00     0.135 A 
ATOM     66  F   UNL A   1      42.719  29.439  36.165  1.00  0.00    -0.206 F 
ATOM     67  C   UNL A   1      43.838  27.402  36.356  1.00  0.00     0.059 A 
ATOM     68  C   UNL A   1      44.000  25.912  34.472  1.00  0.00     0.059 A 
ATOM     69  F   UNL A   1      43.230  26.510  32.404  1.00  0.00    -0.206 F 
ATOM     70  C   UNL A   1      44.293  26.217  35.789  1.00  0.00     0.060 A 
BRANCH  70  71
ATOM     71  S   UNL A   1      45.315  25.101  36.764  1.00  0.00     0.124 S 
ATOM     72  O   UNL A   1      44.451  24.848  37.911  1.00  0.00    -0.237 OA
ATOM     73  O   UNL A   1      45.504  23.984  35.844  1.00  0.00    -0.237 OA
ATOM     74  O   UNL A   1      46.511  25.893  37.033  1.00  0.00    -0.744 OA
ENDBRANCH  70  71
ENDBRANCH  49  63
BRANCH  50  75
ATOM     75  C   UNL A   1      43.703  25.663  26.192  1.00  0.00     0.058 A 
ATOM     76  C   UNL A   1      44.808  25.446  25.347  1.00  0.00     0.135 A 
ATOM     77  C   UNL A   1      42.922  24.528  26.490  1.00  0.00     0.135 A 
ATOM     78  F   UNL A   1      45.617  26.465  25.020  1.00  0.00    -0.206 F 
ATOM     79  C   UNL A   1      45.154  24.173  24.879  1.00  0.00     0.059 A 
ATOM     80  C   UNL A   1      43.241  23.251  26.026  1.00  0.00     0.059 A 
ATOM     81  F   UNL A   1      41.874  24.609  27.324  1.00  0.00    -0.206 F 
ATOM     82  C   UNL A   1      44.377  23.076  25.245  1.00  0.00     0.060 A 
BRANCH  82  83
ATOM     83  S   UNL A   1      44.924  21.409  24.801  1.00  0.00     0.124 S 
ATOM     84  O   UNL A   1      46.324  21.432  25.206  1.00  0.00    -0.237 OA
ATOM     85  O   UNL A   1      44.041  20.571  25.605  1.00  0.00    -0.237 OA
ATOM     86  O   UNL A   1      44.691  21.349  23.360  1.00  0.00    -0.744 OA
ENDBRANCH  82  83
ENDBRANCH  50  75
BRANCH  62  87
ATOM     87  C   UNL A   1      45.387  31.213  28.732  1.00  0.00     0.058 A 
ATOM     88  C   UNL A   1      44.448  31.768  27.843  1.00  0.00     0.135 A 
ATOM     89  C   UNL A   1      46.679  31.761  28.712  1.00  0.00     0.135 A 
ATOM     90  F   UNL A   1      43.162  31.391  27.870  1.00  0.00    -0.206 F 
ATOM     91  C   UNL A   1      44.797  32.767  26.931  1.00  0.00     0.059 A 
ATOM     92  C   UNL A   1      47.040  32.782  27.839  1.00  0.00     0.059 A 
ATOM     93  F   UNL A   1      47.609  31.326  29.580  1.00  0.00    -0.206 F 
ATOM     94  C   UNL A   1      46.100  33.263  26.931  1.00  0.00     0.060 A 
BRANCH  94  95
ATOM     95  S   UNL A   1      46.549  34.567  25.767  1.00  0.00     0.124 S 
ATOM     96  O   UNL A   1      46.278  35.775  26.538  1.00  0.00    -0.237 OA
ATOM     97  O   UNL A   1      47.957  34.285  25.501  1.00  0.00    -0.237 OA
ATOM     98  O   UNL A   1      45.654  34.338  24.635  1.00  0.00    -0.744 OA
ENDBRANCH  94  95
ENDBRANCH  62  87
ENDBRANCH  36  37
ENDBRANCH  28  31
ENDBRANCH  26  27
ENDBRANCH  25  26
ENDBRANCH   1  25
TORSDOF 18
ENDMDL
