MODEL 1
REMARK VINA RESULT:     -13.1      0.000      0.000
REMARK SMILES Cc1nc2sc3c(c2c2nc(CCC(=O)NCCCCNC(=O)c4ccc(-c5c6nc(c(-c7c(F)cc(S(=O)(=O)[O-])cc7F)c7ccc([nH]7)c(-c7c(F)cc(S(=O)(=O)[O-])cc7F)c7nc(c(-c8c(F)cc(S(=O)(=O)[O-])cc8F)c8ccc5[nH]8)C=C7)C=C6)cc4)nn12)[C@@H](C)CCC3
REMARK SMILES IDX 19 1 18 2 17 3 16 4 14 5 15 6 13 8 12 9 11 10 1 11 2 12 3 13
REMARK SMILES IDX 91 14 4 15 9 16 90 17 5 18 8 19 10 20 6 21 7 22 96 23 92 24
REMARK SMILES IDX 95 25 93 26 94 27 20 28 21 29 22 30 23 32 24 33 25 34 89 35
REMARK SMILES IDX 26 36 88 37 27 38 28 39 29 40 82 41 30 42 87 43 81 44 83 45
REMARK SMILES IDX 31 46 86 47 80 48 79 49 32 51 66 52 45 53 65 54 46 55 49 56
REMARK SMILES IDX 64 57 84 58 47 59 48 60 63 62 85 63 50 64 33 65 34 66 43 67
REMARK SMILES IDX 35 68 36 69 42 70 44 71 37 72 38 73 39 74 40 75 41 76 67 77
REMARK SMILES IDX 68 78 77 79 69 80 70 81 76 82 78 83 71 84 72 85 73 86 74 87
REMARK SMILES IDX 75 88 51 89 52 90 61 91 53 92 54 93 60 94 62 95 55 96 56 97
REMARK SMILES IDX 57 98 58 99 59 100
REMARK H PARENT 16 7 21 31 83 50 49 61
REMARK Flexibility Score: inf
ROOT
ATOM      1  C   UNL A   1      40.195  21.089  26.518  1.00  0.00     0.023 C 
ENDROOT
BRANCH   1   2
ATOM      2  C   UNL A   1      39.153  22.130  26.142  1.00  0.00     0.023 C 
BRANCH   2   3
ATOM      3  C   UNL A   1      37.974  21.503  25.392  1.00  0.00     0.116 C 
BRANCH   3   4
ATOM      4  N   UNL A   1      36.723  21.543  26.145  1.00  0.00    -0.356 N 
ATOM      5  C   UNL A   1      35.484  21.974  25.778  1.00  0.00     0.220 C 
ATOM      6  O   UNL A   1      34.613  22.089  26.641  1.00  0.00    -0.275 OA
ATOM      7  H   UNL A   1      36.786  21.204  27.067  1.00  0.00     0.163 HD
BRANCH   5   8
ATOM      8  C   UNL A   1      35.178  22.229  24.322  1.00  0.00     0.108 C 
BRANCH   8   9
ATOM      9  C   UNL A   1      35.485  23.669  23.901  1.00  0.00     0.089 C 
BRANCH   9  10
ATOM     10  C   UNL A   1      34.274  24.510  23.659  1.00  0.00     0.152 A 
ATOM     11  C   UNL A   1      32.327  25.636  20.221  1.00  0.00     0.090 C 
ATOM     12  C   UNL A   1      32.031  26.115  21.611  1.00  0.00     0.131 A 
ATOM     13  N   UNL A   1      31.233  27.120  21.827  1.00  0.00    -0.222 NA
ATOM     14  N   UNL A   1      32.757  25.507  22.639  1.00  0.00    -0.199 N 
ATOM     15  C   UNL A   1      31.269  27.659  23.087  1.00  0.00     0.129 A 
ATOM     16  C   UNL A   1      32.794  26.003  23.930  1.00  0.00     0.168 A 
ATOM     17  N   UNL A   1      33.673  24.532  22.460  1.00  0.00    -0.150 NA
ATOM     18  S   UNL A   1      30.377  29.066  23.397  1.00  0.00    -0.120 S 
ATOM     19  C   UNL A   1      32.059  27.299  24.180  1.00  0.00     0.060 A 
ATOM     20  N   UNL A   1      33.728  25.362  24.603  1.00  0.00    -0.211 NA
ATOM     21  C   UNL A   1      31.293  29.395  24.788  1.00  0.00     0.011 A 
ATOM     22  C   UNL A   1      32.173  28.373  25.158  1.00  0.00    -0.018 A 
ATOM     23  C   UNL A   1      31.143  30.742  25.429  1.00  0.00     0.047 C 
ATOM     24  C   UNL A   1      33.042  28.571  26.416  1.00  0.00     0.018 C 
ATOM     25  C   UNL A   1      31.712  30.733  26.840  1.00  0.00     0.006 C 
ATOM     26  C   UNL A   1      34.507  28.147  26.370  1.00  0.00     0.013 C 
ATOM     27  C   UNL A   1      33.086  30.077  26.843  1.00  0.00     0.008 C 
ENDBRANCH   9  10
ENDBRANCH   8   9
ENDBRANCH   5   8
ENDBRANCH   3   4
ENDBRANCH   2   3
ENDBRANCH   1   2
BRANCH   1  28
ATOM     28  C   UNL A   1      41.497  21.571  27.080  1.00  0.00     0.116 C 
BRANCH  28  29
ATOM     29  N   UNL A   1      42.533  22.016  26.142  1.00  0.00    -0.352 N 
ATOM     30  C   UNL A   1      42.827  23.353  25.817  1.00  0.00     0.251 C 
ATOM     31  H   UNL A   1      43.069  21.318  25.701  1.00  0.00     0.163 HD
ATOM     32  O   UNL A   1      43.423  23.655  24.804  1.00  0.00    -0.269 OA
BRANCH  30  33
ATOM     33  C   UNL A   1      42.354  24.389  26.765  1.00  0.00     0.039 A 
ATOM     34  C   UNL A   1      42.955  24.684  27.987  1.00  0.00     0.014 A 
ATOM     35  C   UNL A   1      41.386  25.225  26.262  1.00  0.00     0.014 A 
ATOM     36  C   UNL A   1      42.633  25.908  28.583  1.00  0.00     0.010 A 
ATOM     37  C   UNL A   1      41.530  26.543  26.560  1.00  0.00     0.010 A 
ATOM     38  C   UNL A   1      41.939  26.868  27.825  1.00  0.00    -0.014 A 
BRANCH  38  39
ATOM     39  C   UNL A   1      41.606  28.219  28.267  1.00  0.00     0.031 A 
ATOM     40  C   UNL A   1      42.633  29.226  27.947  1.00  0.00     0.074 A 
ATOM     41  C   UNL A   1      40.431  28.565  28.855  1.00  0.00     0.049 A 
ATOM     42  N   UNL A   1      43.580  29.612  28.731  1.00  0.00    -0.248 NA
ATOM     43  C   UNL A   1      42.767  29.702  26.565  1.00  0.00     0.031 C 
ATOM     44  C   UNL A   1      39.199  27.774  29.052  1.00  0.00     0.029 A 
ATOM     45  N   UNL A   1      40.075  29.765  29.397  1.00  0.00    -0.354 N 
ATOM     46  C   UNL A   1      44.266  30.595  28.037  1.00  0.00     0.074 A 
ATOM     47  C   UNL A   1      43.873  30.447  26.659  1.00  0.00     0.031 C 
ATOM     48  C   UNL A   1      38.186  28.564  29.468  1.00  0.00     0.029 A 
ATOM     49  C   UNL A   1      38.737  29.865  29.776  1.00  0.00     0.049 A 
ATOM     50  H   UNL A   1      40.715  30.504  29.511  1.00  0.00     0.167 HD
ATOM     51  C   UNL A   1      44.880  31.601  28.717  1.00  0.00     0.037 A 
ATOM     52  C   UNL A   1      38.128  30.905  30.400  1.00  0.00     0.037 A 
ATOM     53  C   UNL A   1      44.964  31.286  30.127  1.00  0.00     0.049 A 
ATOM     54  C   UNL A   1      39.202  31.641  31.106  1.00  0.00     0.074 A 
ATOM     55  C   UNL A   1      45.566  30.292  30.874  1.00  0.00     0.029 A 
ATOM     56  N   UNL A   1      44.007  31.845  30.941  1.00  0.00    -0.354 N 
ATOM     57  N   UNL A   1      39.870  31.153  32.115  1.00  0.00    -0.248 NA
ATOM     58  C   UNL A   1      39.840  32.743  30.408  1.00  0.00     0.031 C 
ATOM     59  C   UNL A   1      44.651  30.013  31.933  1.00  0.00     0.029 A 
ATOM     60  C   UNL A   1      43.573  30.893  31.827  1.00  0.00     0.049 A 
ATOM     61  H   UNL A   1      43.686  32.775  30.895  1.00  0.00     0.167 HD
ATOM     62  C   UNL A   1      41.174  31.578  31.913  1.00  0.00     0.074 A 
ATOM     63  C   UNL A   1      41.072  32.638  30.911  1.00  0.00     0.031 C 
ATOM     64  C   UNL A   1      42.230  30.845  32.373  1.00  0.00     0.037 A 
BRANCH  51  65
ATOM     65  C   UNL A   1      45.016  33.020  28.213  1.00  0.00     0.058 A 
ATOM     66  C   UNL A   1      46.308  33.522  27.954  1.00  0.00     0.135 A 
ATOM     67  C   UNL A   1      43.986  33.985  28.261  1.00  0.00     0.135 A 
ATOM     68  F   UNL A   1      47.363  32.695  27.877  1.00  0.00    -0.206 F 
ATOM     69  C   UNL A   1      46.572  34.888  27.850  1.00  0.00     0.059 A 
ATOM     70  C   UNL A   1      44.219  35.347  28.108  1.00  0.00     0.059 A 
ATOM     71  F   UNL A   1      42.719  33.675  28.552  1.00  0.00    -0.206 F 
ATOM     72  C   UNL A   1      45.520  35.792  27.949  1.00  0.00     0.060 A 
BRANCH  72  73
ATOM     73  S   UNL A   1      45.872  37.557  27.931  1.00  0.00     0.124 S 
ATOM     74  O   UNL A   1      44.856  38.045  27.005  1.00  0.00    -0.237 OA
ATOM     75  O   UNL A   1      45.686  37.913  29.334  1.00  0.00    -0.237 OA
ATOM     76  O   UNL A   1      47.249  37.619  27.450  1.00  0.00    -0.744 OA
ENDBRANCH  72  73
ENDBRANCH  51  65
BRANCH  52  77
ATOM     77  C   UNL A   1      36.791  31.495  30.133  1.00  0.00     0.058 A 
ATOM     78  C   UNL A   1      36.100  32.194  31.142  1.00  0.00     0.135 A 
ATOM     79  C   UNL A   1      36.314  31.672  28.819  1.00  0.00     0.135 A 
ATOM     80  F   UNL A   1      36.485  32.081  32.423  1.00  0.00    -0.206 F 
ATOM     81  C   UNL A   1      35.059  33.084  30.858  1.00  0.00     0.059 A 
ATOM     82  C   UNL A   1      35.274  32.552  28.511  1.00  0.00     0.059 A 
ATOM     83  F   UNL A   1      36.912  31.065  27.783  1.00  0.00    -0.206 F 
ATOM     84  C   UNL A   1      34.675  33.281  29.533  1.00  0.00     0.060 A 
BRANCH  84  85
ATOM     85  S   UNL A   1      33.474  34.579  29.146  1.00  0.00     0.124 S 
ATOM     86  O   UNL A   1      32.599  33.908  28.191  1.00  0.00    -0.237 OA
ATOM     87  O   UNL A   1      32.893  34.860  30.455  1.00  0.00    -0.237 OA
ATOM     88  O   UNL A   1      34.299  35.649  28.590  1.00  0.00    -0.744 OA
ENDBRANCH  84  85
ENDBRANCH  52  77
BRANCH  64  89
ATOM     89  C   UNL A   1      41.953  29.776  33.403  1.00  0.00     0.058 A 
ATOM     90  C   UNL A   1      41.545  28.460  33.114  1.00  0.00     0.135 A 
ATOM     91  C   UNL A   1      42.250  30.071  34.742  1.00  0.00     0.135 A 
ATOM     92  F   UNL A   1      41.320  28.069  31.852  1.00  0.00    -0.206 F 
ATOM     93  C   UNL A   1      41.414  27.494  34.116  1.00  0.00     0.059 A 
ATOM     94  C   UNL A   1      42.155  29.116  35.752  1.00  0.00     0.059 A 
ATOM     95  F   UNL A   1      42.692  31.294  35.077  1.00  0.00    -0.206 F 
ATOM     96  C   UNL A   1      41.727  27.831  35.433  1.00  0.00     0.060 A 
BRANCH  96  97
ATOM     97  S   UNL A   1      41.629  26.564  36.718  1.00  0.00     0.124 S 
ATOM     98  O   UNL A   1      42.889  26.749  37.430  1.00  0.00    -0.237 OA
ATOM     99  O   UNL A   1      40.426  26.948  37.450  1.00  0.00    -0.237 OA
ATOM    100  O   UNL A   1      41.518  25.318  35.963  1.00  0.00    -0.744 OA
ENDBRANCH  96  97
ENDBRANCH  64  89
ENDBRANCH  38  39
ENDBRANCH  30  33
ENDBRANCH  28  29
ENDBRANCH   1  28
TORSDOF 16
ENDMDL
MODEL 2
REMARK VINA RESULT:     -12.8      1.790      2.457
REMARK SMILES Cc1nc2sc3c(c2c2nc(CCC(=O)NCCCCNC(=O)c4ccc(-c5c6nc(c(-c7c(F)cc(S(=O)(=O)[O-])cc7F)c7ccc([nH]7)c(-c7c(F)cc(S(=O)(=O)[O-])cc7F)c7nc(c(-c8c(F)cc(S(=O)(=O)[O-])cc8F)c8ccc5[nH]8)C=C7)C=C6)cc4)nn12)[C@@H](C)CCC3
REMARK SMILES IDX 19 1 18 2 17 3 16 4 14 5 15 6 13 8 12 9 11 10 1 11 2 12 3 13
REMARK SMILES IDX 91 14 4 15 9 16 90 17 5 18 8 19 10 20 6 21 7 22 96 23 92 24
REMARK SMILES IDX 95 25 93 26 94 27 20 28 21 29 22 30 23 32 24 33 25 34 89 35
REMARK SMILES IDX 26 36 88 37 27 38 28 39 29 40 82 41 30 42 87 43 81 44 83 45
REMARK SMILES IDX 31 46 86 47 80 48 79 49 32 51 66 52 45 53 65 54 46 55 49 56
REMARK SMILES IDX 64 57 84 58 47 59 48 60 63 62 85 63 50 64 33 65 34 66 43 67
REMARK SMILES IDX 35 68 36 69 42 70 44 71 37 72 38 73 39 74 40 75 41 76 67 77
REMARK SMILES IDX 68 78 77 79 69 80 70 81 76 82 78 83 71 84 72 85 73 86 74 87
REMARK SMILES IDX 75 88 51 89 52 90 61 91 53 92 54 93 60 94 62 95 55 96 56 97
REMARK SMILES IDX 57 98 58 99 59 100
REMARK H PARENT 16 7 21 31 83 50 49 61
REMARK Flexibility Score: inf
ROOT
ATOM      1  C   UNL A   1      37.806  21.939  25.232  1.00  0.00     0.023 C 
ENDROOT
BRANCH   1   2
ATOM      2  C   UNL A   1      36.390  21.630  25.690  1.00  0.00     0.023 C 
BRANCH   2   3
ATOM      3  C   UNL A   1      35.695  20.642  24.748  1.00  0.00     0.116 C 
BRANCH   3   4
ATOM      4  N   UNL A   1      34.766  19.746  25.431  1.00  0.00    -0.356 N 
ATOM      5  C   UNL A   1      33.579  19.220  25.018  1.00  0.00     0.220 C 
ATOM      6  O   UNL A   1      32.870  18.635  25.836  1.00  0.00    -0.275 OA
ATOM      7  H   UNL A   1      35.042  19.480  26.338  1.00  0.00     0.163 HD
BRANCH   5   8
ATOM      8  C   UNL A   1      33.191  19.297  23.561  1.00  0.00     0.108 C 
BRANCH   8   9
ATOM      9  C   UNL A   1      32.087  20.324  23.300  1.00  0.00     0.089 C 
BRANCH   9  10
ATOM     10  C   UNL A   1      32.120  21.509  24.211  1.00  0.00     0.152 A 
ATOM     11  C   UNL A   1      29.648  22.730  27.256  1.00  0.00     0.090 C 
ATOM     12  C   UNL A   1      30.805  23.495  26.686  1.00  0.00     0.131 A 
ATOM     13  N   UNL A   1      31.005  24.746  26.985  1.00  0.00    -0.222 NA
ATOM     14  N   UNL A   1      31.570  22.828  25.725  1.00  0.00    -0.199 N 
ATOM     15  C   UNL A   1      31.893  25.422  26.189  1.00  0.00     0.129 A 
ATOM     16  C   UNL A   1      32.498  23.468  24.924  1.00  0.00     0.168 A 
ATOM     17  N   UNL A   1      31.342  21.566  25.302  1.00  0.00    -0.150 NA
ATOM     18  S   UNL A   1      32.086  27.089  26.417  1.00  0.00    -0.120 S 
ATOM     19  C   UNL A   1      32.609  24.967  25.079  1.00  0.00     0.060 A 
ATOM     20  N   UNL A   1      32.884  22.639  23.976  1.00  0.00    -0.211 NA
ATOM     21  C   UNL A   1      32.785  27.265  24.880  1.00  0.00     0.011 A 
ATOM     22  C   UNL A   1      33.056  26.059  24.225  1.00  0.00    -0.018 A 
ATOM     23  C   UNL A   1      32.969  28.653  24.343  1.00  0.00     0.047 C 
ATOM     24  C   UNL A   1      33.703  26.112  22.826  1.00  0.00     0.018 C 
ATOM     25  C   UNL A   1      33.937  28.652  23.170  1.00  0.00     0.006 C 
ATOM     26  C   UNL A   1      33.186  25.170  21.743  1.00  0.00     0.013 C 
ATOM     27  C   UNL A   1      33.573  27.538  22.196  1.00  0.00     0.008 C 
ENDBRANCH   9  10
ENDBRANCH   8   9
ENDBRANCH   5   8
ENDBRANCH   3   4
ENDBRANCH   2   3
ENDBRANCH   1   2
BRANCH   1  28
ATOM     28  C   UNL A   1      38.835  22.228  26.282  1.00  0.00     0.116 C 
BRANCH  28  29
ATOM     29  N   UNL A   1      40.249  22.076  25.926  1.00  0.00    -0.352 N 
ATOM     30  C   UNL A   1      41.249  23.050  26.099  1.00  0.00     0.251 C 
ATOM     31  H   UNL A   1      40.522  21.217  25.530  1.00  0.00     0.163 HD
ATOM     32  O   UNL A   1      42.293  23.021  25.482  1.00  0.00    -0.269 OA
BRANCH  30  33
ATOM     33  C   UNL A   1      40.959  24.138  27.063  1.00  0.00     0.039 A 
ATOM     34  C   UNL A   1      41.578  24.289  28.302  1.00  0.00     0.014 A 
ATOM     35  C   UNL A   1      40.178  25.152  26.563  1.00  0.00     0.014 A 
ATOM     36  C   UNL A   1      41.480  25.540  28.921  1.00  0.00     0.010 A 
ATOM     37  C   UNL A   1      40.561  26.412  26.895  1.00  0.00     0.010 A 
ATOM     38  C   UNL A   1      40.996  26.629  28.174  1.00  0.00    -0.014 A 
BRANCH  38  39
ATOM     39  C   UNL A   1      40.915  28.010  28.643  1.00  0.00     0.031 A 
ATOM     40  C   UNL A   1      42.007  28.873  28.159  1.00  0.00     0.074 A 
ATOM     41  C   UNL A   1      39.897  28.505  29.394  1.00  0.00     0.049 A 
ATOM     42  N   UNL A   1      43.103  29.125  28.789  1.00  0.00    -0.248 NA
ATOM     43  C   UNL A   1      41.996  29.335  26.767  1.00  0.00     0.031 C 
ATOM     44  C   UNL A   1      38.615  27.883  29.781  1.00  0.00     0.029 A 
ATOM     45  N   UNL A   1      39.788  29.738  29.965  1.00  0.00    -0.354 N 
ATOM     46  C   UNL A   1      43.802  30.012  27.987  1.00  0.00     0.074 A 
ATOM     47  C   UNL A   1      43.193  29.926  26.685  1.00  0.00     0.031 C 
ATOM     48  C   UNL A   1      37.789  28.798  30.332  1.00  0.00     0.029 A 
ATOM     49  C   UNL A   1      38.546  30.013  30.537  1.00  0.00     0.049 A 
ATOM     50  H   UNL A   1      40.530  30.385  29.973  1.00  0.00     0.167 HD
ATOM     51  C   UNL A   1      44.638  30.923  28.555  1.00  0.00     0.037 A 
ATOM     52  C   UNL A   1      38.180  31.120  31.230  1.00  0.00     0.037 A 
ATOM     53  C   UNL A   1      44.889  30.591  29.941  1.00  0.00     0.049 A 
ATOM     54  C   UNL A   1      39.435  31.703  31.759  1.00  0.00     0.074 A 
ATOM     55  C   UNL A   1      45.458  29.520  30.604  1.00  0.00     0.029 A 
ATOM     56  N   UNL A   1      44.146  31.267  30.880  1.00  0.00    -0.354 N 
ATOM     57  N   UNL A   1      40.175  31.124  32.665  1.00  0.00    -0.248 NA
ATOM     58  C   UNL A   1      40.102  32.715  30.959  1.00  0.00     0.031 C 
ATOM     59  C   UNL A   1      44.683  29.359  31.791  1.00  0.00     0.029 A 
ATOM     60  C   UNL A   1      43.727  30.376  31.834  1.00  0.00     0.049 A 
ATOM     61  H   UNL A   1      43.948  32.231  30.869  1.00  0.00     0.167 HD
ATOM     62  C   UNL A   1      41.479  31.373  32.265  1.00  0.00     0.074 A 
ATOM     63  C   UNL A   1      41.370  32.444  31.276  1.00  0.00     0.031 C 
ATOM     64  C   UNL A   1      42.486  30.503  32.573  1.00  0.00     0.037 A 
BRANCH  51  65
ATOM     65  C   UNL A   1      44.884  32.314  28.018  1.00  0.00     0.058 A 
ATOM     66  C   UNL A   1      46.167  32.627  27.519  1.00  0.00     0.135 A 
ATOM     67  C   UNL A   1      44.032  33.418  28.241  1.00  0.00     0.135 A 
ATOM     68  F   UNL A   1      47.058  31.657  27.260  1.00  0.00    -0.206 F 
ATOM     69  C   UNL A   1      46.602  33.941  27.352  1.00  0.00     0.059 A 
ATOM     70  C   UNL A   1      44.429  34.734  28.032  1.00  0.00     0.059 A 
ATOM     71  F   UNL A   1      42.808  33.291  28.764  1.00  0.00    -0.206 F 
ATOM     72  C   UNL A   1      45.729  34.987  27.631  1.00  0.00     0.060 A 
BRANCH  72  73
ATOM     73  S   UNL A   1      46.325  36.682  27.526  1.00  0.00     0.124 S 
ATOM     74  O   UNL A   1      47.294  36.581  26.441  1.00  0.00    -0.237 OA
ATOM     75  O   UNL A   1      45.098  37.412  27.225  1.00  0.00    -0.237 OA
ATOM     76  O   UNL A   1      46.884  36.923  28.853  1.00  0.00    -0.744 OA
ENDBRANCH  72  73
ENDBRANCH  51  65
BRANCH  52  77
ATOM     77  C   UNL A   1      36.908  31.885  31.157  1.00  0.00     0.058 A 
ATOM     78  C   UNL A   1      36.093  32.034  32.296  1.00  0.00     0.135 A 
ATOM     79  C   UNL A   1      36.630  32.748  30.078  1.00  0.00     0.135 A 
ATOM     80  F   UNL A   1      36.286  31.252  33.368  1.00  0.00    -0.206 F 
ATOM     81  C   UNL A   1      35.123  33.037  32.395  1.00  0.00     0.059 A 
ATOM     82  C   UNL A   1      35.665  33.754  30.153  1.00  0.00     0.059 A 
ATOM     83  F   UNL A   1      37.359  32.699  28.953  1.00  0.00    -0.206 F 
ATOM     84  C   UNL A   1      34.939  33.914  31.329  1.00  0.00     0.060 A 
BRANCH  84  85
ATOM     85  S   UNL A   1      33.834  35.334  31.534  1.00  0.00     0.124 S 
ATOM     86  O   UNL A   1      33.627  35.758  30.153  1.00  0.00    -0.237 OA
ATOM     87  O   UNL A   1      32.681  34.731  32.195  1.00  0.00    -0.237 OA
ATOM     88  O   UNL A   1      34.613  36.253  32.359  1.00  0.00    -0.744 OA
ENDBRANCH  84  85
ENDBRANCH  52  77
BRANCH  64  89
ATOM     89  C   UNL A   1      42.226  29.474  33.648  1.00  0.00     0.058 A 
ATOM     90  C   UNL A   1      41.684  28.194  33.428  1.00  0.00     0.135 A 
ATOM     91  C   UNL A   1      42.680  29.759  34.944  1.00  0.00     0.135 A 
ATOM     92  F   UNL A   1      41.300  27.808  32.203  1.00  0.00    -0.206 F 
ATOM     93  C   UNL A   1      41.574  27.255  34.458  1.00  0.00     0.059 A 
ATOM     94  C   UNL A   1      42.607  28.829  35.978  1.00  0.00     0.059 A 
ATOM     95  F   UNL A   1      43.252  30.945  35.208  1.00  0.00    -0.206 F 
ATOM     96  C   UNL A   1      42.044  27.580  35.730  1.00  0.00     0.060 A 
BRANCH  96  97
ATOM     97  S   UNL A   1      41.972  26.342  37.044  1.00  0.00     0.124 S 
ATOM     98  O   UNL A   1      43.115  26.705  37.874  1.00  0.00    -0.237 OA
ATOM     99  O   UNL A   1      40.659  26.584  37.635  1.00  0.00    -0.237 OA
ATOM    100  O   UNL A   1      42.100  25.074  36.329  1.00  0.00    -0.744 OA
ENDBRANCH  96  97
ENDBRANCH  64  89
ENDBRANCH  38  39
ENDBRANCH  30  33
ENDBRANCH  28  29
ENDBRANCH   1  28
TORSDOF 16
ENDMDL
MODEL 3
REMARK VINA RESULT:     -12.5      3.296      9.689
REMARK SMILES Cc1nc2sc3c(c2c2nc(CCC(=O)NCCCCNC(=O)c4ccc(-c5c6nc(c(-c7c(F)cc(S(=O)(=O)[O-])cc7F)c7ccc([nH]7)c(-c7c(F)cc(S(=O)(=O)[O-])cc7F)c7nc(c(-c8c(F)cc(S(=O)(=O)[O-])cc8F)c8ccc5[nH]8)C=C7)C=C6)cc4)nn12)[C@@H](C)CCC3
REMARK SMILES IDX 19 1 18 2 17 3 16 4 14 5 15 6 13 8 12 9 11 10 1 11 2 12 3 13
REMARK SMILES IDX 91 14 4 15 9 16 90 17 5 18 8 19 10 20 6 21 7 22 96 23 92 24
REMARK SMILES IDX 95 25 93 26 94 27 20 28 21 29 22 30 23 32 24 33 25 34 89 35
REMARK SMILES IDX 26 36 88 37 27 38 28 39 29 40 82 41 30 42 87 43 81 44 83 45
REMARK SMILES IDX 31 46 86 47 80 48 79 49 32 51 66 52 45 53 65 54 46 55 49 56
REMARK SMILES IDX 64 57 84 58 47 59 48 60 63 62 85 63 50 64 33 65 34 66 43 67
REMARK SMILES IDX 35 68 36 69 42 70 44 71 37 72 38 73 39 74 40 75 41 76 67 77
REMARK SMILES IDX 68 78 77 79 69 80 70 81 76 82 78 83 71 84 72 85 73 86 74 87
REMARK SMILES IDX 75 88 51 89 52 90 61 91 53 92 54 93 60 94 62 95 55 96 56 97
REMARK SMILES IDX 57 98 58 99 59 100
REMARK H PARENT 16 7 21 31 83 50 49 61
REMARK Flexibility Score: inf
ROOT
ATOM      1  C   UNL A   1      33.767  28.880  27.077  1.00  0.00     0.023 C 
ENDROOT
BRANCH   1   2
ATOM      2  C   UNL A   1      32.871  28.731  25.859  1.00  0.00     0.023 C 
BRANCH   2   3
ATOM      3  C   UNL A   1      32.702  27.261  25.459  1.00  0.00     0.116 C 
BRANCH   3   4
ATOM      4  N   UNL A   1      31.412  26.975  24.838  1.00  0.00    -0.356 N 
ATOM      5  C   UNL A   1      30.774  25.789  24.630  1.00  0.00     0.220 C 
ATOM      6  O   UNL A   1      29.772  25.769  23.916  1.00  0.00    -0.275 OA
ATOM      7  H   UNL A   1      30.925  27.768  24.517  1.00  0.00     0.163 HD
BRANCH   5   8
ATOM      8  C   UNL A   1      31.257  24.544  25.334  1.00  0.00     0.108 C 
BRANCH   8   9
ATOM      9  C   UNL A   1      31.026  23.276  24.508  1.00  0.00     0.089 C 
BRANCH   9  10
ATOM     10  C   UNL A   1      32.228  22.398  24.379  1.00  0.00     0.152 A 
ATOM     11  C   UNL A   1      32.784  18.365  24.924  1.00  0.00     0.090 C 
ATOM     12  C   UNL A   1      33.850  19.382  24.650  1.00  0.00     0.131 A 
ATOM     13  N   UNL A   1      35.114  19.090  24.766  1.00  0.00    -0.222 NA
ATOM     14  N   UNL A   1      33.408  20.683  24.390  1.00  0.00    -0.199 N 
ATOM     15  C   UNL A   1      35.979  20.152  24.788  1.00  0.00     0.129 A 
ATOM     16  C   UNL A   1      34.254  21.777  24.374  1.00  0.00     0.168 A 
ATOM     17  N   UNL A   1      32.113  21.062  24.361  1.00  0.00    -0.150 NA
ATOM     18  S   UNL A   1      37.620  19.861  25.095  1.00  0.00    -0.120 S 
ATOM     19  C   UNL A   1      35.702  21.520  24.724  1.00  0.00     0.060 A 
ATOM     20  N   UNL A   1      33.527  22.874  24.334  1.00  0.00    -0.211 NA
ATOM     21  C   UNL A   1      37.879  21.489  25.505  1.00  0.00     0.011 A 
ATOM     22  C   UNL A   1      36.790  22.330  25.254  1.00  0.00    -0.018 A 
ATOM     23  C   UNL A   1      39.180  21.853  26.154  1.00  0.00     0.047 C 
ATOM     24  C   UNL A   1      36.931  23.830  25.582  1.00  0.00     0.018 C 
ATOM     25  C   UNL A   1      39.407  23.356  26.095  1.00  0.00     0.006 C 
ATOM     26  C   UNL A   1      35.763  24.547  26.254  1.00  0.00     0.013 C 
ATOM     27  C   UNL A   1      38.147  24.091  26.532  1.00  0.00     0.008 C 
ENDBRANCH   9  10
ENDBRANCH   8   9
ENDBRANCH   5   8
ENDBRANCH   3   4
ENDBRANCH   2   3
ENDBRANCH   1   2
BRANCH   1  28
ATOM     28  C   UNL A   1      34.977  29.755  26.954  1.00  0.00     0.116 C 
BRANCH  28  29
ATOM     29  N   UNL A   1      34.843  31.174  27.300  1.00  0.00    -0.352 N 
ATOM     30  C   UNL A   1      35.339  31.785  28.466  1.00  0.00     0.251 C 
ATOM     31  H   UNL A   1      34.364  31.749  26.660  1.00  0.00     0.163 HD
ATOM     32  O   UNL A   1      34.909  32.844  28.872  1.00  0.00    -0.269 OA
BRANCH  30  33
ATOM     33  C   UNL A   1      36.405  31.060  29.196  1.00  0.00     0.039 A 
ATOM     34  C   UNL A   1      36.189  30.009  30.085  1.00  0.00     0.014 A 
ATOM     35  C   UNL A   1      37.682  31.342  28.771  1.00  0.00     0.014 A 
ATOM     36  C   UNL A   1      37.284  29.197  30.398  1.00  0.00     0.010 A 
ATOM     37  C   UNL A   1      38.517  30.277  28.659  1.00  0.00     0.010 A 
ATOM     38  C   UNL A   1      38.457  29.315  29.631  1.00  0.00    -0.014 A 
BRANCH  38  39
ATOM     39  C   UNL A   1      39.650  28.486  29.772  1.00  0.00     0.031 A 
ATOM     40  C   UNL A   1      40.099  28.311  31.164  1.00  0.00     0.074 A 
ATOM     41  C   UNL A   1      40.271  27.854  28.741  1.00  0.00     0.049 A 
ATOM     42  N   UNL A   1      40.988  29.025  31.765  1.00  0.00    -0.248 NA
ATOM     43  C   UNL A   1      39.356  27.409  32.052  1.00  0.00     0.031 C 
ATOM     44  C   UNL A   1      39.856  27.709  27.331  1.00  0.00     0.029 A 
ATOM     45  N   UNL A   1      41.441  27.155  28.756  1.00  0.00    -0.354 N 
ATOM     46  C   UNL A   1      41.121  28.477  33.029  1.00  0.00     0.074 A 
ATOM     47  C   UNL A   1      39.956  27.651  33.222  1.00  0.00     0.031 C 
ATOM     48  C   UNL A   1      40.639  26.811  26.695  1.00  0.00     0.029 A 
ATOM     49  C   UNL A   1      41.736  26.477  27.575  1.00  0.00     0.049 A 
ATOM     50  H   UNL A   1      42.033  27.131  29.543  1.00  0.00     0.167 HD
ATOM     51  C   UNL A   1      42.316  28.550  33.677  1.00  0.00     0.037 A 
ATOM     52  C   UNL A   1      42.856  25.767  27.285  1.00  0.00     0.037 A 
ATOM     53  C   UNL A   1      43.193  29.497  33.023  1.00  0.00     0.049 A 
ATOM     54  C   UNL A   1      43.917  26.298  28.171  1.00  0.00     0.074 A 
ATOM     55  C   UNL A   1      43.149  30.852  32.760  1.00  0.00     0.029 A 
ATOM     56  N   UNL A   1      44.133  28.974  32.166  1.00  0.00    -0.354 N 
ATOM     57  N   UNL A   1      44.402  27.505  28.073  1.00  0.00    -0.248 NA
ATOM     58  C   UNL A   1      44.121  25.644  29.451  1.00  0.00     0.031 C 
ATOM     59  C   UNL A   1      43.739  31.003  31.468  1.00  0.00     0.029 A 
ATOM     60  C   UNL A   1      44.177  29.750  31.036  1.00  0.00     0.049 A 
ATOM     61  H   UNL A   1      44.682  28.174  32.334  1.00  0.00     0.167 HD
ATOM     62  C   UNL A   1      44.578  27.922  29.384  1.00  0.00     0.074 A 
ATOM     63  C   UNL A   1      44.492  26.699  30.180  1.00  0.00     0.031 C 
ATOM     64  C   UNL A   1      44.504  29.244  29.717  1.00  0.00     0.037 A 
BRANCH  51  65
ATOM     65  C   UNL A   1      42.850  27.491  34.614  1.00  0.00     0.058 A 
ATOM     66  C   UNL A   1      43.047  27.827  35.970  1.00  0.00     0.135 A 
ATOM     67  C   UNL A   1      43.450  26.284  34.194  1.00  0.00     0.135 A 
ATOM     68  F   UNL A   1      42.514  28.949  36.483  1.00  0.00    -0.206 F 
ATOM     69  C   UNL A   1      43.860  27.075  36.816  1.00  0.00     0.059 A 
ATOM     70  C   UNL A   1      44.223  25.491  35.035  1.00  0.00     0.059 A 
ATOM     71  F   UNL A   1      43.403  25.856  32.928  1.00  0.00    -0.206 F 
ATOM     72  C   UNL A   1      44.459  25.917  36.330  1.00  0.00     0.060 A 
BRANCH  72  73
ATOM     73  S   UNL A   1      45.599  25.008  37.384  1.00  0.00     0.124 S 
ATOM     74  O   UNL A   1      45.992  23.911  36.505  1.00  0.00    -0.237 OA
ATOM     75  O   UNL A   1      46.623  26.012  37.653  1.00  0.00    -0.237 OA
ATOM     76  O   UNL A   1      44.774  24.637  38.529  1.00  0.00    -0.744 OA
ENDBRANCH  72  73
ENDBRANCH  51  65
BRANCH  52  77
ATOM     77  C   UNL A   1      42.973  24.461  26.585  1.00  0.00     0.058 A 
ATOM     78  C   UNL A   1      43.634  24.368  25.345  1.00  0.00     0.135 A 
ATOM     79  C   UNL A   1      42.738  23.244  27.255  1.00  0.00     0.135 A 
ATOM     80  F   UNL A   1      43.897  25.477  24.637  1.00  0.00    -0.206 F 
ATOM     81  C   UNL A   1      44.113  23.153  24.842  1.00  0.00     0.059 A 
ATOM     82  C   UNL A   1      43.203  22.020  26.771  1.00  0.00     0.059 A 
ATOM     83  F   UNL A   1      42.130  23.224  28.451  1.00  0.00    -0.206 F 
ATOM     84  C   UNL A   1      43.921  21.988  25.580  1.00  0.00     0.060 A 
BRANCH  84  85
ATOM     85  S   UNL A   1      44.716  20.456  25.034  1.00  0.00     0.124 S 
ATOM     86  O   UNL A   1      46.080  20.631  25.522  1.00  0.00    -0.237 OA
ATOM     87  O   UNL A   1      43.922  19.439  25.714  1.00  0.00    -0.237 OA
ATOM     88  O   UNL A   1      44.564  20.495  23.582  1.00  0.00    -0.744 OA
ENDBRANCH  84  85
ENDBRANCH  52  77
BRANCH  64  89
ATOM     89  C   UNL A   1      44.590  30.259  28.602  1.00  0.00     0.058 A 
ATOM     90  C   UNL A   1      43.534  30.602  27.737  1.00  0.00     0.135 A 
ATOM     91  C   UNL A   1      45.767  31.015  28.501  1.00  0.00     0.135 A 
ATOM     92  F   UNL A   1      42.346  29.987  27.820  1.00  0.00    -0.206 F 
ATOM     93  C   UNL A   1      43.657  31.631  26.798  1.00  0.00     0.059 A 
ATOM     94  C   UNL A   1      45.902  32.063  27.593  1.00  0.00     0.059 A 
ATOM     95  F   UNL A   1      46.795  30.770  29.331  1.00  0.00    -0.206 F 
ATOM     96  C   UNL A   1      44.845  32.360  26.738  1.00  0.00     0.060 A 
BRANCH  96  97
ATOM     97  S   UNL A   1      44.979  33.738  25.577  1.00  0.00     0.124 S 
ATOM     98  O   UNL A   1      44.348  33.196  24.378  1.00  0.00    -0.237 OA
ATOM     99  O   UNL A   1      44.239  34.798  26.256  1.00  0.00    -0.237 OA
ATOM    100  O   UNL A   1      46.419  33.962  25.474  1.00  0.00    -0.744 OA
ENDBRANCH  96  97
ENDBRANCH  64  89
ENDBRANCH  38  39
ENDBRANCH  30  33
ENDBRANCH  28  29
ENDBRANCH   1  28
TORSDOF 16
ENDMDL
