MODEL 1
REMARK VINA RESULT:     -11.2      0.000      0.000
REMARK SMILES O=C(CCS(=O)(=O)c1ccc2[nH]c(=O)oc2c1)NCCCCNC(=O)c1ccc(-c2c3nc(c(-c4c(F)cc(S(=O)(=O)[O-])cc4F)c4ccc([nH]4)c(-c4c(F)cc(S(=O)(=O)[O-])cc4F)c4nc(c(-c5c(F)cc(S(=O)(=O)[O-])cc5F)c5ccc2[nH]5)C=C4)C=C3)cc1
REMARK SMILES IDX 20 1 19 2 18 3 1 4 2 5 3 7 4 8 5 9 6 10 7 11 8 12 9 13 17 14
REMARK SMILES IDX 10 15 16 16 11 17 15 18 12 19 13 20 14 22 21 23 22 24 23 25
REMARK SMILES IDX 24 26 25 28 26 29 27 30 91 31 28 32 90 33 29 34 30 35 31 36
REMARK SMILES IDX 84 37 32 38 89 39 83 40 85 41 33 42 88 43 82 44 81 45 34 47
REMARK SMILES IDX 68 48 47 49 67 50 48 51 51 52 66 53 86 54 49 55 50 56 65 58
REMARK SMILES IDX 87 59 52 60 35 61 36 62 45 63 37 64 38 65 44 66 46 67 39 68
REMARK SMILES IDX 40 69 41 70 42 71 43 72 69 73 70 74 79 75 71 76 72 77 78 78
REMARK SMILES IDX 80 79 73 80 74 81 75 82 76 83 77 84 53 85 54 86 63 87 55 88
REMARK SMILES IDX 56 89 62 90 64 91 57 92 58 93 59 94 60 95 61 96
REMARK H PARENT 18 6 12 21 23 27 85 46 51 57
REMARK Flexibility Score: inf
ROOT
ATOM      1  C   UNL A   1      41.164  20.313  27.349  1.00  0.00     0.023 C 
ENDROOT
BRANCH   1   2
ATOM      2  C   UNL A   1      41.774  19.536  26.166  1.00  0.00     0.116 C 
BRANCH   2   3
ATOM      3  N   UNL A   1      42.872  20.122  25.416  1.00  0.00    -0.356 N 
ATOM      4  O   UNL A   1      44.065  18.151  25.356  1.00  0.00    -0.275 OA
ATOM      5  C   UNL A   1      43.964  19.344  25.076  1.00  0.00     0.221 C 
ATOM      6  H   UNL A   1      42.838  21.070  25.152  1.00  0.00     0.163 HD
BRANCH   5   7
ATOM      7  C   UNL A   1      45.039  20.029  24.266  1.00  0.00     0.116 C 
BRANCH   7   8
ATOM      8  C   UNL A   1      45.685  21.168  25.045  1.00  0.00     0.152 C 
BRANCH   8   9
ATOM      9  S   UNL A   1      45.088  22.785  24.603  1.00  0.00     0.179 S 
ATOM     10  O   UNL A   1      45.999  23.329  23.611  1.00  0.00    -0.224 OA
ATOM     11  O   UNL A   1      43.669  22.677  24.322  1.00  0.00    -0.224 OA
BRANCH   9  12
ATOM     12  C   UNL A   1      45.228  23.774  26.076  1.00  0.00     0.071 A 
ATOM     13  C   UNL A   1      45.171  23.189  27.357  1.00  0.00     0.023 A 
ATOM     14  C   UNL A   1      45.432  25.141  25.930  1.00  0.00     0.069 A 
ATOM     15  C   UNL A   1      45.402  23.970  28.503  1.00  0.00     0.031 A 
ATOM     16  C   UNL A   1      45.711  25.869  27.063  1.00  0.00     0.157 A 
ATOM     17  C   UNL A   1      45.703  25.298  28.310  1.00  0.00     0.087 A 
ATOM     18  O   UNL A   1      46.159  27.178  27.087  1.00  0.00    -0.408 OA
ATOM     19  N   UNL A   1      46.122  26.271  29.175  1.00  0.00    -0.287 N 
ATOM     20  C   UNL A   1      46.442  27.382  28.435  1.00  0.00     0.417 A 
ATOM     21  H   UNL A   1      46.183  26.189  30.154  1.00  0.00     0.173 HD
ATOM     22  O   UNL A   1      46.969  28.399  28.869  1.00  0.00    -0.224 OA
ENDBRANCH   9  12
ENDBRANCH   8   9
ENDBRANCH   7   8
ENDBRANCH   5   7
ENDBRANCH   2   3
ENDBRANCH   1   2
BRANCH   1  23
ATOM     23  C   UNL A   1      40.648  21.763  27.262  1.00  0.00     0.023 C 
BRANCH  23  24
ATOM     24  C   UNL A   1      41.561  23.004  27.179  1.00  0.00     0.116 C 
BRANCH  24  25
ATOM     25  N   UNL A   1      41.397  23.909  26.058  1.00  0.00    -0.352 N 
ATOM     26  C   UNL A   1      41.443  25.290  26.088  1.00  0.00     0.251 C 
ATOM     27  H   UNL A   1      41.235  23.495  25.179  1.00  0.00     0.163 HD
ATOM     28  O   UNL A   1      41.483  25.954  25.059  1.00  0.00    -0.269 OA
BRANCH  26  29
ATOM     29  C   UNL A   1      41.395  25.980  27.390  1.00  0.00     0.039 A 
ATOM     30  C   UNL A   1      42.467  26.806  27.735  1.00  0.00     0.014 A 
ATOM     31  C   UNL A   1      40.284  25.860  28.228  1.00  0.00     0.014 A 
ATOM     32  C   UNL A   1      42.381  27.598  28.878  1.00  0.00     0.010 A 
ATOM     33  C   UNL A   1      40.177  26.693  29.339  1.00  0.00     0.010 A 
ATOM     34  C   UNL A   1      41.212  27.588  29.655  1.00  0.00    -0.014 A 
BRANCH  34  35
ATOM     35  C   UNL A   1      41.036  28.561  30.761  1.00  0.00     0.031 A 
ATOM     36  C   UNL A   1      41.876  28.455  32.000  1.00  0.00     0.074 A 
ATOM     37  C   UNL A   1      40.064  29.491  30.656  1.00  0.00     0.049 A 
ATOM     38  N   UNL A   1      41.831  29.173  33.091  1.00  0.00    -0.248 NA
ATOM     39  C   UNL A   1      42.880  27.380  32.028  1.00  0.00     0.031 C 
ATOM     40  C   UNL A   1      39.155  29.632  29.514  1.00  0.00     0.029 A 
ATOM     41  N   UNL A   1      39.668  30.484  31.514  1.00  0.00    -0.354 N 
ATOM     42  C   UNL A   1      42.793  28.634  33.937  1.00  0.00     0.074 A 
ATOM     43  C   UNL A   1      43.360  27.491  33.257  1.00  0.00     0.031 C 
ATOM     44  C   UNL A   1      38.326  30.664  29.731  1.00  0.00     0.029 A 
ATOM     45  C   UNL A   1      38.614  31.234  31.042  1.00  0.00     0.049 A 
ATOM     46  H   UNL A   1      40.096  30.646  32.385  1.00  0.00     0.167 HD
ATOM     47  C   UNL A   1      43.182  29.074  35.158  1.00  0.00     0.037 A 
ATOM     48  C   UNL A   1      37.952  32.261  31.608  1.00  0.00     0.037 A 
ATOM     49  C   UNL A   1      42.600  30.222  35.807  1.00  0.00     0.049 A 
ATOM     50  C   UNL A   1      38.402  32.734  32.964  1.00  0.00     0.074 A 
ATOM     51  C   UNL A   1      42.933  30.789  37.022  1.00  0.00     0.029 A 
ATOM     52  N   UNL A   1      41.554  30.975  35.287  1.00  0.00    -0.354 N 
ATOM     53  N   UNL A   1      39.360  32.255  33.725  1.00  0.00    -0.248 NA
ATOM     54  C   UNL A   1      37.699  33.888  33.535  1.00  0.00     0.031 C 
ATOM     55  C   UNL A   1      42.057  31.853  37.262  1.00  0.00     0.029 A 
ATOM     56  C   UNL A   1      41.216  31.990  36.165  1.00  0.00     0.049 A 
ATOM     57  H   UNL A   1      41.116  30.811  34.421  1.00  0.00     0.167 HD
ATOM     58  C   UNL A   1      39.390  33.064  34.854  1.00  0.00     0.074 A 
ATOM     59  C   UNL A   1      38.366  34.073  34.666  1.00  0.00     0.031 C 
ATOM     60  C   UNL A   1      40.191  32.982  35.947  1.00  0.00     0.037 A 
BRANCH  47  61
ATOM     61  C   UNL A   1      44.278  28.315  35.860  1.00  0.00     0.058 A 
ATOM     62  C   UNL A   1      45.635  28.609  35.645  1.00  0.00     0.135 A 
ATOM     63  C   UNL A   1      43.973  27.288  36.770  1.00  0.00     0.135 A 
ATOM     64  F   UNL A   1      45.990  29.569  34.776  1.00  0.00    -0.206 F 
ATOM     65  C   UNL A   1      46.648  27.891  36.275  1.00  0.00     0.059 A 
ATOM     66  C   UNL A   1      44.970  26.579  37.437  1.00  0.00     0.059 A 
ATOM     67  F   UNL A   1      42.696  26.960  37.017  1.00  0.00    -0.206 F 
ATOM     68  C   UNL A   1      46.305  26.877  37.169  1.00  0.00     0.060 A 
BRANCH  68  69
ATOM     69  S   UNL A   1      47.633  25.960  37.978  1.00  0.00     0.124 S 
ATOM     70  O   UNL A   1      48.602  25.831  36.894  1.00  0.00    -0.237 OA
ATOM     71  O   UNL A   1      48.015  26.858  39.064  1.00  0.00    -0.237 OA
ATOM     72  O   UNL A   1      46.988  24.718  38.393  1.00  0.00    -0.744 OA
ENDBRANCH  68  69
ENDBRANCH  47  61
BRANCH  48  73
ATOM     73  C   UNL A   1      36.824  32.914  30.887  1.00  0.00     0.058 A 
ATOM     74  C   UNL A   1      35.489  32.663  31.242  1.00  0.00     0.135 A 
ATOM     75  C   UNL A   1      37.056  33.831  29.848  1.00  0.00     0.135 A 
ATOM     76  F   UNL A   1      35.210  31.795  32.225  1.00  0.00    -0.206 F 
ATOM     77  C   UNL A   1      34.428  33.282  30.587  1.00  0.00     0.059 A 
ATOM     78  C   UNL A   1      36.013  34.485  29.197  1.00  0.00     0.059 A 
ATOM     79  F   UNL A   1      38.312  34.125  29.479  1.00  0.00    -0.206 F 
ATOM     80  C   UNL A   1      34.701  34.196  29.567  1.00  0.00     0.060 A 
BRANCH  80  81
ATOM     81  S   UNL A   1      33.318  35.032  28.759  1.00  0.00     0.124 S 
ATOM     82  O   UNL A   1      32.541  35.491  29.904  1.00  0.00    -0.237 OA
ATOM     83  O   UNL A   1      33.996  36.069  27.989  1.00  0.00    -0.237 OA
ATOM     84  O   UNL A   1      32.703  33.972  27.964  1.00  0.00    -0.744 OA
ENDBRANCH  80  81
ENDBRANCH  48  73
BRANCH  60  85
ATOM     85  C   UNL A   1      40.009  34.032  37.008  1.00  0.00     0.058 A 
ATOM     86  C   UNL A   1      40.643  35.281  36.928  1.00  0.00     0.135 A 
ATOM     87  C   UNL A   1      39.145  33.800  38.089  1.00  0.00     0.135 A 
ATOM     88  F   UNL A   1      41.486  35.549  35.917  1.00  0.00    -0.206 F 
ATOM     89  C   UNL A   1      40.443  36.257  37.897  1.00  0.00     0.059 A 
ATOM     90  C   UNL A   1      38.903  34.774  39.051  1.00  0.00     0.059 A 
ATOM     91  F   UNL A   1      38.506  32.625  38.206  1.00  0.00    -0.206 F 
ATOM     92  C   UNL A   1      39.568  35.995  38.953  1.00  0.00     0.060 A 
BRANCH  92  93
ATOM     93  S   UNL A   1      39.290  37.286  40.183  1.00  0.00     0.124 S 
ATOM     94  O   UNL A   1      38.559  36.555  41.213  1.00  0.00    -0.237 OA
ATOM     95  O   UNL A   1      40.650  37.682  40.531  1.00  0.00    -0.237 OA
ATOM     96  O   UNL A   1      38.517  38.288  39.456  1.00  0.00    -0.744 OA
ENDBRANCH  92  93
ENDBRANCH  60  85
ENDBRANCH  34  35
ENDBRANCH  26  29
ENDBRANCH  24  25
ENDBRANCH  23  24
ENDBRANCH   1  23
TORSDOF 17
ENDMDL
MODEL 2
REMARK VINA RESULT:     -11.0      5.704     11.982
REMARK SMILES O=C(CCS(=O)(=O)c1ccc2[nH]c(=O)oc2c1)NCCCCNC(=O)c1ccc(-c2c3nc(c(-c4c(F)cc(S(=O)(=O)[O-])cc4F)c4ccc([nH]4)c(-c4c(F)cc(S(=O)(=O)[O-])cc4F)c4nc(c(-c5c(F)cc(S(=O)(=O)[O-])cc5F)c5ccc2[nH]5)C=C4)C=C3)cc1
REMARK SMILES IDX 20 1 19 2 18 3 1 4 2 5 3 7 4 8 5 9 6 10 7 11 8 12 9 13 17 14
REMARK SMILES IDX 10 15 16 16 11 17 15 18 12 19 13 20 14 22 21 23 22 24 23 25
REMARK SMILES IDX 24 26 25 28 26 29 27 30 91 31 28 32 90 33 29 34 30 35 31 36
REMARK SMILES IDX 84 37 32 38 89 39 83 40 85 41 33 42 88 43 82 44 81 45 34 47
REMARK SMILES IDX 68 48 47 49 67 50 48 51 51 52 66 53 86 54 49 55 50 56 65 58
REMARK SMILES IDX 87 59 52 60 35 61 36 62 45 63 37 64 38 65 44 66 46 67 39 68
REMARK SMILES IDX 40 69 41 70 42 71 43 72 69 73 70 74 79 75 71 76 72 77 78 78
REMARK SMILES IDX 80 79 73 80 74 81 75 82 76 83 77 84 53 85 54 86 63 87 55 88
REMARK SMILES IDX 56 89 62 90 64 91 57 92 58 93 59 94 60 95 61 96
REMARK H PARENT 18 6 12 21 23 27 85 46 51 57
REMARK Flexibility Score: inf
ROOT
ATOM      1  C   UNL A   1      33.196  29.201  24.590  1.00  0.00     0.023 C 
ENDROOT
BRANCH   1   2
ATOM      2  C   UNL A   1      31.662  29.140  24.456  1.00  0.00     0.116 C 
BRANCH   2   3
ATOM      3  N   UNL A   1      30.959  27.928  24.839  1.00  0.00    -0.356 N 
ATOM      4  O   UNL A   1      30.221  27.514  22.695  1.00  0.00    -0.275 OA
ATOM      5  C   UNL A   1      30.267  27.205  23.884  1.00  0.00     0.221 C 
ATOM      6  H   UNL A   1      30.975  27.624  25.775  1.00  0.00     0.163 HD
BRANCH   5   7
ATOM      7  C   UNL A   1      29.597  25.940  24.369  1.00  0.00     0.116 C 
BRANCH   7   8
ATOM      8  C   UNL A   1      30.578  24.774  24.421  1.00  0.00     0.152 C 
BRANCH   8   9
ATOM      9  S   UNL A   1      31.223  24.437  26.045  1.00  0.00     0.179 S 
ATOM     10  O   UNL A   1      32.058  25.563  26.424  1.00  0.00    -0.224 OA
ATOM     11  O   UNL A   1      30.119  24.019  26.888  1.00  0.00    -0.224 OA
BRANCH   9  12
ATOM     12  C   UNL A   1      32.274  23.013  25.863  1.00  0.00     0.071 A 
ATOM     13  C   UNL A   1      31.765  21.783  25.400  1.00  0.00     0.023 A 
ATOM     14  C   UNL A   1      33.626  23.155  26.157  1.00  0.00     0.069 A 
ATOM     15  C   UNL A   1      32.634  20.706  25.152  1.00  0.00     0.031 A 
ATOM     16  C   UNL A   1      34.459  22.104  25.850  1.00  0.00     0.157 A 
ATOM     17  C   UNL A   1      33.977  20.919  25.356  1.00  0.00     0.087 A 
ATOM     18  O   UNL A   1      35.842  22.147  25.860  1.00  0.00    -0.408 OA
ATOM     19  N   UNL A   1      35.074  20.155  25.069  1.00  0.00    -0.287 N 
ATOM     20  C   UNL A   1      36.191  20.909  25.325  1.00  0.00     0.417 A 
ATOM     21  H   UNL A   1      35.064  19.228  24.739  1.00  0.00     0.173 HD
ATOM     22  O   UNL A   1      37.344  20.586  25.064  1.00  0.00    -0.224 OA
ENDBRANCH   9  12
ENDBRANCH   8   9
ENDBRANCH   7   8
ENDBRANCH   5   7
ENDBRANCH   2   3
ENDBRANCH   1   2
BRANCH   1  23
ATOM     23  C   UNL A   1      33.990  28.606  25.770  1.00  0.00     0.023 C 
BRANCH  23  24
ATOM     24  C   UNL A   1      33.574  28.741  27.249  1.00  0.00     0.116 C 
BRANCH  24  25
ATOM     25  N   UNL A   1      33.530  30.066  27.837  1.00  0.00    -0.352 N 
ATOM     26  C   UNL A   1      34.601  30.808  28.298  1.00  0.00     0.251 C 
ATOM     27  H   UNL A   1      32.641  30.482  27.916  1.00  0.00     0.163 HD
ATOM     28  O   UNL A   1      34.481  31.990  28.600  1.00  0.00    -0.269 OA
BRANCH  26  29
ATOM     29  C   UNL A   1      35.908  30.148  28.476  1.00  0.00     0.039 A 
ATOM     30  C   UNL A   1      36.792  30.145  27.395  1.00  0.00     0.014 A 
ATOM     31  C   UNL A   1      36.274  29.596  29.705  1.00  0.00     0.014 A 
ATOM     32  C   UNL A   1      38.092  29.677  27.576  1.00  0.00     0.010 A 
ATOM     33  C   UNL A   1      37.589  29.181  29.898  1.00  0.00     0.010 A 
ATOM     34  C   UNL A   1      38.515  29.246  28.844  1.00  0.00    -0.014 A 
BRANCH  34  35
ATOM     35  C   UNL A   1      39.942  28.924  29.093  1.00  0.00     0.031 A 
ATOM     36  C   UNL A   1      40.867  29.971  29.640  1.00  0.00     0.074 A 
ATOM     37  C   UNL A   1      40.398  27.701  28.753  1.00  0.00     0.049 A 
ATOM     38  N   UNL A   1      42.151  29.898  29.872  1.00  0.00    -0.248 NA
ATOM     39  C   UNL A   1      40.276  31.285  29.940  1.00  0.00     0.031 C 
ATOM     40  C   UNL A   1      39.585  26.637  28.156  1.00  0.00     0.029 A 
ATOM     41  N   UNL A   1      41.647  27.144  28.848  1.00  0.00    -0.354 N 
ATOM     42  C   UNL A   1      42.523  31.154  30.336  1.00  0.00     0.074 A 
ATOM     43  C   UNL A   1      41.342  31.987  30.294  1.00  0.00     0.031 C 
ATOM     44  C   UNL A   1      40.348  25.551  27.960  1.00  0.00     0.029 A 
ATOM     45  C   UNL A   1      41.713  25.851  28.379  1.00  0.00     0.049 A 
ATOM     46  H   UNL A   1      42.424  27.624  29.216  1.00  0.00     0.167 HD
ATOM     47  C   UNL A   1      43.736  31.562  30.781  1.00  0.00     0.037 A 
ATOM     48  C   UNL A   1      42.759  25.008  28.291  1.00  0.00     0.037 A 
ATOM     49  C   UNL A   1      44.894  30.705  30.816  1.00  0.00     0.049 A 
ATOM     50  C   UNL A   1      44.096  25.481  28.793  1.00  0.00     0.074 A 
ATOM     51  C   UNL A   1      46.165  30.987  31.280  1.00  0.00     0.029 A 
ATOM     52  N   UNL A   1      44.918  29.392  30.360  1.00  0.00    -0.354 N 
ATOM     53  N   UNL A   1      44.418  26.652  29.292  1.00  0.00    -0.248 NA
ATOM     54  C   UNL A   1      45.207  24.525  28.735  1.00  0.00     0.031 C 
ATOM     55  C   UNL A   1      46.969  29.865  31.059  1.00  0.00     0.029 A 
ATOM     56  C   UNL A   1      46.185  28.857  30.514  1.00  0.00     0.049 A 
ATOM     57  H   UNL A   1      44.145  28.911  29.982  1.00  0.00     0.167 HD
ATOM     58  C   UNL A   1      45.763  26.566  29.631  1.00  0.00     0.074 A 
ATOM     59  C   UNL A   1      46.187  25.221  29.295  1.00  0.00     0.031 C 
ATOM     60  C   UNL A   1      46.575  27.511  30.170  1.00  0.00     0.037 A 
BRANCH  47  61
ATOM     61  C   UNL A   1      43.864  32.985  31.260  1.00  0.00     0.058 A 
ATOM     62  C   UNL A   1      43.565  33.349  32.583  1.00  0.00     0.135 A 
ATOM     63  C   UNL A   1      44.305  33.998  30.393  1.00  0.00     0.135 A 
ATOM     64  F   UNL A   1      43.125  32.427  33.456  1.00  0.00    -0.206 F 
ATOM     65  C   UNL A   1      43.659  34.667  33.019  1.00  0.00     0.059 A 
ATOM     66  C   UNL A   1      44.440  35.319  30.816  1.00  0.00     0.059 A 
ATOM     67  F   UNL A   1      44.606  33.714  29.116  1.00  0.00    -0.206 F 
ATOM     68  C   UNL A   1      44.098  35.646  32.128  1.00  0.00     0.060 A 
BRANCH  68  69
ATOM     69  S   UNL A   1      44.218  37.350  32.712  1.00  0.00     0.124 S 
ATOM     70  O   UNL A   1      43.315  37.330  33.859  1.00  0.00    -0.237 OA
ATOM     71  O   UNL A   1      45.638  37.471  33.028  1.00  0.00    -0.237 OA
ATOM     72  O   UNL A   1      43.763  38.136  31.570  1.00  0.00    -0.744 OA
ENDBRANCH  68  69
ENDBRANCH  47  61
BRANCH  48  73
ATOM     73  C   UNL A   1      42.573  23.639  27.732  1.00  0.00     0.058 A 
ATOM     74  C   UNL A   1      42.558  23.414  26.346  1.00  0.00     0.135 A 
ATOM     75  C   UNL A   1      42.440  22.521  28.571  1.00  0.00     0.135 A 
ATOM     76  F   UNL A   1      42.679  24.447  25.499  1.00  0.00    -0.206 F 
ATOM     77  C   UNL A   1      42.404  22.138  25.814  1.00  0.00     0.059 A 
ATOM     78  C   UNL A   1      42.314  21.230  28.062  1.00  0.00     0.059 A 
ATOM     79  F   UNL A   1      42.468  22.673  29.904  1.00  0.00    -0.206 F 
ATOM     80  C   UNL A   1      42.287  21.050  26.681  1.00  0.00     0.060 A 
BRANCH  80  81
ATOM     81  S   UNL A   1      42.139  19.392  25.978  1.00  0.00     0.124 S 
ATOM     82  O   UNL A   1      43.029  19.479  24.827  1.00  0.00    -0.237 OA
ATOM     83  O   UNL A   1      42.598  18.552  27.080  1.00  0.00    -0.237 OA
ATOM     84  O   UNL A   1      40.716  19.284  25.668  1.00  0.00    -0.744 OA
ENDBRANCH  80  81
ENDBRANCH  48  73
BRANCH  60  85
ATOM     85  C   UNL A   1      47.994  27.109  30.458  1.00  0.00     0.058 A 
ATOM     86  C   UNL A   1      49.023  27.309  29.525  1.00  0.00     0.135 A 
ATOM     87  C   UNL A   1      48.335  26.568  31.708  1.00  0.00     0.135 A 
ATOM     88  F   UNL A   1      48.747  27.815  28.312  1.00  0.00    -0.206 F 
ATOM     89  C   UNL A   1      50.338  26.963  29.812  1.00  0.00     0.059 A 
ATOM     90  C   UNL A   1      49.649  26.248  32.030  1.00  0.00     0.059 A 
ATOM     91  F   UNL A   1      47.389  26.367  32.640  1.00  0.00    -0.206 F 
ATOM     92  C   UNL A   1      50.642  26.437  31.070  1.00  0.00     0.060 A 
BRANCH  92  93
ATOM     93  S   UNL A   1      52.359  26.029  31.441  1.00  0.00     0.124 S 
ATOM     94  O   UNL A   1      52.242  24.644  31.885  1.00  0.00    -0.237 OA
ATOM     95  O   UNL A   1      53.013  26.229  30.152  1.00  0.00    -0.237 OA
ATOM     96  O   UNL A   1      52.721  26.992  32.478  1.00  0.00    -0.744 OA
ENDBRANCH  92  93
ENDBRANCH  60  85
ENDBRANCH  34  35
ENDBRANCH  26  29
ENDBRANCH  24  25
ENDBRANCH  23  24
ENDBRANCH   1  23
TORSDOF 17
ENDMDL
MODEL 3
REMARK VINA RESULT:     -10.9      5.618     11.822
REMARK SMILES O=C(CCS(=O)(=O)c1ccc2[nH]c(=O)oc2c1)NCCCCNC(=O)c1ccc(-c2c3nc(c(-c4c(F)cc(S(=O)(=O)[O-])cc4F)c4ccc([nH]4)c(-c4c(F)cc(S(=O)(=O)[O-])cc4F)c4nc(c(-c5c(F)cc(S(=O)(=O)[O-])cc5F)c5ccc2[nH]5)C=C4)C=C3)cc1
REMARK SMILES IDX 20 1 19 2 18 3 1 4 2 5 3 7 4 8 5 9 6 10 7 11 8 12 9 13 17 14
REMARK SMILES IDX 10 15 16 16 11 17 15 18 12 19 13 20 14 22 21 23 22 24 23 25
REMARK SMILES IDX 24 26 25 28 26 29 27 30 91 31 28 32 90 33 29 34 30 35 31 36
REMARK SMILES IDX 84 37 32 38 89 39 83 40 85 41 33 42 88 43 82 44 81 45 34 47
REMARK SMILES IDX 68 48 47 49 67 50 48 51 51 52 66 53 86 54 49 55 50 56 65 58
REMARK SMILES IDX 87 59 52 60 35 61 36 62 45 63 37 64 38 65 44 66 46 67 39 68
REMARK SMILES IDX 40 69 41 70 42 71 43 72 69 73 70 74 79 75 71 76 72 77 78 78
REMARK SMILES IDX 80 79 73 80 74 81 75 82 76 83 77 84 53 85 54 86 63 87 55 88
REMARK SMILES IDX 56 89 62 90 64 91 57 92 58 93 59 94 60 95 61 96
REMARK H PARENT 18 6 12 21 23 27 85 46 51 57
REMARK Flexibility Score: inf
ROOT
ATOM      1  C   UNL A   1      32.418  28.675  24.588  1.00  0.00     0.023 C 
ENDROOT
BRANCH   1   2
ATOM      2  C   UNL A   1      32.037  27.518  23.644  1.00  0.00     0.116 C 
BRANCH   2   3
ATOM      3  N   UNL A   1      32.715  26.239  23.770  1.00  0.00    -0.356 N 
ATOM      4  O   UNL A   1      33.734  26.421  21.711  1.00  0.00    -0.275 OA
ATOM      5  C   UNL A   1      33.526  25.788  22.744  1.00  0.00     0.221 C 
ATOM      6  H   UNL A   1      32.597  25.697  24.583  1.00  0.00     0.163 HD
BRANCH   5   7
ATOM      7  C   UNL A   1      34.218  24.466  22.980  1.00  0.00     0.116 C 
BRANCH   7   8
ATOM      8  C   UNL A   1      34.335  24.155  24.467  1.00  0.00     0.152 C 
BRANCH   8   9
ATOM      9  S   UNL A   1      35.410  22.788  24.843  1.00  0.00     0.179 S 
ATOM     10  O   UNL A   1      36.405  22.713  23.787  1.00  0.00    -0.224 OA
ATOM     11  O   UNL A   1      35.814  22.903  26.231  1.00  0.00    -0.224 OA
BRANCH   9  12
ATOM     12  C   UNL A   1      34.395  21.329  24.742  1.00  0.00     0.071 A 
ATOM     13  C   UNL A   1      33.013  21.419  24.483  1.00  0.00     0.023 A 
ATOM     14  C   UNL A   1      35.010  20.091  24.890  1.00  0.00     0.069 A 
ATOM     15  C   UNL A   1      32.252  20.252  24.290  1.00  0.00     0.031 A 
ATOM     16  C   UNL A   1      34.254  18.970  24.639  1.00  0.00     0.157 A 
ATOM     17  C   UNL A   1      32.917  19.050  24.342  1.00  0.00     0.087 A 
ATOM     18  O   UNL A   1      34.744  17.682  24.516  1.00  0.00    -0.408 OA
ATOM     19  N   UNL A   1      32.517  17.775  24.051  1.00  0.00    -0.287 N 
ATOM     20  C   UNL A   1      33.623  16.964  24.108  1.00  0.00     0.417 A 
ATOM     21  H   UNL A   1      31.600  17.490  23.840  1.00  0.00     0.173 HD
ATOM     22  O   UNL A   1      33.658  15.783  23.783  1.00  0.00    -0.224 OA
ENDBRANCH   9  12
ENDBRANCH   8   9
ENDBRANCH   7   8
ENDBRANCH   5   7
ENDBRANCH   2   3
ENDBRANCH   1   2
BRANCH   1  23
ATOM     23  C   UNL A   1      33.666  28.683  25.493  1.00  0.00     0.023 C 
BRANCH  23  24
ATOM     24  C   UNL A   1      33.618  28.702  27.035  1.00  0.00     0.116 C 
BRANCH  24  25
ATOM     25  N   UNL A   1      33.509  29.983  27.707  1.00  0.00    -0.352 N 
ATOM     26  C   UNL A   1      34.536  30.723  28.261  1.00  0.00     0.251 C 
ATOM     27  H   UNL A   1      32.604  30.367  27.777  1.00  0.00     0.163 HD
ATOM     28  O   UNL A   1      34.366  31.878  28.636  1.00  0.00    -0.269 OA
BRANCH  26  29
ATOM     29  C   UNL A   1      35.855  30.091  28.449  1.00  0.00     0.039 A 
ATOM     30  C   UNL A   1      36.752  30.118  27.379  1.00  0.00     0.014 A 
ATOM     31  C   UNL A   1      36.219  29.536  29.677  1.00  0.00     0.014 A 
ATOM     32  C   UNL A   1      38.060  29.677  27.571  1.00  0.00     0.010 A 
ATOM     33  C   UNL A   1      37.541  29.149  29.882  1.00  0.00     0.010 A 
ATOM     34  C   UNL A   1      38.477  29.244  28.840  1.00  0.00    -0.014 A 
BRANCH  34  35
ATOM     35  C   UNL A   1      39.908  28.953  29.103  1.00  0.00     0.031 A 
ATOM     36  C   UNL A   1      40.799  30.010  29.684  1.00  0.00     0.074 A 
ATOM     37  C   UNL A   1      40.399  27.748  28.745  1.00  0.00     0.049 A 
ATOM     38  N   UNL A   1      42.081  29.964  29.932  1.00  0.00    -0.248 NA
ATOM     39  C   UNL A   1      40.172  31.303  30.001  1.00  0.00     0.031 C 
ATOM     40  C   UNL A   1      39.621  26.677  28.116  1.00  0.00     0.029 A 
ATOM     41  N   UNL A   1      41.660  27.220  28.847  1.00  0.00    -0.354 N 
ATOM     42  C   UNL A   1      42.416  31.219  30.427  1.00  0.00     0.074 A 
ATOM     43  C   UNL A   1      41.215  32.023  30.384  1.00  0.00     0.031 C 
ATOM     44  C   UNL A   1      40.413  25.614  27.910  1.00  0.00     0.029 A 
ATOM     45  C   UNL A   1      41.764  25.938  28.353  1.00  0.00     0.049 A 
ATOM     46  H   UNL A   1      42.420  27.710  29.235  1.00  0.00     0.167 HD
ATOM     47  C   UNL A   1      43.612  31.647  30.898  1.00  0.00     0.037 A 
ATOM     48  C   UNL A   1      42.832  25.123  28.264  1.00  0.00     0.037 A 
ATOM     49  C   UNL A   1      44.791  30.818  30.932  1.00  0.00     0.049 A 
ATOM     50  C   UNL A   1      44.150  25.618  28.795  1.00  0.00     0.074 A 
ATOM     51  C   UNL A   1      46.047  31.122  31.420  1.00  0.00     0.029 A 
ATOM     52  N   UNL A   1      44.853  29.515  30.450  1.00  0.00    -0.354 N 
ATOM     53  N   UNL A   1      44.436  26.787  29.322  1.00  0.00    -0.248 NA
ATOM     54  C   UNL A   1      45.284  24.690  28.733  1.00  0.00     0.031 C 
ATOM     55  C   UNL A   1      46.882  30.024  31.188  1.00  0.00     0.029 A 
ATOM     56  C   UNL A   1      46.130  29.009  30.612  1.00  0.00     0.049 A 
ATOM     57  H   UNL A   1      44.098  29.024  30.052  1.00  0.00     0.167 HD
ATOM     58  C   UNL A   1      45.777  26.727  29.677  1.00  0.00     0.074 A 
ATOM     59  C   UNL A   1      46.239  25.399  29.321  1.00  0.00     0.031 C 
ATOM     60  C   UNL A   1      46.558  27.679  30.248  1.00  0.00     0.037 A 
BRANCH  47  61
ATOM     61  C   UNL A   1      43.699  33.063  31.406  1.00  0.00     0.058 A 
ATOM     62  C   UNL A   1      43.975  34.140  30.547  1.00  0.00     0.135 A 
ATOM     63  C   UNL A   1      43.492  33.353  32.765  1.00  0.00     0.135 A 
ATOM     64  F   UNL A   1      44.196  33.925  29.240  1.00  0.00    -0.206 F 
ATOM     65  C   UNL A   1      44.080  35.445  31.021  1.00  0.00     0.059 A 
ATOM     66  C   UNL A   1      43.559  34.656  33.255  1.00  0.00     0.059 A 
ATOM     67  F   UNL A   1      43.226  32.367  33.635  1.00  0.00    -0.206 F 
ATOM     68  C   UNL A   1      43.870  35.693  32.377  1.00  0.00     0.060 A 
BRANCH  68  69
ATOM     69  S   UNL A   1      44.007  37.392  32.972  1.00  0.00     0.124 S 
ATOM     70  O   UNL A   1      43.973  38.144  31.721  1.00  0.00    -0.237 OA
ATOM     71  O   UNL A   1      42.825  37.521  33.819  1.00  0.00    -0.237 OA
ATOM     72  O   UNL A   1      45.285  37.406  33.677  1.00  0.00    -0.744 OA
ENDBRANCH  68  69
ENDBRANCH  47  61
BRANCH  48  73
ATOM     73  C   UNL A   1      42.687  23.762  27.675  1.00  0.00     0.058 A 
ATOM     74  C   UNL A   1      42.755  23.557  26.288  1.00  0.00     0.135 A 
ATOM     75  C   UNL A   1      42.512  22.630  28.489  1.00  0.00     0.135 A 
ATOM     76  F   UNL A   1      42.919  24.602  25.465  1.00  0.00    -0.206 F 
ATOM     77  C   UNL A   1      42.640  22.288  25.729  1.00  0.00     0.059 A 
ATOM     78  C   UNL A   1      42.425  21.347  27.955  1.00  0.00     0.059 A 
ATOM     79  F   UNL A   1      42.461  22.763  29.823  1.00  0.00    -0.206 F 
ATOM     80  C   UNL A   1      42.480  21.186  26.572  1.00  0.00     0.060 A 
BRANCH  80  81
ATOM     81  S   UNL A   1      42.383  19.538  25.838  1.00  0.00     0.124 S 
ATOM     82  O   UNL A   1      40.992  19.489  25.407  1.00  0.00    -0.237 OA
ATOM     83  O   UNL A   1      43.380  19.619  24.775  1.00  0.00    -0.237 OA
ATOM     84  O   UNL A   1      42.731  18.655  26.948  1.00  0.00    -0.744 OA
ENDBRANCH  80  81
ENDBRANCH  48  73
BRANCH  60  85
ATOM     85  C   UNL A   1      47.983  27.307  30.547  1.00  0.00     0.058 A 
ATOM     86  C   UNL A   1      48.327  26.544  31.675  1.00  0.00     0.135 A 
ATOM     87  C   UNL A   1      49.009  27.673  29.662  1.00  0.00     0.135 A 
ATOM     88  F   UNL A   1      47.382  26.176  32.556  1.00  0.00    -0.206 F 
ATOM     89  C   UNL A   1      49.643  26.177  31.926  1.00  0.00     0.059 A 
ATOM     90  C   UNL A   1      50.328  27.287  29.876  1.00  0.00     0.059 A 
ATOM     91  F   UNL A   1      48.732  28.393  28.564  1.00  0.00    -0.206 F 
ATOM     92  C   UNL A   1      50.637  26.550  31.018  1.00  0.00     0.060 A 
BRANCH  92  93
ATOM     93  S   UNL A   1      52.335  26.034  31.339  1.00  0.00     0.124 S 
ATOM     94  O   UNL A   1      52.795  27.085  32.242  1.00  0.00    -0.237 OA
ATOM     95  O   UNL A   1      52.152  24.717  31.940  1.00  0.00    -0.237 OA
ATOM     96  O   UNL A   1      52.947  26.034  30.014  1.00  0.00    -0.744 OA
ENDBRANCH  92  93
ENDBRANCH  60  85
ENDBRANCH  34  35
ENDBRANCH  26  29
ENDBRANCH  24  25
ENDBRANCH  23  24
ENDBRANCH   1  23
TORSDOF 17
ENDMDL
