MODEL 1
REMARK VINA RESULT:     -13.3      0.000      0.000
REMARK SMILES CN1C(=O)C[C@@H](C(=O)NCCCCNC(=O)c2ccc(-c3c4nc(c(-c5c(F)cc(S(=O)(=O)[O-])cc5F)c5ccc([nH]5)c(-c5c(F)cc(S(=O)(=O)[O-])cc5F)c5nc(c(-c6c(F)cc(S(=O)(=O)[O-])cc6F)c6ccc3[nH]6)C=C5)C=C4)cc2)C12CCN(C(=O)c1ccccc1-n1cccn1)CC2
REMARK SMILES IDX 12 1 11 2 10 3 9 4 7 5 8 6 6 8 1 9 2 10 3 11 83 12 4 13 5 14
REMARK SMILES IDX 84 15 101 16 85 17 100 18 86 19 87 20 88 21 89 22 90 23
REMARK SMILES IDX 94 24 91 25 93 26 92 27 95 28 96 29 99 30 97 31 98 32 13 33
REMARK SMILES IDX 14 34 15 35 16 37 17 38 18 39 82 40 19 41 81 42 20 43 21 44
REMARK SMILES IDX 22 45 75 46 23 47 80 48 74 49 76 50 24 51 79 52 73 53 72 54
REMARK SMILES IDX 25 56 59 57 38 58 58 59 39 60 42 61 57 62 77 63 40 64 41 65
REMARK SMILES IDX 56 67 78 68 43 69 26 70 27 71 36 72 28 73 29 74 35 75 37 76
REMARK SMILES IDX 30 77 31 78 32 79 33 80 34 81 60 82 61 83 70 84 62 85 63 86
REMARK SMILES IDX 69 87 71 88 64 89 65 90 66 91 67 92 68 93 44 94 45 95 54 96
REMARK SMILES IDX 46 97 47 98 53 99 55 100 48 101 49 102 50 103 51 104 52 105
REMARK H PARENT 9 7 14 36 76 55 42 66
REMARK Flexibility Score: inf
ROOT
ATOM      1  C   UNL A   1      35.542  31.855  27.757  1.00  0.00     0.023 C 
ENDROOT
BRANCH   1   2
ATOM      2  C   UNL A   1      34.302  30.992  27.956  1.00  0.00     0.023 C 
BRANCH   2   3
ATOM      3  C   UNL A   1      34.455  29.537  27.494  1.00  0.00     0.116 C 
BRANCH   3   4
ATOM      4  N   UNL A   1      33.256  28.723  27.626  1.00  0.00    -0.356 N 
ATOM      5  C   UNL A   1      32.396  28.164  26.734  1.00  0.00     0.226 C 
ATOM      6  O   UNL A   1      31.493  27.463  27.208  1.00  0.00    -0.275 OA
ATOM      7  H   UNL A   1      33.015  28.538  28.563  1.00  0.00     0.163 HD
BRANCH   5   8
ATOM      8  C   UNL A   1      32.431  28.365  25.212  1.00  0.00     0.113 C 
ATOM      9  C   UNL A   1      29.358  27.152  23.467  1.00  0.00     0.147 C 
ATOM     10  N   UNL A   1      30.491  27.866  24.022  1.00  0.00    -0.339 N 
ATOM     11  C   UNL A   1      30.491  29.251  24.140  1.00  0.00     0.223 C 
ATOM     12  C   UNL A   1      31.799  27.259  24.337  1.00  0.00     0.058 C 
ATOM     13  O   UNL A   1      29.592  30.012  23.812  1.00  0.00    -0.275 OA
ATOM     14  C   UNL A   1      31.776  29.677  24.787  1.00  0.00     0.116 C 
ATOM     15  C   UNL A   1      31.739  25.903  25.065  1.00  0.00     0.051 C 
ATOM     16  C   UNL A   1      32.554  27.055  22.984  1.00  0.00     0.051 C 
ATOM     17  C   UNL A   1      33.091  25.215  25.176  1.00  0.00     0.122 C 
ATOM     18  C   UNL A   1      33.826  26.205  23.077  1.00  0.00     0.122 C 
ATOM     19  N   UNL A   1      33.594  24.981  23.837  1.00  0.00    -0.338 N 
ATOM     20  C   UNL A   1      33.847  23.731  23.273  1.00  0.00     0.256 C 
ATOM     21  O   UNL A   1      34.283  23.578  22.133  1.00  0.00    -0.269 OA
BRANCH  20  22
ATOM     22  C   UNL A   1      33.636  22.503  24.084  1.00  0.00     0.065 A 
ATOM     23  C   UNL A   1      32.383  21.886  23.931  1.00  0.00     0.016 A 
ATOM     24  C   UNL A   1      34.608  21.895  24.897  1.00  0.00     0.077 A 
ATOM     25  C   UNL A   1      32.112  20.662  24.546  1.00  0.00     0.001 A 
ATOM     26  C   UNL A   1      34.345  20.631  25.460  1.00  0.00     0.029 A 
ATOM     27  C   UNL A   1      33.099  20.027  25.296  1.00  0.00     0.002 A 
BRANCH  24  28
ATOM     28  N   UNL A   1      35.855  22.496  25.197  1.00  0.00    -0.240 N 
ATOM     29  C   UNL A   1      37.092  22.245  24.643  1.00  0.00     0.115 A 
ATOM     30  N   UNL A   1      35.932  23.478  26.136  1.00  0.00    -0.177 NA
ATOM     31  C   UNL A   1      37.994  23.063  25.280  1.00  0.00     0.042 A 
ATOM     32  C   UNL A   1      37.227  23.784  26.206  1.00  0.00     0.135 A 
ENDBRANCH  24  28
ENDBRANCH  20  22
ENDBRANCH   5   8
ENDBRANCH   3   4
ENDBRANCH   2   3
ENDBRANCH   1   2
BRANCH   1  33
ATOM     33  C   UNL A   1      36.206  32.270  29.060  1.00  0.00     0.116 C 
BRANCH  33  34
ATOM     34  N   UNL A   1      35.882  31.373  30.164  1.00  0.00    -0.352 N 
ATOM     35  C   UNL A   1      36.624  30.335  30.668  1.00  0.00     0.251 C 
ATOM     36  H   UNL A   1      35.017  31.536  30.607  1.00  0.00     0.163 HD
ATOM     37  O   UNL A   1      36.142  29.565  31.492  1.00  0.00    -0.269 OA
BRANCH  35  38
ATOM     38  C   UNL A   1      37.999  30.156  30.172  1.00  0.00     0.039 A 
ATOM     39  C   UNL A   1      39.063  30.213  31.072  1.00  0.00     0.014 A 
ATOM     40  C   UNL A   1      38.212  29.844  28.828  1.00  0.00     0.014 A 
ATOM     41  C   UNL A   1      40.343  29.885  30.630  1.00  0.00     0.010 A 
ATOM     42  C   UNL A   1      39.464  29.417  28.417  1.00  0.00     0.010 A 
ATOM     43  C   UNL A   1      40.545  29.445  29.310  1.00  0.00    -0.014 A 
BRANCH  43  44
ATOM     44  C   UNL A   1      41.884  29.026  28.830  1.00  0.00     0.031 A 
ATOM     45  C   UNL A   1      42.992  30.040  28.751  1.00  0.00     0.074 A 
ATOM     46  C   UNL A   1      42.076  27.764  28.403  1.00  0.00     0.049 A 
ATOM     47  N   UNL A   1      44.210  29.898  28.295  1.00  0.00    -0.248 NA
ATOM     48  C   UNL A   1      42.680  31.403  29.210  1.00  0.00     0.031 C 
ATOM     49  C   UNL A   1      41.059  26.709  28.383  1.00  0.00     0.029 A 
ATOM     50  N   UNL A   1      43.196  27.152  27.899  1.00  0.00    -0.354 N 
ATOM     51  C   UNL A   1      44.799  31.151  28.400  1.00  0.00     0.074 A 
ATOM     52  C   UNL A   1      43.786  32.058  28.890  1.00  0.00     0.031 C 
ATOM     53  C   UNL A   1      41.612  25.572  27.932  1.00  0.00     0.029 A 
ATOM     54  C   UNL A   1      43.007  25.825  27.589  1.00  0.00     0.049 A 
ATOM     55  H   UNL A   1      44.053  27.618  27.773  1.00  0.00     0.167 HD
ATOM     56  C   UNL A   1      46.080  31.508  28.144  1.00  0.00     0.037 A 
ATOM     57  C   UNL A   1      43.866  24.918  27.085  1.00  0.00     0.037 A 
ATOM     58  C   UNL A   1      47.086  30.592  27.680  1.00  0.00     0.049 A 
ATOM     59  C   UNL A   1      45.281  25.342  26.794  1.00  0.00     0.074 A 
ATOM     60  C   UNL A   1      48.426  30.834  27.439  1.00  0.00     0.029 A 
ATOM     61  N   UNL A   1      46.860  29.255  27.384  1.00  0.00    -0.354 N 
ATOM     62  N   UNL A   1      45.843  26.516  26.961  1.00  0.00    -0.248 NA
ATOM     63  C   UNL A   1      46.181  24.317  26.249  1.00  0.00     0.031 C 
ATOM     64  C   UNL A   1      49.000  29.655  26.951  1.00  0.00     0.029 A 
ATOM     65  C   UNL A   1      48.031  28.663  26.941  1.00  0.00     0.049 A 
ATOM     66  H   UNL A   1      45.994  28.794  27.476  1.00  0.00     0.167 HD
ATOM     67  C   UNL A   1      47.169  26.362  26.574  1.00  0.00     0.074 A 
ATOM     68  C   UNL A   1      47.327  24.978  26.174  1.00  0.00     0.031 C 
ATOM     69  C   UNL A   1      48.168  27.279  26.555  1.00  0.00     0.037 A 
BRANCH  56  70
ATOM     70  C   UNL A   1      46.454  32.949  28.367  1.00  0.00     0.058 A 
ATOM     71  C   UNL A   1      46.988  33.393  29.589  1.00  0.00     0.135 A 
ATOM     72  C   UNL A   1      46.280  33.900  27.348  1.00  0.00     0.135 A 
ATOM     73  F   UNL A   1      47.160  32.532  30.605  1.00  0.00    -0.206 F 
ATOM     74  C   UNL A   1      47.293  34.732  29.807  1.00  0.00     0.059 A 
ATOM     75  C   UNL A   1      46.611  35.239  27.533  1.00  0.00     0.059 A 
ATOM     76  F   UNL A   1      45.774  33.533  26.160  1.00  0.00    -0.206 F 
ATOM     77  C   UNL A   1      47.097  35.648  28.774  1.00  0.00     0.060 A 
BRANCH  77  78
ATOM     78  S   UNL A   1      47.485  37.385  29.078  1.00  0.00     0.124 S 
ATOM     79  O   UNL A   1      48.006  37.331  30.441  1.00  0.00    -0.237 OA
ATOM     80  O   UNL A   1      48.465  37.673  28.036  1.00  0.00    -0.237 OA
ATOM     81  O   UNL A   1      46.196  38.053  28.926  1.00  0.00    -0.744 OA
ENDBRANCH  77  78
ENDBRANCH  56  70
BRANCH  57  82
ATOM     82  C   UNL A   1      43.425  23.515  26.864  1.00  0.00     0.058 A 
ATOM     83  C   UNL A   1      43.175  23.038  25.567  1.00  0.00     0.135 A 
ATOM     84  C   UNL A   1      43.258  22.620  27.932  1.00  0.00     0.135 A 
ATOM     85  F   UNL A   1      43.316  23.857  24.514  1.00  0.00    -0.206 F 
ATOM     86  C   UNL A   1      42.759  21.731  25.339  1.00  0.00     0.059 A 
ATOM     87  C   UNL A   1      42.868  21.300  27.726  1.00  0.00     0.059 A 
ATOM     88  F   UNL A   1      43.500  23.020  29.189  1.00  0.00    -0.206 F 
ATOM     89  C   UNL A   1      42.611  20.868  26.425  1.00  0.00     0.060 A 
BRANCH  89  90
ATOM     90  S   UNL A   1      42.114  19.160  26.110  1.00  0.00     0.124 S 
ATOM     91  O   UNL A   1      42.509  18.505  27.351  1.00  0.00    -0.237 OA
ATOM     92  O   UNL A   1      40.679  19.296  25.887  1.00  0.00    -0.237 OA
ATOM     93  O   UNL A   1      42.892  18.797  24.929  1.00  0.00    -0.744 OA
ENDBRANCH  89  90
ENDBRANCH  57  82
BRANCH  69  94
ATOM     94  C   UNL A   1      49.531  26.810  26.126  1.00  0.00     0.058 A 
ATOM     95  C   UNL A   1      49.984  26.959  24.806  1.00  0.00     0.135 A 
ATOM     96  C   UNL A   1      50.415  26.253  27.065  1.00  0.00     0.135 A 
ATOM     97  F   UNL A   1      49.176  27.479  23.869  1.00  0.00    -0.206 F 
ATOM     98  C   UNL A   1      51.258  26.551  24.427  1.00  0.00     0.059 A 
ATOM     99  C   UNL A   1      51.704  25.867  26.715  1.00  0.00     0.059 A 
ATOM    100  F   UNL A   1      50.036  26.099  28.344  1.00  0.00    -0.206 F 
ATOM    101  C   UNL A   1      52.113  26.009  25.389  1.00  0.00     0.060 A 
BRANCH 101 102
ATOM    102  S   UNL A   1      53.776  25.518  24.890  1.00  0.00     0.124 S 
ATOM    103  O   UNL A   1      53.849  26.062  23.537  1.00  0.00    -0.237 OA
ATOM    104  O   UNL A   1      54.610  26.183  25.886  1.00  0.00    -0.237 OA
ATOM    105  O   UNL A   1      53.742  24.062  24.980  1.00  0.00    -0.744 OA
ENDBRANCH 101 102
ENDBRANCH  69  94
ENDBRANCH  43  44
ENDBRANCH  35  38
ENDBRANCH  33  34
ENDBRANCH   1  33
TORSDOF 16
ENDMDL
MODEL 2
REMARK VINA RESULT:     -13.2      6.126     11.792
REMARK SMILES CN1C(=O)C[C@@H](C(=O)NCCCCNC(=O)c2ccc(-c3c4nc(c(-c5c(F)cc(S(=O)(=O)[O-])cc5F)c5ccc([nH]5)c(-c5c(F)cc(S(=O)(=O)[O-])cc5F)c5nc(c(-c6c(F)cc(S(=O)(=O)[O-])cc6F)c6ccc3[nH]6)C=C5)C=C4)cc2)C12CCN(C(=O)c1ccccc1-n1cccn1)CC2
REMARK SMILES IDX 12 1 11 2 10 3 9 4 7 5 8 6 6 8 1 9 2 10 3 11 83 12 4 13 5 14
REMARK SMILES IDX 84 15 101 16 85 17 100 18 86 19 87 20 88 21 89 22 90 23
REMARK SMILES IDX 94 24 91 25 93 26 92 27 95 28 96 29 99 30 97 31 98 32 13 33
REMARK SMILES IDX 14 34 15 35 16 37 17 38 18 39 82 40 19 41 81 42 20 43 21 44
REMARK SMILES IDX 22 45 75 46 23 47 80 48 74 49 76 50 24 51 79 52 73 53 72 54
REMARK SMILES IDX 25 56 59 57 38 58 58 59 39 60 42 61 57 62 77 63 40 64 41 65
REMARK SMILES IDX 56 67 78 68 43 69 26 70 27 71 36 72 28 73 29 74 35 75 37 76
REMARK SMILES IDX 30 77 31 78 32 79 33 80 34 81 60 82 61 83 70 84 62 85 63 86
REMARK SMILES IDX 69 87 71 88 64 89 65 90 66 91 67 92 68 93 44 94 45 95 54 96
REMARK SMILES IDX 46 97 47 98 53 99 55 100 48 101 49 102 50 103 51 104 52 105
REMARK H PARENT 9 7 14 36 76 55 42 66
REMARK Flexibility Score: inf
ROOT
ATOM      1  C   UNL A   1      40.188  22.385  27.448  1.00  0.00     0.023 C 
ENDROOT
BRANCH   1   2
ATOM      2  C   UNL A   1      39.433  22.316  26.126  1.00  0.00     0.023 C 
BRANCH   2   3
ATOM      3  C   UNL A   1      38.254  23.291  26.012  1.00  0.00     0.116 C 
BRANCH   3   4
ATOM      4  N   UNL A   1      37.554  23.258  24.736  1.00  0.00    -0.356 N 
ATOM      5  C   UNL A   1      36.295  22.903  24.364  1.00  0.00     0.226 C 
ATOM      6  O   UNL A   1      36.011  23.063  23.170  1.00  0.00    -0.275 OA
ATOM      7  H   UNL A   1      38.111  23.555  23.980  1.00  0.00     0.163 HD
BRANCH   5   8
ATOM      8  C   UNL A   1      35.230  22.290  25.284  1.00  0.00     0.113 C 
ATOM      9  C   UNL A   1      32.331  20.811  23.448  1.00  0.00     0.147 C 
ATOM     10  N   UNL A   1      33.481  21.131  24.272  1.00  0.00    -0.339 N 
ATOM     11  C   UNL A   1      34.347  20.143  24.726  1.00  0.00     0.223 C 
ATOM     12  C   UNL A   1      33.752  22.455  24.865  1.00  0.00     0.058 C 
ATOM     13  O   UNL A   1      34.266  18.943  24.507  1.00  0.00    -0.275 OA
ATOM     14  C   UNL A   1      35.450  20.795  25.508  1.00  0.00     0.116 C 
ATOM     15  C   UNL A   1      33.545  23.654  23.921  1.00  0.00     0.051 C 
ATOM     16  C   UNL A   1      32.793  22.622  26.087  1.00  0.00     0.051 C 
ATOM     17  C   UNL A   1      33.623  25.000  24.626  1.00  0.00     0.122 C 
ATOM     18  C   UNL A   1      32.744  24.034  26.681  1.00  0.00     0.122 C 
ATOM     19  N   UNL A   1      32.588  25.044  25.639  1.00  0.00    -0.338 N 
ATOM     20  C   UNL A   1      31.519  25.940  25.667  1.00  0.00     0.256 C 
ATOM     21  O   UNL A   1      30.665  25.948  26.552  1.00  0.00    -0.269 OA
BRANCH  20  22
ATOM     22  C   UNL A   1      31.406  26.982  24.613  1.00  0.00     0.065 A 
ATOM     23  C   UNL A   1      30.679  26.608  23.470  1.00  0.00     0.016 A 
ATOM     24  C   UNL A   1      31.889  28.297  24.722  1.00  0.00     0.077 A 
ATOM     25  C   UNL A   1      30.401  27.539  22.466  1.00  0.00     0.001 A 
ATOM     26  C   UNL A   1      31.549  29.242  23.734  1.00  0.00     0.029 A 
ATOM     27  C   UNL A   1      30.821  28.859  22.608  1.00  0.00     0.002 A 
BRANCH  24  28
ATOM     28  N   UNL A   1      32.721  28.732  25.781  1.00  0.00    -0.240 N 
ATOM     29  C   UNL A   1      33.955  28.251  26.165  1.00  0.00     0.115 A 
ATOM     30  N   UNL A   1      32.339  29.774  26.568  1.00  0.00    -0.177 NA
ATOM     31  C   UNL A   1      34.352  28.982  27.259  1.00  0.00     0.042 A 
ATOM     32  C   UNL A   1      33.306  29.891  27.477  1.00  0.00     0.135 A 
ENDBRANCH  24  28
ENDBRANCH  20  22
ENDBRANCH   5   8
ENDBRANCH   3   4
ENDBRANCH   2   3
ENDBRANCH   1   2
BRANCH   1  33
ATOM     33  C   UNL A   1      41.547  23.055  27.335  1.00  0.00     0.116 C 
BRANCH  33  34
ATOM     34  N   UNL A   1      41.656  23.908  26.156  1.00  0.00    -0.352 N 
ATOM     35  C   UNL A   1      41.561  25.274  26.077  1.00  0.00     0.251 C 
ATOM     36  H   UNL A   1      41.819  23.440  25.304  1.00  0.00     0.163 HD
ATOM     37  O   UNL A   1      41.506  25.836  24.989  1.00  0.00    -0.269 OA
BRANCH  35  38
ATOM     38  C   UNL A   1      41.500  26.042  27.333  1.00  0.00     0.039 A 
ATOM     39  C   UNL A   1      42.524  26.939  27.636  1.00  0.00     0.014 A 
ATOM     40  C   UNL A   1      40.378  25.927  28.157  1.00  0.00     0.014 A 
ATOM     41  C   UNL A   1      42.384  27.778  28.740  1.00  0.00     0.010 A 
ATOM     42  C   UNL A   1      40.195  26.833  29.189  1.00  0.00     0.010 A 
ATOM     43  C   UNL A   1      41.201  27.760  29.499  1.00  0.00    -0.014 A 
BRANCH  43  44
ATOM     44  C   UNL A   1      40.998  28.686  30.638  1.00  0.00     0.031 A 
ATOM     45  C   UNL A   1      41.875  28.569  31.854  1.00  0.00     0.074 A 
ATOM     46  C   UNL A   1      39.986  29.575  30.605  1.00  0.00     0.049 A 
ATOM     47  N   UNL A   1      41.817  29.230  32.981  1.00  0.00    -0.248 NA
ATOM     48  C   UNL A   1      42.934  27.547  31.813  1.00  0.00     0.031 C 
ATOM     49  C   UNL A   1      39.038  29.742  29.500  1.00  0.00     0.029 A 
ATOM     50  N   UNL A   1      39.584  30.505  31.528  1.00  0.00    -0.354 N 
ATOM     51  C   UNL A   1      42.819  28.696  33.781  1.00  0.00     0.074 A 
ATOM     52  C   UNL A   1      43.418  27.607  33.044  1.00  0.00     0.031 C 
ATOM     53  C   UNL A   1      38.192  30.742  29.793  1.00  0.00     0.029 A 
ATOM     54  C   UNL A   1      38.507  31.257  31.120  1.00  0.00     0.049 A 
ATOM     55  H   UNL A   1      40.025  30.624  32.400  1.00  0.00     0.167 HD
ATOM     56  C   UNL A   1      43.226  29.098  35.009  1.00  0.00     0.037 A 
ATOM     57  C   UNL A   1      37.850  32.251  31.750  1.00  0.00     0.037 A 
ATOM     58  C   UNL A   1      42.638  30.199  35.723  1.00  0.00     0.049 A 
ATOM     59  C   UNL A   1      38.311  32.672  33.120  1.00  0.00     0.074 A 
ATOM     60  C   UNL A   1      43.005  30.726  36.947  1.00  0.00     0.029 A 
ATOM     61  N   UNL A   1      41.554  30.942  35.275  1.00  0.00    -0.354 N 
ATOM     62  N   UNL A   1      39.303  32.201  33.839  1.00  0.00    -0.248 NA
ATOM     63  C   UNL A   1      37.566  33.761  33.765  1.00  0.00     0.031 C 
ATOM     64  C   UNL A   1      42.114  31.757  37.263  1.00  0.00     0.029 A 
ATOM     65  C   UNL A   1      41.224  31.909  36.210  1.00  0.00     0.049 A 
ATOM     66  H   UNL A   1      41.087  30.802  34.419  1.00  0.00     0.167 HD
ATOM     67  C   UNL A   1      39.323  32.959  35.004  1.00  0.00     0.074 A 
ATOM     68  C   UNL A   1      38.249  33.925  34.889  1.00  0.00     0.031 C 
ATOM     69  C   UNL A   1      40.155  32.868  36.071  1.00  0.00     0.037 A 
BRANCH  56  70
ATOM     70  C   UNL A   1      44.361  28.342  35.644  1.00  0.00     0.058 A 
ATOM     71  C   UNL A   1      44.135  27.249  36.498  1.00  0.00     0.135 A 
ATOM     72  C   UNL A   1      45.694  28.711  35.398  1.00  0.00     0.135 A 
ATOM     73  F   UNL A   1      42.881  26.862  36.783  1.00  0.00    -0.206 F 
ATOM     74  C   UNL A   1      45.184  26.579  37.118  1.00  0.00     0.059 A 
ATOM     75  C   UNL A   1      46.760  28.033  35.982  1.00  0.00     0.059 A 
ATOM     76  F   UNL A   1      45.970  29.748  34.591  1.00  0.00    -0.206 F 
ATOM     77  C   UNL A   1      46.493  26.981  36.856  1.00  0.00     0.060 A 
BRANCH  77  78
ATOM     78  S   UNL A   1      47.843  26.110  37.681  1.00  0.00     0.124 S 
ATOM     79  O   UNL A   1      48.973  26.447  36.821  1.00  0.00    -0.237 OA
ATOM     80  O   UNL A   1      47.848  26.725  39.004  1.00  0.00    -0.237 OA
ATOM     81  O   UNL A   1      47.420  24.714  37.642  1.00  0.00    -0.744 OA
ENDBRANCH  77  78
ENDBRANCH  56  70
BRANCH  57  82
ATOM     82  C   UNL A   1      36.718  32.942  31.077  1.00  0.00     0.058 A 
ATOM     83  C   UNL A   1      36.950  33.823  30.009  1.00  0.00     0.135 A 
ATOM     84  C   UNL A   1      35.388  32.729  31.470  1.00  0.00     0.135 A 
ATOM     85  F   UNL A   1      38.205  34.063  29.599  1.00  0.00    -0.206 F 
ATOM     86  C   UNL A   1      35.907  34.482  29.367  1.00  0.00     0.059 A 
ATOM     87  C   UNL A   1      34.326  33.357  30.826  1.00  0.00     0.059 A 
ATOM     88  F   UNL A   1      35.110  31.884  32.474  1.00  0.00    -0.206 F 
ATOM     89  C   UNL A   1      34.597  34.240  29.782  1.00  0.00     0.060 A 
BRANCH  89  90
ATOM     90  S   UNL A   1      33.249  35.067  28.910  1.00  0.00     0.124 S 
ATOM     91  O   UNL A   1      32.868  34.057  27.929  1.00  0.00    -0.237 OA
ATOM     92  O   UNL A   1      32.291  35.306  29.985  1.00  0.00    -0.237 OA
ATOM     93  O   UNL A   1      33.884  36.265  28.369  1.00  0.00    -0.744 OA
ENDBRANCH  89  90
ENDBRANCH  57  82
BRANCH  69  94
ATOM     94  C   UNL A   1      39.967  33.863  37.183  1.00  0.00     0.058 A 
ATOM     95  C   UNL A   1      40.676  35.074  37.222  1.00  0.00     0.135 A 
ATOM     96  C   UNL A   1      39.021  33.623  38.194  1.00  0.00     0.135 A 
ATOM     97  F   UNL A   1      41.596  35.348  36.284  1.00  0.00    -0.206 F 
ATOM     98  C   UNL A   1      40.471  36.001  38.238  1.00  0.00     0.059 A 
ATOM     99  C   UNL A   1      38.778  34.551  39.201  1.00  0.00     0.059 A 
ATOM    100  F   UNL A   1      38.307  32.486  38.198  1.00  0.00    -0.206 F 
ATOM    101  C   UNL A   1      39.517  35.733  39.221  1.00  0.00     0.060 A 
BRANCH 101 102
ATOM    102  S   UNL A   1      39.236  36.963  40.511  1.00  0.00     0.124 S 
ATOM    103  O   UNL A   1      38.565  36.167  41.535  1.00  0.00    -0.237 OA
ATOM    104  O   UNL A   1      40.593  37.394  40.832  1.00  0.00    -0.237 OA
ATOM    105  O   UNL A   1      38.406  37.965  39.851  1.00  0.00    -0.744 OA
ENDBRANCH 101 102
ENDBRANCH  69  94
ENDBRANCH  43  44
ENDBRANCH  35  38
ENDBRANCH  33  34
ENDBRANCH   1  33
TORSDOF 16
ENDMDL
MODEL 3
REMARK VINA RESULT:     -13.2      6.224     11.593
REMARK SMILES CN1C(=O)C[C@@H](C(=O)NCCCCNC(=O)c2ccc(-c3c4nc(c(-c5c(F)cc(S(=O)(=O)[O-])cc5F)c5ccc([nH]5)c(-c5c(F)cc(S(=O)(=O)[O-])cc5F)c5nc(c(-c6c(F)cc(S(=O)(=O)[O-])cc6F)c6ccc3[nH]6)C=C5)C=C4)cc2)C12CCN(C(=O)c1ccccc1-n1cccn1)CC2
REMARK SMILES IDX 12 1 11 2 10 3 9 4 7 5 8 6 6 8 1 9 2 10 3 11 83 12 4 13 5 14
REMARK SMILES IDX 84 15 101 16 85 17 100 18 86 19 87 20 88 21 89 22 90 23
REMARK SMILES IDX 94 24 91 25 93 26 92 27 95 28 96 29 99 30 97 31 98 32 13 33
REMARK SMILES IDX 14 34 15 35 16 37 17 38 18 39 82 40 19 41 81 42 20 43 21 44
REMARK SMILES IDX 22 45 75 46 23 47 80 48 74 49 76 50 24 51 79 52 73 53 72 54
REMARK SMILES IDX 25 56 59 57 38 58 58 59 39 60 42 61 57 62 77 63 40 64 41 65
REMARK SMILES IDX 56 67 78 68 43 69 26 70 27 71 36 72 28 73 29 74 35 75 37 76
REMARK SMILES IDX 30 77 31 78 32 79 33 80 34 81 60 82 61 83 70 84 62 85 63 86
REMARK SMILES IDX 69 87 71 88 64 89 65 90 66 91 67 92 68 93 44 94 45 95 54 96
REMARK SMILES IDX 46 97 47 98 53 99 55 100 48 101 49 102 50 103 51 104 52 105
REMARK H PARENT 9 7 14 36 76 55 42 66
REMARK Flexibility Score: inf
ROOT
ATOM      1  C   UNL A   1      40.073  22.651  27.447  1.00  0.00     0.023 C 
ENDROOT
BRANCH   1   2
ATOM      2  C   UNL A   1      39.307  22.558  26.133  1.00  0.00     0.023 C 
BRANCH   2   3
ATOM      3  C   UNL A   1      38.193  23.600  25.967  1.00  0.00     0.116 C 
BRANCH   3   4
ATOM      4  N   UNL A   1      37.483  23.540  24.698  1.00  0.00    -0.356 N 
ATOM      5  C   UNL A   1      36.239  23.130  24.335  1.00  0.00     0.226 C 
ATOM      6  O   UNL A   1      35.936  23.282  23.144  1.00  0.00    -0.275 OA
ATOM      7  H   UNL A   1      38.019  23.866  23.938  1.00  0.00     0.163 HD
BRANCH   5   8
ATOM      8  C   UNL A   1      35.211  22.466  25.263  1.00  0.00     0.113 C 
ATOM      9  C   UNL A   1      32.336  20.913  23.449  1.00  0.00     0.147 C 
ATOM     10  N   UNL A   1      33.487  21.261  24.260  1.00  0.00    -0.339 N 
ATOM     11  C   UNL A   1      34.396  20.298  24.684  1.00  0.00     0.223 C 
ATOM     12  C   UNL A   1      33.721  22.584  24.869  1.00  0.00     0.058 C 
ATOM     13  O   UNL A   1      34.353  19.099  24.448  1.00  0.00    -0.275 OA
ATOM     14  C   UNL A   1      35.487  20.976  25.459  1.00  0.00     0.116 C 
ATOM     15  C   UNL A   1      33.456  23.790  23.948  1.00  0.00     0.051 C 
ATOM     16  C   UNL A   1      32.777  22.699  26.109  1.00  0.00     0.051 C 
ATOM     17  C   UNL A   1      33.499  25.126  24.673  1.00  0.00     0.122 C 
ATOM     18  C   UNL A   1      32.688  24.099  26.726  1.00  0.00     0.122 C 
ATOM     19  N   UNL A   1      32.479  25.119  25.703  1.00  0.00    -0.338 N 
ATOM     20  C   UNL A   1      31.380  25.975  25.762  1.00  0.00     0.256 C 
ATOM     21  O   UNL A   1      30.541  25.939  26.661  1.00  0.00    -0.269 OA
BRANCH  20  22
ATOM     22  C   UNL A   1      31.213  27.028  24.726  1.00  0.00     0.065 A 
ATOM     23  C   UNL A   1      30.387  26.684  23.643  1.00  0.00     0.016 A 
ATOM     24  C   UNL A   1      31.740  28.328  24.805  1.00  0.00     0.077 A 
ATOM     25  C   UNL A   1      30.056  27.630  22.670  1.00  0.00     0.001 A 
ATOM     26  C   UNL A   1      31.349  29.290  23.852  1.00  0.00     0.029 A 
ATOM     27  C   UNL A   1      30.523  28.937  22.786  1.00  0.00     0.002 A 
BRANCH  24  28
ATOM     28  N   UNL A   1      32.666  28.732  25.796  1.00  0.00    -0.240 N 
ATOM     29  C   UNL A   1      34.035  28.567  25.820  1.00  0.00     0.115 A 
ATOM     30  N   UNL A   1      32.237  29.396  26.904  1.00  0.00    -0.177 NA
ATOM     31  C   UNL A   1      34.487  29.105  27.002  1.00  0.00     0.042 A 
ATOM     32  C   UNL A   1      33.332  29.580  27.639  1.00  0.00     0.135 A 
ENDBRANCH  24  28
ENDBRANCH  20  22
ENDBRANCH   5   8
ENDBRANCH   3   4
ENDBRANCH   2   3
ENDBRANCH   1   2
BRANCH   1  33
ATOM     33  C   UNL A   1      41.485  23.189  27.286  1.00  0.00     0.116 C 
BRANCH  33  34
ATOM     34  N   UNL A   1      41.613  24.103  26.156  1.00  0.00    -0.352 N 
ATOM     35  C   UNL A   1      41.517  25.472  26.148  1.00  0.00     0.251 C 
ATOM     36  H   UNL A   1      41.791  23.681  25.283  1.00  0.00     0.163 HD
ATOM     37  O   UNL A   1      41.480  26.089  25.090  1.00  0.00    -0.269 OA
BRANCH  35  38
ATOM     38  C   UNL A   1      41.433  26.172  27.441  1.00  0.00     0.039 A 
ATOM     39  C   UNL A   1      42.495  26.977  27.852  1.00  0.00     0.014 A 
ATOM     40  C   UNL A   1      40.259  26.092  28.193  1.00  0.00     0.014 A 
ATOM     41  C   UNL A   1      42.347  27.762  28.995  1.00  0.00     0.010 A 
ATOM     42  C   UNL A   1      40.076  26.950  29.265  1.00  0.00     0.010 A 
ATOM     43  C   UNL A   1      41.122  27.785  29.684  1.00  0.00    -0.014 A 
BRANCH  43  44
ATOM     44  C   UNL A   1      40.913  28.660  30.862  1.00  0.00     0.031 A 
ATOM     45  C   UNL A   1      39.835  29.708  30.825  1.00  0.00     0.074 A 
ATOM     46  C   UNL A   1      41.734  28.557  31.925  1.00  0.00     0.049 A 
ATOM     47  N   UNL A   1      39.536  30.617  31.717  1.00  0.00    -0.248 NA
ATOM     48  C   UNL A   1      39.008  29.768  29.609  1.00  0.00     0.031 C 
ATOM     49  C   UNL A   1      42.848  27.612  32.051  1.00  0.00     0.029 A 
ATOM     50  N   UNL A   1      41.761  29.256  33.105  1.00  0.00    -0.354 N 
ATOM     51  C   UNL A   1      38.501  31.359  31.164  1.00  0.00     0.074 A 
ATOM     52  C   UNL A   1      38.274  30.847  29.831  1.00  0.00     0.031 C 
ATOM     53  C   UNL A   1      43.421  27.764  33.255  1.00  0.00     0.029 A 
ATOM     54  C   UNL A   1      42.747  28.843  33.969  1.00  0.00     0.049 A 
ATOM     55  H   UNL A   1      41.132  29.985  33.313  1.00  0.00     0.167 HD
ATOM     56  C   UNL A   1      37.780  32.357  31.728  1.00  0.00     0.037 A 
ATOM     57  C   UNL A   1      43.069  29.287  35.200  1.00  0.00     0.037 A 
ATOM     58  C   UNL A   1      37.999  32.843  33.063  1.00  0.00     0.049 A 
ATOM     59  C   UNL A   1      42.263  30.407  35.801  1.00  0.00     0.074 A 
ATOM     60  C   UNL A   1      37.294  33.812  33.754  1.00  0.00     0.029 A 
ATOM     61  N   UNL A   1      39.002  32.395  33.912  1.00  0.00    -0.354 N 
ATOM     62  N   UNL A   1      41.242  31.057  35.292  1.00  0.00    -0.248 NA
ATOM     63  C   UNL A   1      42.649  30.854  37.146  1.00  0.00     0.031 C 
ATOM     64  C   UNL A   1      37.901  33.984  35.002  1.00  0.00     0.029 A 
ATOM     65  C   UNL A   1      38.950  33.084  35.112  1.00  0.00     0.049 A 
ATOM     66  H   UNL A   1      39.655  31.691  33.693  1.00  0.00     0.167 HD
ATOM     67  C   UNL A   1      40.844  31.964  36.267  1.00  0.00     0.074 A 
ATOM     68  C   UNL A   1      41.728  31.773  37.398  1.00  0.00     0.031 C 
ATOM     69  C   UNL A   1      39.836  32.871  36.231  1.00  0.00     0.037 A 
BRANCH  56  70
ATOM     70  C   UNL A   1      36.690  32.979  30.897  1.00  0.00     0.058 A 
ATOM     71  C   UNL A   1      36.959  33.999  29.968  1.00  0.00     0.135 A 
ATOM     72  C   UNL A   1      35.358  32.552  31.027  1.00  0.00     0.135 A 
ATOM     73  F   UNL A   1      38.212  34.460  29.814  1.00  0.00    -0.206 F 
ATOM     74  C   UNL A   1      35.945  34.602  29.233  1.00  0.00     0.059 A 
ATOM     75  C   UNL A   1      34.332  33.118  30.276  1.00  0.00     0.059 A 
ATOM     76  F   UNL A   1      35.042  31.581  31.899  1.00  0.00    -0.206 F 
ATOM     77  C   UNL A   1      34.634  34.157  29.397  1.00  0.00     0.060 A 
BRANCH  77  78
ATOM     78  S   UNL A   1      33.326  34.960  28.446  1.00  0.00     0.124 S 
ATOM     79  O   UNL A   1      32.663  33.811  27.837  1.00  0.00    -0.237 OA
ATOM     80  O   UNL A   1      32.568  35.653  29.482  1.00  0.00    -0.237 OA
ATOM     81  O   UNL A   1      34.058  35.823  27.524  1.00  0.00    -0.744 OA
ENDBRANCH  77  78
ENDBRANCH  56  70
BRANCH  57  82
ATOM     82  C   UNL A   1      44.175  28.645  35.959  1.00  0.00     0.058 A 
ATOM     83  C   UNL A   1      43.918  27.582  36.839  1.00  0.00     0.135 A 
ATOM     84  C   UNL A   1      45.506  29.065  35.815  1.00  0.00     0.135 A 
ATOM     85  F   UNL A   1      42.660  27.147  37.014  1.00  0.00    -0.206 F 
ATOM     86  C   UNL A   1      44.936  26.970  37.562  1.00  0.00     0.059 A 
ATOM     87  C   UNL A   1      46.546  28.451  36.508  1.00  0.00     0.059 A 
ATOM     88  F   UNL A   1      45.809  30.066  34.975  1.00  0.00    -0.206 F 
ATOM     89  C   UNL A   1      46.249  27.410  37.386  1.00  0.00     0.060 A 
BRANCH  89  90
ATOM     90  S   UNL A   1      47.568  26.577  38.296  1.00  0.00     0.124 S 
ATOM     91  O   UNL A   1      48.640  27.563  38.231  1.00  0.00    -0.237 OA
ATOM     92  O   UNL A   1      46.958  26.381  39.607  1.00  0.00    -0.237 OA
ATOM     93  O   UNL A   1      47.786  25.355  37.526  1.00  0.00    -0.744 OA
ENDBRANCH  89  90
ENDBRANCH  57  82
BRANCH  69  94
ATOM     94  C   UNL A   1      39.606  33.699  37.465  1.00  0.00     0.058 A 
ATOM     95  C   UNL A   1      38.771  33.262  38.506  1.00  0.00     0.135 A 
ATOM     96  C   UNL A   1      40.276  34.923  37.631  1.00  0.00     0.135 A 
ATOM     97  F   UNL A   1      38.103  32.104  38.394  1.00  0.00    -0.206 F 
ATOM     98  C   UNL A   1      38.590  34.021  39.657  1.00  0.00     0.059 A 
ATOM     99  C   UNL A   1      40.134  35.683  38.787  1.00  0.00     0.059 A 
ATOM    100  F   UNL A   1      41.095  35.382  36.671  1.00  0.00    -0.206 F 
ATOM    101  C   UNL A   1      39.279  35.228  39.791  1.00  0.00     0.060 A 
BRANCH 101 102
ATOM    102  S   UNL A   1      39.062  36.184  41.306  1.00  0.00     0.124 S 
ATOM    103  O   UNL A   1      38.904  37.537  40.780  1.00  0.00    -0.237 OA
ATOM    104  O   UNL A   1      37.864  35.585  41.884  1.00  0.00    -0.237 OA
ATOM    105  O   UNL A   1      40.298  35.937  42.043  1.00  0.00    -0.744 OA
ENDBRANCH 101 102
ENDBRANCH  69  94
ENDBRANCH  43  44
ENDBRANCH  35  38
ENDBRANCH  33  34
ENDBRANCH   1  33
TORSDOF 16
ENDMDL
