MODEL 1
REMARK VINA RESULT:     -12.1      0.000      0.000
REMARK SMILES C[NH2+][C@]1(C(=O)NCCCCNC(=O)c2ccc(-c3c4nc(c(-c5c(F)cc(S(=O)(=O)[O-])cc5F)c5ccc([nH]5)c(-c5c(F)cc(S(=O)(=O)[O-])cc5F)c5nc(c(-c6c(F)cc(S(=O)(=O)[O-])cc6F)c6ccc3[nH]6)C=C5)C=C4)cc2)CCC[C@H]1CCOC1C[C@@H](C)C[C@H](C)C1
REMARK SMILES IDX 8 1 7 2 6 3 4 4 5 5 3 7 80 8 83 9 81 10 82 11 2 12 1 13
REMARK SMILES IDX 84 16 85 17 86 18 87 19 88 20 94 21 89 22 92 23 90 24 91 25
REMARK SMILES IDX 93 26 9 27 10 28 11 29 12 30 13 32 14 33 15 34 79 35 16 36
REMARK SMILES IDX 78 37 17 38 18 39 19 40 72 41 20 42 77 43 71 44 73 45 21 46
REMARK SMILES IDX 76 47 70 48 69 49 22 51 56 52 35 53 55 54 36 55 39 56 54 57
REMARK SMILES IDX 74 58 37 59 38 60 53 62 75 63 40 64 23 65 24 66 33 67 25 68
REMARK SMILES IDX 26 69 32 70 34 71 27 72 28 73 29 74 30 75 31 76 57 77 58 78
REMARK SMILES IDX 67 79 59 80 60 81 66 82 68 83 61 84 62 85 63 86 64 87 65 88
REMARK SMILES IDX 41 89 42 90 51 91 43 92 44 93 50 94 52 95 45 96 46 97 47 98
REMARK SMILES IDX 48 99 49 100
REMARK H PARENT 6 6 2 14 2 15 11 31 73 50 39 61
REMARK Flexibility Score: inf
ROOT
ATOM      1  C   UNL A   1      37.891  24.062  26.426  1.00  0.00     0.023 C 
ENDROOT
BRANCH   1   2
ATOM      2  C   UNL A   1      36.564  23.588  25.837  1.00  0.00     0.116 C 
BRANCH   2   3
ATOM      3  N   UNL A   1      35.644  22.987  26.787  1.00  0.00    -0.351 N 
ATOM      4  C   UNL A   1      34.741  21.961  26.712  1.00  0.00     0.281 C 
ATOM      5  O   UNL A   1      34.303  21.595  27.817  1.00  0.00    -0.268 OA
ATOM      6  H   UNL A   1      35.676  23.408  27.676  1.00  0.00     0.163 HD
BRANCH   4   7
ATOM      7  C   UNL A   1      34.149  21.270  25.367  1.00  0.00     0.178 C 
ATOM      8  C   UNL A   1      32.869  20.503  25.816  1.00  0.00     0.079 C 
ATOM      9  C   UNL A   1      33.709  21.921  23.700  1.00  0.00     0.063 C 
ATOM     10  C   UNL A   1      32.375  19.732  24.635  1.00  0.00     0.008 C 
ATOM     11  C   UNL A   1      32.796  20.508  23.396  1.00  0.00     0.011 C 
BRANCH   7  12
ATOM     12  N   UNL A   1      35.041  19.998  25.238  1.00  0.00    -0.336 N 
ATOM     13  C   UNL A   1      36.453  20.107  24.934  1.00  0.00     0.331 C 
ATOM     14  H   UNL A   1      34.973  19.504  26.128  1.00  0.00     0.346 HD
ATOM     15  H   UNL A   1      34.666  19.544  24.405  1.00  0.00     0.346 HD
ENDBRANCH   7  12
BRANCH   9  16
ATOM     16  C   UNL A   1      33.664  23.792  22.703  1.00  0.00     0.039 C 
BRANCH  16  17
ATOM     17  C   UNL A   1      32.384  24.856  22.434  1.00  0.00     0.161 C 
BRANCH  17  18
ATOM     18  O   UNL A   1      32.769  26.125  22.840  1.00  0.00    -0.378 OA
BRANCH  18  19
ATOM     19  C   UNL A   1      31.706  26.298  23.742  1.00  0.00     0.118 C 
ATOM     20  C   UNL A   1      32.640  26.539  25.437  1.00  0.00     0.035 C 
ATOM     21  C   UNL A   1      30.730  27.796  22.940  1.00  0.00     0.035 C 
ATOM     22  C   UNL A   1      32.421  28.200  26.415  1.00  0.00    -0.011 C 
ATOM     23  C   UNL A   1      30.664  29.484  23.827  1.00  0.00    -0.011 C 
ATOM     24  C   UNL A   1      33.774  28.651  27.014  1.00  0.00     0.008 C 
ATOM     25  C   UNL A   1      31.575  29.688  25.527  1.00  0.00     0.006 C 
ATOM     26  C   UNL A   1      29.388  30.303  23.531  1.00  0.00     0.008 C 
ENDBRANCH  18  19
ENDBRANCH  17  18
ENDBRANCH  16  17
ENDBRANCH   9  16
ENDBRANCH   4   7
ENDBRANCH   2   3
ENDBRANCH   1   2
BRANCH   1  27
ATOM     27  C   UNL A   1      39.016  23.026  26.430  1.00  0.00     0.023 C 
BRANCH  27  28
ATOM     28  C   UNL A   1      40.390  23.515  26.893  1.00  0.00     0.116 C 
BRANCH  28  29
ATOM     29  N   UNL A   1      41.137  24.238  25.871  1.00  0.00    -0.352 N 
ATOM     30  C   UNL A   1      41.716  25.487  25.923  1.00  0.00     0.251 C 
ATOM     31  H   UNL A   1      41.245  23.763  25.016  1.00  0.00     0.163 HD
ATOM     32  O   UNL A   1      42.225  25.969  24.916  1.00  0.00    -0.269 OA
BRANCH  30  33
ATOM     33  C   UNL A   1      41.693  26.261  27.183  1.00  0.00     0.039 A 
ATOM     34  C   UNL A   1      42.505  27.392  27.300  1.00  0.00     0.014 A 
ATOM     35  C   UNL A   1      40.849  25.891  28.234  1.00  0.00     0.014 A 
ATOM     36  C   UNL A   1      42.399  28.207  28.430  1.00  0.00     0.010 A 
ATOM     37  C   UNL A   1      40.696  26.740  29.327  1.00  0.00     0.010 A 
ATOM     38  C   UNL A   1      41.457  27.916  29.430  1.00  0.00    -0.014 A 
BRANCH  38  39
ATOM     39  C   UNL A   1      41.225  28.844  30.569  1.00  0.00     0.031 A 
ATOM     40  C   UNL A   1      42.048  28.731  31.824  1.00  0.00     0.074 A 
ATOM     41  C   UNL A   1      40.216  29.736  30.505  1.00  0.00     0.049 A 
ATOM     42  N   UNL A   1      41.936  29.394  32.946  1.00  0.00    -0.248 NA
ATOM     43  C   UNL A   1      43.119  27.723  31.827  1.00  0.00     0.031 C 
ATOM     44  C   UNL A   1      39.306  29.903  29.368  1.00  0.00     0.029 A 
ATOM     45  N   UNL A   1      39.771  30.658  31.420  1.00  0.00    -0.354 N 
ATOM     46  C   UNL A   1      42.904  28.871  33.795  1.00  0.00     0.074 A 
ATOM     47  C   UNL A   1      43.566  27.806  33.072  1.00  0.00     0.031 C 
ATOM     48  C   UNL A   1      38.425  30.877  29.648  1.00  0.00     0.029 A 
ATOM     49  C   UNL A   1      38.682  31.382  30.994  1.00  0.00     0.049 A 
ATOM     50  H   UNL A   1      40.193  30.789  32.300  1.00  0.00     0.167 HD
ATOM     51  C   UNL A   1      43.227  29.257  35.053  1.00  0.00     0.037 A 
ATOM     52  C   UNL A   1      37.964  32.336  31.617  1.00  0.00     0.037 A 
ATOM     53  C   UNL A   1      42.586  30.338  35.757  1.00  0.00     0.049 A 
ATOM     54  C   UNL A   1      38.356  32.764  33.004  1.00  0.00     0.074 A 
ATOM     55  C   UNL A   1      42.892  30.851  37.005  1.00  0.00     0.029 A 
ATOM     56  N   UNL A   1      41.513  31.073  35.275  1.00  0.00    -0.354 N 
ATOM     57  N   UNL A   1      39.322  32.306  33.765  1.00  0.00    -0.248 NA
ATOM     58  C   UNL A   1      37.567  33.842  33.618  1.00  0.00     0.031 C 
ATOM     59  C   UNL A   1      41.978  31.870  37.296  1.00  0.00     0.029 A 
ATOM     60  C   UNL A   1      41.133  32.023  36.210  1.00  0.00     0.049 A 
ATOM     61  H   UNL A   1      41.085  30.940  34.399  1.00  0.00     0.167 HD
ATOM     62  C   UNL A   1      39.272  33.056  34.935  1.00  0.00     0.074 A 
ATOM     63  C   UNL A   1      38.190  34.004  34.778  1.00  0.00     0.031 C 
ATOM     64  C   UNL A   1      40.055  32.965  36.038  1.00  0.00     0.037 A 
BRANCH  51  65
ATOM     65  C   UNL A   1      44.328  28.507  35.750  1.00  0.00     0.058 A 
ATOM     66  C   UNL A   1      45.673  28.888  35.620  1.00  0.00     0.135 A 
ATOM     67  C   UNL A   1      44.033  27.420  36.589  1.00  0.00     0.135 A 
ATOM     68  F   UNL A   1      46.013  29.910  34.820  1.00  0.00    -0.206 F 
ATOM     69  C   UNL A   1      46.690  28.199  36.274  1.00  0.00     0.059 A 
ATOM     70  C   UNL A   1      45.032  26.733  37.274  1.00  0.00     0.059 A 
ATOM     71  F   UNL A   1      42.763  27.015  36.749  1.00  0.00    -0.206 F 
ATOM     72  C   UNL A   1      46.359  27.122  37.098  1.00  0.00     0.060 A 
BRANCH  72  73
ATOM     73  S   UNL A   1      47.690  26.241  37.941  1.00  0.00     0.124 S 
ATOM     74  O   UNL A   1      47.755  26.959  39.210  1.00  0.00    -0.237 OA
ATOM     75  O   UNL A   1      47.169  24.879  38.011  1.00  0.00    -0.237 OA
ATOM     76  O   UNL A   1      48.835  26.425  37.056  1.00  0.00    -0.744 OA
ENDBRANCH  72  73
ENDBRANCH  51  65
BRANCH  52  77
ATOM     77  C   UNL A   1      36.814  32.971  30.920  1.00  0.00     0.058 A 
ATOM     78  C   UNL A   1      35.496  32.584  31.202  1.00  0.00     0.135 A 
ATOM     79  C   UNL A   1      37.009  33.991  29.975  1.00  0.00     0.135 A 
ATOM     80  F   UNL A   1      35.261  31.608  32.092  1.00  0.00    -0.206 F 
ATOM     81  C   UNL A   1      34.410  33.175  30.564  1.00  0.00     0.059 A 
ATOM     82  C   UNL A   1      35.937  34.614  29.341  1.00  0.00     0.059 A 
ATOM     83  F   UNL A   1      38.249  34.410  29.682  1.00  0.00    -0.206 F 
ATOM     84  C   UNL A   1      34.641  34.193  29.638  1.00  0.00     0.060 A 
BRANCH  84  85
ATOM     85  S   UNL A   1      33.222  34.995  28.861  1.00  0.00     0.124 S 
ATOM     86  O   UNL A   1      32.780  33.970  27.924  1.00  0.00    -0.237 OA
ATOM     87  O   UNL A   1      32.345  35.240  30.002  1.00  0.00    -0.237 OA
ATOM     88  O   UNL A   1      33.803  36.194  28.261  1.00  0.00    -0.744 OA
ENDBRANCH  84  85
ENDBRANCH  52  77
BRANCH  64  89
ATOM     89  C   UNL A   1      39.793  33.937  37.156  1.00  0.00     0.058 A 
ATOM     90  C   UNL A   1      38.958  33.609  38.236  1.00  0.00     0.135 A 
ATOM     91  C   UNL A   1      40.428  35.190  37.172  1.00  0.00     0.135 A 
ATOM     92  F   UNL A   1      38.322  32.428  38.265  1.00  0.00    -0.206 F 
ATOM     93  C   UNL A   1      38.747  34.499  39.284  1.00  0.00     0.059 A 
ATOM     94  C   UNL A   1      40.251  36.084  38.223  1.00  0.00     0.059 A 
ATOM     95  F   UNL A   1      41.244  35.547  36.167  1.00  0.00    -0.206 F 
ATOM     96  C   UNL A   1      39.399  35.733  39.269  1.00  0.00     0.060 A 
BRANCH  96  97
ATOM     97  S   UNL A   1      39.146  36.864  40.654  1.00  0.00     0.124 S 
ATOM     98  O   UNL A   1      38.332  37.906  40.038  1.00  0.00    -0.237 OA
ATOM     99  O   UNL A   1      38.463  36.019  41.629  1.00  0.00    -0.237 OA
ATOM    100  O   UNL A   1      40.503  37.260  41.020  1.00  0.00    -0.744 OA
ENDBRANCH  96  97
ENDBRANCH  64  89
ENDBRANCH  38  39
ENDBRANCH  30  33
ENDBRANCH  28  29
ENDBRANCH  27  28
ENDBRANCH   1  27
TORSDOF 19
ENDMDL
MODEL 2
REMARK VINA RESULT:     -12.1      6.673     12.185
REMARK SMILES C[NH2+][C@]1(C(=O)NCCCCNC(=O)c2ccc(-c3c4nc(c(-c5c(F)cc(S(=O)(=O)[O-])cc5F)c5ccc([nH]5)c(-c5c(F)cc(S(=O)(=O)[O-])cc5F)c5nc(c(-c6c(F)cc(S(=O)(=O)[O-])cc6F)c6ccc3[nH]6)C=C5)C=C4)cc2)CCC[C@H]1CCOC1C[C@@H](C)C[C@H](C)C1
REMARK SMILES IDX 8 1 7 2 6 3 4 4 5 5 3 7 80 8 83 9 81 10 82 11 2 12 1 13
REMARK SMILES IDX 84 16 85 17 86 18 87 19 88 20 94 21 89 22 92 23 90 24 91 25
REMARK SMILES IDX 93 26 9 27 10 28 11 29 12 30 13 32 14 33 15 34 79 35 16 36
REMARK SMILES IDX 78 37 17 38 18 39 19 40 72 41 20 42 77 43 71 44 73 45 21 46
REMARK SMILES IDX 76 47 70 48 69 49 22 51 56 52 35 53 55 54 36 55 39 56 54 57
REMARK SMILES IDX 74 58 37 59 38 60 53 62 75 63 40 64 23 65 24 66 33 67 25 68
REMARK SMILES IDX 26 69 32 70 34 71 27 72 28 73 29 74 30 75 31 76 57 77 58 78
REMARK SMILES IDX 67 79 59 80 60 81 66 82 68 83 61 84 62 85 63 86 64 87 65 88
REMARK SMILES IDX 41 89 42 90 51 91 43 92 44 93 50 94 52 95 45 96 46 97 47 98
REMARK SMILES IDX 48 99 49 100
REMARK H PARENT 6 6 2 14 2 15 11 31 73 50 39 61
REMARK Flexibility Score: inf
ROOT
ATOM      1  C   UNL A   1      33.277  29.221  26.984  1.00  0.00     0.023 C 
ENDROOT
BRANCH   1   2
ATOM      2  C   UNL A   1      32.698  29.578  25.617  1.00  0.00     0.116 C 
BRANCH   2   3
ATOM      3  N   UNL A   1      33.614  29.432  24.499  1.00  0.00    -0.351 N 
ATOM      4  C   UNL A   1      33.600  28.680  23.355  1.00  0.00     0.281 C 
ATOM      5  O   UNL A   1      34.469  29.007  22.528  1.00  0.00    -0.268 OA
ATOM      6  H   UNL A   1      34.418  29.994  24.582  1.00  0.00     0.163 HD
BRANCH   4   7
ATOM      7  C   UNL A   1      32.655  27.398  23.033  1.00  0.00     0.178 C 
ATOM      8  C   UNL A   1      33.365  26.633  21.878  1.00  0.00     0.079 C 
ATOM      9  C   UNL A   1      31.943  26.058  24.079  1.00  0.00     0.063 C 
ATOM     10  C   UNL A   1      32.454  25.528  21.451  1.00  0.00     0.008 C 
ATOM     11  C   UNL A   1      31.637  25.134  22.674  1.00  0.00     0.011 C 
BRANCH   7  12
ATOM     12  N   UNL A   1      31.552  28.031  22.131  1.00  0.00    -0.336 N 
ATOM     13  C   UNL A   1      30.460  28.787  22.709  1.00  0.00     0.331 C 
ATOM     14  H   UNL A   1      32.030  28.659  21.485  1.00  0.00     0.346 HD
ATOM     15  H   UNL A   1      31.080  27.213  21.746  1.00  0.00     0.346 HD
ENDBRANCH   7  12
BRANCH   9  16
ATOM     16  C   UNL A   1      32.008  25.441  26.106  1.00  0.00     0.039 C 
BRANCH  16  17
ATOM     17  C   UNL A   1      31.449  24.029  26.837  1.00  0.00     0.161 C 
BRANCH  17  18
ATOM     18  O   UNL A   1      32.521  23.167  27.017  1.00  0.00    -0.378 OA
BRANCH  18  19
ATOM     19  C   UNL A   1      32.728  22.935  25.648  1.00  0.00     0.118 C 
ATOM     20  C   UNL A   1      34.642  23.263  25.460  1.00  0.00     0.035 C 
ATOM     21  C   UNL A   1      32.019  21.122  25.429  1.00  0.00     0.035 C 
ATOM     22  C   UNL A   1      35.797  21.826  24.855  1.00  0.00    -0.011 C 
ATOM     23  C   UNL A   1      33.191  19.677  25.003  1.00  0.00    -0.011 C 
ATOM     24  C   UNL A   1      37.122  21.832  25.653  1.00  0.00     0.008 C 
ATOM     25  C   UNL A   1      35.085  20.036  24.791  1.00  0.00     0.006 C 
ATOM     26  C   UNL A   1      32.525  18.541  24.196  1.00  0.00     0.008 C 
ENDBRANCH  18  19
ENDBRANCH  17  18
ENDBRANCH  16  17
ENDBRANCH   9  16
ENDBRANCH   4   7
ENDBRANCH   2   3
ENDBRANCH   1   2
BRANCH   1  27
ATOM     27  C   UNL A   1      34.794  29.033  27.028  1.00  0.00     0.023 C 
BRANCH  27  28
ATOM     28  C   UNL A   1      35.594  30.120  27.749  1.00  0.00     0.116 C 
BRANCH  28  29
ATOM     29  N   UNL A   1      35.472  30.080  29.201  1.00  0.00    -0.352 N 
ATOM     30  C   UNL A   1      36.442  29.887  30.160  1.00  0.00     0.251 C 
ATOM     31  H   UNL A   1      34.561  30.210  29.549  1.00  0.00     0.163 HD
ATOM     32  O   UNL A   1      36.125  29.788  31.342  1.00  0.00    -0.269 OA
BRANCH  30  33
ATOM     33  C   UNL A   1      37.862  29.764  29.762  1.00  0.00     0.039 A 
ATOM     34  C   UNL A   1      38.841  29.692  30.756  1.00  0.00     0.014 A 
ATOM     35  C   UNL A   1      38.222  29.689  28.415  1.00  0.00     0.014 A 
ATOM     36  C   UNL A   1      40.170  29.445  30.402  1.00  0.00     0.010 A 
ATOM     37  C   UNL A   1      39.534  29.376  28.068  1.00  0.00     0.010 A 
ATOM     38  C   UNL A   1      40.520  29.234  29.057  1.00  0.00    -0.014 A 
BRANCH  38  39
ATOM     39  C   UNL A   1      41.897  28.828  28.671  1.00  0.00     0.031 A 
ATOM     40  C   UNL A   1      42.997  29.852  28.582  1.00  0.00     0.074 A 
ATOM     41  C   UNL A   1      42.139  27.549  28.317  1.00  0.00     0.049 A 
ATOM     42  N   UNL A   1      44.234  29.701  28.184  1.00  0.00    -0.248 NA
ATOM     43  C   UNL A   1      42.653  31.230  28.966  1.00  0.00     0.031 C 
ATOM     44  C   UNL A   1      41.144  26.474  28.301  1.00  0.00     0.029 A 
ATOM     45  N   UNL A   1      43.290  26.939  27.885  1.00  0.00    -0.354 N 
ATOM     46  C   UNL A   1      44.810  30.964  28.249  1.00  0.00     0.074 A 
ATOM     47  C   UNL A   1      43.775  31.877  28.682  1.00  0.00     0.031 C 
ATOM     48  C   UNL A   1      41.731  25.336  27.897  1.00  0.00     0.029 A 
ATOM     49  C   UNL A   1      43.133  25.604  27.593  1.00  0.00     0.049 A 
ATOM     50  H   UNL A   1      44.149  27.412  27.794  1.00  0.00     0.167 HD
ATOM     51  C   UNL A   1      46.090  31.326  27.990  1.00  0.00     0.037 A 
ATOM     52  C   UNL A   1      44.014  24.699  27.123  1.00  0.00     0.037 A 
ATOM     53  C   UNL A   1      47.124  30.409  27.588  1.00  0.00     0.049 A 
ATOM     54  C   UNL A   1      45.435  25.119  26.866  1.00  0.00     0.074 A 
ATOM     55  C   UNL A   1      48.467  30.668  27.374  1.00  0.00     0.029 A 
ATOM     56  N   UNL A   1      46.935  29.058  27.341  1.00  0.00    -0.354 N 
ATOM     57  N   UNL A   1      45.980  26.304  27.001  1.00  0.00    -0.248 NA
ATOM     58  C   UNL A   1      46.364  24.080  26.400  1.00  0.00     0.031 C 
ATOM     59  C   UNL A   1      49.082  29.482  26.959  1.00  0.00     0.029 A 
ATOM     60  C   UNL A   1      48.132  28.473  26.959  1.00  0.00     0.049 A 
ATOM     61  H   UNL A   1      46.077  28.583  27.424  1.00  0.00     0.167 HD
ATOM     62  C   UNL A   1      47.319  26.149  26.660  1.00  0.00     0.074 A 
ATOM     63  C   UNL A   1      47.505  24.753  26.324  1.00  0.00     0.031 C 
ATOM     64  C   UNL A   1      48.304  27.080  26.631  1.00  0.00     0.037 A 
BRANCH  51  65
ATOM     65  C   UNL A   1      46.446  32.779  28.140  1.00  0.00     0.058 A 
ATOM     66  C   UNL A   1      46.983  33.286  29.334  1.00  0.00     0.135 A 
ATOM     67  C   UNL A   1      46.285  33.670  27.065  1.00  0.00     0.135 A 
ATOM     68  F   UNL A   1      47.145  32.483  30.397  1.00  0.00    -0.206 F 
ATOM     69  C   UNL A   1      47.321  34.628  29.467  1.00  0.00     0.059 A 
ATOM     70  C   UNL A   1      46.641  35.011  27.167  1.00  0.00     0.059 A 
ATOM     71  F   UNL A   1      45.776  33.237  25.900  1.00  0.00    -0.206 F 
ATOM     72  C   UNL A   1      47.145  35.484  28.378  1.00  0.00     0.060 A 
BRANCH  72  73
ATOM     73  S   UNL A   1      47.592  37.223  28.567  1.00  0.00     0.124 S 
ATOM     74  O   UNL A   1      47.234  37.466  29.960  1.00  0.00    -0.237 OA
ATOM     75  O   UNL A   1      49.022  37.212  28.273  1.00  0.00    -0.237 OA
ATOM     76  O   UNL A   1      46.758  37.898  27.577  1.00  0.00    -0.744 OA
ENDBRANCH  72  73
ENDBRANCH  51  65
BRANCH  52  77
ATOM     77  C   UNL A   1      43.580  23.295  26.890  1.00  0.00     0.058 A 
ATOM     78  C   UNL A   1      43.357  22.422  27.965  1.00  0.00     0.135 A 
ATOM     79  C   UNL A   1      43.361  22.806  25.593  1.00  0.00     0.135 A 
ATOM     80  F   UNL A   1      43.560  22.842  29.223  1.00  0.00    -0.206 F 
ATOM     81  C   UNL A   1      42.941  21.110  27.763  1.00  0.00     0.059 A 
ATOM     82  C   UNL A   1      42.923  21.505  25.367  1.00  0.00     0.059 A 
ATOM     83  F   UNL A   1      43.545  23.607  24.532  1.00  0.00    -0.206 F 
ATOM     84  C   UNL A   1      42.724  20.662  26.460  1.00  0.00     0.060 A 
BRANCH  84  85
ATOM     85  S   UNL A   1      42.127  18.975  26.213  1.00  0.00     0.124 S 
ATOM     86  O   UNL A   1      42.282  18.409  27.547  1.00  0.00    -0.237 OA
ATOM     87  O   UNL A   1      40.754  19.197  25.768  1.00  0.00    -0.237 OA
ATOM     88  O   UNL A   1      43.029  18.447  25.192  1.00  0.00    -0.744 OA
ENDBRANCH  84  85
ENDBRANCH  52  77
BRANCH  64  89
ATOM     89  C   UNL A   1      49.683  26.617  26.250  1.00  0.00     0.058 A 
ATOM     90  C   UNL A   1      50.152  26.708  24.930  1.00  0.00     0.135 A 
ATOM     91  C   UNL A   1      50.564  26.128  27.229  1.00  0.00     0.135 A 
ATOM     92  F   UNL A   1      49.348  27.163  23.956  1.00  0.00    -0.206 F 
ATOM     93  C   UNL A   1      51.442  26.311  24.590  1.00  0.00     0.059 A 
ATOM     94  C   UNL A   1      51.866  25.750  26.915  1.00  0.00     0.059 A 
ATOM     95  F   UNL A   1      50.167  26.030  28.508  1.00  0.00    -0.206 F 
ATOM     96  C   UNL A   1      52.291  25.835  25.591  1.00  0.00     0.060 A 
BRANCH  96  97
ATOM     97  S   UNL A   1      53.974  25.358  25.143  1.00  0.00     0.124 S 
ATOM     98  O   UNL A   1      54.216  26.196  23.973  1.00  0.00    -0.237 OA
ATOM     99  O   UNL A   1      54.730  25.709  26.341  1.00  0.00    -0.237 OA
ATOM    100  O   UNL A   1      53.862  23.927  24.878  1.00  0.00    -0.744 OA
ENDBRANCH  96  97
ENDBRANCH  64  89
ENDBRANCH  38  39
ENDBRANCH  30  33
ENDBRANCH  28  29
ENDBRANCH  27  28
ENDBRANCH   1  27
TORSDOF 19
ENDMDL
MODEL 3
REMARK VINA RESULT:     -12.1      6.671     11.660
REMARK SMILES C[NH2+][C@]1(C(=O)NCCCCNC(=O)c2ccc(-c3c4nc(c(-c5c(F)cc(S(=O)(=O)[O-])cc5F)c5ccc([nH]5)c(-c5c(F)cc(S(=O)(=O)[O-])cc5F)c5nc(c(-c6c(F)cc(S(=O)(=O)[O-])cc6F)c6ccc3[nH]6)C=C5)C=C4)cc2)CCC[C@H]1CCOC1C[C@@H](C)C[C@H](C)C1
REMARK SMILES IDX 8 1 7 2 6 3 4 4 5 5 3 7 80 8 83 9 81 10 82 11 2 12 1 13
REMARK SMILES IDX 84 16 85 17 86 18 87 19 88 20 94 21 89 22 92 23 90 24 91 25
REMARK SMILES IDX 93 26 9 27 10 28 11 29 12 30 13 32 14 33 15 34 79 35 16 36
REMARK SMILES IDX 78 37 17 38 18 39 19 40 72 41 20 42 77 43 71 44 73 45 21 46
REMARK SMILES IDX 76 47 70 48 69 49 22 51 56 52 35 53 55 54 36 55 39 56 54 57
REMARK SMILES IDX 74 58 37 59 38 60 53 62 75 63 40 64 23 65 24 66 33 67 25 68
REMARK SMILES IDX 26 69 32 70 34 71 27 72 28 73 29 74 30 75 31 76 57 77 58 78
REMARK SMILES IDX 67 79 59 80 60 81 66 82 68 83 61 84 62 85 63 86 64 87 65 88
REMARK SMILES IDX 41 89 42 90 51 91 43 92 44 93 50 94 52 95 45 96 46 97 47 98
REMARK SMILES IDX 48 99 49 100
REMARK H PARENT 6 6 2 14 2 15 11 31 73 50 39 61
REMARK Flexibility Score: inf
ROOT
ATOM      1  C   UNL A   1      32.808  29.387  27.161  1.00  0.00     0.023 C 
ENDROOT
BRANCH   1   2
ATOM      2  C   UNL A   1      32.331  29.775  25.763  1.00  0.00     0.116 C 
BRANCH   2   3
ATOM      3  N   UNL A   1      33.310  29.602  24.704  1.00  0.00    -0.351 N 
ATOM      4  C   UNL A   1      33.338  28.861  23.553  1.00  0.00     0.281 C 
ATOM      5  O   UNL A   1      34.271  29.161  22.787  1.00  0.00    -0.268 OA
ATOM      6  H   UNL A   1      34.129  30.129  24.845  1.00  0.00     0.163 HD
BRANCH   4   7
ATOM      7  C   UNL A   1      32.365  27.623  23.156  1.00  0.00     0.178 C 
ATOM      8  C   UNL A   1      33.107  26.851  22.025  1.00  0.00     0.079 C 
ATOM      9  C   UNL A   1      31.550  26.292  24.136  1.00  0.00     0.063 C 
ATOM     10  C   UNL A   1      32.180  25.789  21.529  1.00  0.00     0.008 C 
ATOM     11  C   UNL A   1      31.285  25.405  22.699  1.00  0.00     0.011 C 
BRANCH   7  12
ATOM     12  N   UNL A   1      31.336  28.312  22.210  1.00  0.00    -0.336 N 
ATOM     13  C   UNL A   1      30.259  29.120  22.743  1.00  0.00     0.331 C 
ATOM     14  H   UNL A   1      31.874  28.918  21.589  1.00  0.00     0.346 HD
ATOM     15  H   UNL A   1      30.842  27.520  21.800  1.00  0.00     0.346 HD
ENDBRANCH   7  12
BRANCH   9  16
ATOM     16  C   UNL A   1      31.484  25.638  26.152  1.00  0.00     0.039 C 
BRANCH  16  17
ATOM     17  C   UNL A   1      31.409  24.080  26.793  1.00  0.00     0.161 C 
BRANCH  17  18
ATOM     18  O   UNL A   1      32.702  23.627  27.009  1.00  0.00    -0.378 OA
BRANCH  18  19
ATOM     19  C   UNL A   1      32.980  23.383  25.655  1.00  0.00     0.118 C 
ATOM     20  C   UNL A   1      34.704  24.266  25.423  1.00  0.00     0.035 C 
ATOM     21  C   UNL A   1      32.859  21.430  25.558  1.00  0.00     0.035 C 
ATOM     22  C   UNL A   1      36.246  23.214  24.894  1.00  0.00    -0.011 C 
ATOM     23  C   UNL A   1      34.419  20.387  25.208  1.00  0.00    -0.011 C 
ATOM     24  C   UNL A   1      37.500  23.674  25.673  1.00  0.00     0.008 C 
ATOM     25  C   UNL A   1      36.114  21.292  24.950  1.00  0.00     0.006 C 
ATOM     26  C   UNL A   1      34.136  19.053  24.482  1.00  0.00     0.008 C 
ENDBRANCH  18  19
ENDBRANCH  17  18
ENDBRANCH  16  17
ENDBRANCH   9  16
ENDBRANCH   4   7
ENDBRANCH   2   3
ENDBRANCH   1   2
BRANCH   1  27
ATOM     27  C   UNL A   1      34.268  28.942  27.258  1.00  0.00     0.023 C 
BRANCH  27  28
ATOM     28  C   UNL A   1      35.275  30.002  27.713  1.00  0.00     0.116 C 
BRANCH  28  29
ATOM     29  N   UNL A   1      35.302  30.212  29.155  1.00  0.00    -0.352 N 
ATOM     30  C   UNL A   1      36.305  29.954  30.063  1.00  0.00     0.251 C 
ATOM     31  H   UNL A   1      34.481  30.598  29.537  1.00  0.00     0.163 HD
ATOM     32  O   UNL A   1      36.100  30.111  31.263  1.00  0.00    -0.269 OA
BRANCH  30  33
ATOM     33  C   UNL A   1      37.615  29.452  29.595  1.00  0.00     0.039 A 
ATOM     34  C   UNL A   1      37.978  29.644  28.260  1.00  0.00     0.014 A 
ATOM     35  C   UNL A   1      38.496  28.822  30.478  1.00  0.00     0.014 A 
ATOM     36  C   UNL A   1      39.262  29.294  27.834  1.00  0.00     0.010 A 
ATOM     37  C   UNL A   1      39.796  28.536  30.069  1.00  0.00     0.010 A 
ATOM     38  C   UNL A   1      40.199  28.783  28.747  1.00  0.00    -0.014 A 
BRANCH  38  39
ATOM     39  C   UNL A   1      41.611  28.539  28.352  1.00  0.00     0.031 A 
ATOM     40  C   UNL A   1      42.060  27.163  27.937  1.00  0.00     0.074 A 
ATOM     41  C   UNL A   1      42.511  29.539  28.446  1.00  0.00     0.049 A 
ATOM     42  N   UNL A   1      43.262  26.742  27.640  1.00  0.00    -0.248 NA
ATOM     43  C   UNL A   1      41.026  26.119  27.876  1.00  0.00     0.031 C 
ATOM     44  C   UNL A   1      42.216  30.903  28.893  1.00  0.00     0.029 A 
ATOM     45  N   UNL A   1      43.860  29.562  28.190  1.00  0.00    -0.354 N 
ATOM     46  C   UNL A   1      43.135  25.384  27.377  1.00  0.00     0.074 A 
ATOM     47  C   UNL A   1      41.745  25.042  27.592  1.00  0.00     0.031 C 
ATOM     48  C   UNL A   1      43.344  31.630  28.865  1.00  0.00     0.029 A 
ATOM     49  C   UNL A   1      44.449  30.781  28.431  1.00  0.00     0.049 A 
ATOM     50  H   UNL A   1      44.359  28.778  27.864  1.00  0.00     0.167 HD
ATOM     51  C   UNL A   1      44.084  24.506  26.972  1.00  0.00     0.037 A 
ATOM     52  C   UNL A   1      45.735  31.171  28.325  1.00  0.00     0.037 A 
ATOM     53  C   UNL A   1      45.460  24.857  26.729  1.00  0.00     0.049 A 
ATOM     54  C   UNL A   1      46.767  30.185  27.852  1.00  0.00     0.074 A 
ATOM     55  C   UNL A   1      46.479  24.054  26.247  1.00  0.00     0.029 A 
ATOM     56  N   UNL A   1      46.009  26.111  26.947  1.00  0.00    -0.354 N 
ATOM     57  N   UNL A   1      46.614  28.921  27.538  1.00  0.00    -0.248 NA
ATOM     58  C   UNL A   1      48.144  30.677  27.710  1.00  0.00     0.031 C 
ATOM     59  C   UNL A   1      47.654  24.813  26.211  1.00  0.00     0.029 A 
ATOM     60  C   UNL A   1      47.357  26.100  26.626  1.00  0.00     0.049 A 
ATOM     61  H   UNL A   1      45.514  26.895  27.279  1.00  0.00     0.167 HD
ATOM     62  C   UNL A   1      47.868  28.473  27.140  1.00  0.00     0.074 A 
ATOM     63  C   UNL A   1      48.766  29.604  27.240  1.00  0.00     0.031 C 
ATOM     64  C   UNL A   1      48.239  27.236  26.726  1.00  0.00     0.037 A 
BRANCH  51  65
ATOM     65  C   UNL A   1      43.666  23.077  26.760  1.00  0.00     0.058 A 
ATOM     66  C   UNL A   1      43.354  22.235  27.839  1.00  0.00     0.135 A 
ATOM     67  C   UNL A   1      43.538  22.554  25.463  1.00  0.00     0.135 A 
ATOM     68  F   UNL A   1      43.473  22.678  29.100  1.00  0.00    -0.206 F 
ATOM     69  C   UNL A   1      42.958  20.916  27.641  1.00  0.00     0.059 A 
ATOM     70  C   UNL A   1      43.117  21.246  25.240  1.00  0.00     0.059 A 
ATOM     71  F   UNL A   1      43.823  23.317  24.395  1.00  0.00    -0.206 F 
ATOM     72  C   UNL A   1      42.844  20.430  26.337  1.00  0.00     0.060 A 
BRANCH  72  73
ATOM     73  S   UNL A   1      42.325  18.718  26.097  1.00  0.00     0.124 S 
ATOM     74  O   UNL A   1      40.940  18.890  25.673  1.00  0.00    -0.237 OA
ATOM     75  O   UNL A   1      43.249  18.252  25.067  1.00  0.00    -0.237 OA
ATOM     76  O   UNL A   1      42.509  18.119  27.415  1.00  0.00    -0.744 OA
ENDBRANCH  72  73
ENDBRANCH  51  65
BRANCH  52  77
ATOM     77  C   UNL A   1      46.112  32.572  28.651  1.00  0.00     0.058 A 
ATOM     78  C   UNL A   1      46.549  32.921  29.938  1.00  0.00     0.135 A 
ATOM     79  C   UNL A   1      46.065  33.584  27.679  1.00  0.00     0.135 A 
ATOM     80  F   UNL A   1      46.604  31.989  30.902  1.00  0.00    -0.206 F 
ATOM     81  C   UNL A   1      46.914  34.225  30.255  1.00  0.00     0.059 A 
ATOM     82  C   UNL A   1      46.447  34.891  27.967  1.00  0.00     0.059 A 
ATOM     83  F   UNL A   1      45.670  33.299  26.429  1.00  0.00    -0.206 F 
ATOM     84  C   UNL A   1      46.864  35.203  29.261  1.00  0.00     0.060 A 
BRANCH  84  85
ATOM     85  S   UNL A   1      47.398  36.880  29.667  1.00  0.00     0.124 S 
ATOM     86  O   UNL A   1      48.421  37.116  28.657  1.00  0.00    -0.237 OA
ATOM     87  O   UNL A   1      46.162  37.641  29.516  1.00  0.00    -0.237 OA
ATOM     88  O   UNL A   1      47.881  36.753  31.040  1.00  0.00    -0.744 OA
ENDBRANCH  84  85
ENDBRANCH  52  77
BRANCH  64  89
ATOM     89  C   UNL A   1      49.675  27.043  26.321  1.00  0.00     0.058 A 
ATOM     90  C   UNL A   1      50.652  26.636  27.242  1.00  0.00     0.135 A 
ATOM     91  C   UNL A   1      50.064  27.216  24.982  1.00  0.00     0.135 A 
ATOM     92  F   UNL A   1      50.333  26.463  28.535  1.00  0.00    -0.206 F 
ATOM     93  C   UNL A   1      51.972  26.425  26.854  1.00  0.00     0.059 A 
ATOM     94  C   UNL A   1      51.372  26.985  24.568  1.00  0.00     0.059 A 
ATOM     95  F   UNL A   1      49.165  27.595  24.061  1.00  0.00    -0.206 F 
ATOM     96  C   UNL A   1      52.321  26.601  25.513  1.00  0.00     0.060 A 
BRANCH  96  97
ATOM     97  S   UNL A   1      54.028  26.288  25.015  1.00  0.00     0.124 S 
ATOM     98  O   UNL A   1      53.898  26.192  23.565  1.00  0.00    -0.237 OA
ATOM     99  O   UNL A   1      54.723  27.470  25.513  1.00  0.00    -0.237 OA
ATOM    100  O   UNL A   1      54.357  25.040  25.699  1.00  0.00    -0.744 OA
ENDBRANCH  96  97
ENDBRANCH  64  89
ENDBRANCH  38  39
ENDBRANCH  30  33
ENDBRANCH  28  29
ENDBRANCH  27  28
ENDBRANCH   1  27
TORSDOF 19
ENDMDL
