MODEL 1
REMARK VINA RESULT:     -14.3      0.000      0.000
REMARK SMILES Cc1ccc(-c2c(C(=O)NCCCCNC(=O)c3ccc(-c4c5nc(c(-c6c(F)cc(S(=O)(=O)[O-])cc6F)c6ccc([nH]6)c(-c6c(F)cc(S(=O)(=O)[O-])cc6F)c6nc(c(-c7c(F)cc(S(=O)(=O)[O-])cc7F)c7ccc4[nH]7)C=C6)C=C5)cc3)nnn2Cc2c(F)cccc2Cl)cc1
REMARK SMILES IDX 13 1 12 2 11 3 10 4 8 5 9 6 7 8 6 9 86 10 84 11 85 12 5 13
REMARK SMILES IDX 1 14 2 15 3 16 97 17 4 18 96 19 87 20 88 21 89 22 94 23
REMARK SMILES IDX 90 24 91 25 93 26 95 27 92 28 14 29 15 30 16 31 17 33 18 34
REMARK SMILES IDX 19 35 83 36 20 37 82 38 21 39 22 40 23 41 76 42 24 43 81 44
REMARK SMILES IDX 75 45 77 46 25 47 80 48 74 49 73 50 26 52 60 53 39 54 59 55
REMARK SMILES IDX 40 56 43 57 58 58 78 59 41 60 42 61 57 63 79 64 44 65 27 66
REMARK SMILES IDX 28 67 37 68 29 69 30 70 36 71 38 72 31 73 32 74 33 75 34 76
REMARK SMILES IDX 35 77 61 78 62 79 71 80 63 81 64 82 70 83 72 84 65 85 66 86
REMARK SMILES IDX 67 87 68 88 69 89 45 90 46 91 55 92 47 93 48 94 54 95 56 96
REMARK SMILES IDX 49 97 50 98 51 99 52 100 53 101
REMARK H PARENT 10 7 15 32 77 51 43 62
REMARK Flexibility Score: inf
ROOT
ATOM      1  C   UNL A   1      34.505  28.801  26.333  1.00  0.00     0.023 C 
ENDROOT
BRANCH   1   2
ATOM      2  C   UNL A   1      33.183  28.241  25.793  1.00  0.00     0.023 C 
BRANCH   2   3
ATOM      3  C   UNL A   1      32.656  28.991  24.564  1.00  0.00     0.116 C 
BRANCH   3   4
ATOM      4  N   UNL A   1      33.380  28.641  23.367  1.00  0.00    -0.351 N 
ATOM      5  C   UNL A   1      33.487  27.506  22.608  1.00  0.00     0.274 C 
ATOM      6  O   UNL A   1      34.165  27.670  21.584  1.00  0.00    -0.267 OA
ATOM      7  H   UNL A   1      33.917  29.387  23.014  1.00  0.00     0.163 HD
BRANCH   5   8
ATOM      8  C   UNL A   1      32.882  26.194  22.884  1.00  0.00     0.178 A 
ATOM      9  C   UNL A   1      33.272  24.974  23.444  1.00  0.00     0.102 A 
ATOM     10  N   UNL A   1      32.118  24.208  23.378  1.00  0.00    -0.239 N 
ATOM     11  N   UNL A   1      31.572  26.046  22.434  1.00  0.00    -0.124 NA
ATOM     12  N   UNL A   1      31.143  24.832  22.704  1.00  0.00    -0.066 NA
BRANCH   9  13
ATOM     13  C   UNL A   1      34.504  24.412  23.979  1.00  0.00     0.002 A 
ATOM     14  C   UNL A   1      38.081  22.625  25.598  1.00  0.00     0.044 C 
ATOM     15  C   UNL A   1      36.813  23.211  25.049  1.00  0.00    -0.051 A 
ATOM     16  C   UNL A   1      36.053  24.093  25.823  1.00  0.00     0.004 A 
ATOM     17  C   UNL A   1      36.412  22.937  23.737  1.00  0.00     0.004 A 
ATOM     18  C   UNL A   1      34.898  24.674  25.298  1.00  0.00     0.011 A 
ATOM     19  C   UNL A   1      35.263  23.528  23.206  1.00  0.00     0.011 A 
ENDBRANCH   9  13
BRANCH  10  20
ATOM     20  C   UNL A   1      31.871  22.833  23.800  1.00  0.00     0.187 C 
BRANCH  20  21
ATOM     21  C   UNL A   1      32.402  22.444  25.157  1.00  0.00     0.028 A 
ATOM     22  C   UNL A   1      33.321  21.384  25.201  1.00  0.00     0.129 A 
ATOM     23  C   UNL A   1      32.020  23.010  26.383  1.00  0.00     0.049 A 
ATOM     24  F   UNL A   1      33.648  20.744  24.069  1.00  0.00    -0.207 F 
ATOM     25  C   UNL A   1      33.903  20.951  26.390  1.00  0.00     0.040 A 
ATOM     26  C   UNL A   1      32.626  22.600  27.579  1.00  0.00     0.021 A 
ATOM     27  Cl  UNL A   1      30.792  24.213  26.522  1.00  0.00    -0.084 Cl
ATOM     28  C   UNL A   1      33.573  21.577  27.584  1.00  0.00     0.005 A 
ENDBRANCH  20  21
ENDBRANCH  10  20
ENDBRANCH   5   8
ENDBRANCH   3   4
ENDBRANCH   2   3
ENDBRANCH   1   2
BRANCH   1  29
ATOM     29  C   UNL A   1      34.317  29.657  27.583  1.00  0.00     0.116 C 
BRANCH  29  30
ATOM     30  N   UNL A   1      35.074  30.893  27.613  1.00  0.00    -0.352 N 
ATOM     31  C   UNL A   1      36.349  31.087  28.128  1.00  0.00     0.251 C 
ATOM     32  H   UNL A   1      34.635  31.684  27.224  1.00  0.00     0.163 HD
ATOM     33  O   UNL A   1      36.753  32.197  28.424  1.00  0.00    -0.269 OA
BRANCH  31  34
ATOM     34  C   UNL A   1      37.255  29.911  28.185  1.00  0.00     0.039 A 
ATOM     35  C   UNL A   1      37.294  29.186  29.384  1.00  0.00     0.014 A 
ATOM     36  C   UNL A   1      38.205  29.686  27.195  1.00  0.00     0.014 A 
ATOM     37  C   UNL A   1      38.390  28.367  29.663  1.00  0.00     0.010 A 
ATOM     38  C   UNL A   1      39.334  28.954  27.510  1.00  0.00     0.010 A 
ATOM     39  C   UNL A   1      39.447  28.319  28.755  1.00  0.00    -0.014 A 
BRANCH  39  40
ATOM     40  C   UNL A   1      40.744  27.709  29.027  1.00  0.00     0.031 A 
ATOM     41  C   UNL A   1      41.041  26.327  28.573  1.00  0.00     0.074 A 
ATOM     42  C   UNL A   1      41.743  28.459  29.543  1.00  0.00     0.049 A 
ATOM     43  N   UNL A   1      42.006  25.601  29.034  1.00  0.00    -0.248 NA
ATOM     44  C   UNL A   1      40.244  25.640  27.560  1.00  0.00     0.031 C 
ATOM     45  C   UNL A   1      43.174  28.178  29.477  1.00  0.00     0.029 A 
ATOM     46  N   UNL A   1      41.649  29.566  30.385  1.00  0.00    -0.354 N 
ATOM     47  C   UNL A   1      42.136  24.507  28.210  1.00  0.00     0.074 A 
ATOM     48  C   UNL A   1      40.983  24.548  27.339  1.00  0.00     0.031 C 
ATOM     49  C   UNL A   1      43.811  28.922  30.394  1.00  0.00     0.029 A 
ATOM     50  C   UNL A   1      42.795  29.573  31.200  1.00  0.00     0.049 A 
ATOM     51  H   UNL A   1      40.916  30.222  30.405  1.00  0.00     0.167 HD
ATOM     52  C   UNL A   1      43.271  23.752  28.247  1.00  0.00     0.037 A 
ATOM     53  C   UNL A   1      42.704  29.455  32.560  1.00  0.00     0.037 A 
ATOM     54  C   UNL A   1      44.213  24.244  29.246  1.00  0.00     0.049 A 
ATOM     55  C   UNL A   1      43.405  28.247  33.131  1.00  0.00     0.074 A 
ATOM     56  C   UNL A   1      45.307  25.089  29.154  1.00  0.00     0.029 A 
ATOM     57  N   UNL A   1      43.918  24.127  30.599  1.00  0.00    -0.354 N 
ATOM     58  N   UNL A   1      43.767  27.213  32.427  1.00  0.00    -0.248 NA
ATOM     59  C   UNL A   1      43.726  28.096  34.548  1.00  0.00     0.031 C 
ATOM     60  C   UNL A   1      45.646  25.516  30.458  1.00  0.00     0.029 A 
ATOM     61  C   UNL A   1      44.762  24.929  31.344  1.00  0.00     0.049 A 
ATOM     62  H   UNL A   1      43.210  23.555  30.973  1.00  0.00     0.167 HD
ATOM     63  C   UNL A   1      44.279  26.250  33.257  1.00  0.00     0.074 A 
ATOM     64  C   UNL A   1      44.274  26.869  34.568  1.00  0.00     0.031 C 
ATOM     65  C   UNL A   1      44.637  25.017  32.791  1.00  0.00     0.037 A 
BRANCH  52  66
ATOM     66  C   UNL A   1      43.633  22.771  27.154  1.00  0.00     0.058 A 
ATOM     67  C   UNL A   1      42.904  21.575  26.978  1.00  0.00     0.135 A 
ATOM     68  C   UNL A   1      44.724  22.936  26.279  1.00  0.00     0.135 A 
ATOM     69  F   UNL A   1      41.796  21.315  27.685  1.00  0.00    -0.206 F 
ATOM     70  C   UNL A   1      43.290  20.575  26.086  1.00  0.00     0.059 A 
ATOM     71  C   UNL A   1      45.161  21.927  25.412  1.00  0.00     0.059 A 
ATOM     72  F   UNL A   1      45.395  24.097  26.227  1.00  0.00    -0.206 F 
ATOM     73  C   UNL A   1      44.441  20.743  25.331  1.00  0.00     0.060 A 
BRANCH  73  74
ATOM     74  S   UNL A   1      44.977  19.388  24.270  1.00  0.00     0.124 S 
ATOM     75  O   UNL A   1      44.354  18.231  24.907  1.00  0.00    -0.237 OA
ATOM     76  O   UNL A   1      44.422  19.776  22.978  1.00  0.00    -0.237 OA
ATOM     77  O   UNL A   1      46.434  19.437  24.369  1.00  0.00    -0.744 OA
ENDBRANCH  73  74
ENDBRANCH  52  66
BRANCH  53  78
ATOM     78  C   UNL A   1      41.460  30.047  33.117  1.00  0.00     0.058 A 
ATOM     79  C   UNL A   1      41.380  31.449  33.171  1.00  0.00     0.135 A 
ATOM     80  C   UNL A   1      40.262  29.320  33.154  1.00  0.00     0.135 A 
ATOM     81  F   UNL A   1      42.499  32.192  33.147  1.00  0.00    -0.206 F 
ATOM     82  C   UNL A   1      40.161  32.104  33.087  1.00  0.00     0.059 A 
ATOM     83  C   UNL A   1      39.025  29.962  33.074  1.00  0.00     0.059 A 
ATOM     84  F   UNL A   1      40.283  27.980  33.120  1.00  0.00    -0.206 F 
ATOM     85  C   UNL A   1      38.997  31.352  32.963  1.00  0.00     0.060 A 
BRANCH  85  86
ATOM     86  S   UNL A   1      37.499  32.226  32.455  1.00  0.00     0.124 S 
ATOM     87  O   UNL A   1      37.083  32.863  33.701  1.00  0.00    -0.237 OA
ATOM     88  O   UNL A   1      38.027  33.129  31.436  1.00  0.00    -0.237 OA
ATOM     89  O   UNL A   1      36.635  31.157  31.969  1.00  0.00    -0.744 OA
ENDBRANCH  85  86
ENDBRANCH  53  78
BRANCH  65  90
ATOM     90  C   UNL A   1      44.995  23.821  33.641  1.00  0.00     0.058 A 
ATOM     91  C   UNL A   1      44.091  22.800  33.980  1.00  0.00     0.135 A 
ATOM     92  C   UNL A   1      46.337  23.602  34.040  1.00  0.00     0.135 A 
ATOM     93  F   UNL A   1      42.819  22.824  33.558  1.00  0.00    -0.206 F 
ATOM     94  C   UNL A   1      44.467  21.684  34.729  1.00  0.00     0.059 A 
ATOM     95  C   UNL A   1      46.745  22.469  34.739  1.00  0.00     0.059 A 
ATOM     96  F   UNL A   1      47.304  24.485  33.750  1.00  0.00    -0.206 F 
ATOM     97  C   UNL A   1      45.796  21.528  35.108  1.00  0.00     0.060 A 
BRANCH  97  98
ATOM     98  S   UNL A   1      46.302  20.066  36.032  1.00  0.00     0.124 S 
ATOM     99  O   UNL A   1      47.750  20.097  35.856  1.00  0.00    -0.237 OA
ATOM    100  O   UNL A   1      45.826  20.352  37.382  1.00  0.00    -0.237 OA
ATOM    101  O   UNL A   1      45.603  18.983  35.347  1.00  0.00    -0.744 OA
ENDBRANCH  97  98
ENDBRANCH  65  90
ENDBRANCH  39  40
ENDBRANCH  31  34
ENDBRANCH  29  30
ENDBRANCH   1  29
TORSDOF 17
ENDMDL
MODEL 2
REMARK VINA RESULT:     -14.1      4.658     11.137
REMARK SMILES Cc1ccc(-c2c(C(=O)NCCCCNC(=O)c3ccc(-c4c5nc(c(-c6c(F)cc(S(=O)(=O)[O-])cc6F)c6ccc([nH]6)c(-c6c(F)cc(S(=O)(=O)[O-])cc6F)c6nc(c(-c7c(F)cc(S(=O)(=O)[O-])cc7F)c7ccc4[nH]7)C=C6)C=C5)cc3)nnn2Cc2c(F)cccc2Cl)cc1
REMARK SMILES IDX 13 1 12 2 11 3 10 4 8 5 9 6 7 8 6 9 86 10 84 11 85 12 5 13
REMARK SMILES IDX 1 14 2 15 3 16 97 17 4 18 96 19 87 20 88 21 89 22 94 23
REMARK SMILES IDX 90 24 91 25 93 26 95 27 92 28 14 29 15 30 16 31 17 33 18 34
REMARK SMILES IDX 19 35 83 36 20 37 82 38 21 39 22 40 23 41 76 42 24 43 81 44
REMARK SMILES IDX 75 45 77 46 25 47 80 48 74 49 73 50 26 52 60 53 39 54 59 55
REMARK SMILES IDX 40 56 43 57 58 58 78 59 41 60 42 61 57 63 79 64 44 65 27 66
REMARK SMILES IDX 28 67 37 68 29 69 30 70 36 71 38 72 31 73 32 74 33 75 34 76
REMARK SMILES IDX 35 77 61 78 62 79 71 80 63 81 64 82 70 83 72 84 65 85 66 86
REMARK SMILES IDX 67 87 68 88 69 89 45 90 46 91 55 92 47 93 48 94 54 95 56 96
REMARK SMILES IDX 49 97 50 98 51 99 52 100 53 101
REMARK H PARENT 10 7 15 32 77 51 43 62
REMARK Flexibility Score: inf
ROOT
ATOM      1  C   UNL A   1      36.791  23.674  26.212  1.00  0.00     0.023 C 
ENDROOT
BRANCH   1   2
ATOM      2  C   UNL A   1      35.753  22.892  25.396  1.00  0.00     0.023 C 
BRANCH   2   3
ATOM      3  C   UNL A   1      35.251  21.625  26.097  1.00  0.00     0.116 C 
BRANCH   3   4
ATOM      4  N   UNL A   1      34.382  21.928  27.206  1.00  0.00    -0.351 N 
ATOM      5  C   UNL A   1      33.168  22.551  27.331  1.00  0.00     0.274 C 
ATOM      6  O   UNL A   1      32.724  22.519  28.486  1.00  0.00    -0.267 OA
ATOM      7  H   UNL A   1      34.740  21.617  28.069  1.00  0.00     0.163 HD
BRANCH   5   8
ATOM      8  C   UNL A   1      32.388  23.196  26.263  1.00  0.00     0.178 A 
ATOM      9  C   UNL A   1      32.147  24.494  25.801  1.00  0.00     0.102 A 
ATOM     10  N   UNL A   1      31.306  24.295  24.716  1.00  0.00    -0.239 N 
ATOM     11  N   UNL A   1      31.607  22.330  25.502  1.00  0.00    -0.124 NA
ATOM     12  N   UNL A   1      30.933  23.014  24.603  1.00  0.00    -0.066 NA
BRANCH   9  13
ATOM     13  C   UNL A   1      32.529  25.839  26.205  1.00  0.00     0.002 A 
ATOM     14  C   UNL A   1      33.589  29.878  27.287  1.00  0.00     0.044 C 
ATOM     15  C   UNL A   1      33.203  28.488  26.872  1.00  0.00    -0.051 A 
ATOM     16  C   UNL A   1      34.121  27.674  26.202  1.00  0.00     0.004 A 
ATOM     17  C   UNL A   1      31.949  27.968  27.208  1.00  0.00     0.004 A 
ATOM     18  C   UNL A   1      33.779  26.366  25.856  1.00  0.00     0.011 A 
ATOM     19  C   UNL A   1      31.610  26.655  26.874  1.00  0.00     0.011 A 
ENDBRANCH   9  13
BRANCH  10  20
ATOM     20  C   UNL A   1      30.693  25.259  23.807  1.00  0.00     0.187 C 
BRANCH  20  21
ATOM     21  C   UNL A   1      31.601  26.327  23.253  1.00  0.00     0.028 A 
ATOM     22  C   UNL A   1      31.243  27.660  23.503  1.00  0.00     0.129 A 
ATOM     23  C   UNL A   1      32.741  26.109  22.463  1.00  0.00     0.049 A 
ATOM     24  F   UNL A   1      30.110  27.928  24.170  1.00  0.00    -0.207 F 
ATOM     25  C   UNL A   1      32.015  28.734  23.067  1.00  0.00     0.040 A 
ATOM     26  C   UNL A   1      33.540  27.184  22.049  1.00  0.00     0.021 A 
ATOM     27  Cl  UNL A   1      33.235  24.543  21.934  1.00  0.00    -0.084 Cl
ATOM     28  C   UNL A   1      33.183  28.496  22.357  1.00  0.00     0.005 A 
ENDBRANCH  20  21
ENDBRANCH  10  20
ENDBRANCH   5   8
ENDBRANCH   3   4
ENDBRANCH   2   3
ENDBRANCH   1   2
BRANCH   1  29
ATOM     29  C   UNL A   1      38.199  23.566  25.634  1.00  0.00     0.116 C 
BRANCH  29  30
ATOM     30  N   UNL A   1      39.222  23.124  26.561  1.00  0.00    -0.352 N 
ATOM     31  C   UNL A   1      40.119  23.915  27.266  1.00  0.00     0.251 C 
ATOM     32  H   UNL A   1      39.288  22.152  26.707  1.00  0.00     0.163 HD
ATOM     33  O   UNL A   1      41.144  23.452  27.734  1.00  0.00    -0.269 OA
BRANCH  31  34
ATOM     34  C   UNL A   1      39.725  25.320  27.546  1.00  0.00     0.039 A 
ATOM     35  C   UNL A   1      40.264  26.316  26.721  1.00  0.00     0.014 A 
ATOM     36  C   UNL A   1      39.060  25.661  28.719  1.00  0.00     0.014 A 
ATOM     37  C   UNL A   1      40.295  27.640  27.163  1.00  0.00     0.010 A 
ATOM     38  C   UNL A   1      39.177  26.951  29.199  1.00  0.00     0.010 A 
ATOM     39  C   UNL A   1      39.821  27.938  28.439  1.00  0.00    -0.014 A 
BRANCH  39  40
ATOM     40  C   UNL A   1      40.015  29.216  29.117  1.00  0.00     0.031 A 
ATOM     41  C   UNL A   1      38.944  30.244  29.116  1.00  0.00     0.074 A 
ATOM     42  C   UNL A   1      41.105  29.404  29.894  1.00  0.00     0.049 A 
ATOM     43  N   UNL A   1      39.133  31.492  29.394  1.00  0.00    -0.248 NA
ATOM     44  C   UNL A   1      37.558  29.939  28.774  1.00  0.00     0.031 C 
ATOM     45  C   UNL A   1      41.261  30.388  30.962  1.00  0.00     0.029 A 
ATOM     46  N   UNL A   1      42.372  28.837  29.764  1.00  0.00    -0.354 N 
ATOM     47  C   UNL A   1      37.897  32.076  29.549  1.00  0.00     0.074 A 
ATOM     48  C   UNL A   1      36.948  31.083  29.099  1.00  0.00     0.031 C 
ATOM     49  C   UNL A   1      42.564  30.526  31.247  1.00  0.00     0.029 A 
ATOM     50  C   UNL A   1      43.303  29.770  30.253  1.00  0.00     0.049 A 
ATOM     51  H   UNL A   1      42.576  27.946  29.397  1.00  0.00     0.167 HD
ATOM     52  C   UNL A   1      37.784  33.285  30.170  1.00  0.00     0.037 A 
ATOM     53  C   UNL A   1      44.267  30.305  29.443  1.00  0.00     0.037 A 
ATOM     54  C   UNL A   1      39.085  33.811  30.567  1.00  0.00     0.049 A 
ATOM     55  C   UNL A   1      44.196  31.805  29.294  1.00  0.00     0.074 A 
ATOM     56  C   UNL A   1      39.781  33.759  31.764  1.00  0.00     0.029 A 
ATOM     57  N   UNL A   1      39.992  34.230  29.601  1.00  0.00    -0.354 N 
ATOM     58  N   UNL A   1      43.148  32.518  29.590  1.00  0.00    -0.248 NA
ATOM     59  C   UNL A   1      45.292  32.616  28.770  1.00  0.00     0.031 C 
ATOM     60  C   UNL A   1      41.126  34.108  31.507  1.00  0.00     0.029 A 
ATOM     61  C   UNL A   1      41.249  34.377  30.156  1.00  0.00     0.049 A 
ATOM     62  H   UNL A   1      39.771  34.398  28.657  1.00  0.00     0.167 HD
ATOM     63  C   UNL A   1      43.370  33.826  29.242  1.00  0.00     0.074 A 
ATOM     64  C   UNL A   1      44.742  33.843  28.776  1.00  0.00     0.031 C 
ATOM     65  C   UNL A   1      42.391  34.773  29.346  1.00  0.00     0.037 A 
BRANCH  52  66
ATOM     66  C   UNL A   1      36.464  33.817  30.682  1.00  0.00     0.058 A 
ATOM     67  C   UNL A   1      35.469  34.278  29.793  1.00  0.00     0.135 A 
ATOM     68  C   UNL A   1      36.144  33.941  32.049  1.00  0.00     0.135 A 
ATOM     69  F   UNL A   1      35.598  34.154  28.466  1.00  0.00    -0.206 F 
ATOM     70  C   UNL A   1      34.303  34.911  30.222  1.00  0.00     0.059 A 
ATOM     71  C   UNL A   1      35.006  34.618  32.504  1.00  0.00     0.059 A 
ATOM     72  F   UNL A   1      36.925  33.392  32.991  1.00  0.00    -0.206 F 
ATOM     73  C   UNL A   1      34.094  35.110  31.578  1.00  0.00     0.060 A 
BRANCH  73  74
ATOM     74  S   UNL A   1      32.634  36.031  32.097  1.00  0.00     0.124 S 
ATOM     75  O   UNL A   1      32.237  36.703  30.863  1.00  0.00    -0.237 OA
ATOM     76  O   UNL A   1      31.748  34.964  32.552  1.00  0.00    -0.237 OA
ATOM     77  O   UNL A   1      33.144  36.914  33.144  1.00  0.00    -0.744 OA
ENDBRANCH  73  74
ENDBRANCH  52  66
BRANCH  53  78
ATOM     78  C   UNL A   1      44.721  29.375  28.377  1.00  0.00     0.058 A 
ATOM     79  C   UNL A   1      45.638  28.374  28.740  1.00  0.00     0.135 A 
ATOM     80  C   UNL A   1      43.964  29.180  27.212  1.00  0.00     0.135 A 
ATOM     81  F   UNL A   1      46.392  28.516  29.843  1.00  0.00    -0.206 F 
ATOM     82  C   UNL A   1      45.676  27.157  28.076  1.00  0.00     0.059 A 
ATOM     83  C   UNL A   1      43.993  27.963  26.528  1.00  0.00     0.059 A 
ATOM     84  F   UNL A   1      43.086  30.110  26.813  1.00  0.00    -0.206 F 
ATOM     85  C   UNL A   1      44.797  26.936  27.020  1.00  0.00     0.060 A 
BRANCH  85  86
ATOM     86  S   UNL A   1      44.596  25.231  26.456  1.00  0.00     0.124 S 
ATOM     87  O   UNL A   1      44.267  24.538  27.698  1.00  0.00    -0.237 OA
ATOM     88  O   UNL A   1      43.496  25.372  25.506  1.00  0.00    -0.237 OA
ATOM     89  O   UNL A   1      45.896  24.914  25.876  1.00  0.00    -0.744 OA
ENDBRANCH  85  86
ENDBRANCH  53  78
BRANCH  65  90
ATOM     90  C   UNL A   1      42.455  36.174  28.787  1.00  0.00     0.058 A 
ATOM     91  C   UNL A   1      43.115  37.242  29.418  1.00  0.00     0.135 A 
ATOM     92  C   UNL A   1      41.945  36.452  27.494  1.00  0.00     0.135 A 
ATOM     93  F   UNL A   1      43.747  37.079  30.589  1.00  0.00    -0.206 F 
ATOM     94  C   UNL A   1      43.193  38.515  28.851  1.00  0.00     0.059 A 
ATOM     95  C   UNL A   1      42.062  37.700  26.885  1.00  0.00     0.059 A 
ATOM     96  F   UNL A   1      41.323  35.510  26.771  1.00  0.00    -0.206 F 
ATOM     97  C   UNL A   1      42.661  38.736  27.585  1.00  0.00     0.060 A 
BRANCH  97  98
ATOM     98  S   UNL A   1      42.802  40.363  26.822  1.00  0.00     0.124 S 
ATOM     99  O   UNL A   1      43.234  41.178  27.953  1.00  0.00    -0.237 OA
ATOM    100  O   UNL A   1      43.803  40.150  25.780  1.00  0.00    -0.237 OA
ATOM    101  O   UNL A   1      41.450  40.618  26.336  1.00  0.00    -0.744 OA
ENDBRANCH  97  98
ENDBRANCH  65  90
ENDBRANCH  39  40
ENDBRANCH  31  34
ENDBRANCH  29  30
ENDBRANCH   1  29
TORSDOF 17
ENDMDL
MODEL 3
REMARK VINA RESULT:     -13.8      0.937      1.775
REMARK SMILES Cc1ccc(-c2c(C(=O)NCCCCNC(=O)c3ccc(-c4c5nc(c(-c6c(F)cc(S(=O)(=O)[O-])cc6F)c6ccc([nH]6)c(-c6c(F)cc(S(=O)(=O)[O-])cc6F)c6nc(c(-c7c(F)cc(S(=O)(=O)[O-])cc7F)c7ccc4[nH]7)C=C6)C=C5)cc3)nnn2Cc2c(F)cccc2Cl)cc1
REMARK SMILES IDX 13 1 12 2 11 3 10 4 8 5 9 6 7 8 6 9 86 10 84 11 85 12 5 13
REMARK SMILES IDX 1 14 2 15 3 16 97 17 4 18 96 19 87 20 88 21 89 22 94 23
REMARK SMILES IDX 90 24 91 25 93 26 95 27 92 28 14 29 15 30 16 31 17 33 18 34
REMARK SMILES IDX 19 35 83 36 20 37 82 38 21 39 22 40 23 41 76 42 24 43 81 44
REMARK SMILES IDX 75 45 77 46 25 47 80 48 74 49 73 50 26 52 60 53 39 54 59 55
REMARK SMILES IDX 40 56 43 57 58 58 78 59 41 60 42 61 57 63 79 64 44 65 27 66
REMARK SMILES IDX 28 67 37 68 29 69 30 70 36 71 38 72 31 73 32 74 33 75 34 76
REMARK SMILES IDX 35 77 61 78 62 79 71 80 63 81 64 82 70 83 72 84 65 85 66 86
REMARK SMILES IDX 67 87 68 88 69 89 45 90 46 91 55 92 47 93 48 94 54 95 56 96
REMARK SMILES IDX 49 97 50 98 51 99 52 100 53 101
REMARK H PARENT 10 7 15 32 77 51 43 62
REMARK Flexibility Score: inf
ROOT
ATOM      1  C   UNL A   1      33.860  29.027  26.158  1.00  0.00     0.023 C 
ENDROOT
BRANCH   1   2
ATOM      2  C   UNL A   1      32.741  29.850  25.507  1.00  0.00     0.023 C 
BRANCH   2   3
ATOM      3  C   UNL A   1      32.066  29.140  24.327  1.00  0.00     0.116 C 
BRANCH   3   4
ATOM      4  N   UNL A   1      33.020  28.713  23.334  1.00  0.00    -0.351 N 
ATOM      5  C   UNL A   1      33.303  27.519  22.727  1.00  0.00     0.274 C 
ATOM      6  O   UNL A   1      34.166  27.617  21.844  1.00  0.00    -0.267 OA
ATOM      7  H   UNL A   1      33.598  29.446  23.021  1.00  0.00     0.163 HD
BRANCH   5   8
ATOM      8  C   UNL A   1      32.687  26.213  23.008  1.00  0.00     0.178 A 
ATOM      9  C   UNL A   1      33.079  24.979  23.539  1.00  0.00     0.102 A 
ATOM     10  N   UNL A   1      31.911  24.232  23.505  1.00  0.00    -0.239 N 
ATOM     11  N   UNL A   1      31.360  26.090  22.604  1.00  0.00    -0.124 NA
ATOM     12  N   UNL A   1      30.923  24.880  22.875  1.00  0.00    -0.066 NA
BRANCH   9  13
ATOM     13  C   UNL A   1      34.320  24.392  24.022  1.00  0.00     0.002 A 
ATOM     14  C   UNL A   1      38.066  22.772  25.421  1.00  0.00     0.044 C 
ATOM     15  C   UNL A   1      36.785  23.372  24.918  1.00  0.00    -0.051 A 
ATOM     16  C   UNL A   1      36.304  23.041  23.648  1.00  0.00     0.004 A 
ATOM     17  C   UNL A   1      36.024  24.212  25.737  1.00  0.00     0.004 A 
ATOM     18  C   UNL A   1      35.090  23.561  23.198  1.00  0.00     0.011 A 
ATOM     19  C   UNL A   1      34.803  24.724  25.292  1.00  0.00     0.011 A 
ENDBRANCH   9  13
BRANCH  10  20
ATOM     20  C   UNL A   1      31.658  22.855  23.919  1.00  0.00     0.187 C 
BRANCH  20  21
ATOM     21  C   UNL A   1      32.292  22.420  25.216  1.00  0.00     0.028 A 
ATOM     22  C   UNL A   1      33.205  21.356  25.153  1.00  0.00     0.129 A 
ATOM     23  C   UNL A   1      32.010  22.944  26.486  1.00  0.00     0.049 A 
ATOM     24  F   UNL A   1      33.439  20.753  23.977  1.00  0.00    -0.207 F 
ATOM     25  C   UNL A   1      33.875  20.881  26.277  1.00  0.00     0.040 A 
ATOM     26  C   UNL A   1      32.705  22.493  27.617  1.00  0.00     0.021 A 
ATOM     27  Cl  UNL A   1      30.803  24.146  26.762  1.00  0.00    -0.084 Cl
ATOM     28  C   UNL A   1      33.644  21.468  27.513  1.00  0.00     0.005 A 
ENDBRANCH  20  21
ENDBRANCH  10  20
ENDBRANCH   5   8
ENDBRANCH   3   4
ENDBRANCH   2   3
ENDBRANCH   1   2
BRANCH   1  29
ATOM     29  C   UNL A   1      34.280  29.575  27.519  1.00  0.00     0.116 C 
BRANCH  29  30
ATOM     30  N   UNL A   1      35.006  30.830  27.490  1.00  0.00    -0.352 N 
ATOM     31  C   UNL A   1      36.306  31.061  27.919  1.00  0.00     0.251 C 
ATOM     32  H   UNL A   1      34.522  31.605  27.124  1.00  0.00     0.163 HD
ATOM     33  O   UNL A   1      36.699  32.184  28.178  1.00  0.00    -0.269 OA
BRANCH  31  34
ATOM     34  C   UNL A   1      37.243  29.909  27.926  1.00  0.00     0.039 A 
ATOM     35  C   UNL A   1      37.283  29.118  29.082  1.00  0.00     0.014 A 
ATOM     36  C   UNL A   1      38.217  29.767  26.942  1.00  0.00     0.014 A 
ATOM     37  C   UNL A   1      38.396  28.315  29.335  1.00  0.00     0.010 A 
ATOM     38  C   UNL A   1      39.360  29.050  27.237  1.00  0.00     0.010 A 
ATOM     39  C   UNL A   1      39.469  28.348  28.446  1.00  0.00    -0.014 A 
BRANCH  39  40
ATOM     40  C   UNL A   1      40.779  27.759  28.707  1.00  0.00     0.031 A 
ATOM     41  C   UNL A   1      41.078  26.365  28.292  1.00  0.00     0.074 A 
ATOM     42  C   UNL A   1      41.782  28.535  29.175  1.00  0.00     0.049 A 
ATOM     43  N   UNL A   1      42.061  25.664  28.754  1.00  0.00    -0.248 NA
ATOM     44  C   UNL A   1      40.265  25.638  27.321  1.00  0.00     0.031 C 
ATOM     45  C   UNL A   1      43.214  28.265  29.084  1.00  0.00     0.029 A 
ATOM     46  N   UNL A   1      41.697  29.668  29.982  1.00  0.00    -0.354 N 
ATOM     47  C   UNL A   1      42.182  24.545  27.963  1.00  0.00     0.074 A 
ATOM     48  C   UNL A   1      41.009  24.546  27.119  1.00  0.00     0.031 C 
ATOM     49  C   UNL A   1      43.865  29.045  29.960  1.00  0.00     0.029 A 
ATOM     50  C   UNL A   1      42.861  29.713  30.769  1.00  0.00     0.049 A 
ATOM     51  H   UNL A   1      40.958  30.318  29.997  1.00  0.00     0.167 HD
ATOM     52  C   UNL A   1      43.326  23.802  27.999  1.00  0.00     0.037 A 
ATOM     53  C   UNL A   1      42.803  29.639  32.133  1.00  0.00     0.037 A 
ATOM     54  C   UNL A   1      44.286  24.335  28.959  1.00  0.00     0.049 A 
ATOM     55  C   UNL A   1      43.529  28.457  32.727  1.00  0.00     0.074 A 
ATOM     56  C   UNL A   1      45.369  25.186  28.813  1.00  0.00     0.029 A 
ATOM     57  N   UNL A   1      44.023  24.260  30.321  1.00  0.00    -0.354 N 
ATOM     58  N   UNL A   1      43.884  27.404  32.049  1.00  0.00    -0.248 NA
ATOM     59  C   UNL A   1      43.884  28.357  34.141  1.00  0.00     0.031 C 
ATOM     60  C   UNL A   1      45.734  25.660  30.094  1.00  0.00     0.029 A 
ATOM     61  C   UNL A   1      44.876  25.094  31.020  1.00  0.00     0.049 A 
ATOM     62  H   UNL A   1      43.330  23.694  30.730  1.00  0.00     0.167 HD
ATOM     63  C   UNL A   1      44.425  26.474  32.899  1.00  0.00     0.074 A 
ATOM     64  C   UNL A   1      44.444  27.136  34.188  1.00  0.00     0.031 C 
ATOM     65  C   UNL A   1      44.784  25.229  32.466  1.00  0.00     0.037 A 
BRANCH  52  66
ATOM     66  C   UNL A   1      43.672  22.788  26.931  1.00  0.00     0.058 A 
ATOM     67  C   UNL A   1      42.938  21.589  26.799  1.00  0.00     0.135 A 
ATOM     68  C   UNL A   1      44.753  22.924  26.038  1.00  0.00     0.135 A 
ATOM     69  F   UNL A   1      41.838  21.353  27.526  1.00  0.00    -0.206 F 
ATOM     70  C   UNL A   1      43.310  20.563  25.932  1.00  0.00     0.059 A 
ATOM     71  C   UNL A   1      45.177  21.890  25.195  1.00  0.00     0.059 A 
ATOM     72  F   UNL A   1      45.426  24.081  25.944  1.00  0.00    -0.206 F 
ATOM     73  C   UNL A   1      44.453  20.705  25.158  1.00  0.00     0.060 A 
BRANCH  73  74
ATOM     74  S   UNL A   1      44.972  19.318  24.130  1.00  0.00     0.124 S 
ATOM     75  O   UNL A   1      46.428  19.424  24.181  1.00  0.00    -0.237 OA
ATOM     76  O   UNL A   1      44.394  18.182  24.839  1.00  0.00    -0.237 OA
ATOM     77  O   UNL A   1      44.377  19.619  22.830  1.00  0.00    -0.744 OA
ENDBRANCH  73  74
ENDBRANCH  52  66
BRANCH  53  78
ATOM     78  C   UNL A   1      41.567  30.238  32.700  1.00  0.00     0.058 A 
ATOM     79  C   UNL A   1      40.638  29.365  33.290  1.00  0.00     0.135 A 
ATOM     80  C   UNL A   1      41.514  31.593  33.060  1.00  0.00     0.135 A 
ATOM     81  F   UNL A   1      40.641  28.059  32.973  1.00  0.00    -0.206 F 
ATOM     82  C   UNL A   1      39.810  29.783  34.322  1.00  0.00     0.059 A 
ATOM     83  C   UNL A   1      40.685  32.033  34.093  1.00  0.00     0.059 A 
ATOM     84  F   UNL A   1      42.368  32.470  32.516  1.00  0.00    -0.206 F 
ATOM     85  C   UNL A   1      39.897  31.100  34.765  1.00  0.00     0.060 A 
BRANCH  85  86
ATOM     86  S   UNL A   1      39.115  31.491  36.347  1.00  0.00     0.124 S 
ATOM     87  O   UNL A   1      40.271  31.668  37.220  1.00  0.00    -0.237 OA
ATOM     88  O   UNL A   1      38.389  32.714  36.012  1.00  0.00    -0.237 OA
ATOM     89  O   UNL A   1      38.291  30.318  36.613  1.00  0.00    -0.744 OA
ENDBRANCH  85  86
ENDBRANCH  53  78
BRANCH  65  90
ATOM     90  C   UNL A   1      45.174  24.065  33.346  1.00  0.00     0.058 A 
ATOM     91  C   UNL A   1      46.423  23.940  33.976  1.00  0.00     0.135 A 
ATOM     92  C   UNL A   1      44.217  23.079  33.692  1.00  0.00     0.135 A 
ATOM     93  F   UNL A   1      47.376  24.872  33.830  1.00  0.00    -0.206 F 
ATOM     94  C   UNL A   1      46.734  22.873  34.820  1.00  0.00     0.059 A 
ATOM     95  C   UNL A   1      44.487  22.037  34.576  1.00  0.00     0.059 A 
ATOM     96  F   UNL A   1      42.974  23.103  33.186  1.00  0.00    -0.206 F 
ATOM     97  C   UNL A   1      45.761  21.924  35.113  1.00  0.00     0.060 A 
BRANCH  97  98
ATOM     98  S   UNL A   1      46.135  20.571  36.242  1.00  0.00     0.124 S 
ATOM     99  O   UNL A   1      45.658  21.110  37.511  1.00  0.00    -0.237 OA
ATOM    100  O   UNL A   1      45.355  19.463  35.696  1.00  0.00    -0.237 OA
ATOM    101  O   UNL A   1      47.582  20.427  36.118  1.00  0.00    -0.744 OA
ENDBRANCH  97  98
ENDBRANCH  65  90
ENDBRANCH  39  40
ENDBRANCH  31  34
ENDBRANCH  29  30
ENDBRANCH   1  29
TORSDOF 17
ENDMDL
