MODEL 1
REMARK VINA RESULT:     -13.4      0.000      0.000
REMARK SMILES Cc1ccccc1NC(=O)NC[C@@H]1CC[C@@H](C(=O)NCCCCNC(=O)c2ccc(-c3c4nc(c(-c5c(F)cc(S(=O)(=O)[O-])cc5F)c5ccc([nH]5)c(-c5c(F)cc(S(=O)(=O)[O-])cc5F)c5nc(c(-c6c(F)cc(S(=O)(=O)[O-])cc6F)c6ccc3[nH]6)C=C5)C=C4)cc2)O1
REMARK SMILES IDX 21 1 20 2 19 3 17 4 18 5 16 7 13 8 14 9 93 10 15 11 12 12
REMARK SMILES IDX 11 13 8 14 9 15 10 17 7 19 1 20 2 21 3 22 4 23 6 24 5 25
REMARK SMILES IDX 22 26 23 27 24 28 25 29 26 31 27 32 28 33 92 34 29 35 91 36
REMARK SMILES IDX 30 37 31 38 32 39 85 40 33 41 90 42 84 43 86 44 34 45 89 46
REMARK SMILES IDX 83 47 82 48 35 50 69 51 48 52 68 53 49 54 52 55 67 56 87 57
REMARK SMILES IDX 50 58 51 59 66 61 88 62 53 63 36 64 37 65 46 66 38 67 39 68
REMARK SMILES IDX 45 69 47 70 40 71 41 72 42 73 43 74 44 75 70 76 71 77 80 78
REMARK SMILES IDX 72 79 73 80 79 81 81 82 74 83 75 84 76 85 77 86 78 87 54 88
REMARK SMILES IDX 55 89 64 90 56 91 57 92 63 93 65 94 58 95 59 96 60 97 61 98
REMARK SMILES IDX 62 99
REMARK H PARENT 19 6 8 16 11 18 24 30 86 49 52 60
REMARK Flexibility Score: inf
ROOT
ATOM      1  C   UNL A   1      36.488  21.370  25.658  1.00  0.00     0.023 C 
ENDROOT
BRANCH   1   2
ATOM      2  C   UNL A   1      35.149  21.617  24.937  1.00  0.00     0.116 C 
BRANCH   2   3
ATOM      3  N   UNL A   1      35.202  22.753  24.026  1.00  0.00    -0.354 N 
ATOM      4  C   UNL A   1      34.251  23.620  23.570  1.00  0.00     0.249 C 
ATOM      5  O   UNL A   1      34.627  24.467  22.753  1.00  0.00    -0.272 OA
ATOM      6  H   UNL A   1      36.102  22.931  23.669  1.00  0.00     0.163 HD
BRANCH   4   7
ATOM      7  C   UNL A   1      32.792  23.596  24.091  1.00  0.00     0.207 C 
ATOM      8  C   UNL A   1      31.217  25.290  23.688  1.00  0.00     0.138 C 
ATOM      9  C   UNL A   1      30.551  23.961  23.418  1.00  0.00     0.037 C 
ATOM     10  O   UNL A   1      32.341  24.921  24.513  1.00  0.00    -0.363 OA
ATOM     11  C   UNL A   1      31.752  23.123  23.090  1.00  0.00     0.045 C 
BRANCH   8  12
ATOM     12  C   UNL A   1      30.282  26.323  24.345  1.00  0.00     0.149 C 
BRANCH  12  13
ATOM     13  N   UNL A   1      29.863  27.349  23.389  1.00  0.00    -0.335 N 
ATOM     14  N   UNL A   1      31.321  29.265  23.447  1.00  0.00    -0.308 N 
ATOM     15  C   UNL A   1      30.337  28.511  22.934  1.00  0.00     0.319 C 
ATOM     16  H   UNL A   1      31.648  29.908  22.776  1.00  0.00     0.171 HD
ATOM     17  O   UNL A   1      29.843  28.922  21.873  1.00  0.00    -0.249 OA
ATOM     18  H   UNL A   1      29.001  27.122  22.970  1.00  0.00     0.165 HD
BRANCH  14  19
ATOM     19  C   UNL A   1      32.027  29.412  24.655  1.00  0.00     0.045 A 
ATOM     20  C   UNL A   1      33.967  27.941  23.796  1.00  0.00     0.046 C 
ATOM     21  C   UNL A   1      33.234  28.708  24.866  1.00  0.00    -0.027 A 
ATOM     22  C   UNL A   1      33.888  28.804  26.115  1.00  0.00     0.005 A 
ATOM     23  C   UNL A   1      33.380  29.599  27.135  1.00  0.00     0.000 A 
ATOM     24  C   UNL A   1      31.625  30.302  25.640  1.00  0.00     0.026 A 
ATOM     25  C   UNL A   1      32.261  30.375  26.884  1.00  0.00     0.002 A 
ENDBRANCH  14  19
ENDBRANCH  12  13
ENDBRANCH   8  12
ENDBRANCH   4   7
ENDBRANCH   2   3
ENDBRANCH   1   2
BRANCH   1  26
ATOM     26  C   UNL A   1      37.664  22.211  25.148  1.00  0.00     0.023 C 
BRANCH  26  27
ATOM     27  C   UNL A   1      38.070  23.313  26.118  1.00  0.00     0.116 C 
BRANCH  27  28
ATOM     28  N   UNL A   1      39.241  23.018  26.929  1.00  0.00    -0.352 N 
ATOM     29  C   UNL A   1      40.081  23.938  27.533  1.00  0.00     0.251 C 
ATOM     30  H   UNL A   1      39.459  22.067  27.061  1.00  0.00     0.163 HD
ATOM     31  O   UNL A   1      41.184  23.633  27.974  1.00  0.00    -0.269 OA
BRANCH  29  32
ATOM     32  C   UNL A   1      39.530  25.291  27.752  1.00  0.00     0.039 A 
ATOM     33  C   UNL A   1      39.995  26.300  26.899  1.00  0.00     0.014 A 
ATOM     34  C   UNL A   1      38.894  25.598  28.953  1.00  0.00     0.014 A 
ATOM     35  C   UNL A   1      40.015  27.617  27.347  1.00  0.00     0.010 A 
ATOM     36  C   UNL A   1      38.987  26.895  29.425  1.00  0.00     0.010 A 
ATOM     37  C   UNL A   1      39.609  27.889  28.650  1.00  0.00    -0.014 A 
BRANCH  37  38
ATOM     38  C   UNL A   1      39.893  29.143  29.344  1.00  0.00     0.031 A 
ATOM     39  C   UNL A   1      38.938  30.269  29.248  1.00  0.00     0.074 A 
ATOM     40  C   UNL A   1      40.955  29.229  30.178  1.00  0.00     0.049 A 
ATOM     41  N   UNL A   1      39.126  31.424  29.788  1.00  0.00    -0.248 NA
ATOM     42  C   UNL A   1      37.708  30.201  28.460  1.00  0.00     0.031 C 
ATOM     43  C   UNL A   1      41.172  30.205  31.244  1.00  0.00     0.029 A 
ATOM     44  N   UNL A   1      42.190  28.583  30.050  1.00  0.00    -0.354 N 
ATOM     45  C   UNL A   1      37.961  32.137  29.668  1.00  0.00     0.074 A 
ATOM     46  C   UNL A   1      37.156  31.387  28.741  1.00  0.00     0.031 C 
ATOM     47  C   UNL A   1      42.485  30.294  31.496  1.00  0.00     0.029 A 
ATOM     48  C   UNL A   1      43.172  29.496  30.498  1.00  0.00     0.049 A 
ATOM     49  H   UNL A   1      42.344  27.670  29.715  1.00  0.00     0.167 HD
ATOM     50  C   UNL A   1      37.779  33.228  30.460  1.00  0.00     0.037 A 
ATOM     51  C   UNL A   1      44.103  29.986  29.625  1.00  0.00     0.037 A 
ATOM     52  C   UNL A   1      39.063  33.724  30.959  1.00  0.00     0.049 A 
ATOM     53  C   UNL A   1      43.983  31.470  29.332  1.00  0.00     0.074 A 
ATOM     54  C   UNL A   1      39.737  33.729  32.166  1.00  0.00     0.029 A 
ATOM     55  N   UNL A   1      39.985  34.137  30.010  1.00  0.00    -0.354 N 
ATOM     56  N   UNL A   1      43.122  32.270  29.901  1.00  0.00    -0.248 NA
ATOM     57  C   UNL A   1      44.789  32.157  28.320  1.00  0.00     0.031 C 
ATOM     58  C   UNL A   1      41.112  34.039  31.896  1.00  0.00     0.029 A 
ATOM     59  C   UNL A   1      41.253  34.262  30.538  1.00  0.00     0.049 A 
ATOM     60  H   UNL A   1      39.760  34.319  29.069  1.00  0.00     0.167 HD
ATOM     61  C   UNL A   1      43.195  33.509  29.320  1.00  0.00     0.074 A 
ATOM     62  C   UNL A   1      44.273  33.398  28.353  1.00  0.00     0.031 C 
ATOM     63  C   UNL A   1      42.349  34.535  29.622  1.00  0.00     0.037 A 
BRANCH  50  64
ATOM     64  C   UNL A   1      36.428  33.787  30.850  1.00  0.00     0.058 A 
ATOM     65  C   UNL A   1      35.562  34.318  29.870  1.00  0.00     0.135 A 
ATOM     66  C   UNL A   1      35.986  33.964  32.182  1.00  0.00     0.135 A 
ATOM     67  F   UNL A   1      35.874  34.256  28.567  1.00  0.00    -0.206 F 
ATOM     68  C   UNL A   1      34.364  34.971  30.188  1.00  0.00     0.059 A 
ATOM     69  C   UNL A   1      34.772  34.562  32.519  1.00  0.00     0.059 A 
ATOM     70  F   UNL A   1      36.741  33.638  33.238  1.00  0.00    -0.206 F 
ATOM     71  C   UNL A   1      33.979  35.091  31.517  1.00  0.00     0.060 A 
BRANCH  71  72
ATOM     72  S   UNL A   1      32.468  35.978  31.941  1.00  0.00     0.124 S 
ATOM     73  O   UNL A   1      31.678  34.930  32.579  1.00  0.00    -0.237 OA
ATOM     74  O   UNL A   1      32.957  37.034  32.820  1.00  0.00    -0.237 OA
ATOM     75  O   UNL A   1      31.967  36.434  30.646  1.00  0.00    -0.744 OA
ENDBRANCH  71  72
ENDBRANCH  50  64
BRANCH  51  76
ATOM     76  C   UNL A   1      44.602  28.929  28.700  1.00  0.00     0.058 A 
ATOM     77  C   UNL A   1      44.136  28.983  27.369  1.00  0.00     0.135 A 
ATOM     78  C   UNL A   1      45.807  28.257  28.939  1.00  0.00     0.135 A 
ATOM     79  F   UNL A   1      42.973  29.596  27.090  1.00  0.00    -0.206 F 
ATOM     80  C   UNL A   1      44.928  28.581  26.303  1.00  0.00     0.059 A 
ATOM     81  C   UNL A   1      46.613  27.828  27.882  1.00  0.00     0.059 A 
ATOM     82  F   UNL A   1      46.293  28.163  30.186  1.00  0.00    -0.206 F 
ATOM     83  C   UNL A   1      46.200  28.080  26.572  1.00  0.00     0.060 A 
BRANCH  83  84
ATOM     84  S   UNL A   1      47.366  27.984  25.192  1.00  0.00     0.124 S 
ATOM     85  O   UNL A   1      46.564  28.486  24.081  1.00  0.00    -0.237 OA
ATOM     86  O   UNL A   1      48.431  28.871  25.654  1.00  0.00    -0.237 OA
ATOM     87  O   UNL A   1      47.701  26.566  25.141  1.00  0.00    -0.744 OA
ENDBRANCH  83  84
ENDBRANCH  51  76
BRANCH  63  88
ATOM     88  C   UNL A   1      42.501  35.897  29.010  1.00  0.00     0.058 A 
ATOM     89  C   UNL A   1      41.868  36.232  27.802  1.00  0.00     0.135 A 
ATOM     90  C   UNL A   1      43.376  36.862  29.551  1.00  0.00     0.135 A 
ATOM     91  F   UNL A   1      41.040  35.361  27.203  1.00  0.00    -0.206 F 
ATOM     92  C   UNL A   1      42.071  37.460  27.176  1.00  0.00     0.059 A 
ATOM     93  C   UNL A   1      43.628  38.077  28.921  1.00  0.00     0.059 A 
ATOM     94  F   UNL A   1      43.990  36.657  30.726  1.00  0.00    -0.206 F 
ATOM     95  C   UNL A   1      42.955  38.377  27.741  1.00  0.00     0.060 A 
BRANCH  95  96
ATOM     96  S   UNL A   1      43.247  39.956  26.921  1.00  0.00     0.124 S 
ATOM     97  O   UNL A   1      42.025  40.148  26.144  1.00  0.00    -0.237 OA
ATOM     98  O   UNL A   1      43.412  40.849  28.064  1.00  0.00    -0.237 OA
ATOM     99  O   UNL A   1      44.449  39.707  26.132  1.00  0.00    -0.744 OA
ENDBRANCH  95  96
ENDBRANCH  63  88
ENDBRANCH  37  38
ENDBRANCH  29  32
ENDBRANCH  27  28
ENDBRANCH  26  27
ENDBRANCH   1  26
TORSDOF 17
ENDMDL
MODEL 2
REMARK VINA RESULT:     -13.4      4.788     11.286
REMARK SMILES Cc1ccccc1NC(=O)NC[C@@H]1CC[C@@H](C(=O)NCCCCNC(=O)c2ccc(-c3c4nc(c(-c5c(F)cc(S(=O)(=O)[O-])cc5F)c5ccc([nH]5)c(-c5c(F)cc(S(=O)(=O)[O-])cc5F)c5nc(c(-c6c(F)cc(S(=O)(=O)[O-])cc6F)c6ccc3[nH]6)C=C5)C=C4)cc2)O1
REMARK SMILES IDX 21 1 20 2 19 3 17 4 18 5 16 7 13 8 14 9 93 10 15 11 12 12
REMARK SMILES IDX 11 13 8 14 9 15 10 17 7 19 1 20 2 21 3 22 4 23 6 24 5 25
REMARK SMILES IDX 22 26 23 27 24 28 25 29 26 31 27 32 28 33 92 34 29 35 91 36
REMARK SMILES IDX 30 37 31 38 32 39 85 40 33 41 90 42 84 43 86 44 34 45 89 46
REMARK SMILES IDX 83 47 82 48 35 50 69 51 48 52 68 53 49 54 52 55 67 56 87 57
REMARK SMILES IDX 50 58 51 59 66 61 88 62 53 63 36 64 37 65 46 66 38 67 39 68
REMARK SMILES IDX 45 69 47 70 40 71 41 72 42 73 43 74 44 75 70 76 71 77 80 78
REMARK SMILES IDX 72 79 73 80 79 81 81 82 74 83 75 84 76 85 77 86 78 87 54 88
REMARK SMILES IDX 55 89 64 90 56 91 57 92 63 93 65 94 58 95 59 96 60 97 61 98
REMARK SMILES IDX 62 99
REMARK H PARENT 19 6 8 16 11 18 24 30 86 49 52 60
REMARK Flexibility Score: inf
ROOT
ATOM      1  C   UNL A   1      32.699  29.679  25.653  1.00  0.00     0.023 C 
ENDROOT
BRANCH   1   2
ATOM      2  C   UNL A   1      33.236  28.325  25.152  1.00  0.00     0.116 C 
BRANCH   2   3
ATOM      3  N   UNL A   1      33.865  28.419  23.841  1.00  0.00    -0.354 N 
ATOM      4  C   UNL A   1      33.501  27.970  22.604  1.00  0.00     0.249 C 
ATOM      5  O   UNL A   1      34.298  28.186  21.685  1.00  0.00    -0.272 OA
ATOM      6  H   UNL A   1      34.722  28.904  23.848  1.00  0.00     0.163 HD
BRANCH   4   7
ATOM      7  C   UNL A   1      32.136  27.285  22.341  1.00  0.00     0.207 C 
ATOM      8  C   UNL A   1      31.188  25.648  23.731  1.00  0.00     0.138 C 
ATOM      9  C   UNL A   1      30.113  26.658  23.400  1.00  0.00     0.037 C 
ATOM     10  O   UNL A   1      32.161  25.866  22.688  1.00  0.00    -0.363 OA
ATOM     11  C   UNL A   1      30.960  27.863  23.110  1.00  0.00     0.045 C 
BRANCH   8  12
ATOM     12  C   UNL A   1      30.669  24.199  23.797  1.00  0.00     0.149 C 
BRANCH  12  13
ATOM     13  N   UNL A   1      30.356  23.806  25.172  1.00  0.00    -0.335 N 
ATOM     14  N   UNL A   1      32.348  23.567  26.503  1.00  0.00    -0.308 N 
ATOM     15  C   UNL A   1      31.022  23.647  26.318  1.00  0.00     0.319 C 
ATOM     16  H   UNL A   1      32.575  23.729  27.447  1.00  0.00     0.171 HD
ATOM     17  O   UNL A   1      30.334  23.623  27.349  1.00  0.00    -0.249 OA
ATOM     18  H   UNL A   1      29.398  23.606  25.281  1.00  0.00     0.165 HD
BRANCH  14  19
ATOM     19  C   UNL A   1      33.513  23.321  25.753  1.00  0.00     0.045 A 
ATOM     20  C   UNL A   1      32.691  20.963  25.097  1.00  0.00     0.046 C 
ATOM     21  C   UNL A   1      33.729  22.053  25.166  1.00  0.00    -0.027 A 
ATOM     22  C   UNL A   1      34.941  21.797  24.485  1.00  0.00     0.005 A 
ATOM     23  C   UNL A   1      35.917  22.778  24.360  1.00  0.00     0.000 A 
ATOM     24  C   UNL A   1      34.444  24.315  25.489  1.00  0.00     0.026 A 
ATOM     25  C   UNL A   1      35.653  24.050  24.837  1.00  0.00     0.002 A 
ENDBRANCH  14  19
ENDBRANCH  12  13
ENDBRANCH   8  12
ENDBRANCH   4   7
ENDBRANCH   2   3
ENDBRANCH   1   2
BRANCH   1  26
ATOM     26  C   UNL A   1      33.168  30.085  27.056  1.00  0.00     0.023 C 
BRANCH  26  27
ATOM     27  C   UNL A   1      34.649  29.816  27.286  1.00  0.00     0.116 C 
BRANCH  27  28
ATOM     28  N   UNL A   1      35.455  30.998  27.549  1.00  0.00    -0.352 N 
ATOM     29  C   UNL A   1      36.688  31.034  28.178  1.00  0.00     0.251 C 
ATOM     30  H   UNL A   1      35.086  31.860  27.250  1.00  0.00     0.163 HD
ATOM     31  O   UNL A   1      37.184  32.075  28.598  1.00  0.00    -0.269 OA
BRANCH  29  32
ATOM     32  C   UNL A   1      37.456  29.773  28.199  1.00  0.00     0.039 A 
ATOM     33  C   UNL A   1      37.502  29.090  29.421  1.00  0.00     0.014 A 
ATOM     34  C   UNL A   1      38.370  29.496  27.184  1.00  0.00     0.014 A 
ATOM     35  C   UNL A   1      38.595  28.279  29.709  1.00  0.00     0.010 A 
ATOM     36  C   UNL A   1      39.491  28.752  27.502  1.00  0.00     0.010 A 
ATOM     37  C   UNL A   1      39.635  28.201  28.787  1.00  0.00    -0.014 A 
BRANCH  37  38
ATOM     38  C   UNL A   1      40.960  27.672  29.101  1.00  0.00     0.031 A 
ATOM     39  C   UNL A   1      41.292  26.271  28.762  1.00  0.00     0.074 A 
ATOM     40  C   UNL A   1      41.923  28.497  29.577  1.00  0.00     0.049 A 
ATOM     41  N   UNL A   1      42.417  25.707  29.040  1.00  0.00    -0.248 NA
ATOM     42  C   UNL A   1      40.335  25.359  28.136  1.00  0.00     0.031 C 
ATOM     43  C   UNL A   1      43.368  28.279  29.560  1.00  0.00     0.029 A 
ATOM     44  N   UNL A   1      41.754  29.606  30.412  1.00  0.00    -0.354 N 
ATOM     45  C   UNL A   1      42.444  24.492  28.405  1.00  0.00     0.074 A 
ATOM     46  C   UNL A   1      41.095  24.272  27.956  1.00  0.00     0.031 C 
ATOM     47  C   UNL A   1      43.933  29.021  30.523  1.00  0.00     0.029 A 
ATOM     48  C   UNL A   1      42.861  29.621  31.293  1.00  0.00     0.049 A 
ATOM     49  H   UNL A   1      41.010  30.251  30.391  1.00  0.00     0.167 HD
ATOM     50  C   UNL A   1      43.643  23.869  28.240  1.00  0.00     0.037 A 
ATOM     51  C   UNL A   1      42.674  29.434  32.634  1.00  0.00     0.037 A 
ATOM     52  C   UNL A   1      44.626  24.381  29.197  1.00  0.00     0.049 A 
ATOM     53  C   UNL A   1      43.254  28.143  33.183  1.00  0.00     0.074 A 
ATOM     54  C   UNL A   1      45.743  25.194  29.150  1.00  0.00     0.029 A 
ATOM     55  N   UNL A   1      44.333  24.217  30.541  1.00  0.00    -0.354 N 
ATOM     56  N   UNL A   1      43.948  27.286  32.484  1.00  0.00    -0.248 NA
ATOM     57  C   UNL A   1      43.040  27.687  34.558  1.00  0.00     0.031 C 
ATOM     58  C   UNL A   1      46.037  25.608  30.492  1.00  0.00     0.029 A 
ATOM     59  C   UNL A   1      45.126  25.010  31.345  1.00  0.00     0.049 A 
ATOM     60  H   UNL A   1      43.642  23.607  30.883  1.00  0.00     0.167 HD
ATOM     61  C   UNL A   1      44.208  26.178  33.247  1.00  0.00     0.074 A 
ATOM     62  C   UNL A   1      43.643  26.487  34.549  1.00  0.00     0.031 C 
ATOM     63  C   UNL A   1      44.823  25.059  32.767  1.00  0.00     0.037 A 
BRANCH  50  64
ATOM     64  C   UNL A   1      43.940  22.860  27.153  1.00  0.00     0.058 A 
ATOM     65  C   UNL A   1      43.196  21.664  27.063  1.00  0.00     0.135 A 
ATOM     66  C   UNL A   1      45.037  22.939  26.262  1.00  0.00     0.135 A 
ATOM     67  F   UNL A   1      42.153  21.436  27.874  1.00  0.00    -0.206 F 
ATOM     68  C   UNL A   1      43.517  20.635  26.166  1.00  0.00     0.059 A 
ATOM     69  C   UNL A   1      45.341  21.952  25.326  1.00  0.00     0.059 A 
ATOM     70  F   UNL A   1      45.922  23.942  26.301  1.00  0.00    -0.206 F 
ATOM     71  C   UNL A   1      44.595  20.787  25.303  1.00  0.00     0.060 A 
BRANCH  71  72
ATOM     72  S   UNL A   1      45.051  19.449  24.185  1.00  0.00     0.124 S 
ATOM     73  O   UNL A   1      44.403  18.303  24.816  1.00  0.00    -0.237 OA
ATOM     74  O   UNL A   1      44.480  19.888  22.917  1.00  0.00    -0.237 OA
ATOM     75  O   UNL A   1      46.511  19.445  24.238  1.00  0.00    -0.744 OA
ENDBRANCH  71  72
ENDBRANCH  50  64
BRANCH  51  76
ATOM     76  C   UNL A   1      41.467  30.154  33.129  1.00  0.00     0.058 A 
ATOM     77  C   UNL A   1      41.603  31.543  33.338  1.00  0.00     0.135 A 
ATOM     78  C   UNL A   1      40.177  29.652  32.919  1.00  0.00     0.135 A 
ATOM     79  F   UNL A   1      42.817  32.072  33.567  1.00  0.00    -0.206 F 
ATOM     80  C   UNL A   1      40.544  32.417  33.135  1.00  0.00     0.059 A 
ATOM     81  C   UNL A   1      39.093  30.512  32.729  1.00  0.00     0.059 A 
ATOM     82  F   UNL A   1      39.986  28.338  32.728  1.00  0.00    -0.206 F 
ATOM     83  C   UNL A   1      39.313  31.891  32.750  1.00  0.00     0.060 A 
BRANCH  83  84
ATOM     84  S   UNL A   1      38.093  33.039  32.067  1.00  0.00     0.124 S 
ATOM     85  O   UNL A   1      37.923  33.989  33.161  1.00  0.00    -0.237 OA
ATOM     86  O   UNL A   1      38.803  33.547  30.894  1.00  0.00    -0.237 OA
ATOM     87  O   UNL A   1      36.948  32.180  31.791  1.00  0.00    -0.744 OA
ENDBRANCH  83  84
ENDBRANCH  51  76
BRANCH  63  88
ATOM     88  C   UNL A   1      45.149  23.890  33.649  1.00  0.00     0.058 A 
ATOM     89  C   UNL A   1      46.417  23.746  34.236  1.00  0.00     0.135 A 
ATOM     90  C   UNL A   1      44.246  22.823  33.833  1.00  0.00     0.135 A 
ATOM     91  F   UNL A   1      47.348  24.702  34.087  1.00  0.00    -0.206 F 
ATOM     92  C   UNL A   1      46.763  22.622  34.982  1.00  0.00     0.059 A 
ATOM     93  C   UNL A   1      44.584  21.671  34.537  1.00  0.00     0.059 A 
ATOM     94  F   UNL A   1      42.994  22.886  33.353  1.00  0.00    -0.206 F 
ATOM     95  C   UNL A   1      45.841  21.587  35.126  1.00  0.00     0.060 A 
BRANCH  95  96
ATOM     96  S   UNL A   1      46.293  20.115  36.066  1.00  0.00     0.124 S 
ATOM     97  O   UNL A   1      45.772  20.409  37.398  1.00  0.00    -0.237 OA
ATOM     98  O   UNL A   1      45.584  19.073  35.328  1.00  0.00    -0.237 OA
ATOM     99  O   UNL A   1      47.748  20.086  35.963  1.00  0.00    -0.744 OA
ENDBRANCH  95  96
ENDBRANCH  63  88
ENDBRANCH  37  38
ENDBRANCH  29  32
ENDBRANCH  27  28
ENDBRANCH  26  27
ENDBRANCH   1  26
TORSDOF 17
ENDMDL
MODEL 3
REMARK VINA RESULT:     -13.3      1.226      1.892
REMARK SMILES Cc1ccccc1NC(=O)NC[C@@H]1CC[C@@H](C(=O)NCCCCNC(=O)c2ccc(-c3c4nc(c(-c5c(F)cc(S(=O)(=O)[O-])cc5F)c5ccc([nH]5)c(-c5c(F)cc(S(=O)(=O)[O-])cc5F)c5nc(c(-c6c(F)cc(S(=O)(=O)[O-])cc6F)c6ccc3[nH]6)C=C5)C=C4)cc2)O1
REMARK SMILES IDX 21 1 20 2 19 3 17 4 18 5 16 7 13 8 14 9 93 10 15 11 12 12
REMARK SMILES IDX 11 13 8 14 9 15 10 17 7 19 1 20 2 21 3 22 4 23 6 24 5 25
REMARK SMILES IDX 22 26 23 27 24 28 25 29 26 31 27 32 28 33 92 34 29 35 91 36
REMARK SMILES IDX 30 37 31 38 32 39 85 40 33 41 90 42 84 43 86 44 34 45 89 46
REMARK SMILES IDX 83 47 82 48 35 50 69 51 48 52 68 53 49 54 52 55 67 56 87 57
REMARK SMILES IDX 50 58 51 59 66 61 88 62 53 63 36 64 37 65 46 66 38 67 39 68
REMARK SMILES IDX 45 69 47 70 40 71 41 72 42 73 43 74 44 75 70 76 71 77 80 78
REMARK SMILES IDX 72 79 73 80 79 81 81 82 74 83 75 84 76 85 77 86 78 87 54 88
REMARK SMILES IDX 55 89 64 90 56 91 57 92 63 93 65 94 58 95 59 96 60 97 61 98
REMARK SMILES IDX 62 99
REMARK H PARENT 19 6 8 16 11 18 24 30 86 49 52 60
REMARK Flexibility Score: inf
ROOT
ATOM      1  C   UNL A   1      36.786  21.155  25.546  1.00  0.00     0.023 C 
ENDROOT
BRANCH   1   2
ATOM      2  C   UNL A   1      35.471  21.662  26.167  1.00  0.00     0.116 C 
BRANCH   2   3
ATOM      3  N   UNL A   1      34.323  20.840  25.805  1.00  0.00    -0.354 N 
ATOM      4  C   UNL A   1      32.992  21.112  25.677  1.00  0.00     0.249 C 
ATOM      5  O   UNL A   1      32.262  20.158  25.389  1.00  0.00    -0.272 OA
ATOM      6  H   UNL A   1      34.555  19.902  25.614  1.00  0.00     0.163 HD
BRANCH   4   7
ATOM      7  C   UNL A   1      32.424  22.547  25.817  1.00  0.00     0.207 C 
ATOM      8  C   UNL A   1      30.898  23.516  24.320  1.00  0.00     0.138 C 
ATOM      9  C   UNL A   1      30.408  23.786  25.723  1.00  0.00     0.037 C 
ATOM     10  O   UNL A   1      32.293  23.212  24.522  1.00  0.00    -0.363 OA
ATOM     11  C   UNL A   1      31.047  22.641  26.454  1.00  0.00     0.045 C 
BRANCH   8  12
ATOM     12  C   UNL A   1      30.657  24.688  23.349  1.00  0.00     0.149 C 
BRANCH  12  13
ATOM     13  N   UNL A   1      31.579  24.642  22.215  1.00  0.00    -0.335 N 
ATOM     14  N   UNL A   1      33.727  25.572  22.778  1.00  0.00    -0.308 N 
ATOM     15  C   UNL A   1      32.870  24.901  21.995  1.00  0.00     0.319 C 
ATOM     16  H   UNL A   1      34.657  25.379  22.517  1.00  0.00     0.171 HD
ATOM     17  O   UNL A   1      33.355  24.416  20.962  1.00  0.00    -0.249 OA
ATOM     18  H   UNL A   1      31.128  24.337  21.394  1.00  0.00     0.165 HD
BRANCH  14  19
ATOM     19  C   UNL A   1      33.698  26.470  23.861  1.00  0.00     0.045 A 
ATOM     20  C   UNL A   1      33.706  28.510  22.278  1.00  0.00     0.046 C 
ATOM     21  C   UNL A   1      33.788  27.863  23.636  1.00  0.00    -0.027 A 
ATOM     22  C   UNL A   1      33.839  28.745  24.739  1.00  0.00     0.005 A 
ATOM     23  C   UNL A   1      33.777  28.271  26.044  1.00  0.00     0.000 A 
ATOM     24  C   UNL A   1      33.498  26.045  25.167  1.00  0.00     0.026 A 
ATOM     25  C   UNL A   1      33.574  26.919  26.256  1.00  0.00     0.002 A 
ENDBRANCH  14  19
ENDBRANCH  12  13
ENDBRANCH   8  12
ENDBRANCH   4   7
ENDBRANCH   2   3
ENDBRANCH   1   2
BRANCH   1  26
ATOM     26  C   UNL A   1      37.738  22.253  25.056  1.00  0.00     0.023 C 
BRANCH  26  27
ATOM     27  C   UNL A   1      38.051  23.287  26.129  1.00  0.00     0.116 C 
BRANCH  27  28
ATOM     28  N   UNL A   1      39.224  22.998  26.939  1.00  0.00    -0.352 N 
ATOM     29  C   UNL A   1      40.073  23.922  27.524  1.00  0.00     0.251 C 
ATOM     30  H   UNL A   1      39.437  22.047  27.086  1.00  0.00     0.163 HD
ATOM     31  O   UNL A   1      41.176  23.617  27.966  1.00  0.00    -0.269 OA
BRANCH  29  32
ATOM     32  C   UNL A   1      39.532  25.282  27.724  1.00  0.00     0.039 A 
ATOM     33  C   UNL A   1      40.028  26.282  26.879  1.00  0.00     0.014 A 
ATOM     34  C   UNL A   1      38.870  25.601  28.909  1.00  0.00     0.014 A 
ATOM     35  C   UNL A   1      40.051  27.600  27.321  1.00  0.00     0.010 A 
ATOM     36  C   UNL A   1      38.966  26.899  29.377  1.00  0.00     0.010 A 
ATOM     37  C   UNL A   1      39.617  27.883  28.614  1.00  0.00    -0.014 A 
BRANCH  37  38
ATOM     38  C   UNL A   1      39.898  29.136  29.308  1.00  0.00     0.031 A 
ATOM     39  C   UNL A   1      38.950  30.267  29.199  1.00  0.00     0.074 A 
ATOM     40  C   UNL A   1      40.951  29.219  30.156  1.00  0.00     0.049 A 
ATOM     41  N   UNL A   1      39.136  31.422  29.739  1.00  0.00    -0.248 NA
ATOM     42  C   UNL A   1      37.729  30.203  28.395  1.00  0.00     0.031 C 
ATOM     43  C   UNL A   1      41.158  30.197  31.222  1.00  0.00     0.029 A 
ATOM     44  N   UNL A   1      42.183  28.567  30.044  1.00  0.00    -0.354 N 
ATOM     45  C   UNL A   1      37.976  32.140  29.603  1.00  0.00     0.074 A 
ATOM     46  C   UNL A   1      37.179  31.391  28.667  1.00  0.00     0.031 C 
ATOM     47  C   UNL A   1      42.469  30.280  31.490  1.00  0.00     0.029 A 
ATOM     48  C   UNL A   1      43.165  29.477  30.503  1.00  0.00     0.049 A 
ATOM     49  H   UNL A   1      42.338  27.653  29.712  1.00  0.00     0.167 HD
ATOM     50  C   UNL A   1      37.789  33.233  30.391  1.00  0.00     0.037 A 
ATOM     51  C   UNL A   1      44.108  29.961  29.640  1.00  0.00     0.037 A 
ATOM     52  C   UNL A   1      39.069  33.724  30.905  1.00  0.00     0.049 A 
ATOM     53  C   UNL A   1      43.998  31.445  29.343  1.00  0.00     0.074 A 
ATOM     54  C   UNL A   1      39.728  33.728  32.120  1.00  0.00     0.029 A 
ATOM     55  N   UNL A   1      40.004  34.131  29.967  1.00  0.00    -0.354 N 
ATOM     56  N   UNL A   1      43.134  32.251  29.900  1.00  0.00    -0.248 NA
ATOM     57  C   UNL A   1      44.820  32.127  28.341  1.00  0.00     0.031 C 
ATOM     58  C   UNL A   1      41.107  34.031  31.867  1.00  0.00     0.029 A 
ATOM     59  C   UNL A   1      41.266  34.251  30.510  1.00  0.00     0.049 A 
ATOM     60  H   UNL A   1      39.792  34.313  29.023  1.00  0.00     0.167 HD
ATOM     61  C   UNL A   1      43.220  33.488  29.318  1.00  0.00     0.074 A 
ATOM     62  C   UNL A   1      44.310  33.371  28.365  1.00  0.00     0.031 C 
ATOM     63  C   UNL A   1      42.375  34.518  29.607  1.00  0.00     0.037 A 
BRANCH  50  64
ATOM     64  C   UNL A   1      36.435  33.798  30.763  1.00  0.00     0.058 A 
ATOM     65  C   UNL A   1      35.583  34.329  29.771  1.00  0.00     0.135 A 
ATOM     66  C   UNL A   1      35.979  33.982  32.090  1.00  0.00     0.135 A 
ATOM     67  F   UNL A   1      35.909  34.261  28.472  1.00  0.00    -0.206 F 
ATOM     68  C   UNL A   1      34.384  34.988  30.073  1.00  0.00     0.059 A 
ATOM     69  C   UNL A   1      34.764  34.587  32.410  1.00  0.00     0.059 A 
ATOM     70  F   UNL A   1      36.721  33.658  33.155  1.00  0.00    -0.206 F 
ATOM     71  C   UNL A   1      33.984  35.115  31.397  1.00  0.00     0.060 A 
BRANCH  71  72
ATOM     72  S   UNL A   1      32.472  36.009  31.800  1.00  0.00     0.124 S 
ATOM     73  O   UNL A   1      31.971  36.357  30.475  1.00  0.00    -0.237 OA
ATOM     74  O   UNL A   1      31.700  35.012  32.533  1.00  0.00    -0.237 OA
ATOM     75  O   UNL A   1      32.946  37.135  32.601  1.00  0.00    -0.744 OA
ENDBRANCH  71  72
ENDBRANCH  50  64
BRANCH  51  76
ATOM     76  C   UNL A   1      44.614  28.901  28.724  1.00  0.00     0.058 A 
ATOM     77  C   UNL A   1      44.080  28.888  27.417  1.00  0.00     0.135 A 
ATOM     78  C   UNL A   1      45.862  28.297  28.921  1.00  0.00     0.135 A 
ATOM     79  F   UNL A   1      42.875  29.434  27.179  1.00  0.00    -0.206 F 
ATOM     80  C   UNL A   1      44.838  28.491  26.325  1.00  0.00     0.059 A 
ATOM     81  C   UNL A   1      46.636  27.874  27.837  1.00  0.00     0.059 A 
ATOM     82  F   UNL A   1      46.413  28.267  30.143  1.00  0.00    -0.206 F 
ATOM     83  C   UNL A   1      46.146  28.062  26.543  1.00  0.00     0.060 A 
BRANCH  83  84
ATOM     84  S   UNL A   1      47.245  27.978  25.109  1.00  0.00     0.124 S 
ATOM     85  O   UNL A   1      47.142  26.574  24.728  1.00  0.00    -0.237 OA
ATOM     86  O   UNL A   1      46.606  28.928  24.201  1.00  0.00    -0.237 OA
ATOM     87  O   UNL A   1      48.532  28.392  25.655  1.00  0.00    -0.744 OA
ENDBRANCH  83  84
ENDBRANCH  51  76
BRANCH  63  88
ATOM     88  C   UNL A   1      42.540  35.879  28.996  1.00  0.00     0.058 A 
ATOM     89  C   UNL A   1      43.213  36.909  29.673  1.00  0.00     0.135 A 
ATOM     90  C   UNL A   1      41.928  36.224  27.774  1.00  0.00     0.135 A 
ATOM     91  F   UNL A   1      43.800  36.675  30.857  1.00  0.00    -0.206 F 
ATOM     92  C   UNL A   1      43.295  38.201  29.159  1.00  0.00     0.059 A 
ATOM     93  C   UNL A   1      41.959  37.518  27.262  1.00  0.00     0.059 A 
ATOM     94  F   UNL A   1      41.303  35.300  27.028  1.00  0.00    -0.206 F 
ATOM     95  C   UNL A   1      42.663  38.498  27.952  1.00  0.00     0.060 A 
BRANCH  95  96
ATOM     96  S   UNL A   1      42.741  40.176  27.295  1.00  0.00     0.124 S 
ATOM     97  O   UNL A   1      41.336  40.576  27.264  1.00  0.00    -0.237 OA
ATOM     98  O   UNL A   1      43.563  40.842  28.300  1.00  0.00    -0.237 OA
ATOM     99  O   UNL A   1      43.362  39.994  25.987  1.00  0.00    -0.744 OA
ENDBRANCH  95  96
ENDBRANCH  63  88
ENDBRANCH  37  38
ENDBRANCH  29  32
ENDBRANCH  27  28
ENDBRANCH  26  27
ENDBRANCH   1  26
TORSDOF 17
ENDMDL
