MODEL 1
REMARK VINA RESULT:     -11.3      0.000      0.000
REMARK SMILES O=C(C[C@H]1CN(C(=O)c2sccc2Br)CCO1)NCCCCNC(=O)c1ccc(-c2c3nc(c(-c4c(F)cc(S(=O)(=O)[O-])cc4F)c4ccc([nH]4)c(-c4c(F)cc(S(=O)(=O)[O-])cc4F)c4nc(c(-c5c(F)cc(S(=O)(=O)[O-])cc5F)c5ccc2[nH]5)C=C4)C=C3)cc1
REMARK SMILES IDX 20 1 19 2 18 3 1 4 2 5 3 7 4 8 5 9 17 10 6 11 16 12 15 13
REMARK SMILES IDX 7 14 8 15 9 16 10 17 13 18 11 19 12 20 14 21 21 22 22 23
REMARK SMILES IDX 23 24 24 25 25 27 26 28 27 29 91 30 28 31 90 32 29 33 30 34
REMARK SMILES IDX 31 35 84 36 32 37 89 38 83 39 85 40 33 41 88 42 82 43 81 44
REMARK SMILES IDX 34 46 68 47 47 48 67 49 48 50 51 51 66 52 86 53 49 54 50 55
REMARK SMILES IDX 65 57 87 58 52 59 35 60 36 61 45 62 37 63 38 64 44 65 46 66
REMARK SMILES IDX 39 67 40 68 41 69 42 70 43 71 69 72 70 73 79 74 71 75 72 76
REMARK SMILES IDX 78 77 80 78 73 79 74 80 75 81 76 82 77 83 53 84 54 85 63 86
REMARK SMILES IDX 55 87 56 88 62 89 64 90 57 91 58 92 59 93 60 94 61 95
REMARK H PARENT 18 6 23 26 85 45 51 56
REMARK Flexibility Score: inf
ROOT
ATOM      1  C   UNL A   1      39.975  21.896  26.463  1.00  0.00     0.023 C 
ENDROOT
BRANCH   1   2
ATOM      2  C   UNL A   1      38.734  22.774  26.327  1.00  0.00     0.116 C 
BRANCH   2   3
ATOM      3  N   UNL A   1      37.541  22.008  26.007  1.00  0.00    -0.356 N 
ATOM      4  O   UNL A   1      36.118  23.771  25.945  1.00  0.00    -0.275 OA
ATOM      5  C   UNL A   1      36.325  22.577  25.745  1.00  0.00     0.222 C 
ATOM      6  H   UNL A   1      37.611  21.027  25.978  1.00  0.00     0.163 HD
BRANCH   5   7
ATOM      7  C   UNL A   1      35.212  21.636  25.285  1.00  0.00     0.133 C 
BRANCH   7   8
ATOM      8  C   UNL A   1      34.195  21.040  26.285  1.00  0.00     0.147 C 
ATOM      9  C   UNL A   1      33.327  21.951  27.156  1.00  0.00     0.152 C 
ATOM     10  O   UNL A   1      33.332  20.063  25.665  1.00  0.00    -0.374 OA
ATOM     11  N   UNL A   1      32.444  22.718  26.319  1.00  0.00    -0.333 N 
ATOM     12  C   UNL A   1      32.259  20.617  24.900  1.00  0.00     0.182 C 
ATOM     13  C   UNL A   1      31.564  21.857  25.507  1.00  0.00     0.148 C 
BRANCH  11  14
ATOM     14  C   UNL A   1      32.234  24.102  26.336  1.00  0.00     0.265 C 
ATOM     15  O   UNL A   1      31.512  24.517  27.256  1.00  0.00    -0.268 OA
BRANCH  14  16
ATOM     16  C   UNL A   1      32.825  25.072  25.381  1.00  0.00     0.106 A 
ATOM     17  S   UNL A   1      32.935  26.691  26.082  1.00  0.00    -0.137 S 
ATOM     18  C   UNL A   1      33.296  25.153  24.071  1.00  0.00     0.041 A 
ATOM     19  C   UNL A   1      33.497  27.404  24.653  1.00  0.00     0.067 A 
ATOM     20  C   UNL A   1      33.660  26.476  23.662  1.00  0.00     0.028 A 
ATOM     21  Br  UNL A   1      33.498  23.898  22.653  1.00  0.00    -0.049 Br
ENDBRANCH  14  16
ENDBRANCH  11  14
ENDBRANCH   7   8
ENDBRANCH   5   7
ENDBRANCH   2   3
ENDBRANCH   1   2
BRANCH   1  22
ATOM     22  C   UNL A   1      40.875  22.223  27.659  1.00  0.00     0.023 C 
BRANCH  22  23
ATOM     23  C   UNL A   1      42.098  23.083  27.349  1.00  0.00     0.116 C 
BRANCH  23  24
ATOM     24  N   UNL A   1      41.917  23.923  26.180  1.00  0.00    -0.352 N 
ATOM     25  C   UNL A   1      41.546  25.245  26.096  1.00  0.00     0.251 C 
ATOM     26  H   UNL A   1      42.085  23.479  25.317  1.00  0.00     0.163 HD
ATOM     27  O   UNL A   1      41.292  25.738  25.002  1.00  0.00    -0.269 OA
BRANCH  25  28
ATOM     28  C   UNL A   1      41.420  26.070  27.321  1.00  0.00     0.039 A 
ATOM     29  C   UNL A   1      42.426  26.995  27.613  1.00  0.00     0.014 A 
ATOM     30  C   UNL A   1      40.332  25.929  28.188  1.00  0.00     0.014 A 
ATOM     31  C   UNL A   1      42.305  27.826  28.731  1.00  0.00     0.010 A 
ATOM     32  C   UNL A   1      40.177  26.808  29.260  1.00  0.00     0.010 A 
ATOM     33  C   UNL A   1      41.160  27.771  29.544  1.00  0.00    -0.014 A 
BRANCH  33  34
ATOM     34  C   UNL A   1      40.975  28.721  30.674  1.00  0.00     0.031 A 
ATOM     35  C   UNL A   1      41.814  28.607  31.919  1.00  0.00     0.074 A 
ATOM     36  C   UNL A   1      40.014  29.665  30.600  1.00  0.00     0.049 A 
ATOM     37  N   UNL A   1      41.761  29.315  33.019  1.00  0.00    -0.248 NA
ATOM     38  C   UNL A   1      42.830  27.543  31.939  1.00  0.00     0.031 C 
ATOM     39  C   UNL A   1      39.102  29.856  29.469  1.00  0.00     0.029 A 
ATOM     40  N   UNL A   1      39.634  30.637  31.495  1.00  0.00    -0.354 N 
ATOM     41  C   UNL A   1      42.731  28.782  33.861  1.00  0.00     0.074 A 
ATOM     42  C   UNL A   1      43.316  27.654  33.168  1.00  0.00     0.031 C 
ATOM     43  C   UNL A   1      38.287  30.890  29.729  1.00  0.00     0.029 A 
ATOM     44  C   UNL A   1      38.585  31.411  31.060  1.00  0.00     0.049 A 
ATOM     45  H   UNL A   1      40.073  30.764  32.367  1.00  0.00     0.167 HD
ATOM     46  C   UNL A   1      43.117  29.208  35.089  1.00  0.00     0.037 A 
ATOM     47  C   UNL A   1      37.926  32.420  31.663  1.00  0.00     0.037 A 
ATOM     48  C   UNL A   1      42.539  30.338  35.771  1.00  0.00     0.049 A 
ATOM     49  C   UNL A   1      38.358  32.864  33.036  1.00  0.00     0.074 A 
ATOM     50  C   UNL A   1      42.891  30.874  36.998  1.00  0.00     0.029 A 
ATOM     51  N   UNL A   1      41.484  31.104  35.293  1.00  0.00    -0.354 N 
ATOM     52  N   UNL A   1      39.318  32.386  33.792  1.00  0.00    -0.248 NA
ATOM     53  C   UNL A   1      37.623  33.986  33.636  1.00  0.00     0.031 C 
ATOM     54  C   UNL A   1      42.017  31.927  37.286  1.00  0.00     0.029 A 
ATOM     55  C   UNL A   1      41.158  32.090  36.211  1.00  0.00     0.049 A 
ATOM     56  H   UNL A   1      41.035  30.966  34.428  1.00  0.00     0.167 HD
ATOM     57  C   UNL A   1      39.321  33.167  34.942  1.00  0.00     0.074 A 
ATOM     58  C   UNL A   1      38.275  34.156  34.777  1.00  0.00     0.031 C 
ATOM     59  C   UNL A   1      40.118  33.074  36.036  1.00  0.00     0.037 A 
BRANCH  46  60
ATOM     60  C   UNL A   1      44.220  28.447  35.777  1.00  0.00     0.058 A 
ATOM     61  C   UNL A   1      43.946  27.418  36.693  1.00  0.00     0.135 A 
ATOM     62  C   UNL A   1      45.567  28.723  35.491  1.00  0.00     0.135 A 
ATOM     63  F   UNL A   1      42.678  27.118  37.013  1.00  0.00    -0.206 F 
ATOM     64  C   UNL A   1      44.966  26.715  37.326  1.00  0.00     0.059 A 
ATOM     65  C   UNL A   1      46.604  28.011  36.089  1.00  0.00     0.059 A 
ATOM     66  F   UNL A   1      45.890  29.694  34.622  1.00  0.00    -0.206 F 
ATOM     67  C   UNL A   1      46.292  27.019  37.018  1.00  0.00     0.060 A 
BRANCH  67  68
ATOM     68  S   UNL A   1      47.603  26.098  37.850  1.00  0.00     0.124 S 
ATOM     69  O   UNL A   1      47.826  24.999  36.917  1.00  0.00    -0.237 OA
ATOM     70  O   UNL A   1      48.674  27.087  37.931  1.00  0.00    -0.237 OA
ATOM     71  O   UNL A   1      47.001  25.725  39.126  1.00  0.00    -0.744 OA
ENDBRANCH  67  68
ENDBRANCH  46  60
BRANCH  47  72
ATOM     72  C   UNL A   1      36.792  33.088  30.966  1.00  0.00     0.058 A 
ATOM     73  C   UNL A   1      35.462  32.834  31.334  1.00  0.00     0.135 A 
ATOM     74  C   UNL A   1      37.017  34.006  29.928  1.00  0.00     0.135 A 
ATOM     75  F   UNL A   1      35.193  31.959  32.315  1.00  0.00    -0.206 F 
ATOM     76  C   UNL A   1      34.396  33.453  30.689  1.00  0.00     0.059 A 
ATOM     77  C   UNL A   1      35.969  34.659  29.288  1.00  0.00     0.059 A 
ATOM     78  F   UNL A   1      38.271  34.296  29.548  1.00  0.00    -0.206 F 
ATOM     79  C   UNL A   1      34.661  34.369  29.669  1.00  0.00     0.060 A 
BRANCH  79  80
ATOM     80  S   UNL A   1      33.272  35.206  28.875  1.00  0.00     0.124 S 
ATOM     81  O   UNL A   1      33.945  36.294  28.175  1.00  0.00    -0.237 OA
ATOM     82  O   UNL A   1      32.718  34.150  28.035  1.00  0.00    -0.237 OA
ATOM     83  O   UNL A   1      32.432  35.605  30.001  1.00  0.00    -0.744 OA
ENDBRANCH  79  80
ENDBRANCH  47  72
BRANCH  59  84
ATOM     84  C   UNL A   1      39.921  34.088  37.131  1.00  0.00     0.058 A 
ATOM     85  C   UNL A   1      40.513  35.360  37.079  1.00  0.00     0.135 A 
ATOM     86  C   UNL A   1      39.086  33.800  38.223  1.00  0.00     0.135 A 
ATOM     87  F   UNL A   1      41.326  35.688  36.063  1.00  0.00    -0.206 F 
ATOM     88  C   UNL A   1      40.302  36.301  38.083  1.00  0.00     0.059 A 
ATOM     89  C   UNL A   1      38.836  34.737  39.221  1.00  0.00     0.059 A 
ATOM     90  F   UNL A   1      38.486  32.602  38.318  1.00  0.00    -0.206 F 
ATOM     91  C   UNL A   1      39.458  35.981  39.149  1.00  0.00     0.060 A 
BRANCH  91  92
ATOM     92  S   UNL A   1      39.167  37.224  40.425  1.00  0.00     0.124 S 
ATOM     93  O   UNL A   1      38.562  36.423  41.484  1.00  0.00    -0.237 OA
ATOM     94  O   UNL A   1      40.514  37.716  40.694  1.00  0.00    -0.237 OA
ATOM     95  O   UNL A   1      38.276  38.179  39.773  1.00  0.00    -0.744 OA
ENDBRANCH  91  92
ENDBRANCH  59  84
ENDBRANCH  33  34
ENDBRANCH  25  28
ENDBRANCH  23  24
ENDBRANCH  22  23
ENDBRANCH   1  22
TORSDOF 17
ENDMDL
MODEL 2
REMARK VINA RESULT:     -11.2      4.900     10.521
REMARK SMILES O=C(C[C@H]1CN(C(=O)c2sccc2Br)CCO1)NCCCCNC(=O)c1ccc(-c2c3nc(c(-c4c(F)cc(S(=O)(=O)[O-])cc4F)c4ccc([nH]4)c(-c4c(F)cc(S(=O)(=O)[O-])cc4F)c4nc(c(-c5c(F)cc(S(=O)(=O)[O-])cc5F)c5ccc2[nH]5)C=C4)C=C3)cc1
REMARK SMILES IDX 20 1 19 2 18 3 1 4 2 5 3 7 4 8 5 9 17 10 6 11 16 12 15 13
REMARK SMILES IDX 7 14 8 15 9 16 10 17 13 18 11 19 12 20 14 21 21 22 22 23
REMARK SMILES IDX 23 24 24 25 25 27 26 28 27 29 91 30 28 31 90 32 29 33 30 34
REMARK SMILES IDX 31 35 84 36 32 37 89 38 83 39 85 40 33 41 88 42 82 43 81 44
REMARK SMILES IDX 34 46 68 47 47 48 67 49 48 50 51 51 66 52 86 53 49 54 50 55
REMARK SMILES IDX 65 57 87 58 52 59 35 60 36 61 45 62 37 63 38 64 44 65 46 66
REMARK SMILES IDX 39 67 40 68 41 69 42 70 43 71 69 72 70 73 79 74 71 75 72 76
REMARK SMILES IDX 78 77 80 78 73 79 74 80 75 81 76 82 77 83 53 84 54 85 63 86
REMARK SMILES IDX 55 87 56 88 62 89 64 90 57 91 58 92 59 93 60 94 61 95
REMARK H PARENT 18 6 23 26 85 45 51 56
REMARK Flexibility Score: inf
ROOT
ATOM      1  C   UNL A   1      32.246  27.391  25.226  1.00  0.00     0.023 C 
ENDROOT
BRANCH   1   2
ATOM      2  C   UNL A   1      32.378  26.643  23.902  1.00  0.00     0.116 C 
BRANCH   2   3
ATOM      3  N   UNL A   1      33.138  25.411  24.031  1.00  0.00    -0.356 N 
ATOM      4  O   UNL A   1      33.684  25.221  21.840  1.00  0.00    -0.275 OA
ATOM      5  C   UNL A   1      33.821  24.833  22.998  1.00  0.00     0.222 C 
ATOM      6  H   UNL A   1      33.162  24.969  24.910  1.00  0.00     0.163 HD
BRANCH   5   7
ATOM      7  C   UNL A   1      34.686  23.620  23.339  1.00  0.00     0.133 C 
BRANCH   7   8
ATOM      8  C   UNL A   1      35.489  23.549  24.659  1.00  0.00     0.147 C 
ATOM      9  C   UNL A   1      35.003  22.686  25.825  1.00  0.00     0.152 C 
ATOM     10  O   UNL A   1      36.882  23.245  24.431  1.00  0.00    -0.374 OA
ATOM     11  N   UNL A   1      35.018  21.300  25.440  1.00  0.00    -0.333 N 
ATOM     12  C   UNL A   1      37.157  21.864  24.185  1.00  0.00     0.182 C 
ATOM     13  C   UNL A   1      36.367  20.851  25.046  1.00  0.00     0.148 C 
BRANCH  11  14
ATOM     14  C   UNL A   1      33.986  20.364  25.566  1.00  0.00     0.265 C 
ATOM     15  O   UNL A   1      33.338  20.429  26.622  1.00  0.00    -0.268 OA
BRANCH  14  16
ATOM     16  C   UNL A   1      33.609  19.358  24.542  1.00  0.00     0.106 A 
ATOM     17  S   UNL A   1      32.464  20.021  23.370  1.00  0.00    -0.137 S 
ATOM     18  C   UNL A   1      33.822  18.022  24.205  1.00  0.00     0.041 A 
ATOM     19  C   UNL A   1      32.254  18.549  22.561  1.00  0.00     0.067 A 
ATOM     20  C   UNL A   1      33.042  17.568  23.094  1.00  0.00     0.028 A 
ATOM     21  Br  UNL A   1      34.876  16.619  24.945  1.00  0.00    -0.049 Br
ENDBRANCH  14  16
ENDBRANCH  11  14
ENDBRANCH   7   8
ENDBRANCH   5   7
ENDBRANCH   2   3
ENDBRANCH   1   2
BRANCH   1  22
ATOM     22  C   UNL A   1      33.539  28.030  25.744  1.00  0.00     0.023 C 
BRANCH  22  23
ATOM     23  C   UNL A   1      33.588  28.297  27.247  1.00  0.00     0.116 C 
BRANCH  23  24
ATOM     24  N   UNL A   1      33.506  29.709  27.572  1.00  0.00    -0.352 N 
ATOM     25  C   UNL A   1      34.446  30.536  28.143  1.00  0.00     0.251 C 
ATOM     26  H   UNL A   1      32.648  30.139  27.353  1.00  0.00     0.163 HD
ATOM     27  O   UNL A   1      34.131  31.670  28.486  1.00  0.00    -0.269 OA
BRANCH  25  28
ATOM     28  C   UNL A   1      35.829  30.055  28.374  1.00  0.00     0.039 A 
ATOM     29  C   UNL A   1      36.737  30.091  27.312  1.00  0.00     0.014 A 
ATOM     30  C   UNL A   1      36.231  29.557  29.617  1.00  0.00     0.014 A 
ATOM     31  C   UNL A   1      38.064  29.698  27.517  1.00  0.00     0.010 A 
ATOM     32  C   UNL A   1      37.571  29.235  29.838  1.00  0.00     0.010 A 
ATOM     33  C   UNL A   1      38.505  29.305  28.791  1.00  0.00    -0.014 A 
BRANCH  33  34
ATOM     34  C   UNL A   1      39.937  28.984  29.041  1.00  0.00     0.031 A 
ATOM     35  C   UNL A   1      40.870  30.024  29.603  1.00  0.00     0.074 A 
ATOM     36  C   UNL A   1      40.413  27.764  28.717  1.00  0.00     0.049 A 
ATOM     37  N   UNL A   1      42.155  29.938  29.842  1.00  0.00    -0.248 NA
ATOM     38  C   UNL A   1      40.289  31.338  29.916  1.00  0.00     0.031 C 
ATOM     39  C   UNL A   1      39.625  26.680  28.124  1.00  0.00     0.029 A 
ATOM     40  N   UNL A   1      41.674  27.230  28.829  1.00  0.00    -0.354 N 
ATOM     41  C   UNL A   1      42.535  31.184  30.329  1.00  0.00     0.074 A 
ATOM     42  C   UNL A   1      41.358  32.025  30.295  1.00  0.00     0.031 C 
ATOM     43  C   UNL A   1      40.414  25.608  27.947  1.00  0.00     0.029 A 
ATOM     44  C   UNL A   1      41.771  25.937  28.370  1.00  0.00     0.049 A 
ATOM     45  H   UNL A   1      42.437  27.727  29.204  1.00  0.00     0.167 HD
ATOM     46  C   UNL A   1      43.747  31.584  30.786  1.00  0.00     0.037 A 
ATOM     47  C   UNL A   1      42.832  25.110  28.286  1.00  0.00     0.037 A 
ATOM     48  C   UNL A   1      44.914  30.740  30.828  1.00  0.00     0.049 A 
ATOM     49  C   UNL A   1      44.173  25.582  28.780  1.00  0.00     0.074 A 
ATOM     50  C   UNL A   1      46.176  31.040  31.313  1.00  0.00     0.029 A 
ATOM     51  N   UNL A   1      44.969  29.433  30.362  1.00  0.00    -0.354 N 
ATOM     52  N   UNL A   1      44.500  26.745  29.293  1.00  0.00    -0.248 NA
ATOM     53  C   UNL A   1      45.290  24.630  28.690  1.00  0.00     0.031 C 
ATOM     54  C   UNL A   1      47.006  29.937  31.092  1.00  0.00     0.029 A 
ATOM     55  C   UNL A   1      46.248  28.924  30.526  1.00  0.00     0.049 A 
ATOM     56  H   UNL A   1      44.211  28.941  29.972  1.00  0.00     0.167 HD
ATOM     57  C   UNL A   1      45.850  26.653  29.614  1.00  0.00     0.074 A 
ATOM     58  C   UNL A   1      46.276  25.318  29.248  1.00  0.00     0.031 C 
ATOM     59  C   UNL A   1      46.662  27.591  30.163  1.00  0.00     0.037 A 
BRANCH  46  60
ATOM     60  C   UNL A   1      43.874  33.002  31.279  1.00  0.00     0.058 A 
ATOM     61  C   UNL A   1      44.153  34.065  30.406  1.00  0.00     0.135 A 
ATOM     62  C   UNL A   1      43.678  33.308  32.636  1.00  0.00     0.135 A 
ATOM     63  F   UNL A   1      44.360  33.831  29.100  1.00  0.00    -0.206 F 
ATOM     64  C   UNL A   1      44.268  35.374  30.862  1.00  0.00     0.059 A 
ATOM     65  C   UNL A   1      43.758  34.615  33.111  1.00  0.00     0.059 A 
ATOM     66  F   UNL A   1      43.407  32.333  33.518  1.00  0.00    -0.206 F 
ATOM     67  C   UNL A   1      44.068  35.639  32.218  1.00  0.00     0.060 A 
BRANCH  67  68
ATOM     68  S   UNL A   1      44.224  37.343  32.794  1.00  0.00     0.124 S 
ATOM     69  O   UNL A   1      44.217  38.079  31.534  1.00  0.00    -0.237 OA
ATOM     70  O   UNL A   1      43.034  37.499  33.625  1.00  0.00    -0.237 OA
ATOM     71  O   UNL A   1      45.493  37.345  33.515  1.00  0.00    -0.744 OA
ENDBRANCH  67  68
ENDBRANCH  46  60
BRANCH  47  72
ATOM     72  C   UNL A   1      42.665  23.744  27.718  1.00  0.00     0.058 A 
ATOM     73  C   UNL A   1      42.750  23.515  26.336  1.00  0.00     0.135 A 
ATOM     74  C   UNL A   1      42.430  22.636  28.549  1.00  0.00     0.135 A 
ATOM     75  F   UNL A   1      42.965  24.541  25.499  1.00  0.00    -0.206 F 
ATOM     76  C   UNL A   1      42.596  22.242  25.796  1.00  0.00     0.059 A 
ATOM     77  C   UNL A   1      42.301  21.350  28.035  1.00  0.00     0.059 A 
ATOM     78  F   UNL A   1      42.354  22.798  29.879  1.00  0.00    -0.206 F 
ATOM     79  C   UNL A   1      42.376  21.164  26.656  1.00  0.00     0.060 A 
BRANCH  79  80
ATOM     80  S   UNL A   1      42.230  19.509  25.950  1.00  0.00     0.124 S 
ATOM     81  O   UNL A   1      43.090  19.612  24.777  1.00  0.00    -0.237 OA
ATOM     82  O   UNL A   1      42.726  18.668  27.035  1.00  0.00    -0.237 OA
ATOM     83  O   UNL A   1      40.801  19.386  25.676  1.00  0.00    -0.744 OA
ENDBRANCH  79  80
ENDBRANCH  47  72
BRANCH  59  84
ATOM     84  C   UNL A   1      48.090  27.201  30.438  1.00  0.00     0.058 A 
ATOM     85  C   UNL A   1      49.140  27.578  29.586  1.00  0.00     0.135 A 
ATOM     86  C   UNL A   1      48.418  26.482  31.600  1.00  0.00     0.135 A 
ATOM     87  F   UNL A   1      48.885  28.260  28.458  1.00  0.00    -0.206 F 
ATOM     88  C   UNL A   1      50.461  27.237  29.864  1.00  0.00     0.059 A 
ATOM     89  C   UNL A   1      49.735  26.158  31.914  1.00  0.00     0.059 A 
ATOM     90  F   UNL A   1      47.455  26.104  32.455  1.00  0.00    -0.206 F 
ATOM     91  C   UNL A   1      50.749  26.529  31.033  1.00  0.00     0.060 A 
BRANCH  91  92
ATOM     92  S   UNL A   1      52.469  26.124  31.398  1.00  0.00     0.124 S 
ATOM     93  O   UNL A   1      52.857  27.234  32.262  1.00  0.00    -0.237 OA
ATOM     94  O   UNL A   1      52.351  24.824  32.051  1.00  0.00    -0.237 OA
ATOM     95  O   UNL A   1      53.100  26.103  30.082  1.00  0.00    -0.744 OA
ENDBRANCH  91  92
ENDBRANCH  59  84
ENDBRANCH  33  34
ENDBRANCH  25  28
ENDBRANCH  23  24
ENDBRANCH  22  23
ENDBRANCH   1  22
TORSDOF 17
ENDMDL
MODEL 3
REMARK VINA RESULT:     -10.9      0.271      1.551
REMARK SMILES O=C(C[C@H]1CN(C(=O)c2sccc2Br)CCO1)NCCCCNC(=O)c1ccc(-c2c3nc(c(-c4c(F)cc(S(=O)(=O)[O-])cc4F)c4ccc([nH]4)c(-c4c(F)cc(S(=O)(=O)[O-])cc4F)c4nc(c(-c5c(F)cc(S(=O)(=O)[O-])cc5F)c5ccc2[nH]5)C=C4)C=C3)cc1
REMARK SMILES IDX 20 1 19 2 18 3 1 4 2 5 3 7 4 8 5 9 17 10 6 11 16 12 15 13
REMARK SMILES IDX 7 14 8 15 9 16 10 17 13 18 11 19 12 20 14 21 21 22 22 23
REMARK SMILES IDX 23 24 24 25 25 27 26 28 27 29 91 30 28 31 90 32 29 33 30 34
REMARK SMILES IDX 31 35 84 36 32 37 89 38 83 39 85 40 33 41 88 42 82 43 81 44
REMARK SMILES IDX 34 46 68 47 47 48 67 49 48 50 51 51 66 52 86 53 49 54 50 55
REMARK SMILES IDX 65 57 87 58 52 59 35 60 36 61 45 62 37 63 38 64 44 65 46 66
REMARK SMILES IDX 39 67 40 68 41 69 42 70 43 71 69 72 70 73 79 74 71 75 72 76
REMARK SMILES IDX 78 77 80 78 73 79 74 80 75 81 76 82 77 83 53 84 54 85 63 86
REMARK SMILES IDX 55 87 56 88 62 89 64 90 57 91 58 92 59 93 60 94 61 95
REMARK H PARENT 18 6 23 26 85 45 51 56
REMARK Flexibility Score: inf
ROOT
ATOM      1  C   UNL A   1      39.924  21.838  26.326  1.00  0.00     0.023 C 
ENDROOT
BRANCH   1   2
ATOM      2  C   UNL A   1      38.669  22.684  26.132  1.00  0.00     0.116 C 
BRANCH   2   3
ATOM      3  N   UNL A   1      37.498  21.882  25.821  1.00  0.00    -0.356 N 
ATOM      4  O   UNL A   1      35.975  23.537  26.099  1.00  0.00    -0.275 OA
ATOM      5  C   UNL A   1      36.232  22.393  25.735  1.00  0.00     0.222 C 
ATOM      6  H   UNL A   1      37.622  20.918  25.664  1.00  0.00     0.163 HD
BRANCH   5   7
ATOM      7  C   UNL A   1      35.138  21.440  25.255  1.00  0.00     0.133 C 
BRANCH   7   8
ATOM      8  C   UNL A   1      34.084  20.867  26.231  1.00  0.00     0.147 C 
ATOM      9  C   UNL A   1      33.234  21.797  27.099  1.00  0.00     0.152 C 
ATOM     10  O   UNL A   1      33.197  19.931  25.583  1.00  0.00    -0.374 OA
ATOM     11  N   UNL A   1      32.393  22.607  26.260  1.00  0.00    -0.333 N 
ATOM     12  C   UNL A   1      32.157  20.533  24.808  1.00  0.00     0.182 C 
ATOM     13  C   UNL A   1      31.497  21.789  25.421  1.00  0.00     0.148 C 
BRANCH  11  14
ATOM     14  C   UNL A   1      32.233  23.998  26.293  1.00  0.00     0.265 C 
ATOM     15  O   UNL A   1      31.583  24.433  27.256  1.00  0.00    -0.268 OA
BRANCH  14  16
ATOM     16  C   UNL A   1      32.798  24.951  25.305  1.00  0.00     0.106 A 
ATOM     17  S   UNL A   1      32.829  26.601  25.938  1.00  0.00    -0.137 S 
ATOM     18  C   UNL A   1      33.287  24.997  24.000  1.00  0.00     0.041 A 
ATOM     19  C   UNL A   1      33.384  27.276  24.489  1.00  0.00     0.067 A 
ATOM     20  C   UNL A   1      33.602  26.316  23.541  1.00  0.00     0.028 A 
ATOM     21  Br  UNL A   1      33.564  23.693  22.640  1.00  0.00    -0.049 Br
ENDBRANCH  14  16
ENDBRANCH  11  14
ENDBRANCH   7   8
ENDBRANCH   5   7
ENDBRANCH   2   3
ENDBRANCH   1   2
BRANCH   1  22
ATOM     22  C   UNL A   1      40.733  22.155  27.588  1.00  0.00     0.023 C 
BRANCH  22  23
ATOM     23  C   UNL A   1      41.993  22.991  27.373  1.00  0.00     0.116 C 
BRANCH  23  24
ATOM     24  N   UNL A   1      41.909  23.848  26.204  1.00  0.00    -0.352 N 
ATOM     25  C   UNL A   1      41.614  25.189  26.117  1.00  0.00     0.251 C 
ATOM     26  H   UNL A   1      42.090  23.402  25.346  1.00  0.00     0.163 HD
ATOM     27  O   UNL A   1      41.435  25.703  25.018  1.00  0.00    -0.269 OA
BRANCH  25  28
ATOM     28  C   UNL A   1      41.478  26.011  27.344  1.00  0.00     0.039 A 
ATOM     29  C   UNL A   1      42.489  26.925  27.652  1.00  0.00     0.014 A 
ATOM     30  C   UNL A   1      40.377  25.877  28.194  1.00  0.00     0.014 A 
ATOM     31  C   UNL A   1      42.360  27.754  28.772  1.00  0.00     0.010 A 
ATOM     32  C   UNL A   1      40.215  26.754  29.268  1.00  0.00     0.010 A 
ATOM     33  C   UNL A   1      41.203  27.706  29.568  1.00  0.00    -0.014 A 
BRANCH  33  34
ATOM     34  C   UNL A   1      41.012  28.655  30.699  1.00  0.00     0.031 A 
ATOM     35  C   UNL A   1      41.845  28.540  31.948  1.00  0.00     0.074 A 
ATOM     36  C   UNL A   1      40.050  29.597  30.622  1.00  0.00     0.049 A 
ATOM     37  N   UNL A   1      41.786  29.245  33.049  1.00  0.00    -0.248 NA
ATOM     38  C   UNL A   1      42.863  27.478  31.971  1.00  0.00     0.031 C 
ATOM     39  C   UNL A   1      39.142  29.788  29.488  1.00  0.00     0.029 A 
ATOM     40  N   UNL A   1      39.664  30.566  31.518  1.00  0.00    -0.354 N 
ATOM     41  C   UNL A   1      42.753  28.713  33.895  1.00  0.00     0.074 A 
ATOM     42  C   UNL A   1      43.343  27.587  33.202  1.00  0.00     0.031 C 
ATOM     43  C   UNL A   1      38.325  30.821  29.746  1.00  0.00     0.029 A 
ATOM     44  C   UNL A   1      38.615  31.340  31.079  1.00  0.00     0.049 A 
ATOM     45  H   UNL A   1      40.098  30.693  32.392  1.00  0.00     0.167 HD
ATOM     46  C   UNL A   1      43.133  29.137  35.125  1.00  0.00     0.037 A 
ATOM     47  C   UNL A   1      37.952  32.347  31.681  1.00  0.00     0.037 A 
ATOM     48  C   UNL A   1      42.550  30.265  35.807  1.00  0.00     0.049 A 
ATOM     49  C   UNL A   1      38.377  32.789  33.056  1.00  0.00     0.074 A 
ATOM     50  C   UNL A   1      42.895  30.799  37.036  1.00  0.00     0.029 A 
ATOM     51  N   UNL A   1      41.496  31.030  35.324  1.00  0.00    -0.354 N 
ATOM     52  N   UNL A   1      39.334  32.311  33.816  1.00  0.00    -0.248 NA
ATOM     53  C   UNL A   1      37.637  33.909  33.655  1.00  0.00     0.031 C 
ATOM     54  C   UNL A   1      42.018  31.851  37.322  1.00  0.00     0.029 A 
ATOM     55  C   UNL A   1      41.164  32.014  36.243  1.00  0.00     0.049 A 
ATOM     56  H   UNL A   1      41.050  30.893  34.457  1.00  0.00     0.167 HD
ATOM     57  C   UNL A   1      39.330  33.091  34.968  1.00  0.00     0.074 A 
ATOM     58  C   UNL A   1      38.284  34.078  34.800  1.00  0.00     0.031 C 
ATOM     59  C   UNL A   1      40.123  32.997  36.064  1.00  0.00     0.037 A 
BRANCH  46  60
ATOM     60  C   UNL A   1      44.233  28.377  35.817  1.00  0.00     0.058 A 
ATOM     61  C   UNL A   1      45.587  28.700  35.626  1.00  0.00     0.135 A 
ATOM     62  C   UNL A   1      43.932  27.337  36.713  1.00  0.00     0.135 A 
ATOM     63  F   UNL A   1      45.935  29.677  34.774  1.00  0.00    -0.206 F 
ATOM     64  C   UNL A   1      46.602  27.998  36.268  1.00  0.00     0.059 A 
ATOM     65  C   UNL A   1      44.931  26.642  37.390  1.00  0.00     0.059 A 
ATOM     66  F   UNL A   1      42.656  26.986  36.937  1.00  0.00    -0.206 F 
ATOM     67  C   UNL A   1      46.264  26.970  37.148  1.00  0.00     0.060 A 
BRANCH  67  68
ATOM     68  S   UNL A   1      47.593  26.067  37.971  1.00  0.00     0.124 S 
ATOM     69  O   UNL A   1      48.760  26.516  37.218  1.00  0.00    -0.237 OA
ATOM     70  O   UNL A   1      47.499  26.557  39.343  1.00  0.00    -0.237 OA
ATOM     71  O   UNL A   1      47.225  24.669  37.781  1.00  0.00    -0.744 OA
ENDBRANCH  67  68
ENDBRANCH  46  60
BRANCH  47  72
ATOM     72  C   UNL A   1      36.820  33.014  30.980  1.00  0.00     0.058 A 
ATOM     73  C   UNL A   1      37.044  33.882  29.901  1.00  0.00     0.135 A 
ATOM     74  C   UNL A   1      35.490  32.785  31.367  1.00  0.00     0.135 A 
ATOM     75  F   UNL A   1      38.297  34.140  29.496  1.00  0.00    -0.206 F 
ATOM     76  C   UNL A   1      35.993  34.510  29.239  1.00  0.00     0.059 A 
ATOM     77  C   UNL A   1      34.421  33.378  30.704  1.00  0.00     0.059 A 
ATOM     78  F   UNL A   1      35.220  31.952  32.384  1.00  0.00    -0.206 F 
ATOM     79  C   UNL A   1      34.683  34.247  29.646  1.00  0.00     0.060 A 
BRANCH  79  80
ATOM     80  S   UNL A   1      33.325  35.025  28.747  1.00  0.00     0.124 S 
ATOM     81  O   UNL A   1      34.025  36.055  27.988  1.00  0.00    -0.237 OA
ATOM     82  O   UNL A   1      32.792  33.910  27.971  1.00  0.00    -0.237 OA
ATOM     83  O   UNL A   1      32.452  35.510  29.812  1.00  0.00    -0.744 OA
ENDBRANCH  79  80
ENDBRANCH  47  72
BRANCH  59  84
ATOM     84  C   UNL A   1      39.919  34.008  37.160  1.00  0.00     0.058 A 
ATOM     85  C   UNL A   1      39.051  33.772  38.237  1.00  0.00     0.135 A 
ATOM     86  C   UNL A   1      40.644  35.212  37.158  1.00  0.00     0.135 A 
ATOM     87  F   UNL A   1      38.327  32.643  38.288  1.00  0.00    -0.206 F 
ATOM     88  C   UNL A   1      38.890  34.702  39.261  1.00  0.00     0.059 A 
ATOM     89  C   UNL A   1      40.524  36.142  38.187  1.00  0.00     0.059 A 
ATOM     90  F   UNL A   1      41.497  35.486  36.158  1.00  0.00    -0.206 F 
ATOM     91  C   UNL A   1      39.635  35.883  39.228  1.00  0.00     0.060 A 
BRANCH  91  92
ATOM     92  S   UNL A   1      39.442  37.064  40.580  1.00  0.00     0.124 S 
ATOM     93  O   UNL A   1      39.473  36.186  41.745  1.00  0.00    -0.237 OA
ATOM     94  O   UNL A   1      40.606  37.928  40.407  1.00  0.00    -0.237 OA
ATOM     95  O   UNL A   1      38.155  37.694  40.301  1.00  0.00    -0.744 OA
ENDBRANCH  91  92
ENDBRANCH  59  84
ENDBRANCH  33  34
ENDBRANCH  25  28
ENDBRANCH  23  24
ENDBRANCH  22  23
ENDBRANCH   1  22
TORSDOF 17
ENDMDL
