MODEL 1
REMARK VINA RESULT:     -12.6      0.000      0.000
REMARK SMILES COc1ccc(-c2nc3ccc(C)cc3[nH]2)c(C(=O)NCCCCNC(=O)c2ccc(-c3c4nc(c(-c5c(F)cc(S(=O)(=O)[O-])cc5F)c5ccc([nH]5)c(-c5c(F)cc(S(=O)(=O)[O-])cc5F)c5nc(c(-c6c(F)cc(S(=O)(=O)[O-])cc6F)c6ccc3[nH]6)C=C5)C=C4)cc2)c1OC
REMARK SMILES IDX 23 1 22 2 21 3 20 4 18 5 19 6 17 8 3 9 4 10 94 11 5 12 6 13
REMARK SMILES IDX 2 14 1 15 95 16 96 17 7 18 8 19 16 20 9 21 15 22 10 24 14 25
REMARK SMILES IDX 11 26 12 27 13 28 24 29 25 30 26 31 27 33 28 34 29 35 93 36
REMARK SMILES IDX 30 37 92 38 31 39 32 40 33 41 86 42 34 43 91 44 85 45 87 46
REMARK SMILES IDX 35 47 90 48 84 49 83 50 36 52 70 53 49 54 69 55 50 56 53 57
REMARK SMILES IDX 68 58 88 59 51 60 52 61 67 63 89 64 54 65 37 66 38 67 47 68
REMARK SMILES IDX 39 69 40 70 46 71 48 72 41 73 42 74 43 75 44 76 45 77 71 78
REMARK SMILES IDX 72 79 81 80 73 81 74 82 80 83 82 84 75 85 76 86 77 87 78 88
REMARK SMILES IDX 79 89 55 90 56 91 65 92 57 93 58 94 64 95 66 96 59 97 60 98
REMARK SMILES IDX 61 99 62 100 63 101
REMARK H PARENT 20 7 16 23 25 32 87 51 53 62
REMARK Flexibility Score: inf
ROOT
ATOM      1  C   UNL A   1      38.513  22.766  26.035  1.00  0.00     0.023 C 
ENDROOT
BRANCH   1   2
ATOM      2  C   UNL A   1      37.306  23.700  26.052  1.00  0.00     0.023 C 
BRANCH   2   3
ATOM      3  C   UNL A   1      35.935  23.066  25.879  1.00  0.00     0.116 C 
BRANCH   3   4
ATOM      4  N   UNL A   1      35.046  23.009  27.014  1.00  0.00    -0.352 N 
ATOM      5  C   UNL A   1      33.680  22.785  26.959  1.00  0.00     0.255 C 
ATOM      6  O   UNL A   1      33.086  22.300  27.919  1.00  0.00    -0.269 OA
ATOM      7  H   UNL A   1      35.445  23.142  27.904  1.00  0.00     0.163 HD
BRANCH   5   8
ATOM      8  C   UNL A   1      32.904  23.235  25.770  1.00  0.00     0.096 A 
ATOM      9  C   UNL A   1      31.770  24.938  24.445  1.00  0.00     0.161 A 
ATOM     10  C   UNL A   1      31.335  23.909  23.588  1.00  0.00     0.051 A 
ATOM     11  C   UNL A   1      32.594  24.611  25.537  1.00  0.00     0.174 A 
ATOM     12  C   UNL A   1      31.735  22.587  23.753  1.00  0.00     0.017 A 
ATOM     13  C   UNL A   1      32.529  22.228  24.841  1.00  0.00     0.034 A 
BRANCH   9  14
ATOM     14  O   UNL A   1      31.291  26.124  23.969  1.00  0.00    -0.493 OA
ATOM     15  C   UNL A   1      29.932  26.483  24.026  1.00  0.00     0.278 C 
ENDBRANCH   9  14
BRANCH  11  16
ATOM     16  O   UNL A   1      33.344  25.535  26.227  1.00  0.00    -0.492 OA
ATOM     17  C   UNL A   1      34.224  26.369  25.482  1.00  0.00     0.278 C 
ENDBRANCH  11  16
BRANCH  13  18
ATOM     18  C   UNL A   1      32.981  20.835  24.934  1.00  0.00     0.139 A 
ATOM     19  N   UNL A   1      34.103  20.327  24.463  1.00  0.00    -0.228 NA
ATOM     20  N   UNL A   1      32.224  19.846  25.529  1.00  0.00    -0.338 N 
ATOM     21  C   UNL A   1      34.011  18.968  24.662  1.00  0.00     0.089 A 
ATOM     22  C   UNL A   1      32.850  18.638  25.349  1.00  0.00     0.066 A 
ATOM     23  H   UNL A   1      31.374  19.984  26.006  1.00  0.00     0.168 HD
ATOM     24  C   UNL A   1      34.878  17.941  24.266  1.00  0.00     0.031 A 
ATOM     25  C   UNL A   1      32.495  17.326  25.685  1.00  0.00     0.031 A 
ATOM     26  C   UNL A   1      34.537  16.613  24.563  1.00  0.00     0.006 A 
ATOM     27  C   UNL A   1      33.362  16.301  25.266  1.00  0.00    -0.049 A 
ATOM     28  C   UNL A   1      33.029  14.858  25.528  1.00  0.00     0.044 C 
ENDBRANCH  13  18
ENDBRANCH   5   8
ENDBRANCH   3   4
ENDBRANCH   2   3
ENDBRANCH   1   2
BRANCH   1  29
ATOM     29  C   UNL A   1      39.696  23.113  26.936  1.00  0.00     0.116 C 
BRANCH  29  30
ATOM     30  N   UNL A   1      40.931  23.429  26.232  1.00  0.00    -0.352 N 
ATOM     31  C   UNL A   1      41.751  24.537  26.315  1.00  0.00     0.251 C 
ATOM     32  H   UNL A   1      41.231  22.741  25.594  1.00  0.00     0.163 HD
ATOM     33  O   UNL A   1      42.743  24.609  25.604  1.00  0.00    -0.269 OA
BRANCH  31  34
ATOM     34  C   UNL A   1      41.403  25.662  27.218  1.00  0.00     0.039 A 
ATOM     35  C   UNL A   1      40.376  25.480  28.150  1.00  0.00     0.014 A 
ATOM     36  C   UNL A   1      42.101  26.869  27.182  1.00  0.00     0.014 A 
ATOM     37  C   UNL A   1      40.135  26.460  29.119  1.00  0.00     0.010 A 
ATOM     38  C   UNL A   1      41.921  27.802  28.201  1.00  0.00     0.010 A 
ATOM     39  C   UNL A   1      40.947  27.602  29.192  1.00  0.00    -0.014 A 
BRANCH  39  40
ATOM     40  C   UNL A   1      40.825  28.578  30.309  1.00  0.00     0.031 A 
ATOM     41  C   UNL A   1      41.700  28.457  31.527  1.00  0.00     0.074 A 
ATOM     42  C   UNL A   1      39.858  29.519  30.271  1.00  0.00     0.049 A 
ATOM     43  N   UNL A   1      41.672  29.148  32.638  1.00  0.00    -0.248 NA
ATOM     44  C   UNL A   1      42.717  27.396  31.506  1.00  0.00     0.031 C 
ATOM     45  C   UNL A   1      38.897  29.703  29.181  1.00  0.00     0.029 A 
ATOM     46  N   UNL A   1      39.512  30.487  31.182  1.00  0.00    -0.354 N 
ATOM     47  C   UNL A   1      42.650  28.592  33.455  1.00  0.00     0.074 A 
ATOM     48  C   UNL A   1      43.213  27.473  32.731  1.00  0.00     0.031 C 
ATOM     49  C   UNL A   1      38.085  30.730  29.477  1.00  0.00     0.029 A 
ATOM     50  C   UNL A   1      38.439  31.254  30.792  1.00  0.00     0.049 A 
ATOM     51  H   UNL A   1      39.986  30.618  32.035  1.00  0.00     0.167 HD
ATOM     52  C   UNL A   1      43.058  28.990  34.684  1.00  0.00     0.037 A 
ATOM     53  C   UNL A   1      37.803  32.262  31.423  1.00  0.00     0.037 A 
ATOM     54  C   UNL A   1      42.512  30.119  35.391  1.00  0.00     0.049 A 
ATOM     55  C   UNL A   1      38.289  32.707  32.775  1.00  0.00     0.074 A 
ATOM     56  C   UNL A   1      42.902  30.643  36.612  1.00  0.00     0.029 A 
ATOM     57  N   UNL A   1      41.457  30.900  34.942  1.00  0.00    -0.354 N 
ATOM     58  N   UNL A   1      39.261  32.213  33.504  1.00  0.00    -0.248 NA
ATOM     59  C   UNL A   1      37.597  33.849  33.388  1.00  0.00     0.031 C 
ATOM     60  C   UNL A   1      42.060  31.718  36.917  1.00  0.00     0.029 A 
ATOM     61  C   UNL A   1      41.172  31.892  35.867  1.00  0.00     0.049 A 
ATOM     62  H   UNL A   1      40.980  30.769  34.091  1.00  0.00     0.167 HD
ATOM     63  C   UNL A   1      39.312  32.997  34.651  1.00  0.00     0.074 A 
ATOM     64  C   UNL A   1      38.279  34.003  34.515  1.00  0.00     0.031 C 
ATOM     65  C   UNL A   1      40.140  32.889  35.719  1.00  0.00     0.037 A 
BRANCH  52  66
ATOM     66  C   UNL A   1      44.154  28.191  35.335  1.00  0.00     0.058 A 
ATOM     67  C   UNL A   1      43.870  27.109  36.185  1.00  0.00     0.135 A 
ATOM     68  C   UNL A   1      45.503  28.512  35.117  1.00  0.00     0.135 A 
ATOM     69  F   UNL A   1      42.597  26.764  36.439  1.00  0.00    -0.206 F 
ATOM     70  C   UNL A   1      44.880  26.408  36.836  1.00  0.00     0.059 A 
ATOM     71  C   UNL A   1      46.533  27.806  35.735  1.00  0.00     0.059 A 
ATOM     72  F   UNL A   1      45.833  29.533  34.310  1.00  0.00    -0.206 F 
ATOM     73  C   UNL A   1      46.209  26.771  36.612  1.00  0.00     0.060 A 
BRANCH  73  74
ATOM     74  S   UNL A   1      47.508  25.876  37.489  1.00  0.00     0.124 S 
ATOM     75  O   UNL A   1      48.633  26.798  37.359  1.00  0.00    -0.237 OA
ATOM     76  O   UNL A   1      46.950  25.744  38.830  1.00  0.00    -0.237 OA
ATOM     77  O   UNL A   1      47.628  24.630  36.738  1.00  0.00    -0.744 OA
ENDBRANCH  73  74
ENDBRANCH  52  66
BRANCH  53  78
ATOM     78  C   UNL A   1      36.659  32.938  30.756  1.00  0.00     0.058 A 
ATOM     79  C   UNL A   1      35.338  32.640  31.119  1.00  0.00     0.135 A 
ATOM     80  C   UNL A   1      36.863  33.928  29.782  1.00  0.00     0.135 A 
ATOM     81  F   UNL A   1      35.092  31.696  32.039  1.00  0.00    -0.206 F 
ATOM     82  C   UNL A   1      34.257  33.300  30.541  1.00  0.00     0.059 A 
ATOM     83  C   UNL A   1      35.800  34.616  29.206  1.00  0.00     0.059 A 
ATOM     84  F   UNL A   1      38.110  34.259  29.412  1.00  0.00    -0.206 F 
ATOM     85  C   UNL A   1      34.499  34.293  29.590  1.00  0.00     0.060 A 
BRANCH  85  86
ATOM     86  S   UNL A   1      33.093  35.202  28.911  1.00  0.00     0.124 S 
ATOM     87  O   UNL A   1      32.321  35.491  30.114  1.00  0.00    -0.237 OA
ATOM     88  O   UNL A   1      33.744  36.346  28.279  1.00  0.00    -0.237 OA
ATOM     89  O   UNL A   1      32.491  34.245  27.988  1.00  0.00    -0.744 OA
ENDBRANCH  85  86
ENDBRANCH  53  78
BRANCH  65  90
ATOM     90  C   UNL A   1      39.984  33.903  36.820  1.00  0.00     0.058 A 
ATOM     91  C   UNL A   1      40.675  35.124  36.799  1.00  0.00     0.135 A 
ATOM     92  C   UNL A   1      39.090  33.671  37.877  1.00  0.00     0.135 A 
ATOM     93  F   UNL A   1      41.547  35.391  35.814  1.00  0.00    -0.206 F 
ATOM     94  C   UNL A   1      40.499  36.073  37.801  1.00  0.00     0.059 A 
ATOM     95  C   UNL A   1      38.880  34.617  38.876  1.00  0.00     0.059 A 
ATOM     96  F   UNL A   1      38.397  32.523  37.939  1.00  0.00    -0.206 F 
ATOM     97  C   UNL A   1      39.598  35.812  38.835  1.00  0.00     0.060 A 
BRANCH  97  98
ATOM     98  S   UNL A   1      39.349  37.068  40.108  1.00  0.00     0.124 S 
ATOM     99  O   UNL A   1      38.686  36.297  41.155  1.00  0.00    -0.237 OA
ATOM    100  O   UNL A   1      40.715  37.492  40.401  1.00  0.00    -0.237 OA
ATOM    101  O   UNL A   1      38.519  38.066  39.441  1.00  0.00    -0.744 OA
ENDBRANCH  97  98
ENDBRANCH  65  90
ENDBRANCH  39  40
ENDBRANCH  31  34
ENDBRANCH  29  30
ENDBRANCH   1  29
TORSDOF 17
ENDMDL
MODEL 2
REMARK VINA RESULT:     -12.4      6.487     12.274
REMARK SMILES COc1ccc(-c2nc3ccc(C)cc3[nH]2)c(C(=O)NCCCCNC(=O)c2ccc(-c3c4nc(c(-c5c(F)cc(S(=O)(=O)[O-])cc5F)c5ccc([nH]5)c(-c5c(F)cc(S(=O)(=O)[O-])cc5F)c5nc(c(-c6c(F)cc(S(=O)(=O)[O-])cc6F)c6ccc3[nH]6)C=C5)C=C4)cc2)c1OC
REMARK SMILES IDX 23 1 22 2 21 3 20 4 18 5 19 6 17 8 3 9 4 10 94 11 5 12 6 13
REMARK SMILES IDX 2 14 1 15 95 16 96 17 7 18 8 19 16 20 9 21 15 22 10 24 14 25
REMARK SMILES IDX 11 26 12 27 13 28 24 29 25 30 26 31 27 33 28 34 29 35 93 36
REMARK SMILES IDX 30 37 92 38 31 39 32 40 33 41 86 42 34 43 91 44 85 45 87 46
REMARK SMILES IDX 35 47 90 48 84 49 83 50 36 52 70 53 49 54 69 55 50 56 53 57
REMARK SMILES IDX 68 58 88 59 51 60 52 61 67 63 89 64 54 65 37 66 38 67 47 68
REMARK SMILES IDX 39 69 40 70 46 71 48 72 41 73 42 74 43 75 44 76 45 77 71 78
REMARK SMILES IDX 72 79 81 80 73 81 74 82 80 83 82 84 75 85 76 86 77 87 78 88
REMARK SMILES IDX 79 89 55 90 56 91 65 92 57 93 58 94 64 95 66 96 59 97 60 98
REMARK SMILES IDX 61 99 62 100 63 101
REMARK H PARENT 20 7 16 23 25 32 87 51 53 62
REMARK Flexibility Score: inf
ROOT
ATOM      1  C   UNL A   1      33.778  30.209  27.252  1.00  0.00     0.023 C 
ENDROOT
BRANCH   1   2
ATOM      2  C   UNL A   1      32.679  29.150  27.292  1.00  0.00     0.023 C 
BRANCH   2   3
ATOM      3  C   UNL A   1      32.927  27.863  26.522  1.00  0.00     0.116 C 
BRANCH   3   4
ATOM      4  N   UNL A   1      33.798  27.897  25.372  1.00  0.00    -0.352 N 
ATOM      5  C   UNL A   1      33.495  27.399  24.115  1.00  0.00     0.255 C 
ATOM      6  O   UNL A   1      34.044  27.851  23.113  1.00  0.00    -0.269 OA
ATOM      7  H   UNL A   1      34.683  28.310  25.492  1.00  0.00     0.163 HD
BRANCH   5   8
ATOM      8  C   UNL A   1      32.580  26.231  23.983  1.00  0.00     0.096 A 
ATOM      9  C   UNL A   1      32.086  23.846  24.093  1.00  0.00     0.161 A 
ATOM     10  C   UNL A   1      30.819  24.136  23.553  1.00  0.00     0.051 A 
ATOM     11  C   UNL A   1      32.977  24.906  24.346  1.00  0.00     0.174 A 
ATOM     12  C   UNL A   1      30.395  25.439  23.311  1.00  0.00     0.017 A 
ATOM     13  C   UNL A   1      31.265  26.507  23.526  1.00  0.00     0.034 A 
BRANCH   9  14
ATOM     14  O   UNL A   1      32.166  22.501  24.304  1.00  0.00    -0.493 OA
ATOM     15  C   UNL A   1      31.724  21.881  25.487  1.00  0.00     0.278 C 
ENDBRANCH   9  14
BRANCH  11  16
ATOM     16  O   UNL A   1      34.076  24.797  25.164  1.00  0.00    -0.492 OA
ATOM     17  C   UNL A   1      35.184  24.037  24.694  1.00  0.00     0.278 C 
ENDBRANCH  11  16
BRANCH  13  18
ATOM     18  C   UNL A   1      30.749  27.866  23.321  1.00  0.00     0.139 A 
ATOM     19  N   UNL A   1      30.566  28.797  24.236  1.00  0.00    -0.228 NA
ATOM     20  N   UNL A   1      30.348  28.330  22.084  1.00  0.00    -0.338 N 
ATOM     21  C   UNL A   1      29.933  29.837  23.592  1.00  0.00     0.089 A 
ATOM     22  C   UNL A   1      29.801  29.580  22.234  1.00  0.00     0.066 A 
ATOM     23  H   UNL A   1      30.440  27.844  21.233  1.00  0.00     0.168 HD
ATOM     24  C   UNL A   1      29.421  31.034  24.108  1.00  0.00     0.031 A 
ATOM     25  C   UNL A   1      29.191  30.463  21.335  1.00  0.00     0.031 A 
ATOM     26  C   UNL A   1      28.779  31.927  23.237  1.00  0.00     0.006 A 
ATOM     27  C   UNL A   1      28.663  31.654  21.866  1.00  0.00    -0.049 A 
ATOM     28  C   UNL A   1      27.936  32.631  20.984  1.00  0.00     0.044 C 
ENDBRANCH  13  18
ENDBRANCH   5   8
ENDBRANCH   3   4
ENDBRANCH   2   3
ENDBRANCH   1   2
BRANCH   1  29
ATOM     29  C   UNL A   1      35.060  29.935  28.035  1.00  0.00     0.116 C 
BRANCH  29  30
ATOM     30  N   UNL A   1      35.294  30.831  29.160  1.00  0.00    -0.352 N 
ATOM     31  C   UNL A   1      36.442  31.074  29.887  1.00  0.00     0.251 C 
ATOM     32  H   UNL A   1      34.506  31.347  29.447  1.00  0.00     0.163 HD
ATOM     33  O   UNL A   1      36.410  31.861  30.822  1.00  0.00    -0.269 OA
BRANCH  31  34
ATOM     34  C   UNL A   1      37.695  30.343  29.576  1.00  0.00     0.039 A 
ATOM     35  C   UNL A   1      38.033  30.131  28.236  1.00  0.00     0.014 A 
ATOM     36  C   UNL A   1      38.552  29.904  30.585  1.00  0.00     0.014 A 
ATOM     37  C   UNL A   1      39.282  29.591  27.911  1.00  0.00     0.010 A 
ATOM     38  C   UNL A   1      39.830  29.452  30.259  1.00  0.00     0.010 A 
ATOM     39  C   UNL A   1      40.217  29.305  28.918  1.00  0.00    -0.014 A 
BRANCH  39  40
ATOM     40  C   UNL A   1      41.609  28.889  28.597  1.00  0.00     0.031 A 
ATOM     41  C   UNL A   1      42.721  29.903  28.567  1.00  0.00     0.074 A 
ATOM     42  C   UNL A   1      41.859  27.613  28.237  1.00  0.00     0.049 A 
ATOM     43  N   UNL A   1      43.971  29.750  28.214  1.00  0.00    -0.248 NA
ATOM     44  C   UNL A   1      42.370  31.278  28.952  1.00  0.00     0.031 C 
ATOM     45  C   UNL A   1      40.860  26.544  28.157  1.00  0.00     0.029 A 
ATOM     46  N   UNL A   1      43.027  27.001  27.852  1.00  0.00    -0.354 N 
ATOM     47  C   UNL A   1      44.550  31.010  28.313  1.00  0.00     0.074 A 
ATOM     48  C   UNL A   1      43.499  31.924  28.705  1.00  0.00     0.031 C 
ATOM     49  C   UNL A   1      41.460  25.408  27.768  1.00  0.00     0.029 A 
ATOM     50  C   UNL A   1      42.876  25.671  27.534  1.00  0.00     0.049 A 
ATOM     51  H   UNL A   1      43.891  27.470  27.807  1.00  0.00     0.167 HD
ATOM     52  C   UNL A   1      45.841  31.370  28.117  1.00  0.00     0.037 A 
ATOM     53  C   UNL A   1      43.772  24.765  27.094  1.00  0.00     0.037 A 
ATOM     54  C   UNL A   1      46.890  30.454  27.751  1.00  0.00     0.049 A 
ATOM     55  C   UNL A   1      45.207  25.178  26.909  1.00  0.00     0.074 A 
ATOM     56  C   UNL A   1      48.242  30.708  27.593  1.00  0.00     0.029 A 
ATOM     57  N   UNL A   1      46.704  29.105  27.482  1.00  0.00    -0.354 N 
ATOM     58  N   UNL A   1      45.751  26.360  27.074  1.00  0.00    -0.248 NA
ATOM     59  C   UNL A   1      46.150  24.134  26.487  1.00  0.00     0.031 C 
ATOM     60  C   UNL A   1      48.868  29.522  27.195  1.00  0.00     0.029 A 
ATOM     61  C   UNL A   1      47.914  28.518  27.146  1.00  0.00     0.049 A 
ATOM     62  H   UNL A   1      45.841  28.634  27.524  1.00  0.00     0.167 HD
ATOM     63  C   UNL A   1      47.103  26.198  26.796  1.00  0.00     0.074 A 
ATOM     64  C   UNL A   1      47.296  24.802  26.462  1.00  0.00     0.031 C 
ATOM     65  C   UNL A   1      48.093  27.125  26.816  1.00  0.00     0.037 A 
BRANCH  52  66
ATOM     66  C   UNL A   1      46.184  32.824  28.303  1.00  0.00     0.058 A 
ATOM     67  C   UNL A   1      46.115  33.737  27.238  1.00  0.00     0.135 A 
ATOM     68  C   UNL A   1      46.595  33.310  29.554  1.00  0.00     0.135 A 
ATOM     69  F   UNL A   1      45.740  33.324  26.016  1.00  0.00    -0.206 F 
ATOM     70  C   UNL A   1      46.490  35.067  27.393  1.00  0.00     0.059 A 
ATOM     71  C   UNL A   1      46.947  34.645  29.740  1.00  0.00     0.059 A 
ATOM     72  F   UNL A   1      46.674  32.483  30.609  1.00  0.00    -0.206 F 
ATOM     73  C   UNL A   1      46.914  35.509  28.646  1.00  0.00     0.060 A 
BRANCH  73  74
ATOM     74  S   UNL A   1      47.431  37.230  28.825  1.00  0.00     0.124 S 
ATOM     75  O   UNL A   1      47.111  37.483  30.228  1.00  0.00    -0.237 OA
ATOM     76  O   UNL A   1      48.852  37.169  28.503  1.00  0.00    -0.237 OA
ATOM     77  O   UNL A   1      46.600  37.936  27.855  1.00  0.00    -0.744 OA
ENDBRANCH  73  74
ENDBRANCH  52  66
BRANCH  53  78
ATOM     78  C   UNL A   1      43.335  23.368  26.834  1.00  0.00     0.058 A 
ATOM     79  C   UNL A   1      43.225  22.881  25.524  1.00  0.00     0.135 A 
ATOM     80  C   UNL A   1      43.066  22.480  27.887  1.00  0.00     0.135 A 
ATOM     81  F   UNL A   1      43.463  23.695  24.484  1.00  0.00    -0.206 F 
ATOM     82  C   UNL A   1      42.866  21.562  25.265  1.00  0.00     0.059 A 
ATOM     83  C   UNL A   1      42.727  21.150  27.654  1.00  0.00     0.059 A 
ATOM     84  F   UNL A   1      43.172  22.895  29.160  1.00  0.00    -0.206 F 
ATOM     85  C   UNL A   1      42.627  20.701  26.337  1.00  0.00     0.060 A 
BRANCH  85  86
ATOM     86  S   UNL A   1      42.246  18.970  25.990  1.00  0.00     0.124 S 
ATOM     87  O   UNL A   1      43.083  18.713  24.823  1.00  0.00    -0.237 OA
ATOM     88  O   UNL A   1      42.655  18.311  27.227  1.00  0.00    -0.237 OA
ATOM     89  O   UNL A   1      40.807  18.986  25.744  1.00  0.00    -0.744 OA
ENDBRANCH  85  86
ENDBRANCH  53  78
BRANCH  65  90
ATOM     90  C   UNL A   1      49.485  26.656  26.492  1.00  0.00     0.058 A 
ATOM     91  C   UNL A   1      50.290  26.022  27.451  1.00  0.00     0.135 A 
ATOM     92  C   UNL A   1      49.996  26.793  25.191  1.00  0.00     0.135 A 
ATOM     93  F   UNL A   1      49.851  25.871  28.710  1.00  0.00    -0.206 F 
ATOM     94  C   UNL A   1      51.563  25.557  27.136  1.00  0.00     0.059 A 
ATOM     95  C   UNL A   1      51.257  26.314  24.849  1.00  0.00     0.059 A 
ATOM     96  F   UNL A   1      49.263  27.384  24.235  1.00  0.00    -0.206 F 
ATOM     97  C   UNL A   1      52.038  25.706  25.831  1.00  0.00     0.060 A 
BRANCH  97  98
ATOM     98  S   UNL A   1      53.676  25.064  25.425  1.00  0.00     0.124 S 
ATOM     99  O   UNL A   1      53.926  25.694  24.132  1.00  0.00    -0.237 OA
ATOM    100  O   UNL A   1      54.488  25.552  26.536  1.00  0.00    -0.237 OA
ATOM    101  O   UNL A   1      53.475  23.619  25.391  1.00  0.00    -0.744 OA
ENDBRANCH  97  98
ENDBRANCH  65  90
ENDBRANCH  39  40
ENDBRANCH  31  34
ENDBRANCH  29  30
ENDBRANCH   1  29
TORSDOF 17
ENDMDL
MODEL 3
REMARK VINA RESULT:     -12.3      5.854     10.416
REMARK SMILES COc1ccc(-c2nc3ccc(C)cc3[nH]2)c(C(=O)NCCCCNC(=O)c2ccc(-c3c4nc(c(-c5c(F)cc(S(=O)(=O)[O-])cc5F)c5ccc([nH]5)c(-c5c(F)cc(S(=O)(=O)[O-])cc5F)c5nc(c(-c6c(F)cc(S(=O)(=O)[O-])cc6F)c6ccc3[nH]6)C=C5)C=C4)cc2)c1OC
REMARK SMILES IDX 23 1 22 2 21 3 20 4 18 5 19 6 17 8 3 9 4 10 94 11 5 12 6 13
REMARK SMILES IDX 2 14 1 15 95 16 96 17 7 18 8 19 16 20 9 21 15 22 10 24 14 25
REMARK SMILES IDX 11 26 12 27 13 28 24 29 25 30 26 31 27 33 28 34 29 35 93 36
REMARK SMILES IDX 30 37 92 38 31 39 32 40 33 41 86 42 34 43 91 44 85 45 87 46
REMARK SMILES IDX 35 47 90 48 84 49 83 50 36 52 70 53 49 54 69 55 50 56 53 57
REMARK SMILES IDX 68 58 88 59 51 60 52 61 67 63 89 64 54 65 37 66 38 67 47 68
REMARK SMILES IDX 39 69 40 70 46 71 48 72 41 73 42 74 43 75 44 76 45 77 71 78
REMARK SMILES IDX 72 79 81 80 73 81 74 82 80 83 82 84 75 85 76 86 77 87 78 88
REMARK SMILES IDX 79 89 55 90 56 91 65 92 57 93 58 94 64 95 66 96 59 97 60 98
REMARK SMILES IDX 61 99 62 100 63 101
REMARK H PARENT 20 7 16 23 25 32 87 51 53 62
REMARK Flexibility Score: inf
ROOT
ATOM      1  C   UNL A   1      37.702  20.902  25.373  1.00  0.00     0.023 C 
ENDROOT
BRANCH   1   2
ATOM      2  C   UNL A   1      37.087  21.909  24.405  1.00  0.00     0.023 C 
BRANCH   2   3
ATOM      3  C   UNL A   1      36.534  23.195  24.999  1.00  0.00     0.116 C 
BRANCH   3   4
ATOM      4  N   UNL A   1      35.880  23.142  26.284  1.00  0.00    -0.352 N 
ATOM      5  C   UNL A   1      34.529  22.910  26.491  1.00  0.00     0.255 C 
ATOM      6  O   UNL A   1      34.132  22.429  27.550  1.00  0.00    -0.269 OA
ATOM      7  H   UNL A   1      36.440  23.281  27.080  1.00  0.00     0.163 HD
BRANCH   5   8
ATOM      8  C   UNL A   1      33.538  23.350  25.470  1.00  0.00     0.096 A 
ATOM      9  C   UNL A   1      32.272  25.059  24.279  1.00  0.00     0.161 A 
ATOM     10  C   UNL A   1      31.565  24.020  23.644  1.00  0.00     0.051 A 
ATOM     11  C   UNL A   1      33.298  24.730  25.184  1.00  0.00     0.174 A 
ATOM     12  C   UNL A   1      31.881  22.680  23.839  1.00  0.00     0.017 A 
ATOM     13  C   UNL A   1      32.874  22.322  24.750  1.00  0.00     0.034 A 
BRANCH   9  14
ATOM     14  O   UNL A   1      31.796  26.250  23.814  1.00  0.00    -0.493 OA
ATOM     15  C   UNL A   1      30.584  26.816  24.247  1.00  0.00     0.278 C 
ENDBRANCH   9  14
BRANCH  11  16
ATOM     16  O   UNL A   1      34.263  25.619  25.596  1.00  0.00    -0.492 OA
ATOM     17  C   UNL A   1      33.834  26.853  26.161  1.00  0.00     0.278 C 
ENDBRANCH  11  16
BRANCH  13  18
ATOM     18  C   UNL A   1      33.217  20.900  24.870  1.00  0.00     0.139 A 
ATOM     19  N   UNL A   1      34.292  20.296  24.401  1.00  0.00    -0.228 NA
ATOM     20  N   UNL A   1      32.392  19.986  25.494  1.00  0.00    -0.338 N 
ATOM     21  C   UNL A   1      34.097  18.953  24.632  1.00  0.00     0.089 A 
ATOM     22  C   UNL A   1      32.920  18.730  25.336  1.00  0.00     0.066 A 
ATOM     23  H   UNL A   1      31.560  20.201  25.975  1.00  0.00     0.168 HD
ATOM     24  C   UNL A   1      34.878  17.853  24.252  1.00  0.00     0.031 A 
ATOM     25  C   UNL A   1      32.468  17.456  25.704  1.00  0.00     0.031 A 
ATOM     26  C   UNL A   1      34.437  16.563  24.582  1.00  0.00     0.006 A 
ATOM     27  C   UNL A   1      33.249  16.358  25.301  1.00  0.00    -0.049 A 
ATOM     28  C   UNL A   1      32.808  14.952  25.599  1.00  0.00     0.044 C 
ENDBRANCH  13  18
ENDBRANCH   5   8
ENDBRANCH   3   4
ENDBRANCH   2   3
ENDBRANCH   1   2
BRANCH   1  29
ATOM     29  C   UNL A   1      39.151  21.120  25.804  1.00  0.00     0.116 C 
BRANCH  29  30
ATOM     30  N   UNL A   1      39.971  19.917  25.827  1.00  0.00    -0.352 N 
ATOM     31  C   UNL A   1      41.311  19.752  26.118  1.00  0.00     0.251 C 
ATOM     32  H   UNL A   1      39.493  19.087  25.601  1.00  0.00     0.163 HD
ATOM     33  O   UNL A   1      41.811  18.638  26.054  1.00  0.00    -0.269 OA
BRANCH  31  34
ATOM     34  C   UNL A   1      42.156  20.925  26.451  1.00  0.00     0.039 A 
ATOM     35  C   UNL A   1      42.728  21.658  25.406  1.00  0.00     0.014 A 
ATOM     36  C   UNL A   1      42.355  21.330  27.771  1.00  0.00     0.014 A 
ATOM     37  C   UNL A   1      43.392  22.858  25.681  1.00  0.00     0.010 A 
ATOM     38  C   UNL A   1      42.936  22.569  28.035  1.00  0.00     0.010 A 
ATOM     39  C   UNL A   1      43.447  23.356  26.992  1.00  0.00    -0.014 A 
BRANCH  39  40
ATOM     40  C   UNL A   1      43.997  24.706  27.293  1.00  0.00     0.031 A 
ATOM     41  C   UNL A   1      43.085  25.827  27.711  1.00  0.00     0.074 A 
ATOM     42  C   UNL A   1      45.310  24.951  27.097  1.00  0.00     0.049 A 
ATOM     43  N   UNL A   1      43.364  27.088  27.918  1.00  0.00    -0.248 NA
ATOM     44  C   UNL A   1      41.664  25.490  27.885  1.00  0.00     0.031 C 
ATOM     45  C   UNL A   1      46.294  23.973  26.628  1.00  0.00     0.029 A 
ATOM     46  N   UNL A   1      46.041  26.105  27.250  1.00  0.00    -0.354 N 
ATOM     47  C   UNL A   1      42.153  27.699  28.224  1.00  0.00     0.074 A 
ATOM     48  C   UNL A   1      41.131  26.679  28.121  1.00  0.00     0.031 C 
ATOM     49  C   UNL A   1      47.499  24.560  26.550  1.00  0.00     0.029 A 
ATOM     50  C   UNL A   1      47.370  25.964  26.925  1.00  0.00     0.049 A 
ATOM     51  H   UNL A   1      45.649  26.952  27.562  1.00  0.00     0.167 HD
ATOM     52  C   UNL A   1      41.915  28.984  28.581  1.00  0.00     0.037 A 
ATOM     53  C   UNL A   1      48.373  26.865  26.921  1.00  0.00     0.037 A 
ATOM     54  C   UNL A   1      42.937  29.990  28.707  1.00  0.00     0.049 A 
ATOM     55  C   UNL A   1      48.095  28.280  27.346  1.00  0.00     0.074 A 
ATOM     56  C   UNL A   1      42.807  31.304  29.125  1.00  0.00     0.029 A 
ATOM     57  N   UNL A   1      44.280  29.797  28.413  1.00  0.00    -0.354 N 
ATOM     58  N   UNL A   1      46.955  28.824  27.699  1.00  0.00    -0.248 NA
ATOM     59  C   UNL A   1      49.238  29.202  27.379  1.00  0.00     0.031 C 
ATOM     60  C   UNL A   1      44.064  31.914  29.051  1.00  0.00     0.029 A 
ATOM     61  C   UNL A   1      44.986  30.969  28.627  1.00  0.00     0.049 A 
ATOM     62  H   UNL A   1      44.672  28.951  28.099  1.00  0.00     0.167 HD
ATOM     63  C   UNL A   1      47.246  30.146  28.017  1.00  0.00     0.074 A 
ATOM     64  C   UNL A   1      48.672  30.316  27.824  1.00  0.00     0.031 C 
ATOM     65  C   UNL A   1      46.407  31.127  28.431  1.00  0.00     0.037 A 
BRANCH  52  66
ATOM     66  C   UNL A   1      40.487  29.365  28.863  1.00  0.00     0.058 A 
ATOM     67  C   UNL A   1      40.018  29.536  30.176  1.00  0.00     0.135 A 
ATOM     68  C   UNL A   1      39.574  29.554  27.814  1.00  0.00     0.135 A 
ATOM     69  F   UNL A   1      40.844  29.357  31.219  1.00  0.00    -0.206 F 
ATOM     70  C   UNL A   1      38.684  29.828  30.441  1.00  0.00     0.059 A 
ATOM     71  C   UNL A   1      38.240  29.876  28.055  1.00  0.00     0.059 A 
ATOM     72  F   UNL A   1      39.969  29.410  26.539  1.00  0.00    -0.206 F 
ATOM     73  C   UNL A   1      37.800  29.987  29.373  1.00  0.00     0.060 A 
BRANCH  73  74
ATOM     74  S   UNL A   1      36.065  30.332  29.732  1.00  0.00     0.124 S 
ATOM     75  O   UNL A   1      36.028  31.787  29.608  1.00  0.00    -0.237 OA
ATOM     76  O   UNL A   1      35.372  29.591  28.684  1.00  0.00    -0.237 OA
ATOM     77  O   UNL A   1      35.889  29.813  31.085  1.00  0.00    -0.744 OA
ENDBRANCH  73  74
ENDBRANCH  52  66
BRANCH  53  78
ATOM     78  C   UNL A   1      49.742  26.434  26.530  1.00  0.00     0.058 A 
ATOM     79  C   UNL A   1      50.606  25.848  27.466  1.00  0.00     0.135 A 
ATOM     80  C   UNL A   1      50.195  26.555  25.207  1.00  0.00     0.135 A 
ATOM     81  F   UNL A   1      50.220  25.719  28.745  1.00  0.00    -0.206 F 
ATOM     82  C   UNL A   1      51.870  25.393  27.105  1.00  0.00     0.059 A 
ATOM     83  C   UNL A   1      51.447  26.089  24.818  1.00  0.00     0.059 A 
ATOM     84  F   UNL A   1      49.399  27.097  24.271  1.00  0.00    -0.206 F 
ATOM     85  C   UNL A   1      52.279  25.511  25.776  1.00  0.00     0.060 A 
BRANCH  85  86
ATOM     86  S   UNL A   1      53.889  24.840  25.303  1.00  0.00     0.124 S 
ATOM     87  O   UNL A   1      54.189  25.613  24.104  1.00  0.00    -0.237 OA
ATOM     88  O   UNL A   1      54.703  25.138  26.477  1.00  0.00    -0.237 OA
ATOM     89  O   UNL A   1      53.610  23.423  25.088  1.00  0.00    -0.744 OA
ENDBRANCH  85  86
ENDBRANCH  53  78
BRANCH  65  90
ATOM     90  C   UNL A   1      47.010  32.472  28.731  1.00  0.00     0.058 A 
ATOM     91  C   UNL A   1      47.115  33.467  27.747  1.00  0.00     0.135 A 
ATOM     92  C   UNL A   1      47.435  32.786  30.032  1.00  0.00     0.135 A 
ATOM     93  F   UNL A   1      46.729  33.215  26.486  1.00  0.00    -0.206 F 
ATOM     94  C   UNL A   1      47.640  34.722  28.039  1.00  0.00     0.059 A 
ATOM     95  C   UNL A   1      47.941  34.043  30.351  1.00  0.00     0.059 A 
ATOM     96  F   UNL A   1      47.347  31.873  31.011  1.00  0.00    -0.206 F 
ATOM     97  C   UNL A   1      48.049  35.001  29.345  1.00  0.00     0.060 A 
BRANCH  97  98
ATOM     98  S   UNL A   1      48.693  36.646  29.719  1.00  0.00     0.124 S 
ATOM     99  O   UNL A   1      47.573  37.496  29.328  1.00  0.00    -0.237 OA
ATOM    100  O   UNL A   1      48.955  36.562  31.153  1.00  0.00    -0.237 OA
ATOM    101  O   UNL A   1      49.881  36.745  28.877  1.00  0.00    -0.744 OA
ENDBRANCH  97  98
ENDBRANCH  65  90
ENDBRANCH  39  40
ENDBRANCH  31  34
ENDBRANCH  29  30
ENDBRANCH   1  29
TORSDOF 17
ENDMDL
