MODEL 1
REMARK VINA RESULT:     -11.6      0.000      0.000
REMARK SMILES N#Cc1ccc(C(=O)N2CCC[C@H]2C(=O)NCCCCNC(=O)c2ccc(-c3c4nc(c(-c5c(F)cc(S(=O)(=O)[O-])cc5F)c5ccc([nH]5)c(-c5c(F)cc(S(=O)(=O)[O-])cc5F)c5nc(c(-c6c(F)cc(S(=O)(=O)[O-])cc6F)c6ccc3[nH]6)C=C5)C=C4)cc2)cc1
REMARK SMILES IDX 18 1 17 2 16 3 14 4 15 5 13 7 9 8 10 9 11 10 12 11 7 12 8 13
REMARK SMILES IDX 6 14 3 15 4 16 91 17 5 18 90 19 2 20 1 21 19 22 20 23 21 24
REMARK SMILES IDX 22 25 23 27 24 28 25 29 89 30 26 31 88 32 27 33 28 34 29 35
REMARK SMILES IDX 82 36 30 37 87 38 81 39 83 40 31 41 86 42 80 43 79 44 32 46
REMARK SMILES IDX 66 47 45 48 65 49 46 50 49 51 64 52 84 53 47 54 48 55 63 57
REMARK SMILES IDX 85 58 50 59 33 60 34 61 43 62 35 63 36 64 42 65 44 66 37 67
REMARK SMILES IDX 38 68 39 69 40 70 41 71 67 72 68 73 77 74 69 75 70 76 76 77
REMARK SMILES IDX 78 78 71 79 72 80 73 81 74 82 75 83 51 84 52 85 61 86 53 87
REMARK SMILES IDX 54 88 60 89 62 90 55 91 56 92 57 93 58 94 59 95
REMARK H PARENT 16 6 21 26 83 45 49 56
REMARK Flexibility Score: inf
ROOT
ATOM      1  C   UNL A   1      33.720  29.232  26.179  1.00  0.00     0.023 C 
ENDROOT
BRANCH   1   2
ATOM      2  C   UNL A   1      33.564  27.875  25.508  1.00  0.00     0.116 C 
BRANCH   2   3
ATOM      3  N   UNL A   1      32.802  26.917  26.291  1.00  0.00    -0.354 N 
ATOM      4  C   UNL A   1      32.081  25.838  25.858  1.00  0.00     0.242 C 
ATOM      5  O   UNL A   1      31.776  24.980  26.691  1.00  0.00    -0.273 OA
ATOM      6  H   UNL A   1      32.804  27.065  27.264  1.00  0.00     0.163 HD
BRANCH   4   7
ATOM      7  C   UNL A   1      31.698  25.707  24.365  1.00  0.00     0.174 C 
ATOM      8  N   UNL A   1      32.489  24.723  23.618  1.00  0.00    -0.327 N 
ATOM      9  C   UNL A   1      31.773  23.472  23.509  1.00  0.00     0.121 C 
ATOM     10  C   UNL A   1      30.341  23.930  23.342  1.00  0.00     0.024 C 
ATOM     11  C   UNL A   1      30.250  25.170  24.237  1.00  0.00     0.037 C 
BRANCH   8  12
ATOM     12  C   UNL A   1      33.788  24.949  23.227  1.00  0.00     0.254 C 
ATOM     13  O   UNL A   1      34.070  25.687  22.288  1.00  0.00    -0.269 OA
BRANCH  12  14
ATOM     14  C   UNL A   1      34.893  24.152  23.846  1.00  0.00     0.040 A 
ATOM     15  C   UNL A   1      37.087  22.888  25.088  1.00  0.00     0.052 A 
ATOM     16  C   UNL A   1      36.351  23.850  25.782  1.00  0.00     0.020 A 
ATOM     17  C   UNL A   1      36.738  22.570  23.773  1.00  0.00     0.020 A 
ATOM     18  C   UNL A   1      35.260  24.472  25.166  1.00  0.00     0.015 A 
ATOM     19  C   UNL A   1      35.661  23.213  23.148  1.00  0.00     0.015 A 
BRANCH  15  20
ATOM     20  C   UNL A   1      38.205  22.243  25.713  1.00  0.00     0.099 C 
ATOM     21  N   UNL A   1      39.103  21.709  26.215  1.00  0.00    -0.192 NA
ENDBRANCH  15  20
ENDBRANCH  12  14
ENDBRANCH   8  12
ENDBRANCH   4   7
ENDBRANCH   2   3
ENDBRANCH   1   2
BRANCH   1  22
ATOM     22  C   UNL A   1      34.455  29.216  27.518  1.00  0.00     0.023 C 
BRANCH  22  23
ATOM     23  C   UNL A   1      35.309  30.445  27.815  1.00  0.00     0.116 C 
BRANCH  23  24
ATOM     24  N   UNL A   1      35.346  30.780  29.230  1.00  0.00    -0.352 N 
ATOM     25  C   UNL A   1      36.326  30.540  30.165  1.00  0.00     0.251 C 
ATOM     26  H   UNL A   1      34.551  31.250  29.569  1.00  0.00     0.163 HD
ATOM     27  O   UNL A   1      36.095  30.757  31.352  1.00  0.00    -0.269 OA
BRANCH  25  28
ATOM     28  C   UNL A   1      37.643  29.996  29.756  1.00  0.00     0.039 A 
ATOM     29  C   UNL A   1      37.995  30.030  28.404  1.00  0.00     0.014 A 
ATOM     30  C   UNL A   1      38.526  29.446  30.688  1.00  0.00     0.014 A 
ATOM     31  C   UNL A   1      39.256  29.580  28.002  1.00  0.00     0.010 A 
ATOM     32  C   UNL A   1      39.815  29.083  30.299  1.00  0.00     0.010 A 
ATOM     33  C   UNL A   1      40.196  29.142  28.951  1.00  0.00    -0.014 A 
BRANCH  33  34
ATOM     34  C   UNL A   1      41.574  28.754  28.543  1.00  0.00     0.031 A 
ATOM     35  C   UNL A   1      42.678  29.780  28.499  1.00  0.00     0.074 A 
ATOM     36  C   UNL A   1      41.828  27.481  28.175  1.00  0.00     0.049 A 
ATOM     37  N   UNL A   1      43.930  29.632  28.147  1.00  0.00    -0.248 NA
ATOM     38  C   UNL A   1      42.326  31.157  28.883  1.00  0.00     0.031 C 
ATOM     39  C   UNL A   1      40.838  26.401  28.132  1.00  0.00     0.029 A 
ATOM     40  N   UNL A   1      42.991  26.874  27.769  1.00  0.00    -0.354 N 
ATOM     41  C   UNL A   1      44.513  30.888  28.272  1.00  0.00     0.074 A 
ATOM     42  C   UNL A   1      43.462  31.802  28.662  1.00  0.00     0.031 C 
ATOM     43  C   UNL A   1      41.444  25.260  27.762  1.00  0.00     0.029 A 
ATOM     44  C   UNL A   1      42.850  25.533  27.491  1.00  0.00     0.049 A 
ATOM     45  H   UNL A   1      43.846  27.354  27.684  1.00  0.00     0.167 HD
ATOM     46  C   UNL A   1      45.810  31.244  28.107  1.00  0.00     0.037 A 
ATOM     47  C   UNL A   1      43.750  24.627  27.058  1.00  0.00     0.037 A 
ATOM     48  C   UNL A   1      46.854  30.329  27.721  1.00  0.00     0.049 A 
ATOM     49  C   UNL A   1      45.175  25.061  26.832  1.00  0.00     0.074 A 
ATOM     50  C   UNL A   1      48.204  30.586  27.554  1.00  0.00     0.029 A 
ATOM     51  N   UNL A   1      46.668  28.984  27.434  1.00  0.00    -0.354 N 
ATOM     52  N   UNL A   1      45.718  26.242  27.013  1.00  0.00    -0.248 NA
ATOM     53  C   UNL A   1      46.112  24.038  26.347  1.00  0.00     0.031 C 
ATOM     54  C   UNL A   1      48.823  29.415  27.108  1.00  0.00     0.029 A 
ATOM     55  C   UNL A   1      47.874  28.406  27.067  1.00  0.00     0.049 A 
ATOM     56  H   UNL A   1      45.807  28.510  27.484  1.00  0.00     0.167 HD
ATOM     57  C   UNL A   1      47.067  26.091  26.704  1.00  0.00     0.074 A 
ATOM     58  C   UNL A   1      47.257  24.703  26.341  1.00  0.00     0.031 C 
ATOM     59  C   UNL A   1      48.057  27.018  26.721  1.00  0.00     0.037 A 
BRANCH  46  60
ATOM     60  C   UNL A   1      46.181  32.683  28.354  1.00  0.00     0.058 A 
ATOM     61  C   UNL A   1      46.094  33.650  27.338  1.00  0.00     0.135 A 
ATOM     62  C   UNL A   1      46.574  33.115  29.632  1.00  0.00     0.135 A 
ATOM     63  F   UNL A   1      45.737  33.296  26.093  1.00  0.00    -0.206 F 
ATOM     64  C   UNL A   1      46.404  34.986  27.575  1.00  0.00     0.059 A 
ATOM     65  C   UNL A   1      46.858  34.452  29.899  1.00  0.00     0.059 A 
ATOM     66  F   UNL A   1      46.677  32.235  30.641  1.00  0.00    -0.206 F 
ATOM     67  C   UNL A   1      46.780  35.378  28.860  1.00  0.00     0.060 A 
BRANCH  67  68
ATOM     68  S   UNL A   1      47.158  37.119  29.150  1.00  0.00     0.124 S 
ATOM     69  O   UNL A   1      46.491  37.756  28.017  1.00  0.00    -0.237 OA
ATOM     70  O   UNL A   1      46.551  37.354  30.456  1.00  0.00    -0.237 OA
ATOM     71  O   UNL A   1      48.617  37.162  29.122  1.00  0.00    -0.744 OA
ENDBRANCH  67  68
ENDBRANCH  46  60
BRANCH  47  72
ATOM     72  C   UNL A   1      43.343  23.214  26.819  1.00  0.00     0.058 A 
ATOM     73  C   UNL A   1      43.005  22.367  27.887  1.00  0.00     0.135 A 
ATOM     74  C   UNL A   1      43.311  22.670  25.525  1.00  0.00     0.135 A 
ATOM     75  F   UNL A   1      43.025  22.833  29.145  1.00  0.00    -0.206 F 
ATOM     76  C   UNL A   1      42.687  21.027  27.686  1.00  0.00     0.059 A 
ATOM     77  C   UNL A   1      42.959  21.344  25.295  1.00  0.00     0.059 A 
ATOM     78  F   UNL A   1      43.608  23.437  24.465  1.00  0.00    -0.206 F 
ATOM     79  C   UNL A   1      42.667  20.524  26.384  1.00  0.00     0.060 A 
BRANCH  79  80
ATOM     80  S   UNL A   1      42.236  18.789  26.133  1.00  0.00     0.124 S 
ATOM     81  O   UNL A   1      43.070  18.440  24.990  1.00  0.00    -0.237 OA
ATOM     82  O   UNL A   1      42.618  18.193  27.409  1.00  0.00    -0.237 OA
ATOM     83  O   UNL A   1      40.799  18.833  25.877  1.00  0.00    -0.744 OA
ENDBRANCH  79  80
ENDBRANCH  47  72
BRANCH  59  84
ATOM     84  C   UNL A   1      49.451  26.553  26.387  1.00  0.00     0.058 A 
ATOM     85  C   UNL A   1      50.014  26.734  25.114  1.00  0.00     0.135 A 
ATOM     86  C   UNL A   1      50.250  25.949  27.373  1.00  0.00     0.135 A 
ATOM     87  F   UNL A   1      49.296  27.301  24.131  1.00  0.00    -0.206 F 
ATOM     88  C   UNL A   1      51.303  26.302  24.820  1.00  0.00     0.059 A 
ATOM     89  C   UNL A   1      51.555  25.545  27.113  1.00  0.00     0.059 A 
ATOM     90  F   UNL A   1      49.769  25.760  28.613  1.00  0.00    -0.206 F 
ATOM     91  C   UNL A   1      52.069  25.711  25.828  1.00  0.00     0.060 A 
BRANCH  91  92
ATOM     92  S   UNL A   1      53.748  25.179  25.437  1.00  0.00     0.124 S 
ATOM     93  O   UNL A   1      53.623  23.727  25.508  1.00  0.00    -0.237 OA
ATOM     94  O   UNL A   1      53.946  25.733  24.101  1.00  0.00    -0.237 OA
ATOM     95  O   UNL A   1      54.554  25.791  26.490  1.00  0.00    -0.744 OA
ENDBRANCH  91  92
ENDBRANCH  59  84
ENDBRANCH  33  34
ENDBRANCH  25  28
ENDBRANCH  23  24
ENDBRANCH  22  23
ENDBRANCH   1  22
TORSDOF 17
ENDMDL
MODEL 2
REMARK VINA RESULT:     -11.4      6.464      8.989
REMARK SMILES N#Cc1ccc(C(=O)N2CCC[C@H]2C(=O)NCCCCNC(=O)c2ccc(-c3c4nc(c(-c5c(F)cc(S(=O)(=O)[O-])cc5F)c5ccc([nH]5)c(-c5c(F)cc(S(=O)(=O)[O-])cc5F)c5nc(c(-c6c(F)cc(S(=O)(=O)[O-])cc6F)c6ccc3[nH]6)C=C5)C=C4)cc2)cc1
REMARK SMILES IDX 18 1 17 2 16 3 14 4 15 5 13 7 9 8 10 9 11 10 12 11 7 12 8 13
REMARK SMILES IDX 6 14 3 15 4 16 91 17 5 18 90 19 2 20 1 21 19 22 20 23 21 24
REMARK SMILES IDX 22 25 23 27 24 28 25 29 89 30 26 31 88 32 27 33 28 34 29 35
REMARK SMILES IDX 82 36 30 37 87 38 81 39 83 40 31 41 86 42 80 43 79 44 32 46
REMARK SMILES IDX 66 47 45 48 65 49 46 50 49 51 64 52 84 53 47 54 48 55 63 57
REMARK SMILES IDX 85 58 50 59 33 60 34 61 43 62 35 63 36 64 42 65 44 66 37 67
REMARK SMILES IDX 38 68 39 69 40 70 41 71 67 72 68 73 77 74 69 75 70 76 76 77
REMARK SMILES IDX 78 78 71 79 72 80 73 81 74 82 75 83 51 84 52 85 61 86 53 87
REMARK SMILES IDX 54 88 60 89 62 90 55 91 56 92 57 93 58 94 59 95
REMARK H PARENT 16 6 21 26 83 45 49 56
REMARK Flexibility Score: inf
ROOT
ATOM      1  C   UNL A   1      31.829  30.494  25.765  1.00  0.00     0.023 C 
ENDROOT
BRANCH   1   2
ATOM      2  C   UNL A   1      32.812  29.333  25.816  1.00  0.00     0.116 C 
BRANCH   2   3
ATOM      3  N   UNL A   1      33.622  29.198  24.618  1.00  0.00    -0.354 N 
ATOM      4  C   UNL A   1      33.659  28.164  23.721  1.00  0.00     0.242 C 
ATOM      5  O   UNL A   1      34.170  28.379  22.619  1.00  0.00    -0.273 OA
ATOM      6  H   UNL A   1      34.227  29.950  24.425  1.00  0.00     0.163 HD
BRANCH   4   7
ATOM      7  C   UNL A   1      33.048  26.792  24.091  1.00  0.00     0.174 C 
ATOM      8  N   UNL A   1      31.722  26.541  23.516  1.00  0.00    -0.327 N 
ATOM      9  C   UNL A   1      31.830  25.734  22.321  1.00  0.00     0.121 C 
ATOM     10  C   UNL A   1      32.958  24.787  22.669  1.00  0.00     0.024 C 
ATOM     11  C   UNL A   1      33.914  25.652  23.498  1.00  0.00     0.037 C 
BRANCH   8  12
ATOM     12  C   UNL A   1      30.576  27.137  23.989  1.00  0.00     0.254 C 
ATOM     13  O   UNL A   1      29.949  26.686  24.942  1.00  0.00    -0.269 OA
BRANCH  12  14
ATOM     14  C   UNL A   1      29.971  28.276  23.229  1.00  0.00     0.040 A 
ATOM     15  C   UNL A   1      28.663  30.238  21.681  1.00  0.00     0.052 A 
ATOM     16  C   UNL A   1      27.917  29.340  22.446  1.00  0.00     0.020 A 
ATOM     17  C   UNL A   1      30.058  30.146  21.677  1.00  0.00     0.020 A 
ATOM     18  C   UNL A   1      28.568  28.372  23.217  1.00  0.00     0.015 A 
ATOM     19  C   UNL A   1      30.707  29.158  22.430  1.00  0.00     0.015 A 
BRANCH  15  20
ATOM     20  C   UNL A   1      28.006  31.237  20.890  1.00  0.00     0.099 C 
ATOM     21  N   UNL A   1      27.486  32.048  20.246  1.00  0.00    -0.192 NA
ENDBRANCH  15  20
ENDBRANCH  12  14
ENDBRANCH   8  12
ENDBRANCH   4   7
ENDBRANCH   2   3
ENDBRANCH   1   2
BRANCH   1  22
ATOM     22  C   UNL A   1      31.805  31.383  27.006  1.00  0.00     0.023 C 
BRANCH  22  23
ATOM     23  C   UNL A   1      33.056  32.224  27.239  1.00  0.00     0.116 C 
BRANCH  23  24
ATOM     24  N   UNL A   1      32.755  33.609  27.568  1.00  0.00    -0.352 N 
ATOM     25  C   UNL A   1      33.288  34.416  28.546  1.00  0.00     0.251 C 
ATOM     26  H   UNL A   1      32.065  34.031  27.008  1.00  0.00     0.163 HD
ATOM     27  O   UNL A   1      32.779  35.511  28.770  1.00  0.00    -0.269 OA
BRANCH  25  28
ATOM     28  C   UNL A   1      34.451  33.963  29.346  1.00  0.00     0.039 A 
ATOM     29  C   UNL A   1      34.224  33.172  30.476  1.00  0.00     0.014 A 
ATOM     30  C   UNL A   1      35.758  34.319  29.001  1.00  0.00     0.014 A 
ATOM     31  C   UNL A   1      35.308  32.682  31.210  1.00  0.00     0.010 A 
ATOM     32  C   UNL A   1      36.837  33.755  29.679  1.00  0.00     0.010 A 
ATOM     33  C   UNL A   1      36.627  32.932  30.795  1.00  0.00    -0.014 A 
BRANCH  33  34
ATOM     34  C   UNL A   1      37.785  32.333  31.514  1.00  0.00     0.031 A 
ATOM     35  C   UNL A   1      38.235  32.890  32.840  1.00  0.00     0.074 A 
ATOM     36  C   UNL A   1      38.457  31.305  30.956  1.00  0.00     0.049 A 
ATOM     37  N   UNL A   1      39.234  32.514  33.598  1.00  0.00    -0.248 NA
ATOM     38  C   UNL A   1      37.477  34.032  33.378  1.00  0.00     0.031 C 
ATOM     39  C   UNL A   1      38.149  30.700  29.657  1.00  0.00     0.029 A 
ATOM     40  N   UNL A   1      39.536  30.583  31.405  1.00  0.00    -0.354 N 
ATOM     41  C   UNL A   1      39.220  33.364  34.698  1.00  0.00     0.074 A 
ATOM     42  C   UNL A   1      38.160  34.323  34.475  1.00  0.00     0.031 C 
ATOM     43  C   UNL A   1      38.992  29.678  29.435  1.00  0.00     0.029 A 
ATOM     44  C   UNL A   1      39.932  29.584  30.545  1.00  0.00     0.049 A 
ATOM     45  H   UNL A   1      39.984  30.764  32.262  1.00  0.00     0.167 HD
ATOM     46  C   UNL A   1      39.999  33.333  35.807  1.00  0.00     0.037 A 
ATOM     47  C   UNL A   1      40.944  28.697  30.636  1.00  0.00     0.037 A 
ATOM     48  C   UNL A   1      41.053  32.375  36.025  1.00  0.00     0.049 A 
ATOM     49  C   UNL A   1      41.827  28.718  31.857  1.00  0.00     0.074 A 
ATOM     50  C   UNL A   1      41.880  32.244  37.128  1.00  0.00     0.029 A 
ATOM     51  N   UNL A   1      41.432  31.390  35.125  1.00  0.00    -0.354 N 
ATOM     52  N   UNL A   1      41.760  29.493  32.913  1.00  0.00    -0.248 NA
ATOM     53  C   UNL A   1      42.923  27.740  31.900  1.00  0.00     0.031 C 
ATOM     54  C   UNL A   1      42.796  31.221  36.870  1.00  0.00     0.029 A 
ATOM     55  C   UNL A   1      42.496  30.664  35.637  1.00  0.00     0.049 A 
ATOM     56  H   UNL A   1      41.007  31.230  34.251  1.00  0.00     0.167 HD
ATOM     57  C   UNL A   1      42.776  29.067  33.763  1.00  0.00     0.074 A 
ATOM     58  C   UNL A   1      43.432  27.958  33.103  1.00  0.00     0.031 C 
ATOM     59  C   UNL A   1      43.134  29.550  34.978  1.00  0.00     0.037 A 
BRANCH  46  60
ATOM     60  C   UNL A   1      39.736  34.358  36.879  1.00  0.00     0.058 A 
ATOM     61  C   UNL A   1      39.008  34.040  38.039  1.00  0.00     0.135 A 
ATOM     62  C   UNL A   1      40.262  35.657  36.778  1.00  0.00     0.135 A 
ATOM     63  F   UNL A   1      38.468  32.820  38.187  1.00  0.00    -0.206 F 
ATOM     64  C   UNL A   1      38.792  34.977  39.045  1.00  0.00     0.059 A 
ATOM     65  C   UNL A   1      40.087  36.600  37.787  1.00  0.00     0.059 A 
ATOM     66  F   UNL A   1      40.965  36.018  35.693  1.00  0.00    -0.206 F 
ATOM     67  C   UNL A   1      39.341  36.253  38.912  1.00  0.00     0.060 A 
BRANCH  67  68
ATOM     68  S   UNL A   1      39.068  37.446  40.238  1.00  0.00     0.124 S 
ATOM     69  O   UNL A   1      40.430  37.894  40.515  1.00  0.00    -0.237 OA
ATOM     70  O   UNL A   1      38.197  38.427  39.598  1.00  0.00    -0.237 OA
ATOM     71  O   UNL A   1      38.445  36.650  41.292  1.00  0.00    -0.744 OA
ENDBRANCH  67  68
ENDBRANCH  46  60
BRANCH  47  72
ATOM     72  C   UNL A   1      41.175  27.702  29.551  1.00  0.00     0.058 A 
ATOM     73  C   UNL A   1      42.260  27.829  28.670  1.00  0.00     0.135 A 
ATOM     74  C   UNL A   1      40.301  26.620  29.353  1.00  0.00     0.135 A 
ATOM     75  F   UNL A   1      43.121  28.848  28.810  1.00  0.00    -0.206 F 
ATOM     76  C   UNL A   1      42.451  26.945  27.612  1.00  0.00     0.059 A 
ATOM     77  C   UNL A   1      40.493  25.701  28.326  1.00  0.00     0.059 A 
ATOM     78  F   UNL A   1      39.257  26.438  30.175  1.00  0.00    -0.206 F 
ATOM     79  C   UNL A   1      41.561  25.883  27.448  1.00  0.00     0.060 A 
BRANCH  79  80
ATOM     80  S   UNL A   1      41.829  24.733  26.083  1.00  0.00     0.124 S 
ATOM     81  O   UNL A   1      43.053  24.059  26.501  1.00  0.00    -0.237 OA
ATOM     82  O   UNL A   1      40.612  23.928  26.121  1.00  0.00    -0.237 OA
ATOM     83  O   UNL A   1      41.955  25.610  24.924  1.00  0.00    -0.744 OA
ENDBRANCH  79  80
ENDBRANCH  47  72
BRANCH  59  84
ATOM     84  C   UNL A   1      44.254  28.850  35.704  1.00  0.00     0.058 A 
ATOM     85  C   UNL A   1      44.021  27.778  36.579  1.00  0.00     0.135 A 
ATOM     86  C   UNL A   1      45.588  29.239  35.489  1.00  0.00     0.135 A 
ATOM     87  F   UNL A   1      42.768  27.366  36.827  1.00  0.00    -0.206 F 
ATOM     88  C   UNL A   1      45.065  27.140  37.242  1.00  0.00     0.059 A 
ATOM     89  C   UNL A   1      46.649  28.590  36.110  1.00  0.00     0.059 A 
ATOM     90  F   UNL A   1      45.872  30.252  34.654  1.00  0.00    -0.206 F 
ATOM     91  C   UNL A   1      46.378  27.550  36.998  1.00  0.00     0.060 A 
BRANCH  91  92
ATOM     92  S   UNL A   1      47.722  26.695  37.846  1.00  0.00     0.124 S 
ATOM     93  O   UNL A   1      47.744  27.382  39.132  1.00  0.00    -0.237 OA
ATOM     94  O   UNL A   1      47.244  25.316  37.871  1.00  0.00    -0.237 OA
ATOM     95  O   UNL A   1      48.877  26.937  36.986  1.00  0.00    -0.744 OA
ENDBRANCH  91  92
ENDBRANCH  59  84
ENDBRANCH  33  34
ENDBRANCH  25  28
ENDBRANCH  23  24
ENDBRANCH  22  23
ENDBRANCH   1  22
TORSDOF 17
ENDMDL
MODEL 3
REMARK VINA RESULT:     -11.4      5.117      6.385
REMARK SMILES N#Cc1ccc(C(=O)N2CCC[C@H]2C(=O)NCCCCNC(=O)c2ccc(-c3c4nc(c(-c5c(F)cc(S(=O)(=O)[O-])cc5F)c5ccc([nH]5)c(-c5c(F)cc(S(=O)(=O)[O-])cc5F)c5nc(c(-c6c(F)cc(S(=O)(=O)[O-])cc6F)c6ccc3[nH]6)C=C5)C=C4)cc2)cc1
REMARK SMILES IDX 18 1 17 2 16 3 14 4 15 5 13 7 9 8 10 9 11 10 12 11 7 12 8 13
REMARK SMILES IDX 6 14 3 15 4 16 91 17 5 18 90 19 2 20 1 21 19 22 20 23 21 24
REMARK SMILES IDX 22 25 23 27 24 28 25 29 89 30 26 31 88 32 27 33 28 34 29 35
REMARK SMILES IDX 82 36 30 37 87 38 81 39 83 40 31 41 86 42 80 43 79 44 32 46
REMARK SMILES IDX 66 47 45 48 65 49 46 50 49 51 64 52 84 53 47 54 48 55 63 57
REMARK SMILES IDX 85 58 50 59 33 60 34 61 43 62 35 63 36 64 42 65 44 66 37 67
REMARK SMILES IDX 38 68 39 69 40 70 41 71 67 72 68 73 77 74 69 75 70 76 76 77
REMARK SMILES IDX 78 78 71 79 72 80 73 81 74 82 75 83 51 84 52 85 61 86 53 87
REMARK SMILES IDX 54 88 60 89 62 90 55 91 56 92 57 93 58 94 59 95
REMARK H PARENT 16 6 21 26 83 45 49 56
REMARK Flexibility Score: inf
ROOT
ATOM      1  C   UNL A   1      31.675  27.625  25.435  1.00  0.00     0.023 C 
ENDROOT
BRANCH   1   2
ATOM      2  C   UNL A   1      31.444  26.409  24.550  1.00  0.00     0.116 C 
BRANCH   2   3
ATOM      3  N   UNL A   1      32.497  26.183  23.576  1.00  0.00    -0.354 N 
ATOM      4  C   UNL A   1      33.332  25.107  23.451  1.00  0.00     0.242 C 
ATOM      5  O   UNL A   1      33.934  24.967  22.383  1.00  0.00    -0.273 OA
ATOM      6  H   UNL A   1      32.629  26.902  22.917  1.00  0.00     0.163 HD
BRANCH   4   7
ATOM      7  C   UNL A   1      33.479  24.097  24.615  1.00  0.00     0.174 C 
ATOM      8  N   UNL A   1      33.633  22.701  24.193  1.00  0.00    -0.327 N 
ATOM      9  C   UNL A   1      35.028  22.318  24.202  1.00  0.00     0.121 C 
ATOM     10  C   UNL A   1      35.560  23.057  25.411  1.00  0.00     0.024 C 
ATOM     11  C   UNL A   1      34.786  24.379  25.397  1.00  0.00     0.037 C 
BRANCH   8  12
ATOM     12  C   UNL A   1      32.590  21.944  23.715  1.00  0.00     0.254 C 
ATOM     13  O   UNL A   1      31.591  22.448  23.211  1.00  0.00    -0.269 OA
BRANCH  12  14
ATOM     14  C   UNL A   1      32.579  20.466  23.959  1.00  0.00     0.040 A 
ATOM     15  C   UNL A   1      32.790  17.719  24.558  1.00  0.00     0.052 A 
ATOM     16  C   UNL A   1      32.887  18.665  25.579  1.00  0.00     0.020 A 
ATOM     17  C   UNL A   1      32.604  18.143  23.239  1.00  0.00     0.020 A 
ATOM     18  C   UNL A   1      32.776  20.027  25.280  1.00  0.00     0.015 A 
ATOM     19  C   UNL A   1      32.520  19.510  22.939  1.00  0.00     0.015 A 
BRANCH  15  20
ATOM     20  C   UNL A   1      32.899  16.320  24.855  1.00  0.00     0.099 C 
ATOM     21  N   UNL A   1      32.974  15.190  25.099  1.00  0.00    -0.192 NA
ENDBRANCH  15  20
ENDBRANCH  12  14
ENDBRANCH   8  12
ENDBRANCH   4   7
ENDBRANCH   2   3
ENDBRANCH   1   2
BRANCH   1  22
ATOM     22  C   UNL A   1      32.993  27.631  26.204  1.00  0.00     0.023 C 
BRANCH  22  23
ATOM     23  C   UNL A   1      34.004  28.689  25.771  1.00  0.00     0.116 C 
BRANCH  23  24
ATOM     24  N   UNL A   1      33.700  30.011  26.295  1.00  0.00    -0.352 N 
ATOM     25  C   UNL A   1      34.311  30.720  27.304  1.00  0.00     0.251 C 
ATOM     26  H   UNL A   1      32.943  30.468  25.864  1.00  0.00     0.163 HD
ATOM     27  O   UNL A   1      33.797  31.759  27.711  1.00  0.00    -0.269 OA
BRANCH  25  28
ATOM     28  C   UNL A   1      35.565  30.224  27.920  1.00  0.00     0.039 A 
ATOM     29  C   UNL A   1      36.775  30.444  27.256  1.00  0.00     0.014 A 
ATOM     30  C   UNL A   1      35.558  29.538  29.138  1.00  0.00     0.014 A 
ATOM     31  C   UNL A   1      37.976  30.041  27.848  1.00  0.00     0.010 A 
ATOM     32  C   UNL A   1      36.760  29.220  29.767  1.00  0.00     0.010 A 
ATOM     33  C   UNL A   1      37.985  29.464  29.129  1.00  0.00    -0.014 A 
BRANCH  33  34
ATOM     34  C   UNL A   1      39.266  29.122  29.808  1.00  0.00     0.031 A 
ATOM     35  C   UNL A   1      39.713  29.884  31.029  1.00  0.00     0.074 A 
ATOM     36  C   UNL A   1      40.048  28.145  29.303  1.00  0.00     0.049 A 
ATOM     37  N   UNL A   1      40.806  29.743  31.736  1.00  0.00    -0.248 NA
ATOM     38  C   UNL A   1      38.827  30.958  31.508  1.00  0.00     0.031 C 
ATOM     39  C   UNL A   1      39.750  27.360  28.102  1.00  0.00     0.029 A 
ATOM     40  N   UNL A   1      41.251  27.642  29.733  1.00  0.00    -0.354 N 
ATOM     41  C   UNL A   1      40.736  30.701  32.742  1.00  0.00     0.074 A 
ATOM     42  C   UNL A   1      39.529  31.466  32.510  1.00  0.00     0.031 C 
ATOM     43  C   UNL A   1      40.722  26.451  27.916  1.00  0.00     0.029 A 
ATOM     44  C   UNL A   1      41.737  26.619  28.949  1.00  0.00     0.049 A 
ATOM     45  H   UNL A   1      41.723  27.980  30.528  1.00  0.00     0.167 HD
ATOM     46  C   UNL A   1      41.582  30.908  33.780  1.00  0.00     0.037 A 
ATOM     47  C   UNL A   1      42.875  25.903  29.046  1.00  0.00     0.037 A 
ATOM     48  C   UNL A   1      42.781  30.142  34.007  1.00  0.00     0.049 A 
ATOM     49  C   UNL A   1      43.825  26.189  30.181  1.00  0.00     0.074 A 
ATOM     50  C   UNL A   1      43.690  30.256  35.046  1.00  0.00     0.029 A 
ATOM     51  N   UNL A   1      43.245  29.127  33.183  1.00  0.00    -0.354 N 
ATOM     52  N   UNL A   1      43.710  27.059  31.156  1.00  0.00    -0.248 NA
ATOM     53  C   UNL A   1      45.056  25.390  30.233  1.00  0.00     0.031 C 
ATOM     54  C   UNL A   1      44.732  29.354  34.818  1.00  0.00     0.029 A 
ATOM     55  C   UNL A   1      44.439  28.624  33.677  1.00  0.00     0.049 A 
ATOM     56  H   UNL A   1      42.793  28.810  32.368  1.00  0.00     0.167 HD
ATOM     57  C   UNL A   1      44.834  26.883  31.958  1.00  0.00     0.074 A 
ATOM     58  C   UNL A   1      45.605  25.813  31.362  1.00  0.00     0.031 C 
ATOM     59  C   UNL A   1      45.194  27.547  33.084  1.00  0.00     0.037 A 
BRANCH  46  60
ATOM     60  C   UNL A   1      41.238  31.998  34.761  1.00  0.00     0.058 A 
ATOM     61  C   UNL A   1      41.712  33.311  34.598  1.00  0.00     0.135 A 
ATOM     62  C   UNL A   1      40.379  31.746  35.844  1.00  0.00     0.135 A 
ATOM     63  F   UNL A   1      42.546  33.611  33.589  1.00  0.00    -0.206 F 
ATOM     64  C   UNL A   1      41.368  34.326  35.485  1.00  0.00     0.059 A 
ATOM     65  C   UNL A   1      39.995  32.754  36.725  1.00  0.00     0.059 A 
ATOM     66  F   UNL A   1      39.896  30.511  36.050  1.00  0.00    -0.206 F 
ATOM     67  C   UNL A   1      40.504  34.039  36.543  1.00  0.00     0.060 A 
BRANCH  67  68
ATOM     68  S   UNL A   1      40.053  35.375  37.669  1.00  0.00     0.124 S 
ATOM     69  O   UNL A   1      38.810  34.868  38.243  1.00  0.00    -0.237 OA
ATOM     70  O   UNL A   1      41.197  35.418  38.573  1.00  0.00    -0.237 OA
ATOM     71  O   UNL A   1      39.909  36.532  36.788  1.00  0.00    -0.744 OA
ENDBRANCH  67  68
ENDBRANCH  46  60
BRANCH  47  72
ATOM     72  C   UNL A   1      43.183  24.836  28.053  1.00  0.00     0.058 A 
ATOM     73  C   UNL A   1      42.877  23.491  28.315  1.00  0.00     0.135 A 
ATOM     74  C   UNL A   1      43.815  25.132  26.834  1.00  0.00     0.135 A 
ATOM     75  F   UNL A   1      42.278  23.152  29.468  1.00  0.00    -0.206 F 
ATOM     76  C   UNL A   1      43.218  22.476  27.426  1.00  0.00     0.059 A 
ATOM     77  C   UNL A   1      44.132  24.139  25.913  1.00  0.00     0.059 A 
ATOM     78  F   UNL A   1      44.116  26.401  26.522  1.00  0.00    -0.206 F 
ATOM     79  C   UNL A   1      43.845  22.811  26.226  1.00  0.00     0.060 A 
BRANCH  79  80
ATOM     80  S   UNL A   1      44.267  21.488  25.072  1.00  0.00     0.124 S 
ATOM     81  O   UNL A   1      44.123  22.161  23.787  1.00  0.00    -0.237 OA
ATOM     82  O   UNL A   1      45.631  21.158  25.472  1.00  0.00    -0.237 OA
ATOM     83  O   UNL A   1      43.271  20.460  25.361  1.00  0.00    -0.744 OA
ENDBRANCH  79  80
ENDBRANCH  47  72
BRANCH  59  84
ATOM     84  C   UNL A   1      46.452  27.101  33.783  1.00  0.00     0.058 A 
ATOM     85  C   UNL A   1      47.711  27.635  33.466  1.00  0.00     0.135 A 
ATOM     86  C   UNL A   1      46.389  26.148  34.814  1.00  0.00     0.135 A 
ATOM     87  F   UNL A   1      47.834  28.545  32.486  1.00  0.00    -0.206 F 
ATOM     88  C   UNL A   1      48.865  27.216  34.121  1.00  0.00     0.059 A 
ATOM     89  C   UNL A   1      47.524  25.743  35.508  1.00  0.00     0.059 A 
ATOM     90  F   UNL A   1      45.210  25.611  35.168  1.00  0.00    -0.206 F 
ATOM     91  C   UNL A   1      48.762  26.271  35.144  1.00  0.00     0.060 A 
BRANCH  91  92
ATOM     92  S   UNL A   1      50.265  25.757  36.000  1.00  0.00     0.124 S 
ATOM     93  O   UNL A   1      50.037  26.283  37.341  1.00  0.00    -0.237 OA
ATOM     94  O   UNL A   1      50.212  24.304  35.872  1.00  0.00    -0.237 OA
ATOM     95  O   UNL A   1      51.329  26.410  35.243  1.00  0.00    -0.744 OA
ENDBRANCH  91  92
ENDBRANCH  59  84
ENDBRANCH  33  34
ENDBRANCH  25  28
ENDBRANCH  23  24
ENDBRANCH  22  23
ENDBRANCH   1  22
TORSDOF 17
ENDMDL
