MODEL 1
REMARK VINA RESULT:     -10.9      0.000      0.000
REMARK SMILES CCN(C(=O)NC[C@]1(C)CCCO1)[C@@H](C)CC(=O)NCCCCNC(=O)c1ccc(-c2c3nc(c(-c4c(F)cc(S(=O)(=O)[O-])cc4F)c4ccc([nH]4)c(-c4c(F)cc(S(=O)(=O)[O-])cc4F)c4nc(c(-c5c(F)cc(S(=O)(=O)[O-])cc5F)c5ccc2[nH]5)C=C4)C=C3)cc1
REMARK SMILES IDX 20 1 19 2 17 3 18 4 16 6 14 7 15 8 3 9 2 10 1 11 4 12 5 13
REMARK SMILES IDX 6 14 7 16 8 17 10 18 13 19 9 20 11 21 12 22 21 23 22 24
REMARK SMILES IDX 23 25 24 26 25 27 26 29 27 30 28 31 92 32 29 33 91 34 30 35
REMARK SMILES IDX 31 36 32 37 85 38 33 39 90 40 84 41 86 42 34 43 89 44 83 45
REMARK SMILES IDX 82 46 35 48 69 49 48 50 68 51 49 52 52 53 67 54 87 55 50 56
REMARK SMILES IDX 51 57 66 59 88 60 53 61 36 62 37 63 46 64 38 65 39 66 45 67
REMARK SMILES IDX 47 68 40 69 41 70 42 71 43 72 44 73 70 74 71 75 80 76 72 77
REMARK SMILES IDX 73 78 79 79 81 80 74 81 75 82 76 83 77 84 78 85 54 86 55 87
REMARK SMILES IDX 64 88 56 89 57 90 63 91 65 92 58 93 59 94 60 95 61 96 62 97
REMARK H PARENT 19 5 6 15 24 28 86 47 52 58
REMARK Flexibility Score: inf
ROOT
ATOM      1  C   UNL A   1      30.851  26.541  25.974  1.00  0.00     0.116 C 
ENDROOT
BRANCH   1   2
ATOM      2  N   UNL A   1      30.340  25.406  26.710  1.00  0.00    -0.356 N 
ATOM      3  C   UNL A   1      30.514  24.079  26.460  1.00  0.00     0.222 C 
ATOM      4  O   UNL A   1      29.955  23.257  27.188  1.00  0.00    -0.275 OA
ATOM      5  H   UNL A   1      29.793  25.622  27.499  1.00  0.00     0.163 HD
BRANCH   3   6
ATOM      6  C   UNL A   1      31.408  23.633  25.321  1.00  0.00     0.124 C 
BRANCH   6   7
ATOM      7  C   UNL A   1      32.804  23.208  25.813  1.00  0.00     0.093 C 
ATOM      8  C   UNL A   1      33.705  24.433  26.041  1.00  0.00     0.031 C 
BRANCH   7   9
ATOM      9  N   UNL A   1      33.529  22.173  25.002  1.00  0.00    -0.322 N 
BRANCH   9  10
ATOM     10  C   UNL A   1      34.007  22.517  23.649  1.00  0.00     0.118 C 
ATOM     11  C   UNL A   1      35.482  22.830  23.475  1.00  0.00     0.027 C 
ENDBRANCH   9  10
BRANCH   9  12
ATOM     12  C   UNL A   1      34.277  21.281  25.769  1.00  0.00     0.317 C 
ATOM     13  O   UNL A   1      35.148  21.645  26.561  1.00  0.00    -0.249 OA
ATOM     14  N   UNL A   1      34.140  19.949  25.616  1.00  0.00    -0.335 N 
ATOM     15  H   UNL A   1      34.997  19.469  25.532  1.00  0.00     0.165 HD
BRANCH  14  16
ATOM     16  C   UNL A   1      32.968  19.076  25.548  1.00  0.00     0.152 C 
BRANCH  16  17
ATOM     17  C   UNL A   1      33.090  18.091  24.356  1.00  0.00     0.083 C 
ATOM     18  C   UNL A   1      32.526  16.708  24.658  1.00  0.00     0.039 C 
ATOM     19  O   UNL A   1      34.493  17.836  24.106  1.00  0.00    -0.373 OA
ATOM     20  C   UNL A   1      32.461  18.698  23.106  1.00  0.00     0.044 C 
ATOM     21  C   UNL A   1      33.640  16.046  25.434  1.00  0.00     0.031 C 
ATOM     22  C   UNL A   1      34.892  16.684  24.866  1.00  0.00     0.161 C 
ENDBRANCH  16  17
ENDBRANCH  14  16
ENDBRANCH   9  12
ENDBRANCH   7   9
ENDBRANCH   6   7
ENDBRANCH   3   6
ENDBRANCH   1   2
BRANCH   1  23
ATOM     23  C   UNL A   1      31.358  27.629  26.915  1.00  0.00     0.023 C 
BRANCH  23  24
ATOM     24  C   UNL A   1      32.327  28.616  26.278  1.00  0.00     0.023 C 
BRANCH  24  25
ATOM     25  C   UNL A   1      33.588  28.889  27.092  1.00  0.00     0.116 C 
BRANCH  25  26
ATOM     26  N   UNL A   1      33.609  30.191  27.754  1.00  0.00    -0.352 N 
ATOM     27  C   UNL A   1      34.659  30.798  28.408  1.00  0.00     0.251 C 
ATOM     28  H   UNL A   1      32.766  30.697  27.730  1.00  0.00     0.163 HD
ATOM     29  O   UNL A   1      34.519  31.898  28.935  1.00  0.00    -0.269 OA
BRANCH  27  30
ATOM     30  C   UNL A   1      35.948  30.084  28.497  1.00  0.00     0.039 A 
ATOM     31  C   UNL A   1      36.844  30.144  27.427  1.00  0.00     0.014 A 
ATOM     32  C   UNL A   1      36.308  29.465  29.694  1.00  0.00     0.014 A 
ATOM     33  C   UNL A   1      38.150  29.680  27.604  1.00  0.00     0.010 A 
ATOM     34  C   UNL A   1      37.631  29.099  29.898  1.00  0.00     0.010 A 
ATOM     35  C   UNL A   1      38.571  29.215  28.861  1.00  0.00    -0.014 A 
BRANCH  35  36
ATOM     36  C   UNL A   1      39.990  28.867  29.144  1.00  0.00     0.031 A 
ATOM     37  C   UNL A   1      40.910  29.908  29.723  1.00  0.00     0.074 A 
ATOM     38  C   UNL A   1      40.477  27.666  28.766  1.00  0.00     0.049 A 
ATOM     39  N   UNL A   1      42.208  29.873  29.873  1.00  0.00    -0.248 NA
ATOM     40  C   UNL A   1      40.291  31.176  30.147  1.00  0.00     0.031 C 
ATOM     41  C   UNL A   1      39.704  26.593  28.133  1.00  0.00     0.029 A 
ATOM     42  N   UNL A   1      41.748  27.152  28.840  1.00  0.00    -0.354 N 
ATOM     43  C   UNL A   1      42.565  31.123  30.367  1.00  0.00     0.074 A 
ATOM     44  C   UNL A   1      41.353  31.909  30.449  1.00  0.00     0.031 C 
ATOM     45  C   UNL A   1      40.511  25.545  27.897  1.00  0.00     0.029 A 
ATOM     46  C   UNL A   1      41.866  25.884  28.320  1.00  0.00     0.049 A 
ATOM     47  H   UNL A   1      42.506  27.646  29.230  1.00  0.00     0.167 HD
ATOM     48  C   UNL A   1      43.787  31.567  30.741  1.00  0.00     0.037 A 
ATOM     49  C   UNL A   1      42.945  25.089  28.186  1.00  0.00     0.037 A 
ATOM     50  C   UNL A   1      44.977  30.759  30.720  1.00  0.00     0.049 A 
ATOM     51  C   UNL A   1      44.285  25.590  28.654  1.00  0.00     0.074 A 
ATOM     52  C   UNL A   1      46.246  31.085  31.164  1.00  0.00     0.029 A 
ATOM     53  N   UNL A   1      45.041  29.458  30.242  1.00  0.00    -0.354 N 
ATOM     54  N   UNL A   1      44.592  26.754  29.175  1.00  0.00    -0.248 NA
ATOM     55  C   UNL A   1      45.425  24.672  28.518  1.00  0.00     0.031 C 
ATOM     56  C   UNL A   1      47.085  29.991  30.929  1.00  0.00     0.029 A 
ATOM     57  C   UNL A   1      46.330  28.972  30.372  1.00  0.00     0.049 A 
ATOM     58  H   UNL A   1      44.282  28.956  29.867  1.00  0.00     0.167 HD
ATOM     59  C   UNL A   1      45.953  26.699  29.451  1.00  0.00     0.074 A 
ATOM     60  C   UNL A   1      46.408  25.383  29.052  1.00  0.00     0.031 C 
ATOM     61  C   UNL A   1      46.757  27.652  29.981  1.00  0.00     0.037 A 
BRANCH  48  62
ATOM     62  C   UNL A   1      43.899  32.985  31.227  1.00  0.00     0.058 A 
ATOM     63  C   UNL A   1      43.710  33.315  32.579  1.00  0.00     0.135 A 
ATOM     64  C   UNL A   1      44.244  34.019  30.342  1.00  0.00     0.135 A 
ATOM     65  F   UNL A   1      43.361  32.368  33.464  1.00  0.00    -0.206 F 
ATOM     66  C   UNL A   1      43.838  34.623  33.032  1.00  0.00     0.059 A 
ATOM     67  C   UNL A   1      44.403  35.331  30.779  1.00  0.00     0.059 A 
ATOM     68  F   UNL A   1      44.431  33.758  29.039  1.00  0.00    -0.206 F 
ATOM     69  C   UNL A   1      44.187  35.624  32.125  1.00  0.00     0.060 A 
BRANCH  69  70
ATOM     70  S   UNL A   1      44.370  37.313  32.734  1.00  0.00     0.124 S 
ATOM     71  O   UNL A   1      43.100  37.512  33.425  1.00  0.00    -0.237 OA
ATOM     72  O   UNL A   1      45.547  37.209  33.592  1.00  0.00    -0.237 OA
ATOM     73  O   UNL A   1      44.553  38.095  31.517  1.00  0.00    -0.744 OA
ENDBRANCH  69  70
ENDBRANCH  48  62
BRANCH  49  74
ATOM     74  C   UNL A   1      42.811  23.727  27.602  1.00  0.00     0.058 A 
ATOM     75  C   UNL A   1      42.531  22.621  28.418  1.00  0.00     0.135 A 
ATOM     76  C   UNL A   1      42.968  23.499  26.226  1.00  0.00     0.135 A 
ATOM     77  F   UNL A   1      42.376  22.787  29.742  1.00  0.00    -0.206 F 
ATOM     78  C   UNL A   1      42.438  21.334  27.900  1.00  0.00     0.059 A 
ATOM     79  C   UNL A   1      42.856  22.224  25.679  1.00  0.00     0.059 A 
ATOM     80  F   UNL A   1      43.219  24.525  25.398  1.00  0.00    -0.206 F 
ATOM     81  C   UNL A   1      42.604  21.144  26.527  1.00  0.00     0.060 A 
BRANCH  81  82
ATOM     82  S   UNL A   1      42.452  19.474  25.857  1.00  0.00     0.124 S 
ATOM     83  O   UNL A   1      42.850  18.662  27.001  1.00  0.00    -0.237 OA
ATOM     84  O   UNL A   1      41.039  19.416  25.493  1.00  0.00    -0.237 OA
ATOM     85  O   UNL A   1      43.380  19.481  24.731  1.00  0.00    -0.744 OA
ENDBRANCH  81  82
ENDBRANCH  49  74
BRANCH  61  86
ATOM     86  C   UNL A   1      48.200  27.297  30.195  1.00  0.00     0.058 A 
ATOM     87  C   UNL A   1      49.188  27.645  29.261  1.00  0.00     0.135 A 
ATOM     88  C   UNL A   1      48.606  26.650  31.374  1.00  0.00     0.135 A 
ATOM     89  F   UNL A   1      48.849  28.259  28.116  1.00  0.00    -0.206 F 
ATOM     90  C   UNL A   1      50.528  27.346  29.479  1.00  0.00     0.059 A 
ATOM     91  C   UNL A   1      49.943  26.361  31.622  1.00  0.00     0.059 A 
ATOM     92  F   UNL A   1      47.699  26.306  32.302  1.00  0.00    -0.206 F 
ATOM     93  C   UNL A   1      50.896  26.705  30.664  1.00  0.00     0.060 A 
BRANCH  93  94
ATOM     94  S   UNL A   1      52.644  26.354  30.953  1.00  0.00     0.124 S 
ATOM     95  O   UNL A   1      52.570  25.122  31.733  1.00  0.00    -0.237 OA
ATOM     96  O   UNL A   1      53.164  26.216  29.596  1.00  0.00    -0.237 OA
ATOM     97  O   UNL A   1      53.108  27.532  31.679  1.00  0.00    -0.744 OA
ENDBRANCH  93  94
ENDBRANCH  61  86
ENDBRANCH  35  36
ENDBRANCH  27  30
ENDBRANCH  25  26
ENDBRANCH  24  25
ENDBRANCH  23  24
ENDBRANCH   1  23
TORSDOF 20
ENDMDL
MODEL 2
REMARK VINA RESULT:     -10.4      1.472      3.228
REMARK SMILES CCN(C(=O)NC[C@]1(C)CCCO1)[C@@H](C)CC(=O)NCCCCNC(=O)c1ccc(-c2c3nc(c(-c4c(F)cc(S(=O)(=O)[O-])cc4F)c4ccc([nH]4)c(-c4c(F)cc(S(=O)(=O)[O-])cc4F)c4nc(c(-c5c(F)cc(S(=O)(=O)[O-])cc5F)c5ccc2[nH]5)C=C4)C=C3)cc1
REMARK SMILES IDX 20 1 19 2 17 3 18 4 16 6 14 7 15 8 3 9 2 10 1 11 4 12 5 13
REMARK SMILES IDX 6 14 7 16 8 17 10 18 13 19 9 20 11 21 12 22 21 23 22 24
REMARK SMILES IDX 23 25 24 26 25 27 26 29 27 30 28 31 92 32 29 33 91 34 30 35
REMARK SMILES IDX 31 36 32 37 85 38 33 39 90 40 84 41 86 42 34 43 89 44 83 45
REMARK SMILES IDX 82 46 35 48 69 49 48 50 68 51 49 52 52 53 67 54 87 55 50 56
REMARK SMILES IDX 51 57 66 59 88 60 53 61 36 62 37 63 46 64 38 65 39 66 45 67
REMARK SMILES IDX 47 68 40 69 41 70 42 71 43 72 44 73 70 74 71 75 80 76 72 77
REMARK SMILES IDX 73 78 79 79 81 80 74 81 75 82 76 83 77 84 78 85 54 86 55 87
REMARK SMILES IDX 64 88 56 89 57 90 63 91 65 92 58 93 59 94 60 95 61 96 62 97
REMARK H PARENT 19 5 6 15 24 28 86 47 52 58
REMARK Flexibility Score: inf
ROOT
ATOM      1  C   UNL A   1      30.941  26.393  26.001  1.00  0.00     0.116 C 
ENDROOT
BRANCH   1   2
ATOM      2  N   UNL A   1      30.462  25.225  26.708  1.00  0.00    -0.356 N 
ATOM      3  C   UNL A   1      30.637  23.911  26.403  1.00  0.00     0.222 C 
ATOM      4  O   UNL A   1      30.108  23.057  27.116  1.00  0.00    -0.275 OA
ATOM      5  H   UNL A   1      29.940  25.406  27.523  1.00  0.00     0.163 HD
BRANCH   3   6
ATOM      6  C   UNL A   1      31.497  23.516  25.219  1.00  0.00     0.124 C 
BRANCH   6   7
ATOM      7  C   UNL A   1      32.797  22.816  25.655  1.00  0.00     0.093 C 
ATOM      8  C   UNL A   1      33.342  23.428  26.956  1.00  0.00     0.031 C 
BRANCH   7   9
ATOM      9  N   UNL A   1      33.892  22.709  24.633  1.00  0.00    -0.322 N 
BRANCH   9  10
ATOM     10  C   UNL A   1      34.819  21.563  24.681  1.00  0.00     0.118 C 
ATOM     11  C   UNL A   1      36.217  21.802  25.223  1.00  0.00     0.027 C 
ENDBRANCH   9  10
BRANCH   9  12
ATOM     12  C   UNL A   1      33.554  23.244  23.390  1.00  0.00     0.317 C 
ATOM     13  O   UNL A   1      32.992  22.591  22.509  1.00  0.00    -0.249 OA
ATOM     14  N   UNL A   1      33.908  24.501  23.056  1.00  0.00    -0.335 N 
ATOM     15  H   UNL A   1      34.323  24.573  22.165  1.00  0.00     0.165 HD
BRANCH  14  16
ATOM     16  C   UNL A   1      33.797  25.780  23.758  1.00  0.00     0.152 C 
BRANCH  16  17
ATOM     17  C   UNL A   1      33.376  26.905  22.777  1.00  0.00     0.083 C 
ATOM     18  C   UNL A   1      31.871  27.143  22.747  1.00  0.00     0.039 C 
ATOM     19  O   UNL A   1      33.678  26.481  21.426  1.00  0.00    -0.373 OA
ATOM     20  C   UNL A   1      34.145  28.186  23.084  1.00  0.00     0.044 C 
ATOM     21  C   UNL A   1      31.369  26.044  21.840  1.00  0.00     0.031 C 
ATOM     22  C   UNL A   1      32.523  25.821  20.884  1.00  0.00     0.161 C 
ENDBRANCH  16  17
ENDBRANCH  14  16
ENDBRANCH   9  12
ENDBRANCH   7   9
ENDBRANCH   6   7
ENDBRANCH   3   6
ENDBRANCH   1   2
BRANCH   1  23
ATOM     23  C   UNL A   1      31.410  27.474  26.968  1.00  0.00     0.023 C 
BRANCH  23  24
ATOM     24  C   UNL A   1      32.228  28.586  26.325  1.00  0.00     0.023 C 
BRANCH  24  25
ATOM     25  C   UNL A   1      33.526  28.926  27.050  1.00  0.00     0.116 C 
BRANCH  25  26
ATOM     26  N   UNL A   1      33.543  30.248  27.671  1.00  0.00    -0.352 N 
ATOM     27  C   UNL A   1      34.585  30.870  28.324  1.00  0.00     0.251 C 
ATOM     28  H   UNL A   1      32.703  30.757  27.616  1.00  0.00     0.163 HD
ATOM     29  O   UNL A   1      34.441  31.987  28.814  1.00  0.00    -0.269 OA
BRANCH  27  30
ATOM     30  C   UNL A   1      35.867  30.152  28.459  1.00  0.00     0.039 A 
ATOM     31  C   UNL A   1      36.774  30.157  27.396  1.00  0.00     0.014 A 
ATOM     32  C   UNL A   1      36.211  29.587  29.687  1.00  0.00     0.014 A 
ATOM     33  C   UNL A   1      38.075  29.694  27.608  1.00  0.00     0.010 A 
ATOM     34  C   UNL A   1      37.530  29.221  29.921  1.00  0.00     0.010 A 
ATOM     35  C   UNL A   1      38.481  29.284  28.890  1.00  0.00    -0.014 A 
BRANCH  35  36
ATOM     36  C   UNL A   1      39.894  28.940  29.202  1.00  0.00     0.031 A 
ATOM     37  C   UNL A   1      40.805  29.991  29.780  1.00  0.00     0.074 A 
ATOM     38  C   UNL A   1      40.386  27.733  28.854  1.00  0.00     0.049 A 
ATOM     39  N   UNL A   1      42.100  29.958  29.952  1.00  0.00    -0.248 NA
ATOM     40  C   UNL A   1      40.181  31.266  30.171  1.00  0.00     0.031 C 
ATOM     41  C   UNL A   1      39.624  26.650  28.226  1.00  0.00     0.029 A 
ATOM     42  N   UNL A   1      41.656  27.219  28.959  1.00  0.00    -0.354 N 
ATOM     43  C   UNL A   1      42.450  31.215  30.430  1.00  0.00     0.074 A 
ATOM     44  C   UNL A   1      41.237  32.003  30.478  1.00  0.00     0.031 C 
ATOM     45  C   UNL A   1      40.434  25.597  28.022  1.00  0.00     0.029 A 
ATOM     46  C   UNL A   1      41.782  25.942  28.462  1.00  0.00     0.049 A 
ATOM     47  H   UNL A   1      42.407  27.719  29.352  1.00  0.00     0.167 HD
ATOM     48  C   UNL A   1      43.666  31.665  30.817  1.00  0.00     0.037 A 
ATOM     49  C   UNL A   1      42.862  25.144  28.360  1.00  0.00     0.037 A 
ATOM     50  C   UNL A   1      44.855  30.856  30.831  1.00  0.00     0.049 A 
ATOM     51  C   UNL A   1      44.194  25.653  28.843  1.00  0.00     0.074 A 
ATOM     52  C   UNL A   1      46.116  31.189  31.291  1.00  0.00     0.029 A 
ATOM     53  N   UNL A   1      44.927  29.547  30.377  1.00  0.00    -0.354 N 
ATOM     54  N   UNL A   1      44.493  26.826  29.349  1.00  0.00    -0.248 NA
ATOM     55  C   UNL A   1      45.335  24.732  28.742  1.00  0.00     0.031 C 
ATOM     56  C   UNL A   1      46.959  30.091  31.089  1.00  0.00     0.029 A 
ATOM     57  C   UNL A   1      46.213  29.062  30.537  1.00  0.00     0.049 A 
ATOM     58  H   UNL A   1      44.173  29.039  29.997  1.00  0.00     0.167 HD
ATOM     59  C   UNL A   1      45.850  26.774  29.649  1.00  0.00     0.074 A 
ATOM     60  C   UNL A   1      46.310  25.451  29.281  1.00  0.00     0.031 C 
ATOM     61  C   UNL A   1      46.645  27.736  30.176  1.00  0.00     0.037 A 
BRANCH  48  62
ATOM     62  C   UNL A   1      43.771  33.091  31.281  1.00  0.00     0.058 A 
ATOM     63  C   UNL A   1      44.122  34.126  30.399  1.00  0.00     0.135 A 
ATOM     64  C   UNL A   1      43.472  33.435  32.608  1.00  0.00     0.135 A 
ATOM     65  F   UNL A   1      44.435  33.851  29.123  1.00  0.00    -0.206 F 
ATOM     66  C   UNL A   1      44.194  35.448  30.823  1.00  0.00     0.059 A 
ATOM     67  C   UNL A   1      43.512  34.755  33.048  1.00  0.00     0.059 A 
ATOM     68  F   UNL A   1      43.135  32.483  33.493  1.00  0.00    -0.206 F 
ATOM     69  C   UNL A   1      43.886  35.753  32.148  1.00  0.00     0.060 A 
BRANCH  69  70
ATOM     70  S   UNL A   1      43.963  37.477  32.676  1.00  0.00     0.124 S 
ATOM     71  O   UNL A   1      45.343  37.578  33.141  1.00  0.00    -0.237 OA
ATOM     72  O   UNL A   1      43.658  38.196  31.443  1.00  0.00    -0.237 OA
ATOM     73  O   UNL A   1      42.943  37.561  33.716  1.00  0.00    -0.744 OA
ENDBRANCH  69  70
ENDBRANCH  48  62
BRANCH  49  74
ATOM     74  C   UNL A   1      42.736  23.773  27.797  1.00  0.00     0.058 A 
ATOM     75  C   UNL A   1      42.766  23.562  26.411  1.00  0.00     0.135 A 
ATOM     76  C   UNL A   1      42.575  22.651  28.624  1.00  0.00     0.135 A 
ATOM     77  F   UNL A   1      42.913  24.604  25.577  1.00  0.00    -0.206 F 
ATOM     78  C   UNL A   1      42.613  22.294  25.860  1.00  0.00     0.059 A 
ATOM     79  C   UNL A   1      42.444  21.368  28.099  1.00  0.00     0.059 A 
ATOM     80  F   UNL A   1      42.559  22.795  29.959  1.00  0.00    -0.206 F 
ATOM     81  C   UNL A   1      42.450  21.202  26.714  1.00  0.00     0.060 A 
BRANCH  81  82
ATOM     82  S   UNL A   1      42.283  19.554  25.993  1.00  0.00     0.124 S 
ATOM     83  O   UNL A   1      40.869  19.532  25.638  1.00  0.00    -0.237 OA
ATOM     84  O   UNL A   1      43.221  19.611  24.875  1.00  0.00    -0.237 OA
ATOM     85  O   UNL A   1      42.676  18.671  27.086  1.00  0.00    -0.744 OA
ENDBRANCH  81  82
ENDBRANCH  49  74
BRANCH  61  86
ATOM     86  C   UNL A   1      48.084  27.384  30.420  1.00  0.00     0.058 A 
ATOM     87  C   UNL A   1      48.529  26.941  31.675  1.00  0.00     0.135 A 
ATOM     88  C   UNL A   1      49.017  27.438  29.372  1.00  0.00     0.135 A 
ATOM     89  F   UNL A   1      47.676  26.878  32.710  1.00  0.00    -0.206 F 
ATOM     90  C   UNL A   1      49.854  26.582  31.888  1.00  0.00     0.059 A 
ATOM     91  C   UNL A   1      50.342  27.061  29.556  1.00  0.00     0.059 A 
ATOM     92  F   UNL A   1      48.637  27.845  28.150  1.00  0.00    -0.206 F 
ATOM     93  C   UNL A   1      50.754  26.644  30.822  1.00  0.00     0.060 A 
BRANCH  93  94
ATOM     94  S   UNL A   1      52.465  26.139  31.101  1.00  0.00     0.124 S 
ATOM     95  O   UNL A   1      52.287  24.842  31.745  1.00  0.00    -0.237 OA
ATOM     96  O   UNL A   1      53.007  26.107  29.746  1.00  0.00    -0.237 OA
ATOM     97  O   UNL A   1      52.994  27.198  31.956  1.00  0.00    -0.744 OA
ENDBRANCH  93  94
ENDBRANCH  61  86
ENDBRANCH  35  36
ENDBRANCH  27  30
ENDBRANCH  25  26
ENDBRANCH  24  25
ENDBRANCH  23  24
ENDBRANCH   1  23
TORSDOF 20
ENDMDL
MODEL 3
REMARK VINA RESULT:     -10.2      3.018      4.345
REMARK SMILES CCN(C(=O)NC[C@]1(C)CCCO1)[C@@H](C)CC(=O)NCCCCNC(=O)c1ccc(-c2c3nc(c(-c4c(F)cc(S(=O)(=O)[O-])cc4F)c4ccc([nH]4)c(-c4c(F)cc(S(=O)(=O)[O-])cc4F)c4nc(c(-c5c(F)cc(S(=O)(=O)[O-])cc5F)c5ccc2[nH]5)C=C4)C=C3)cc1
REMARK SMILES IDX 20 1 19 2 17 3 18 4 16 6 14 7 15 8 3 9 2 10 1 11 4 12 5 13
REMARK SMILES IDX 6 14 7 16 8 17 10 18 13 19 9 20 11 21 12 22 21 23 22 24
REMARK SMILES IDX 23 25 24 26 25 27 26 29 27 30 28 31 92 32 29 33 91 34 30 35
REMARK SMILES IDX 31 36 32 37 85 38 33 39 90 40 84 41 86 42 34 43 89 44 83 45
REMARK SMILES IDX 82 46 35 48 69 49 48 50 68 51 49 52 52 53 67 54 87 55 50 56
REMARK SMILES IDX 51 57 66 59 88 60 53 61 36 62 37 63 46 64 38 65 39 66 45 67
REMARK SMILES IDX 47 68 40 69 41 70 42 71 43 72 44 73 70 74 71 75 80 76 72 77
REMARK SMILES IDX 73 78 79 79 81 80 74 81 75 82 76 83 77 84 78 85 54 86 55 87
REMARK SMILES IDX 64 88 56 89 57 90 63 91 65 92 58 93 59 94 60 95 61 96 62 97
REMARK H PARENT 19 5 6 15 24 28 86 47 52 58
REMARK Flexibility Score: inf
ROOT
ATOM      1  C   UNL A   1      33.295  30.684  26.927  1.00  0.00     0.116 C 
ENDROOT
BRANCH   1   2
ATOM      2  N   UNL A   1      32.506  29.708  27.646  1.00  0.00    -0.356 N 
ATOM      3  C   UNL A   1      31.768  28.677  27.152  1.00  0.00     0.222 C 
ATOM      4  O   UNL A   1      31.124  27.975  27.934  1.00  0.00    -0.275 OA
ATOM      5  H   UNL A   1      32.502  29.802  28.626  1.00  0.00     0.163 HD
BRANCH   3   6
ATOM      6  C   UNL A   1      31.770  28.387  25.665  1.00  0.00     0.124 C 
BRANCH   6   7
ATOM      7  C   UNL A   1      32.534  27.093  25.328  1.00  0.00     0.093 C 
ATOM      8  C   UNL A   1      34.012  27.205  25.736  1.00  0.00     0.031 C 
BRANCH   7   9
ATOM      9  N   UNL A   1      32.421  26.579  23.922  1.00  0.00    -0.322 N 
BRANCH   9  10
ATOM     10  C   UNL A   1      33.488  26.884  22.950  1.00  0.00     0.118 C 
ATOM     11  C   UNL A   1      33.555  28.292  22.387  1.00  0.00     0.027 C 
ENDBRANCH   9  10
BRANCH   9  12
ATOM     12  C   UNL A   1      31.755  25.357  23.823  1.00  0.00     0.317 C 
ATOM     13  O   UNL A   1      31.550  24.791  22.748  1.00  0.00    -0.249 OA
ATOM     14  N   UNL A   1      31.219  24.768  24.911  1.00  0.00    -0.335 N 
ATOM     15  H   UNL A   1      30.293  24.461  24.779  1.00  0.00     0.165 HD
BRANCH  14  16
ATOM     16  C   UNL A   1      31.746  24.497  26.249  1.00  0.00     0.152 C 
BRANCH  16  17
ATOM     17  C   UNL A   1      31.556  23.002  26.615  1.00  0.00     0.083 C 
ATOM     18  C   UNL A   1      32.494  22.530  27.720  1.00  0.00     0.039 C 
ATOM     19  O   UNL A   1      31.940  22.192  25.478  1.00  0.00    -0.373 OA
ATOM     20  C   UNL A   1      30.096  22.725  26.957  1.00  0.00     0.044 C 
ATOM     21  C   UNL A   1      33.789  22.276  26.984  1.00  0.00     0.031 C 
ATOM     22  C   UNL A   1      33.332  21.861  25.600  1.00  0.00     0.161 C 
ENDBRANCH  16  17
ENDBRANCH  14  16
ENDBRANCH   9  12
ENDBRANCH   7   9
ENDBRANCH   6   7
ENDBRANCH   3   6
ENDBRANCH   1   2
BRANCH   1  23
ATOM     23  C   UNL A   1      34.680  30.842  27.546  1.00  0.00     0.023 C 
BRANCH  23  24
ATOM     24  C   UNL A   1      35.055  32.274  27.903  1.00  0.00     0.023 C 
BRANCH  24  25
ATOM     25  C   UNL A   1      35.891  32.420  29.169  1.00  0.00     0.116 C 
BRANCH  25  26
ATOM     26  N   UNL A   1      35.617  31.416  30.194  1.00  0.00    -0.352 N 
ATOM     27  C   UNL A   1      36.482  30.488  30.732  1.00  0.00     0.251 C 
ATOM     28  H   UNL A   1      34.697  31.400  30.543  1.00  0.00     0.163 HD
ATOM     29  O   UNL A   1      36.097  29.690  31.583  1.00  0.00    -0.269 OA
BRANCH  27  30
ATOM     30  C   UNL A   1      37.872  30.443  30.238  1.00  0.00     0.039 A 
ATOM     31  C   UNL A   1      38.924  30.712  31.117  1.00  0.00     0.014 A 
ATOM     32  C   UNL A   1      38.124  30.012  28.936  1.00  0.00     0.014 A 
ATOM     33  C   UNL A   1      40.234  30.433  30.719  1.00  0.00     0.010 A 
ATOM     34  C   UNL A   1      39.414  29.642  28.581  1.00  0.00     0.010 A 
ATOM     35  C   UNL A   1      40.482  29.834  29.472  1.00  0.00    -0.014 A 
BRANCH  35  36
ATOM     36  C   UNL A   1      41.837  29.367  29.072  1.00  0.00     0.031 A 
ATOM     37  C   UNL A   1      42.964  30.360  28.967  1.00  0.00     0.074 A 
ATOM     38  C   UNL A   1      42.021  28.088  28.684  1.00  0.00     0.049 A 
ATOM     39  N   UNL A   1      44.161  30.202  28.465  1.00  0.00    -0.248 NA
ATOM     40  C   UNL A   1      42.691  31.725  29.449  1.00  0.00     0.031 C 
ATOM     41  C   UNL A   1      40.994  27.042  28.675  1.00  0.00     0.029 A 
ATOM     42  N   UNL A   1      43.138  27.450  28.201  1.00  0.00    -0.354 N 
ATOM     43  C   UNL A   1      44.766  31.451  28.532  1.00  0.00     0.074 A 
ATOM     44  C   UNL A   1      43.790  32.367  29.081  1.00  0.00     0.031 C 
ATOM     45  C   UNL A   1      41.532  25.894  28.230  1.00  0.00     0.029 A 
ATOM     46  C   UNL A   1      42.929  26.129  27.881  1.00  0.00     0.049 A 
ATOM     47  H   UNL A   1      44.008  27.899  28.092  1.00  0.00     0.167 HD
ATOM     48  C   UNL A   1      46.028  31.799  28.190  1.00  0.00     0.037 A 
ATOM     49  C   UNL A   1      43.764  25.213  27.354  1.00  0.00     0.037 A 
ATOM     50  C   UNL A   1      47.015  30.870  27.708  1.00  0.00     0.049 A 
ATOM     51  C   UNL A   1      45.178  25.614  27.027  1.00  0.00     0.074 A 
ATOM     52  C   UNL A   1      48.348  31.104  27.421  1.00  0.00     0.029 A 
ATOM     53  N   UNL A   1      46.780  29.526  27.456  1.00  0.00    -0.354 N 
ATOM     54  N   UNL A   1      45.751  26.788  27.154  1.00  0.00    -0.248 NA
ATOM     55  C   UNL A   1      46.060  24.570  26.486  1.00  0.00     0.031 C 
ATOM     56  C   UNL A   1      48.913  29.907  26.968  1.00  0.00     0.029 A 
ATOM     57  C   UNL A   1      47.941  28.921  27.008  1.00  0.00     0.049 A 
ATOM     58  H   UNL A   1      45.916  29.071  27.579  1.00  0.00     0.167 HD
ATOM     59  C   UNL A   1      47.064  26.616  26.733  1.00  0.00     0.074 A 
ATOM     60  C   UNL A   1      47.206  25.224  26.360  1.00  0.00     0.031 C 
ATOM     61  C   UNL A   1      48.063  27.529  26.656  1.00  0.00     0.037 A 
BRANCH  48  62
ATOM     62  C   UNL A   1      46.425  33.240  28.346  1.00  0.00     0.058 A 
ATOM     63  C   UNL A   1      46.272  34.162  27.297  1.00  0.00     0.135 A 
ATOM     64  C   UNL A   1      46.918  33.718  29.570  1.00  0.00     0.135 A 
ATOM     65  F   UNL A   1      45.821  33.755  26.100  1.00  0.00    -0.206 F 
ATOM     66  C   UNL A   1      46.615  35.500  27.450  1.00  0.00     0.059 A 
ATOM     67  C   UNL A   1      47.244  35.059  29.754  1.00  0.00     0.059 A 
ATOM     68  F   UNL A   1      47.088  32.878  30.604  1.00  0.00    -0.206 F 
ATOM     69  C   UNL A   1      47.099  35.939  28.683  1.00  0.00     0.060 A 
BRANCH  69  70
ATOM     70  S   UNL A   1      47.519  37.685  28.871  1.00  0.00     0.124 S 
ATOM     71  O   UNL A   1      48.685  37.799  28.000  1.00  0.00    -0.237 OA
ATOM     72  O   UNL A   1      46.309  38.350  28.398  1.00  0.00    -0.237 OA
ATOM     73  O   UNL A   1      47.786  37.818  30.299  1.00  0.00    -0.744 OA
ENDBRANCH  69  70
ENDBRANCH  48  62
BRANCH  49  74
ATOM     74  C   UNL A   1      43.302  23.819  27.116  1.00  0.00     0.058 A 
ATOM     75  C   UNL A   1      42.942  23.392  25.829  1.00  0.00     0.135 A 
ATOM     76  C   UNL A   1      43.199  22.890  28.163  1.00  0.00     0.135 A 
ATOM     77  F   UNL A   1      43.018  24.246  24.795  1.00  0.00    -0.206 F 
ATOM     78  C   UNL A   1      42.471  22.106  25.589  1.00  0.00     0.059 A 
ATOM     79  C   UNL A   1      42.754  21.589  27.946  1.00  0.00     0.059 A 
ATOM     80  F   UNL A   1      43.549  23.241  29.411  1.00  0.00    -0.206 F 
ATOM     81  C   UNL A   1      42.379  21.211  26.656  1.00  0.00     0.060 A 
BRANCH  81  82
ATOM     82  S   UNL A   1      41.795  19.532  26.332  1.00  0.00     0.124 S 
ATOM     83  O   UNL A   1      42.569  19.177  25.148  1.00  0.00    -0.237 OA
ATOM     84  O   UNL A   1      42.158  18.837  27.564  1.00  0.00    -0.237 OA
ATOM     85  O   UNL A   1      40.362  19.712  26.123  1.00  0.00    -0.744 OA
ENDBRANCH  81  82
ENDBRANCH  49  74
BRANCH  61  86
ATOM     86  C   UNL A   1      49.403  27.046  26.185  1.00  0.00     0.058 A 
ATOM     87  C   UNL A   1      50.340  26.497  27.074  1.00  0.00     0.135 A 
ATOM     88  C   UNL A   1      49.733  27.082  24.820  1.00  0.00     0.135 A 
ATOM     89  F   UNL A   1      50.074  26.447  28.389  1.00  0.00    -0.206 F 
ATOM     90  C   UNL A   1      51.566  26.018  26.629  1.00  0.00     0.059 A 
ATOM     91  C   UNL A   1      50.944  26.588  24.350  1.00  0.00     0.059 A 
ATOM     92  F   UNL A   1      48.866  27.589  23.929  1.00  0.00    -0.206 F 
ATOM     93  C   UNL A   1      51.859  26.066  25.265  1.00  0.00     0.060 A 
BRANCH  93  94
ATOM     94  S   UNL A   1      53.441  25.407  24.693  1.00  0.00     0.124 S 
ATOM     95  O   UNL A   1      53.370  25.677  23.261  1.00  0.00    -0.237 OA
ATOM     96  O   UNL A   1      54.403  26.208  25.443  1.00  0.00    -0.237 OA
ATOM     97  O   UNL A   1      53.376  23.999  25.072  1.00  0.00    -0.744 OA
ENDBRANCH  93  94
ENDBRANCH  61  86
ENDBRANCH  35  36
ENDBRANCH  27  30
ENDBRANCH  25  26
ENDBRANCH  24  25
ENDBRANCH  23  24
ENDBRANCH   1  23
TORSDOF 20
ENDMDL
