MODEL 1
REMARK VINA RESULT:     -10.8      0.000      0.000
REMARK SMILES [NH3+][C@@H](C[NH+]1CCCCC1)C(=O)NCCCCNC(=O)c1ccc(-c2c3nc(c(-c4c(F)cc(S(=O)(=O)[O-])cc4F)c4ccc([nH]4)c(-c4c(F)cc(S(=O)(=O)[O-])cc4F)c4nc(c(-c5c(F)cc(S(=O)(=O)[O-])cc5F)c5ccc2[nH]5)C=C4)C=C3)cc1
REMARK SMILES IDX 15 1 14 2 13 3 12 4 10 5 11 6 2 8 1 9 3 13 4 14 5 15 9 16
REMARK SMILES IDX 6 18 8 19 7 20 16 21 17 22 18 23 19 25 20 26 21 27 85 28
REMARK SMILES IDX 22 29 84 30 23 31 24 32 25 33 78 34 26 35 83 36 77 37 79 38
REMARK SMILES IDX 27 39 82 40 76 41 75 42 28 44 62 45 41 46 61 47 42 48 45 49
REMARK SMILES IDX 60 50 80 51 43 52 44 53 59 55 81 56 46 57 29 58 30 59 39 60
REMARK SMILES IDX 31 61 32 62 38 63 40 64 33 65 34 66 35 67 36 68 37 69 63 70
REMARK SMILES IDX 64 71 73 72 65 73 66 74 72 75 74 76 67 77 68 78 69 79 70 80
REMARK SMILES IDX 71 81 47 82 48 83 57 84 49 85 50 86 56 87 58 88 51 89 52 90
REMARK SMILES IDX 53 91 54 92 55 93
REMARK H PARENT 12 7 1 10 1 11 1 12 4 17 17 24 79 43 45 54
REMARK Flexibility Score: inf
ROOT
ATOM      1  C   UNL A   1      41.736  21.504  27.610  1.00  0.00     0.023 C 
ENDROOT
BRANCH   1   2
ATOM      2  C   UNL A   1      41.770  20.742  26.283  1.00  0.00     0.023 C 
BRANCH   2   3
ATOM      3  C   UNL A   1      42.615  19.474  26.281  1.00  0.00     0.116 C 
BRANCH   3   4
ATOM      4  N   UNL A   1      43.190  19.163  24.987  1.00  0.00    -0.351 N 
ATOM      5  C   UNL A   1      44.505  19.150  24.605  1.00  0.00     0.284 C 
ATOM      6  O   UNL A   1      44.782  18.555  23.557  1.00  0.00    -0.268 OA
ATOM      7  H   UNL A   1      42.544  18.929  24.282  1.00  0.00     0.163 HD
BRANCH   5   8
ATOM      8  C   UNL A   1      45.616  19.855  25.419  1.00  0.00     0.326 C 
BRANCH   8   9
ATOM      9  N   UNL A   1      46.561  18.894  26.041  1.00  0.00    -0.343 N 
ATOM     10  H   UNL A   1      47.105  19.371  26.760  1.00  0.00     0.345 HD
ATOM     11  H   UNL A   1      47.189  18.525  25.328  1.00  0.00     0.345 HD
ATOM     12  H   UNL A   1      46.038  18.127  26.463  1.00  0.00     0.345 HD
ENDBRANCH   8   9
BRANCH   8  13
ATOM     13  C   UNL A   1      46.276  21.055  24.691  1.00  0.00     0.338 C 
BRANCH  13  14
ATOM     14  N   UNL A   1      46.085  22.366  25.339  1.00  0.00    -0.330 N 
ATOM     15  C   UNL A   1      46.433  23.465  24.424  1.00  0.00     0.262 C 
ATOM     16  C   UNL A   1      44.740  22.547  25.894  1.00  0.00     0.262 C 
ATOM     17  H   UNL A   1      46.726  22.386  26.132  1.00  0.00     0.348 HD
ATOM     18  C   UNL A   1      46.381  24.825  25.121  1.00  0.00     0.062 C 
ATOM     19  C   UNL A   1      44.663  23.858  26.683  1.00  0.00     0.062 C 
ATOM     20  C   UNL A   1      45.045  25.055  25.819  1.00  0.00     0.012 C 
ENDBRANCH  13  14
ENDBRANCH   8  13
ENDBRANCH   5   8
ENDBRANCH   3   4
ENDBRANCH   2   3
ENDBRANCH   1   2
BRANCH   1  21
ATOM     21  C   UNL A   1      40.884  22.773  27.639  1.00  0.00     0.116 C 
BRANCH  21  22
ATOM     22  N   UNL A   1      41.037  23.607  26.456  1.00  0.00    -0.352 N 
ATOM     23  C   UNL A   1      41.081  24.979  26.351  1.00  0.00     0.251 C 
ATOM     24  H   UNL A   1      41.119  23.117  25.605  1.00  0.00     0.163 HD
ATOM     25  O   UNL A   1      41.119  25.511  25.250  1.00  0.00    -0.269 OA
BRANCH  23  26
ATOM     26  C   UNL A   1      41.047  25.808  27.578  1.00  0.00     0.039 A 
ATOM     27  C   UNL A   1      42.181  26.547  27.926  1.00  0.00     0.014 A 
ATOM     28  C   UNL A   1      39.893  25.878  28.364  1.00  0.00     0.014 A 
ATOM     29  C   UNL A   1      42.127  27.428  29.009  1.00  0.00     0.010 A 
ATOM     30  C   UNL A   1      39.822  26.802  29.404  1.00  0.00     0.010 A 
ATOM     31  C   UNL A   1      40.932  27.597  29.729  1.00  0.00    -0.014 A 
BRANCH  31  32
ATOM     32  C   UNL A   1      40.812  28.622  30.799  1.00  0.00     0.031 A 
ATOM     33  C   UNL A   1      41.675  28.546  32.027  1.00  0.00     0.074 A 
ATOM     34  C   UNL A   1      39.863  29.576  30.701  1.00  0.00     0.049 A 
ATOM     35  N   UNL A   1      41.653  29.294  33.100  1.00  0.00    -0.248 NA
ATOM     36  C   UNL A   1      42.680  27.471  32.065  1.00  0.00     0.031 C 
ATOM     37  C   UNL A   1      38.927  29.728  29.585  1.00  0.00     0.029 A 
ATOM     38  N   UNL A   1      39.519  30.591  31.560  1.00  0.00    -0.354 N 
ATOM     39  C   UNL A   1      42.622  28.771  33.949  1.00  0.00     0.074 A 
ATOM     40  C   UNL A   1      43.186  27.618  33.282  1.00  0.00     0.031 C 
ATOM     41  C   UNL A   1      38.129  30.783  29.819  1.00  0.00     0.029 A 
ATOM     42  C   UNL A   1      38.469  31.361  31.115  1.00  0.00     0.049 A 
ATOM     43  H   UNL A   1      39.980  30.752  32.414  1.00  0.00     0.167 HD
ATOM     44  C   UNL A   1      43.017  29.222  35.163  1.00  0.00     0.037 A 
ATOM     45  C   UNL A   1      37.846  32.410  31.689  1.00  0.00     0.037 A 
ATOM     46  C   UNL A   1      42.477  30.390  35.809  1.00  0.00     0.049 A 
ATOM     47  C   UNL A   1      38.313  32.898  33.033  1.00  0.00     0.074 A 
ATOM     48  C   UNL A   1      42.862  30.966  37.007  1.00  0.00     0.029 A 
ATOM     49  N   UNL A   1      41.435  31.160  35.313  1.00  0.00    -0.354 N 
ATOM     50  N   UNL A   1      39.276  32.431  33.790  1.00  0.00    -0.248 NA
ATOM     51  C   UNL A   1      37.611  34.059  33.599  1.00  0.00     0.031 C 
ATOM     52  C   UNL A   1      42.029  32.063  37.254  1.00  0.00     0.029 A 
ATOM     53  C   UNL A   1      41.153  32.196  36.189  1.00  0.00     0.049 A 
ATOM     54  H   UNL A   1      40.965  30.994  34.464  1.00  0.00     0.167 HD
ATOM     55  C   UNL A   1      39.314  33.256  34.909  1.00  0.00     0.074 A 
ATOM     56  C   UNL A   1      38.283  34.257  34.725  1.00  0.00     0.031 C 
ATOM     57  C   UNL A   1      40.131  33.192  35.989  1.00  0.00     0.037 A 
BRANCH  44  58
ATOM     58  C   UNL A   1      44.096  28.453  35.873  1.00  0.00     0.058 A 
ATOM     59  C   UNL A   1      45.456  28.756  35.693  1.00  0.00     0.135 A 
ATOM     60  C   UNL A   1      43.768  27.427  36.773  1.00  0.00     0.135 A 
ATOM     61  F   UNL A   1      45.826  29.718  34.833  1.00  0.00    -0.206 F 
ATOM     62  C   UNL A   1      46.453  28.049  36.357  1.00  0.00     0.059 A 
ATOM     63  C   UNL A   1      44.748  26.724  37.469  1.00  0.00     0.059 A 
ATOM     64  F   UNL A   1      42.484  27.097  36.983  1.00  0.00    -0.206 F 
ATOM     65  C   UNL A   1      46.088  27.033  37.242  1.00  0.00     0.060 A 
BRANCH  65  66
ATOM     66  S   UNL A   1      47.393  26.128  38.100  1.00  0.00     0.124 S 
ATOM     67  O   UNL A   1      46.615  25.194  38.909  1.00  0.00    -0.237 OA
ATOM     68  O   UNL A   1      48.143  25.536  36.997  1.00  0.00    -0.237 OA
ATOM     69  O   UNL A   1      48.096  27.168  38.845  1.00  0.00    -0.744 OA
ENDBRANCH  65  66
ENDBRANCH  44  58
BRANCH  45  70
ATOM     70  C   UNL A   1      36.728  33.088  30.982  1.00  0.00     0.058 A 
ATOM     71  C   UNL A   1      36.977  33.944  29.899  1.00  0.00     0.135 A 
ATOM     72  C   UNL A   1      35.393  32.892  31.367  1.00  0.00     0.135 A 
ATOM     73  F   UNL A   1      38.239  34.167  29.499  1.00  0.00    -0.206 F 
ATOM     74  C   UNL A   1      35.946  34.598  29.233  1.00  0.00     0.059 A 
ATOM     75  C   UNL A   1      34.342  33.517  30.703  1.00  0.00     0.059 A 
ATOM     76  F   UNL A   1      35.100  32.069  32.387  1.00  0.00    -0.206 F 
ATOM     77  C   UNL A   1      34.630  34.377  29.643  1.00  0.00     0.060 A 
BRANCH  77  78
ATOM     78  S   UNL A   1      33.294  35.194  28.743  1.00  0.00     0.124 S 
ATOM     79  O   UNL A   1      32.702  34.077  28.018  1.00  0.00    -0.237 OA
ATOM     80  O   UNL A   1      32.489  35.751  29.827  1.00  0.00    -0.237 OA
ATOM     81  O   UNL A   1      33.995  36.179  27.926  1.00  0.00    -0.744 OA
ENDBRANCH  77  78
ENDBRANCH  45  70
BRANCH  57  82
ATOM     82  C   UNL A   1      39.971  34.253  37.041  1.00  0.00     0.058 A 
ATOM     83  C   UNL A   1      40.622  35.492  36.944  1.00  0.00     0.135 A 
ATOM     84  C   UNL A   1      39.113  34.044  38.133  1.00  0.00     0.135 A 
ATOM     85  F   UNL A   1      41.458  35.737  35.922  1.00  0.00    -0.206 F 
ATOM     86  C   UNL A   1      40.445  36.481  37.905  1.00  0.00     0.059 A 
ATOM     87  C   UNL A   1      38.903  35.029  39.093  1.00  0.00     0.059 A 
ATOM     88  F   UNL A   1      38.459  32.880  38.268  1.00  0.00    -0.206 F 
ATOM     89  C   UNL A   1      39.582  36.241  38.976  1.00  0.00     0.060 A 
BRANCH  89  90
ATOM     90  S   UNL A   1      39.329  37.547  40.198  1.00  0.00     0.124 S 
ATOM     91  O   UNL A   1      38.943  36.775  41.375  1.00  0.00    -0.237 OA
ATOM     92  O   UNL A   1      40.643  38.180  40.258  1.00  0.00    -0.237 OA
ATOM     93  O   UNL A   1      38.272  38.364  39.608  1.00  0.00    -0.744 OA
ENDBRANCH  89  90
ENDBRANCH  57  82
ENDBRANCH  31  32
ENDBRANCH  23  26
ENDBRANCH  21  22
ENDBRANCH   1  21
TORSDOF 17
ENDMDL
MODEL 2
REMARK VINA RESULT:     -10.8      3.585     12.242
REMARK SMILES [NH3+][C@@H](C[NH+]1CCCCC1)C(=O)NCCCCNC(=O)c1ccc(-c2c3nc(c(-c4c(F)cc(S(=O)(=O)[O-])cc4F)c4ccc([nH]4)c(-c4c(F)cc(S(=O)(=O)[O-])cc4F)c4nc(c(-c5c(F)cc(S(=O)(=O)[O-])cc5F)c5ccc2[nH]5)C=C4)C=C3)cc1
REMARK SMILES IDX 15 1 14 2 13 3 12 4 10 5 11 6 2 8 1 9 3 13 4 14 5 15 9 16
REMARK SMILES IDX 6 18 8 19 7 20 16 21 17 22 18 23 19 25 20 26 21 27 85 28
REMARK SMILES IDX 22 29 84 30 23 31 24 32 25 33 78 34 26 35 83 36 77 37 79 38
REMARK SMILES IDX 27 39 82 40 76 41 75 42 28 44 62 45 41 46 61 47 42 48 45 49
REMARK SMILES IDX 60 50 80 51 43 52 44 53 59 55 81 56 46 57 29 58 30 59 39 60
REMARK SMILES IDX 31 61 32 62 38 63 40 64 33 65 34 66 35 67 36 68 37 69 63 70
REMARK SMILES IDX 64 71 73 72 65 73 66 74 72 75 74 76 67 77 68 78 69 79 70 80
REMARK SMILES IDX 71 81 47 82 48 83 57 84 49 85 50 86 56 87 58 88 51 89 52 90
REMARK SMILES IDX 53 91 54 92 55 93
REMARK H PARENT 12 7 1 10 1 11 1 12 4 17 17 24 79 43 45 54
REMARK Flexibility Score: inf
ROOT
ATOM      1  C   UNL A   1      35.114  34.007  28.055  1.00  0.00     0.023 C 
ENDROOT
BRANCH   1   2
ATOM      2  C   UNL A   1      34.399  35.329  28.346  1.00  0.00     0.023 C 
BRANCH   2   3
ATOM      3  C   UNL A   1      33.132  35.213  29.183  1.00  0.00     0.116 C 
BRANCH   3   4
ATOM      4  N   UNL A   1      32.788  36.433  29.886  1.00  0.00    -0.351 N 
ATOM      5  C   UNL A   1      32.981  36.757  31.203  1.00  0.00     0.284 C 
ATOM      6  O   UNL A   1      32.902  37.953  31.506  1.00  0.00    -0.268 OA
ATOM      7  H   UNL A   1      32.354  37.128  29.340  1.00  0.00     0.163 HD
BRANCH   5   8
ATOM      8  C   UNL A   1      33.269  35.694  32.289  1.00  0.00     0.326 C 
BRANCH   8   9
ATOM      9  N   UNL A   1      32.037  35.005  32.749  1.00  0.00    -0.343 N 
ATOM     10  H   UNL A   1      31.773  35.361  33.669  1.00  0.00     0.345 HD
ATOM     11  H   UNL A   1      32.210  34.003  32.811  1.00  0.00     0.345 HD
ATOM     12  H   UNL A   1      31.281  35.179  32.087  1.00  0.00     0.345 HD
ENDBRANCH   8   9
BRANCH   8  13
ATOM     13  C   UNL A   1      34.467  34.762  31.967  1.00  0.00     0.338 C 
BRANCH  13  14
ATOM     14  N   UNL A   1      35.526  34.725  32.992  1.00  0.00    -0.330 N 
ATOM     15  C   UNL A   1      35.190  33.778  34.068  1.00  0.00     0.262 C 
ATOM     16  C   UNL A   1      36.856  34.446  32.441  1.00  0.00     0.262 C 
ATOM     17  H   UNL A   1      35.573  35.664  33.386  1.00  0.00     0.348 HD
ATOM     18  C   UNL A   1      36.204  33.831  35.211  1.00  0.00     0.062 C 
ATOM     19  C   UNL A   1      37.922  34.577  33.533  1.00  0.00     0.062 C 
ATOM     20  C   UNL A   1      37.633  33.653  34.712  1.00  0.00     0.012 C 
ENDBRANCH  13  14
ENDBRANCH   8  13
ENDBRANCH   5   8
ENDBRANCH   3   4
ENDBRANCH   2   3
ENDBRANCH   1   2
BRANCH   1  21
ATOM     21  C   UNL A   1      34.548  32.766  28.744  1.00  0.00     0.116 C 
BRANCH  21  22
ATOM     22  N   UNL A   1      33.932  31.818  27.826  1.00  0.00    -0.352 N 
ATOM     23  C   UNL A   1      34.382  30.586  27.408  1.00  0.00     0.251 C 
ATOM     24  H   UNL A   1      33.067  32.100  27.449  1.00  0.00     0.163 HD
ATOM     25  O   UNL A   1      33.768  29.966  26.550  1.00  0.00    -0.269 OA
BRANCH  23  26
ATOM     26  C   UNL A   1      35.633  30.032  27.976  1.00  0.00     0.039 A 
ATOM     27  C   UNL A   1      36.819  30.160  27.249  1.00  0.00     0.014 A 
ATOM     28  C   UNL A   1      35.639  29.418  29.231  1.00  0.00     0.014 A 
ATOM     29  C   UNL A   1      38.028  29.754  27.820  1.00  0.00     0.010 A 
ATOM     30  C   UNL A   1      36.852  29.073  29.824  1.00  0.00     0.010 A 
ATOM     31  C   UNL A   1      38.060  29.250  29.131  1.00  0.00    -0.014 A 
BRANCH  31  32
ATOM     32  C   UNL A   1      39.347  28.937  29.809  1.00  0.00     0.031 A 
ATOM     33  C   UNL A   1      39.808  29.756  30.982  1.00  0.00     0.074 A 
ATOM     34  C   UNL A   1      40.140  27.965  29.311  1.00  0.00     0.049 A 
ATOM     35  N   UNL A   1      40.934  29.690  31.643  1.00  0.00    -0.248 NA
ATOM     36  C   UNL A   1      38.892  30.804  31.460  1.00  0.00     0.031 C 
ATOM     37  C   UNL A   1      39.831  27.133  28.146  1.00  0.00     0.029 A 
ATOM     38  N   UNL A   1      41.376  27.523  29.715  1.00  0.00    -0.354 N 
ATOM     39  C   UNL A   1      40.874  30.696  32.600  1.00  0.00     0.074 A 
ATOM     40  C   UNL A   1      39.616  31.385  32.406  1.00  0.00     0.031 C 
ATOM     41  C   UNL A   1      40.841  26.271  27.941  1.00  0.00     0.029 A 
ATOM     42  C   UNL A   1      41.883  26.510  28.933  1.00  0.00     0.049 A 
ATOM     43  H   UNL A   1      41.854  27.895  30.490  1.00  0.00     0.167 HD
ATOM     44  C   UNL A   1      41.776  31.007  33.562  1.00  0.00     0.037 A 
ATOM     45  C   UNL A   1      43.058  25.854  29.003  1.00  0.00     0.037 A 
ATOM     46  C   UNL A   1      43.011  30.299  33.773  1.00  0.00     0.049 A 
ATOM     47  C   UNL A   1      44.037  26.210  30.089  1.00  0.00     0.074 A 
ATOM     48  C   UNL A   1      43.956  30.494  34.765  1.00  0.00     0.029 A 
ATOM     49  N   UNL A   1      43.476  29.260  32.978  1.00  0.00    -0.354 N 
ATOM     50  N   UNL A   1      43.933  27.121  31.025  1.00  0.00    -0.248 NA
ATOM     51  C   UNL A   1      45.292  25.445  30.129  1.00  0.00     0.031 C 
ATOM     52  C   UNL A   1      45.009  29.597  34.550  1.00  0.00     0.029 A 
ATOM     53  C   UNL A   1      44.701  28.817  33.449  1.00  0.00     0.049 A 
ATOM     54  H   UNL A   1      43.004  28.894  32.196  1.00  0.00     0.167 HD
ATOM     55  C   UNL A   1      45.094  27.022  31.784  1.00  0.00     0.074 A 
ATOM     56  C   UNL A   1      45.883  25.956  31.201  1.00  0.00     0.031 C 
ATOM     57  C   UNL A   1      45.472  27.746  32.865  1.00  0.00     0.037 A 
BRANCH  44  58
ATOM     58  C   UNL A   1      41.455  32.161  34.469  1.00  0.00     0.058 A 
ATOM     59  C   UNL A   1      40.874  31.964  35.732  1.00  0.00     0.135 A 
ATOM     60  C   UNL A   1      41.766  33.477  34.090  1.00  0.00     0.135 A 
ATOM     61  F   UNL A   1      40.543  30.729  36.140  1.00  0.00    -0.206 F 
ATOM     62  C   UNL A   1      40.586  33.033  36.575  1.00  0.00     0.059 A 
ATOM     63  C   UNL A   1      41.511  34.559  34.927  1.00  0.00     0.059 A 
ATOM     64  F   UNL A   1      42.323  33.720  32.892  1.00  0.00    -0.206 F 
ATOM     65  C   UNL A   1      40.906  34.328  36.162  1.00  0.00     0.060 A 
BRANCH  65  66
ATOM     66  S   UNL A   1      40.530  35.704  37.268  1.00  0.00     0.124 S 
ATOM     67  O   UNL A   1      41.863  36.243  37.522  1.00  0.00    -0.237 OA
ATOM     68  O   UNL A   1      39.656  36.536  36.448  1.00  0.00    -0.237 OA
ATOM     69  O   UNL A   1      39.887  35.058  38.408  1.00  0.00    -0.744 OA
ENDBRANCH  65  66
ENDBRANCH  44  58
BRANCH  45  70
ATOM     70  C   UNL A   1      43.365  24.773  28.030  1.00  0.00     0.058 A 
ATOM     71  C   UNL A   1      44.157  25.027  26.900  1.00  0.00     0.135 A 
ATOM     72  C   UNL A   1      42.882  23.469  28.210  1.00  0.00     0.135 A 
ATOM     73  F   UNL A   1      44.637  26.262  26.683  1.00  0.00    -0.206 F 
ATOM     74  C   UNL A   1      44.445  24.032  25.972  1.00  0.00     0.059 A 
ATOM     75  C   UNL A   1      43.175  22.450  27.308  1.00  0.00     0.059 A 
ATOM     76  F   UNL A   1      42.133  23.169  29.283  1.00  0.00    -0.206 F 
ATOM     77  C   UNL A   1      43.949  22.745  26.186  1.00  0.00     0.060 A 
BRANCH  77  78
ATOM     78  S   UNL A   1      44.365  21.448  24.999  1.00  0.00     0.124 S 
ATOM     79  O   UNL A   1      43.396  20.415  25.342  1.00  0.00    -0.237 OA
ATOM     80  O   UNL A   1      44.157  22.122  23.721  1.00  0.00    -0.237 OA
ATOM     81  O   UNL A   1      45.756  21.140  25.315  1.00  0.00    -0.744 OA
ENDBRANCH  77  78
ENDBRANCH  45  70
BRANCH  57  82
ATOM     82  C   UNL A   1      46.779  27.389  33.516  1.00  0.00     0.058 A 
ATOM     83  C   UNL A   1      47.981  28.008  33.142  1.00  0.00     0.135 A 
ATOM     84  C   UNL A   1      46.817  26.454  34.563  1.00  0.00     0.135 A 
ATOM     85  F   UNL A   1      47.998  28.903  32.141  1.00  0.00    -0.206 F 
ATOM     86  C   UNL A   1      49.182  27.696  33.770  1.00  0.00     0.059 A 
ATOM     87  C   UNL A   1      48.004  26.146  35.220  1.00  0.00     0.059 A 
ATOM     88  F   UNL A   1      45.693  25.841  34.965  1.00  0.00    -0.206 F 
ATOM     89  C   UNL A   1      49.184  26.764  34.809  1.00  0.00     0.060 A 
BRANCH  89  90
ATOM     90  S   UNL A   1      50.742  26.396  35.644  1.00  0.00     0.124 S 
ATOM     91  O   UNL A   1      51.659  27.308  34.967  1.00  0.00    -0.237 OA
ATOM     92  O   UNL A   1      50.439  26.720  37.034  1.00  0.00    -0.237 OA
ATOM     93  O   UNL A   1      50.948  24.978  35.367  1.00  0.00    -0.744 OA
ENDBRANCH  89  90
ENDBRANCH  57  82
ENDBRANCH  31  32
ENDBRANCH  23  26
ENDBRANCH  21  22
ENDBRANCH   1  21
TORSDOF 17
ENDMDL
MODEL 3
REMARK VINA RESULT:     -10.7      5.059     13.004
REMARK SMILES [NH3+][C@@H](C[NH+]1CCCCC1)C(=O)NCCCCNC(=O)c1ccc(-c2c3nc(c(-c4c(F)cc(S(=O)(=O)[O-])cc4F)c4ccc([nH]4)c(-c4c(F)cc(S(=O)(=O)[O-])cc4F)c4nc(c(-c5c(F)cc(S(=O)(=O)[O-])cc5F)c5ccc2[nH]5)C=C4)C=C3)cc1
REMARK SMILES IDX 15 1 14 2 13 3 12 4 10 5 11 6 2 8 1 9 3 13 4 14 5 15 9 16
REMARK SMILES IDX 6 18 8 19 7 20 16 21 17 22 18 23 19 25 20 26 21 27 85 28
REMARK SMILES IDX 22 29 84 30 23 31 24 32 25 33 78 34 26 35 83 36 77 37 79 38
REMARK SMILES IDX 27 39 82 40 76 41 75 42 28 44 62 45 41 46 61 47 42 48 45 49
REMARK SMILES IDX 60 50 80 51 43 52 44 53 59 55 81 56 46 57 29 58 30 59 39 60
REMARK SMILES IDX 31 61 32 62 38 63 40 64 33 65 34 66 35 67 36 68 37 69 63 70
REMARK SMILES IDX 64 71 73 72 65 73 66 74 72 75 74 76 67 77 68 78 69 79 70 80
REMARK SMILES IDX 71 81 47 82 48 83 57 84 49 85 50 86 56 87 58 88 51 89 52 90
REMARK SMILES IDX 53 91 54 92 55 93
REMARK H PARENT 12 7 1 10 1 11 1 12 4 17 17 24 79 43 45 54
REMARK Flexibility Score: inf
ROOT
ATOM      1  C   UNL A   1      33.595  33.468  28.199  1.00  0.00     0.023 C 
ENDROOT
BRANCH   1   2
ATOM      2  C   UNL A   1      34.357  34.796  28.191  1.00  0.00     0.023 C 
BRANCH   2   3
ATOM      3  C   UNL A   1      33.603  35.983  28.776  1.00  0.00     0.116 C 
BRANCH   3   4
ATOM      4  N   UNL A   1      32.748  35.632  29.893  1.00  0.00    -0.351 N 
ATOM      5  C   UNL A   1      32.856  35.988  31.211  1.00  0.00     0.284 C 
ATOM      6  O   UNL A   1      31.854  35.841  31.919  1.00  0.00    -0.268 OA
ATOM      7  H   UNL A   1      31.980  35.057  29.674  1.00  0.00     0.163 HD
BRANCH   5   8
ATOM      8  C   UNL A   1      34.169  36.536  31.820  1.00  0.00     0.326 C 
BRANCH   8   9
ATOM      9  N   UNL A   1      34.049  37.954  32.243  1.00  0.00    -0.343 N 
ATOM     10  H   UNL A   1      34.306  38.037  33.227  1.00  0.00     0.345 HD
ATOM     11  H   UNL A   1      33.088  38.267  32.115  1.00  0.00     0.345 HD
ATOM     12  H   UNL A   1      34.673  38.531  31.680  1.00  0.00     0.345 HD
ENDBRANCH   8   9
BRANCH   8  13
ATOM     13  C   UNL A   1      34.835  35.591  32.855  1.00  0.00     0.338 C 
BRANCH  13  14
ATOM     14  N   UNL A   1      36.105  34.981  32.421  1.00  0.00    -0.330 N 
ATOM     15  C   UNL A   1      36.936  34.608  33.576  1.00  0.00     0.262 C 
ATOM     16  C   UNL A   1      35.921  33.843  31.515  1.00  0.00     0.262 C 
ATOM     17  H   UNL A   1      36.595  35.696  31.883  1.00  0.00     0.348 HD
ATOM     18  C   UNL A   1      38.317  34.108  33.149  1.00  0.00     0.062 C 
ATOM     19  C   UNL A   1      37.275  33.361  30.985  1.00  0.00     0.062 C 
ATOM     20  C   UNL A   1      38.221  32.986  32.122  1.00  0.00     0.012 C 
ENDBRANCH  13  14
ENDBRANCH   8  13
ENDBRANCH   5   8
ENDBRANCH   3   4
ENDBRANCH   2   3
ENDBRANCH   1   2
BRANCH   1  21
ATOM     21  C   UNL A   1      34.368  32.248  28.701  1.00  0.00     0.116 C 
BRANCH  21  22
ATOM     22  N   UNL A   1      33.883  30.987  28.161  1.00  0.00    -0.352 N 
ATOM     23  C   UNL A   1      34.574  29.826  27.892  1.00  0.00     0.251 C 
ATOM     24  H   UNL A   1      32.920  30.959  27.957  1.00  0.00     0.163 HD
ATOM     25  O   UNL A   1      34.010  28.888  27.345  1.00  0.00    -0.269 OA
BRANCH  23  26
ATOM     26  C   UNL A   1      36.012  29.734  28.237  1.00  0.00     0.039 A 
ATOM     27  C   UNL A   1      36.372  29.327  29.525  1.00  0.00     0.014 A 
ATOM     28  C   UNL A   1      36.996  30.017  27.287  1.00  0.00     0.014 A 
ATOM     29  C   UNL A   1      37.719  29.117  29.832  1.00  0.00     0.010 A 
ATOM     30  C   UNL A   1      38.332  29.746  27.575  1.00  0.00     0.010 A 
ATOM     31  C   UNL A   1      38.706  29.280  28.846  1.00  0.00    -0.014 A 
BRANCH  31  32
ATOM     32  C   UNL A   1      40.128  28.934  29.110  1.00  0.00     0.031 A 
ATOM     33  C   UNL A   1      41.067  29.960  29.681  1.00  0.00     0.074 A 
ATOM     34  C   UNL A   1      40.593  27.718  28.755  1.00  0.00     0.049 A 
ATOM     35  N   UNL A   1      42.354  29.872  29.897  1.00  0.00    -0.248 NA
ATOM     36  C   UNL A   1      40.488  31.266  30.033  1.00  0.00     0.031 C 
ATOM     37  C   UNL A   1      39.797  26.652  28.144  1.00  0.00     0.029 A 
ATOM     38  N   UNL A   1      41.854  27.179  28.844  1.00  0.00    -0.354 N 
ATOM     39  C   UNL A   1      42.744  31.112  30.389  1.00  0.00     0.074 A 
ATOM     40  C   UNL A   1      41.563  31.948  30.403  1.00  0.00     0.031 C 
ATOM     41  C   UNL A   1      40.582  25.583  27.930  1.00  0.00     0.029 A 
ATOM     42  C   UNL A   1      41.943  25.897  28.353  1.00  0.00     0.049 A 
ATOM     43  H   UNL A   1      42.621  27.665  29.223  1.00  0.00     0.167 HD
ATOM     44  C   UNL A   1      43.969  31.511  30.809  1.00  0.00     0.037 A 
ATOM     45  C   UNL A   1      43.002  25.069  28.249  1.00  0.00     0.037 A 
ATOM     46  C   UNL A   1      45.134  30.666  30.825  1.00  0.00     0.049 A 
ATOM     47  C   UNL A   1      44.348  25.533  28.733  1.00  0.00     0.074 A 
ATOM     48  C   UNL A   1      46.402  30.958  31.297  1.00  0.00     0.029 A 
ATOM     49  N   UNL A   1      45.177  29.364  30.347  1.00  0.00    -0.354 N 
ATOM     50  N   UNL A   1      44.683  26.687  29.258  1.00  0.00    -0.248 NA
ATOM     51  C   UNL A   1      45.461  24.580  28.616  1.00  0.00     0.031 C 
ATOM     52  C   UNL A   1      47.221  29.846  31.073  1.00  0.00     0.029 A 
ATOM     53  C   UNL A   1      46.453  28.847  30.499  1.00  0.00     0.049 A 
ATOM     54  H   UNL A   1      44.413  28.880  29.958  1.00  0.00     0.167 HD
ATOM     55  C   UNL A   1      46.037  26.590  29.559  1.00  0.00     0.074 A 
ATOM     56  C   UNL A   1      46.458  25.262  29.165  1.00  0.00     0.031 C 
ATOM     57  C   UNL A   1      46.856  27.517  30.112  1.00  0.00     0.037 A 
BRANCH  44  58
ATOM     58  C   UNL A   1      44.110  32.926  31.294  1.00  0.00     0.058 A 
ATOM     59  C   UNL A   1      43.847  33.276  32.629  1.00  0.00     0.135 A 
ATOM     60  C   UNL A   1      44.550  33.939  30.427  1.00  0.00     0.135 A 
ATOM     61  F   UNL A   1      43.410  32.350  33.497  1.00  0.00    -0.206 F 
ATOM     62  C   UNL A   1      43.988  34.584  33.079  1.00  0.00     0.059 A 
ATOM     63  C   UNL A   1      44.723  35.250  30.862  1.00  0.00     0.059 A 
ATOM     64  F   UNL A   1      44.817  33.658  29.141  1.00  0.00    -0.206 F 
ATOM     65  C   UNL A   1      44.424  35.565  32.187  1.00  0.00     0.060 A 
BRANCH  65  66
ATOM     66  S   UNL A   1      44.605  37.258  32.787  1.00  0.00     0.124 S 
ATOM     67  O   UNL A   1      44.146  37.127  34.166  1.00  0.00    -0.237 OA
ATOM     68  O   UNL A   1      46.034  37.501  32.616  1.00  0.00    -0.237 OA
ATOM     69  O   UNL A   1      43.732  38.027  31.906  1.00  0.00    -0.744 OA
ENDBRANCH  65  66
ENDBRANCH  44  58
BRANCH  45  70
ATOM     70  C   UNL A   1      42.827  23.705  27.685  1.00  0.00     0.058 A 
ATOM     71  C   UNL A   1      42.495  22.623  28.514  1.00  0.00     0.135 A 
ATOM     72  C   UNL A   1      42.982  23.455  26.314  1.00  0.00     0.135 A 
ATOM     73  F   UNL A   1      42.343  22.813  29.834  1.00  0.00    -0.206 F 
ATOM     74  C   UNL A   1      42.340  21.337  28.008  1.00  0.00     0.059 A 
ATOM     75  C   UNL A   1      42.810  22.182  25.779  1.00  0.00     0.059 A 
ATOM     76  F   UNL A   1      43.283  24.460  25.476  1.00  0.00    -0.206 F 
ATOM     77  C   UNL A   1      42.499  21.127  26.637  1.00  0.00     0.060 A 
BRANCH  77  78
ATOM     78  S   UNL A   1      42.251  19.462  25.981  1.00  0.00     0.124 S 
ATOM     79  O   UNL A   1      42.723  18.638  27.087  1.00  0.00    -0.237 OA
ATOM     80  O   UNL A   1      40.812  19.439  25.735  1.00  0.00    -0.237 OA
ATOM     81  O   UNL A   1      43.083  19.448  24.782  1.00  0.00    -0.744 OA
ENDBRANCH  77  78
ENDBRANCH  45  70
BRANCH  57  82
ATOM     82  C   UNL A   1      48.284  27.119  30.361  1.00  0.00     0.058 A 
ATOM     83  C   UNL A   1      49.311  27.458  29.467  1.00  0.00     0.135 A 
ATOM     84  C   UNL A   1      48.634  26.434  31.536  1.00  0.00     0.135 A 
ATOM     85  F   UNL A   1      49.026  28.107  28.327  1.00  0.00    -0.206 F 
ATOM     86  C   UNL A   1      50.634  27.115  29.720  1.00  0.00     0.059 A 
ATOM     87  C   UNL A   1      49.955  26.101  31.819  1.00  0.00     0.059 A 
ATOM     88  F   UNL A   1      47.691  26.093  32.428  1.00  0.00    -0.206 F 
ATOM     89  C   UNL A   1      50.948  26.437  30.899  1.00  0.00     0.060 A 
BRANCH  89  90
ATOM     90  S   UNL A   1      52.674  26.029  31.235  1.00  0.00     0.124 S 
ATOM     91  O   UNL A   1      52.542  24.764  31.953  1.00  0.00    -0.237 OA
ATOM     92  O   UNL A   1      53.243  25.939  29.894  1.00  0.00    -0.237 OA
ATOM     93  O   UNL A   1      53.141  27.158  32.033  1.00  0.00    -0.744 OA
ENDBRANCH  89  90
ENDBRANCH  57  82
ENDBRANCH  31  32
ENDBRANCH  23  26
ENDBRANCH  21  22
ENDBRANCH   1  21
TORSDOF 17
ENDMDL
