MODEL 1
REMARK VINA RESULT:     -10.6      0.000      0.000
REMARK SMILES CC(C)C[C@@H](C[NH3+])C(=O)N1CCC(CC(=O)NCCCCNC(=O)c2ccc(-c3c4nc(c(-c5c(F)cc(S(=O)(=O)[O-])cc5F)c5ccc([nH]5)c(-c5c(F)cc(S(=O)(=O)[O-])cc5F)c5nc(c(-c6c(F)cc(S(=O)(=O)[O-])cc6F)c6ccc3[nH]6)C=C5)C=C4)cc2)CC1
REMARK SMILES IDX 19 1 18 2 17 3 15 4 16 5 14 7 13 8 8 9 9 10 10 11 11 12
REMARK SMILES IDX 92 13 12 14 91 15 5 16 4 17 2 18 1 19 3 20 6 21 7 22 20 26
REMARK SMILES IDX 21 27 22 28 23 29 24 31 25 32 26 33 90 34 27 35 89 36 28 37
REMARK SMILES IDX 29 38 30 39 83 40 31 41 88 42 82 43 84 44 32 45 87 46 81 47
REMARK SMILES IDX 80 48 33 50 67 51 46 52 66 53 47 54 50 55 65 56 85 57 48 58
REMARK SMILES IDX 49 59 64 61 86 62 51 63 34 64 35 65 44 66 36 67 37 68 43 69
REMARK SMILES IDX 45 70 38 71 39 72 40 73 41 74 42 75 68 76 69 77 78 78 70 79
REMARK SMILES IDX 71 80 77 81 79 82 72 83 73 84 74 85 75 86 76 87 52 88 53 89
REMARK SMILES IDX 62 90 54 91 55 92 61 93 63 94 56 95 57 96 58 97 59 98 60 99
REMARK H PARENT 17 6 7 23 7 24 7 25 22 30 84 49 50 60
REMARK Flexibility Score: inf
ROOT
ATOM      1  C   UNL A   1      35.856  21.728  26.139  1.00  0.00     0.023 C 
ENDROOT
BRANCH   1   2
ATOM      2  C   UNL A   1      35.337  20.942  24.929  1.00  0.00     0.116 C 
BRANCH   2   3
ATOM      3  N   UNL A   1      33.996  20.423  25.155  1.00  0.00    -0.356 N 
ATOM      4  C   UNL A   1      32.799  20.782  24.604  1.00  0.00     0.220 C 
ATOM      5  O   UNL A   1      31.776  20.222  25.000  1.00  0.00    -0.275 OA
ATOM      6  H   UNL A   1      33.942  19.692  25.813  1.00  0.00     0.163 HD
BRANCH   4   7
ATOM      7  C   UNL A   1      32.723  21.854  23.529  1.00  0.00     0.103 C 
BRANCH   7   8
ATOM      8  C   UNL A   1      33.148  23.259  24.005  1.00  0.00     0.002 C 
ATOM      9  C   UNL A   1      31.703  26.957  23.116  1.00  0.00     0.231 C 
ATOM     10  O   UNL A   1      31.387  26.746  21.942  1.00  0.00    -0.274 OA
ATOM     11  N   UNL A   1      32.545  26.102  23.799  1.00  0.00    -0.342 N 
ATOM     12  C   UNL A   1      33.712  25.603  23.114  1.00  0.00     0.120 C 
ATOM     13  C   UNL A   1      32.218  25.412  25.036  1.00  0.00     0.120 C 
ATOM     14  C   UNL A   1      33.566  24.129  22.822  1.00  0.00     0.026 C 
ATOM     15  C   UNL A   1      32.002  23.917  24.791  1.00  0.00     0.026 C 
BRANCH   9  16
ATOM     16  C   UNL A   1      31.409  28.323  23.749  1.00  0.00     0.133 C 
BRANCH  16  17
ATOM     17  C   UNL A   1      32.644  29.103  24.211  1.00  0.00     0.022 C 
BRANCH  17  18
ATOM     18  C   UNL A   1      32.828  29.270  25.729  1.00  0.00    -0.016 C 
ATOM     19  C   UNL A   1      31.630  28.773  26.535  1.00  0.00     0.007 C 
ATOM     20  C   UNL A   1      34.091  28.514  26.155  1.00  0.00     0.007 C 
ENDBRANCH  17  18
ENDBRANCH  16  17
BRANCH  16  21
ATOM     21  C   UNL A   1      30.457  29.101  22.816  1.00  0.00     0.272 C 
BRANCH  21  22
ATOM     22  N   UNL A   1      31.114  29.866  21.755  1.00  0.00    -0.357 N 
ATOM     23  H   UNL A   1      30.800  30.835  21.790  1.00  0.00     0.344 HD
ATOM     24  H   UNL A   1      30.875  29.463  20.849  1.00  0.00     0.344 HD
ATOM     25  H   UNL A   1      32.125  29.830  21.886  1.00  0.00     0.344 HD
ENDBRANCH  21  22
ENDBRANCH  16  21
ENDBRANCH   9  16
ENDBRANCH   7   8
ENDBRANCH   4   7
ENDBRANCH   2   3
ENDBRANCH   1   2
BRANCH   1  26
ATOM     26  C   UNL A   1      35.975  23.227  25.944  1.00  0.00     0.023 C 
BRANCH  26  27
ATOM     27  C   UNL A   1      37.217  23.648  25.190  1.00  0.00     0.116 C 
BRANCH  27  28
ATOM     28  N   UNL A   1      38.362  22.772  25.414  1.00  0.00    -0.352 N 
ATOM     29  C   UNL A   1      39.508  23.037  26.130  1.00  0.00     0.251 C 
ATOM     30  H   UNL A   1      38.308  21.880  25.002  1.00  0.00     0.163 HD
ATOM     31  O   UNL A   1      40.431  22.238  26.163  1.00  0.00    -0.269 OA
BRANCH  29  32
ATOM     32  C   UNL A   1      39.610  24.341  26.816  1.00  0.00     0.039 A 
ATOM     33  C   UNL A   1      39.063  24.482  28.091  1.00  0.00     0.014 A 
ATOM     34  C   UNL A   1      40.360  25.370  26.240  1.00  0.00     0.014 A 
ATOM     35  C   UNL A   1      39.345  25.632  28.828  1.00  0.00     0.010 A 
ATOM     36  C   UNL A   1      40.733  26.454  27.018  1.00  0.00     0.010 A 
ATOM     37  C   UNL A   1      40.223  26.602  28.317  1.00  0.00    -0.014 A 
BRANCH  37  38
ATOM     38  C   UNL A   1      40.595  27.807  29.097  1.00  0.00     0.031 A 
ATOM     39  C   UNL A   1      41.936  27.852  29.778  1.00  0.00     0.074 A 
ATOM     40  C   UNL A   1      39.713  28.816  29.248  1.00  0.00     0.049 A 
ATOM     41  N   UNL A   1      42.415  28.746  30.603  1.00  0.00    -0.248 NA
ATOM     42  C   UNL A   1      42.843  26.717  29.533  1.00  0.00     0.031 C 
ATOM     43  C   UNL A   1      38.362  28.862  28.680  1.00  0.00     0.029 A 
ATOM     44  N   UNL A   1      39.820  30.000  29.933  1.00  0.00    -0.354 N 
ATOM     45  C   UNL A   1      43.665  28.273  30.985  1.00  0.00     0.074 A 
ATOM     46  C   UNL A   1      43.839  26.979  30.365  1.00  0.00     0.031 C 
ATOM     47  C   UNL A   1      37.784  30.029  29.012  1.00  0.00     0.029 A 
ATOM     48  C   UNL A   1      38.702  30.797  29.843  1.00  0.00     0.049 A 
ATOM     49  H   UNL A   1      40.624  30.256  30.442  1.00  0.00     0.167 HD
ATOM     50  C   UNL A   1      44.602  28.878  31.750  1.00  0.00     0.037 A 
ATOM     51  C   UNL A   1      38.454  32.010  30.373  1.00  0.00     0.037 A 
ATOM     52  C   UNL A   1      44.442  30.187  32.322  1.00  0.00     0.049 A 
ATOM     53  C   UNL A   1      39.520  32.669  31.209  1.00  0.00     0.074 A 
ATOM     54  C   UNL A   1      45.341  30.910  33.083  1.00  0.00     0.029 A 
ATOM     55  N   UNL A   1      43.313  30.977  32.173  1.00  0.00    -0.354 N 
ATOM     56  N   UNL A   1      40.710  32.220  31.532  1.00  0.00    -0.248 NA
ATOM     57  C   UNL A   1      39.212  34.001  31.749  1.00  0.00     0.031 C 
ATOM     58  C   UNL A   1      44.746  32.133  33.412  1.00  0.00     0.029 A 
ATOM     59  C   UNL A   1      43.491  32.183  32.826  1.00  0.00     0.049 A 
ATOM     60  H   UNL A   1      42.503  30.718  31.676  1.00  0.00     0.167 HD
ATOM     61  C   UNL A   1      41.304  33.227  32.284  1.00  0.00     0.074 A 
ATOM     62  C   UNL A   1      40.347  34.312  32.360  1.00  0.00     0.031 C 
ATOM     63  C   UNL A   1      42.530  33.254  32.863  1.00  0.00     0.037 A 
BRANCH  50  64
ATOM     64  C   UNL A   1      45.893  28.143  31.973  1.00  0.00     0.058 A 
ATOM     65  C   UNL A   1      47.014  28.374  31.157  1.00  0.00     0.135 A 
ATOM     66  C   UNL A   1      46.023  27.217  33.019  1.00  0.00     0.135 A 
ATOM     67  F   UNL A   1      46.935  29.232  30.128  1.00  0.00    -0.206 F 
ATOM     68  C   UNL A   1      48.209  27.693  31.354  1.00  0.00     0.059 A 
ATOM     69  C   UNL A   1      47.220  26.545  33.253  1.00  0.00     0.059 A 
ATOM     70  F   UNL A   1      44.982  26.955  33.824  1.00  0.00    -0.206 F 
ATOM     71  C   UNL A   1      48.302  26.781  32.406  1.00  0.00     0.060 A 
BRANCH  71  72
ATOM     72  S   UNL A   1      49.867  25.917  32.657  1.00  0.00     0.124 S 
ATOM     73  O   UNL A   1      49.704  25.410  34.017  1.00  0.00    -0.237 OA
ATOM     74  O   UNL A   1      49.844  24.911  31.600  1.00  0.00    -0.237 OA
ATOM     75  O   UNL A   1      50.866  26.969  32.494  1.00  0.00    -0.744 OA
ENDBRANCH  71  72
ENDBRANCH  50  64
BRANCH  51  76
ATOM     76  C   UNL A   1      37.163  32.702  30.112  1.00  0.00     0.058 A 
ATOM     77  C   UNL A   1      37.047  33.630  29.065  1.00  0.00     0.135 A 
ATOM     78  C   UNL A   1      36.034  32.475  30.912  1.00  0.00     0.135 A 
ATOM     79  F   UNL A   1      38.101  33.882  28.274  1.00  0.00    -0.206 F 
ATOM     80  C   UNL A   1      35.869  34.334  28.842  1.00  0.00     0.059 A 
ATOM     81  C   UNL A   1      34.836  33.151  30.693  1.00  0.00     0.059 A 
ATOM     82  F   UNL A   1      36.085  31.583  31.913  1.00  0.00    -0.206 F 
ATOM     83  C   UNL A   1      34.770  34.093  29.666  1.00  0.00     0.060 A 
BRANCH  83  84
ATOM     84  S   UNL A   1      33.241  35.007  29.366  1.00  0.00     0.124 S 
ATOM     85  O   UNL A   1      32.638  35.012  30.694  1.00  0.00    -0.237 OA
ATOM     86  O   UNL A   1      33.737  36.292  28.886  1.00  0.00    -0.237 OA
ATOM     87  O   UNL A   1      32.557  34.193  28.365  1.00  0.00    -0.744 OA
ENDBRANCH  83  84
ENDBRANCH  51  76
BRANCH  63  88
ATOM     88  C   UNL A   1      42.922  34.511  33.585  1.00  0.00     0.058 A 
ATOM     89  C   UNL A   1      42.850  34.608  34.982  1.00  0.00     0.135 A 
ATOM     90  C   UNL A   1      43.429  35.608  32.870  1.00  0.00     0.135 A 
ATOM     91  F   UNL A   1      42.368  33.588  35.707  1.00  0.00    -0.206 F 
ATOM     92  C   UNL A   1      43.251  35.762  35.647  1.00  0.00     0.059 A 
ATOM     93  C   UNL A   1      43.857  36.762  33.517  1.00  0.00     0.059 A 
ATOM     94  F   UNL A   1      43.527  35.558  31.533  1.00  0.00    -0.206 F 
ATOM     95  C   UNL A   1      43.754  36.833  34.905  1.00  0.00     0.060 A 
BRANCH  95  96
ATOM     96  S   UNL A   1      44.306  38.310  35.783  1.00  0.00     0.124 S 
ATOM     97  O   UNL A   1      43.580  38.191  37.043  1.00  0.00    -0.237 OA
ATOM     98  O   UNL A   1      45.750  38.107  35.862  1.00  0.00    -0.237 OA
ATOM     99  O   UNL A   1      43.881  39.401  34.912  1.00  0.00    -0.744 OA
ENDBRANCH  95  96
ENDBRANCH  63  88
ENDBRANCH  37  38
ENDBRANCH  29  32
ENDBRANCH  27  28
ENDBRANCH  26  27
ENDBRANCH   1  26
TORSDOF 20
ENDMDL
MODEL 2
REMARK VINA RESULT:     -10.5      2.888      9.494
REMARK SMILES CC(C)C[C@@H](C[NH3+])C(=O)N1CCC(CC(=O)NCCCCNC(=O)c2ccc(-c3c4nc(c(-c5c(F)cc(S(=O)(=O)[O-])cc5F)c5ccc([nH]5)c(-c5c(F)cc(S(=O)(=O)[O-])cc5F)c5nc(c(-c6c(F)cc(S(=O)(=O)[O-])cc6F)c6ccc3[nH]6)C=C5)C=C4)cc2)CC1
REMARK SMILES IDX 19 1 18 2 17 3 15 4 16 5 14 7 13 8 8 9 9 10 10 11 11 12
REMARK SMILES IDX 92 13 12 14 91 15 5 16 4 17 2 18 1 19 3 20 6 21 7 22 20 26
REMARK SMILES IDX 21 27 22 28 23 29 24 31 25 32 26 33 90 34 27 35 89 36 28 37
REMARK SMILES IDX 29 38 30 39 83 40 31 41 88 42 82 43 84 44 32 45 87 46 81 47
REMARK SMILES IDX 80 48 33 50 67 51 46 52 66 53 47 54 50 55 65 56 85 57 48 58
REMARK SMILES IDX 49 59 64 61 86 62 51 63 34 64 35 65 44 66 36 67 37 68 43 69
REMARK SMILES IDX 45 70 38 71 39 72 40 73 41 74 42 75 68 76 69 77 78 78 70 79
REMARK SMILES IDX 71 80 77 81 79 82 72 83 73 84 74 85 75 86 76 87 52 88 53 89
REMARK SMILES IDX 62 90 54 91 55 92 61 93 63 94 56 95 57 96 58 97 59 98 60 99
REMARK H PARENT 17 6 7 23 7 24 7 25 22 30 84 49 50 60
REMARK Flexibility Score: inf
ROOT
ATOM      1  C   UNL A   1      33.065  29.360  24.954  1.00  0.00     0.023 C 
ENDROOT
BRANCH   1   2
ATOM      2  C   UNL A   1      31.715  29.228  24.237  1.00  0.00     0.116 C 
BRANCH   2   3
ATOM      3  N   UNL A   1      30.893  28.178  24.820  1.00  0.00    -0.356 N 
ATOM      4  C   UNL A   1      30.365  27.049  24.261  1.00  0.00     0.220 C 
ATOM      5  O   UNL A   1      29.647  26.328  24.955  1.00  0.00    -0.275 OA
ATOM      6  H   UNL A   1      30.682  28.302  25.774  1.00  0.00     0.163 HD
BRANCH   4   7
ATOM      7  C   UNL A   1      30.650  26.686  22.813  1.00  0.00     0.103 C 
BRANCH   7   8
ATOM      8  C   UNL A   1      31.539  25.436  22.638  1.00  0.00     0.002 C 
ATOM      9  C   UNL A   1      33.477  23.107  25.353  1.00  0.00     0.231 C 
ATOM     10  O   UNL A   1      33.760  23.988  26.171  1.00  0.00    -0.274 OA
ATOM     11  N   UNL A   1      33.081  23.421  24.068  1.00  0.00    -0.342 N 
ATOM     12  C   UNL A   1      33.801  24.456  23.366  1.00  0.00     0.120 C 
ATOM     13  C   UNL A   1      31.823  23.026  23.456  1.00  0.00     0.120 C 
ATOM     14  C   UNL A   1      32.936  25.684  23.202  1.00  0.00     0.026 C 
ATOM     15  C   UNL A   1      30.881  24.224  23.315  1.00  0.00     0.026 C 
BRANCH   9  16
ATOM     16  C   UNL A   1      33.841  21.648  25.650  1.00  0.00     0.133 C 
BRANCH  16  17
ATOM     17  C   UNL A   1      34.977  21.076  24.797  1.00  0.00     0.022 C 
BRANCH  17  18
ATOM     18  C   UNL A   1      36.396  21.169  25.383  1.00  0.00    -0.016 C 
ATOM     19  C   UNL A   1      37.287  19.995  24.982  1.00  0.00     0.007 C 
ATOM     20  C   UNL A   1      37.032  22.485  24.922  1.00  0.00     0.007 C 
ENDBRANCH  17  18
ENDBRANCH  16  17
BRANCH  16  21
ATOM     21  C   UNL A   1      34.026  21.488  27.174  1.00  0.00     0.272 C 
BRANCH  21  22
ATOM     22  N   UNL A   1      32.893  21.930  27.988  1.00  0.00    -0.357 N 
ATOM     23  H   UNL A   1      33.093  21.756  28.973  1.00  0.00     0.344 HD
ATOM     24  H   UNL A   1      32.056  21.415  27.714  1.00  0.00     0.344 HD
ATOM     25  H   UNL A   1      32.739  22.928  27.843  1.00  0.00     0.344 HD
ENDBRANCH  21  22
ENDBRANCH  16  21
ENDBRANCH   9  16
ENDBRANCH   7   8
ENDBRANCH   4   7
ENDBRANCH   2   3
ENDBRANCH   1   2
BRANCH   1  26
ATOM     26  C   UNL A   1      33.485  28.163  25.785  1.00  0.00     0.023 C 
BRANCH  26  27
ATOM     27  C   UNL A   1      33.541  28.441  27.271  1.00  0.00     0.116 C 
BRANCH  27  28
ATOM     28  N   UNL A   1      33.534  29.862  27.600  1.00  0.00    -0.352 N 
ATOM     29  C   UNL A   1      34.580  30.635  28.055  1.00  0.00     0.251 C 
ATOM     30  H   UNL A   1      32.674  30.328  27.483  1.00  0.00     0.163 HD
ATOM     31  O   UNL A   1      34.411  31.802  28.376  1.00  0.00    -0.269 OA
BRANCH  29  32
ATOM     32  C   UNL A   1      35.904  29.996  28.191  1.00  0.00     0.039 A 
ATOM     33  C   UNL A   1      36.809  30.077  27.134  1.00  0.00     0.014 A 
ATOM     34  C   UNL A   1      36.280  29.436  29.415  1.00  0.00     0.014 A 
ATOM     35  C   UNL A   1      38.129  29.672  27.336  1.00  0.00     0.010 A 
ATOM     36  C   UNL A   1      37.615  29.146  29.646  1.00  0.00     0.010 A 
ATOM     37  C   UNL A   1      38.552  29.250  28.607  1.00  0.00    -0.014 A 
BRANCH  37  38
ATOM     38  C   UNL A   1      39.961  28.871  28.875  1.00  0.00     0.031 A 
ATOM     39  C   UNL A   1      40.887  29.885  29.491  1.00  0.00     0.074 A 
ATOM     40  C   UNL A   1      40.418  27.658  28.506  1.00  0.00     0.049 A 
ATOM     41  N   UNL A   1      42.175  29.810  29.699  1.00  0.00    -0.248 NA
ATOM     42  C   UNL A   1      40.291  31.174  29.887  1.00  0.00     0.031 C 
ATOM     43  C   UNL A   1      39.628  26.611  27.851  1.00  0.00     0.029 A 
ATOM     44  N   UNL A   1      41.666  27.100  28.625  1.00  0.00    -0.354 N 
ATOM     45  C   UNL A   1      42.542  31.040  30.230  1.00  0.00     0.074 A 
ATOM     46  C   UNL A   1      41.359  31.870  30.242  1.00  0.00     0.031 C 
ATOM     47  C   UNL A   1      40.402  25.529  27.660  1.00  0.00     0.029 A 
ATOM     48  C   UNL A   1      41.748  25.815  28.142  1.00  0.00     0.049 A 
ATOM     49  H   UNL A   1      42.432  27.576  29.020  1.00  0.00     0.167 HD
ATOM     50  C   UNL A   1      43.747  31.432  30.706  1.00  0.00     0.037 A 
ATOM     51  C   UNL A   1      42.794  24.967  28.098  1.00  0.00     0.037 A 
ATOM     52  C   UNL A   1      44.906  30.584  30.738  1.00  0.00     0.049 A 
ATOM     53  C   UNL A   1      44.121  25.423  28.647  1.00  0.00     0.074 A 
ATOM     54  C   UNL A   1      46.167  30.867  31.229  1.00  0.00     0.029 A 
ATOM     55  N   UNL A   1      44.937  29.276  30.277  1.00  0.00    -0.354 N 
ATOM     56  N   UNL A   1      44.441  26.580  29.177  1.00  0.00    -0.248 NA
ATOM     57  C   UNL A   1      45.227  24.457  28.597  1.00  0.00     0.031 C 
ATOM     58  C   UNL A   1      46.968  29.733  31.048  1.00  0.00     0.029 A 
ATOM     59  C   UNL A   1      46.195  28.737  30.475  1.00  0.00     0.049 A 
ATOM     60  H   UNL A   1      44.176  28.803  29.870  1.00  0.00     0.167 HD
ATOM     61  C   UNL A   1      45.775  26.469  29.552  1.00  0.00     0.074 A 
ATOM     62  C   UNL A   1      46.199  25.130  29.198  1.00  0.00     0.031 C 
ATOM     63  C   UNL A   1      46.580  27.391  30.136  1.00  0.00     0.037 A 
BRANCH  50  64
ATOM     64  C   UNL A   1      43.852  32.823  31.262  1.00  0.00     0.058 A 
ATOM     65  C   UNL A   1      44.152  33.918  30.434  1.00  0.00     0.135 A 
ATOM     66  C   UNL A   1      43.633  33.072  32.625  1.00  0.00     0.135 A 
ATOM     67  F   UNL A   1      44.395  33.731  29.127  1.00  0.00    -0.206 F 
ATOM     68  C   UNL A   1      44.257  35.207  30.944  1.00  0.00     0.059 A 
ATOM     69  C   UNL A   1      43.705  34.360  33.152  1.00  0.00     0.059 A 
ATOM     70  F   UNL A   1      43.349  32.061  33.461  1.00  0.00    -0.206 F 
ATOM     71  C   UNL A   1      44.031  35.418  32.304  1.00  0.00     0.060 A 
BRANCH  71  72
ATOM     72  S   UNL A   1      44.156  37.100  32.945  1.00  0.00     0.124 S 
ATOM     73  O   UNL A   1      45.458  37.064  33.605  1.00  0.00    -0.237 OA
ATOM     74  O   UNL A   1      44.084  37.906  31.730  1.00  0.00    -0.237 OA
ATOM     75  O   UNL A   1      43.004  37.211  33.835  1.00  0.00    -0.744 OA
ENDBRANCH  71  72
ENDBRANCH  50  64
BRANCH  51  76
ATOM     76  C   UNL A   1      42.635  23.594  27.548  1.00  0.00     0.058 A 
ATOM     77  C   UNL A   1      42.248  22.530  28.377  1.00  0.00     0.135 A 
ATOM     78  C   UNL A   1      42.891  23.311  26.198  1.00  0.00     0.135 A 
ATOM     79  F   UNL A   1      41.995  22.751  29.676  1.00  0.00    -0.206 F 
ATOM     80  C   UNL A   1      42.155  21.228  27.898  1.00  0.00     0.059 A 
ATOM     81  C   UNL A   1      42.781  22.019  25.689  1.00  0.00     0.059 A 
ATOM     82  F   UNL A   1      43.244  24.296  25.358  1.00  0.00    -0.206 F 
ATOM     83  C   UNL A   1      42.430  20.981  26.553  1.00  0.00     0.060 A 
BRANCH  83  84
ATOM     84  S   UNL A   1      42.299  19.288  25.936  1.00  0.00     0.124 S 
ATOM     85  O   UNL A   1      43.080  19.364  24.706  1.00  0.00    -0.237 OA
ATOM     86  O   UNL A   1      42.893  18.516  27.022  1.00  0.00    -0.237 OA
ATOM     87  O   UNL A   1      40.861  19.107  25.761  1.00  0.00    -0.744 OA
ENDBRANCH  83  84
ENDBRANCH  51  76
BRANCH  63  88
ATOM     88  C   UNL A   1      47.982  26.968  30.470  1.00  0.00     0.058 A 
ATOM     89  C   UNL A   1      49.045  27.181  29.582  1.00  0.00     0.135 A 
ATOM     90  C   UNL A   1      48.267  26.393  31.719  1.00  0.00     0.135 A 
ATOM     91  F   UNL A   1      48.820  27.722  28.375  1.00  0.00    -0.206 F 
ATOM     92  C   UNL A   1      50.346  26.820  29.914  1.00  0.00     0.059 A 
ATOM     93  C   UNL A   1      49.564  26.048  32.080  1.00  0.00     0.059 A 
ATOM     94  F   UNL A   1      47.284  26.180  32.607  1.00  0.00    -0.206 F 
ATOM     95  C   UNL A   1      50.596  26.255  31.166  1.00  0.00     0.060 A 
BRANCH  95  96
ATOM     96  S   UNL A   1      52.295  25.828  31.600  1.00  0.00     0.124 S 
ATOM     97  O   UNL A   1      52.605  26.842  32.602  1.00  0.00    -0.237 OA
ATOM     98  O   UNL A   1      52.157  24.463  32.101  1.00  0.00    -0.237 OA
ATOM     99  O   UNL A   1      53.010  25.954  30.335  1.00  0.00    -0.744 OA
ENDBRANCH  95  96
ENDBRANCH  63  88
ENDBRANCH  37  38
ENDBRANCH  29  32
ENDBRANCH  27  28
ENDBRANCH  26  27
ENDBRANCH   1  26
TORSDOF 20
ENDMDL
MODEL 3
REMARK VINA RESULT:     -10.5      1.077      1.959
REMARK SMILES CC(C)C[C@@H](C[NH3+])C(=O)N1CCC(CC(=O)NCCCCNC(=O)c2ccc(-c3c4nc(c(-c5c(F)cc(S(=O)(=O)[O-])cc5F)c5ccc([nH]5)c(-c5c(F)cc(S(=O)(=O)[O-])cc5F)c5nc(c(-c6c(F)cc(S(=O)(=O)[O-])cc6F)c6ccc3[nH]6)C=C5)C=C4)cc2)CC1
REMARK SMILES IDX 19 1 18 2 17 3 15 4 16 5 14 7 13 8 8 9 9 10 10 11 11 12
REMARK SMILES IDX 92 13 12 14 91 15 5 16 4 17 2 18 1 19 3 20 6 21 7 22 20 26
REMARK SMILES IDX 21 27 22 28 23 29 24 31 25 32 26 33 90 34 27 35 89 36 28 37
REMARK SMILES IDX 29 38 30 39 83 40 31 41 88 42 82 43 84 44 32 45 87 46 81 47
REMARK SMILES IDX 80 48 33 50 67 51 46 52 66 53 47 54 50 55 65 56 85 57 48 58
REMARK SMILES IDX 49 59 64 61 86 62 51 63 34 64 35 65 44 66 36 67 37 68 43 69
REMARK SMILES IDX 45 70 38 71 39 72 40 73 41 74 42 75 68 76 69 77 78 78 70 79
REMARK SMILES IDX 71 80 77 81 79 82 72 83 73 84 74 85 75 86 76 87 52 88 53 89
REMARK SMILES IDX 62 90 54 91 55 92 61 93 63 94 56 95 57 96 58 97 59 98 60 99
REMARK H PARENT 17 6 7 23 7 24 7 25 22 30 84 49 50 60
REMARK Flexibility Score: inf
ROOT
ATOM      1  C   UNL A   1      35.751  21.520  25.963  1.00  0.00     0.023 C 
ENDROOT
BRANCH   1   2
ATOM      2  C   UNL A   1      35.468  20.394  24.961  1.00  0.00     0.116 C 
BRANCH   2   3
ATOM      3  N   UNL A   1      34.303  19.609  25.343  1.00  0.00    -0.356 N 
ATOM      4  C   UNL A   1      32.979  19.789  25.061  1.00  0.00     0.220 C 
ATOM      5  O   UNL A   1      32.162  19.006  25.549  1.00  0.00    -0.275 OA
ATOM      6  H   UNL A   1      34.503  18.818  25.894  1.00  0.00     0.163 HD
BRANCH   4   7
ATOM      7  C   UNL A   1      32.516  20.931  24.171  1.00  0.00     0.103 C 
BRANCH   7   8
ATOM      8  C   UNL A   1      31.651  21.985  24.895  1.00  0.00     0.002 C 
ATOM      9  C   UNL A   1      32.412  25.846  25.926  1.00  0.00     0.231 C 
ATOM     10  O   UNL A   1      33.618  25.731  26.164  1.00  0.00    -0.274 OA
ATOM     11  N   UNL A   1      31.589  24.741  25.834  1.00  0.00    -0.342 N 
ATOM     12  C   UNL A   1      31.744  23.693  26.813  1.00  0.00     0.120 C 
ATOM     13  C   UNL A   1      30.786  24.386  24.676  1.00  0.00     0.120 C 
ATOM     14  C   UNL A   1      32.334  22.457  26.176  1.00  0.00     0.026 C 
ATOM     15  C   UNL A   1      31.370  23.168  23.956  1.00  0.00     0.026 C 
BRANCH   9  16
ATOM     16  C   UNL A   1      31.747  27.225  26.018  1.00  0.00     0.133 C 
BRANCH  16  17
ATOM     17  C   UNL A   1      32.282  28.129  27.132  1.00  0.00     0.022 C 
BRANCH  17  18
ATOM     18  C   UNL A   1      32.992  29.421  26.693  1.00  0.00    -0.016 C 
ATOM     19  C   UNL A   1      32.110  30.661  26.819  1.00  0.00     0.007 C 
ATOM     20  C   UNL A   1      34.258  29.596  27.539  1.00  0.00     0.007 C 
ENDBRANCH  17  18
ENDBRANCH  16  17
BRANCH  16  21
ATOM     21  C   UNL A   1      31.734  27.860  24.611  1.00  0.00     0.272 C 
BRANCH  21  22
ATOM     22  N   UNL A   1      32.646  27.247  23.645  1.00  0.00    -0.357 N 
ATOM     23  H   UNL A   1      33.251  27.965  23.246  1.00  0.00     0.344 HD
ATOM     24  H   UNL A   1      32.106  26.806  22.901  1.00  0.00     0.344 HD
ATOM     25  H   UNL A   1      33.216  26.543  24.114  1.00  0.00     0.344 HD
ENDBRANCH  21  22
ENDBRANCH  16  21
ENDBRANCH   9  16
ENDBRANCH   7   8
ENDBRANCH   4   7
ENDBRANCH   2   3
ENDBRANCH   1   2
BRANCH   1  26
ATOM     26  C   UNL A   1      35.697  22.927  25.399  1.00  0.00     0.023 C 
BRANCH  26  27
ATOM     27  C   UNL A   1      37.059  23.536  25.145  1.00  0.00     0.116 C 
BRANCH  27  28
ATOM     28  N   UNL A   1      38.166  22.633  25.440  1.00  0.00    -0.352 N 
ATOM     29  C   UNL A   1      39.306  22.896  26.168  1.00  0.00     0.251 C 
ATOM     30  H   UNL A   1      38.090  21.723  25.075  1.00  0.00     0.163 HD
ATOM     31  O   UNL A   1      40.199  22.068  26.264  1.00  0.00    -0.269 OA
BRANCH  29  32
ATOM     32  C   UNL A   1      39.440  24.231  26.787  1.00  0.00     0.039 A 
ATOM     33  C   UNL A   1      38.964  24.429  28.082  1.00  0.00     0.014 A 
ATOM     34  C   UNL A   1      40.153  25.233  26.124  1.00  0.00     0.014 A 
ATOM     35  C   UNL A   1      39.281  25.612  28.750  1.00  0.00     0.010 A 
ATOM     36  C   UNL A   1      40.563  26.353  26.830  1.00  0.00     0.010 A 
ATOM     37  C   UNL A   1      40.125  26.560  28.146  1.00  0.00    -0.014 A 
BRANCH  37  38
ATOM     38  C   UNL A   1      40.534  27.800  28.849  1.00  0.00     0.031 A 
ATOM     39  C   UNL A   1      41.909  27.877  29.455  1.00  0.00     0.074 A 
ATOM     40  C   UNL A   1      39.659  28.814  29.000  1.00  0.00     0.049 A 
ATOM     41  N   UNL A   1      42.429  28.808  30.211  1.00  0.00    -0.248 NA
ATOM     42  C   UNL A   1      42.806  26.732  29.215  1.00  0.00     0.031 C 
ATOM     43  C   UNL A   1      38.280  28.833  28.503  1.00  0.00     0.029 A 
ATOM     44  N   UNL A   1      39.799  30.029  29.622  1.00  0.00    -0.354 N 
ATOM     45  C   UNL A   1      43.698  28.354  30.547  1.00  0.00     0.074 A 
ATOM     46  C   UNL A   1      43.843  27.033  29.979  1.00  0.00     0.031 C 
ATOM     47  C   UNL A   1      37.716  30.013  28.810  1.00  0.00     0.029 A 
ATOM     48  C   UNL A   1      38.675  30.820  29.555  1.00  0.00     0.049 A 
ATOM     49  H   UNL A   1      40.627  30.308  30.075  1.00  0.00     0.167 HD
ATOM     50  C   UNL A   1      44.673  28.995  31.232  1.00  0.00     0.037 A 
ATOM     51  C   UNL A   1      38.452  32.056  30.041  1.00  0.00     0.037 A 
ATOM     52  C   UNL A   1      44.540  30.329  31.750  1.00  0.00     0.049 A 
ATOM     53  C   UNL A   1      39.559  32.754  30.787  1.00  0.00     0.074 A 
ATOM     54  C   UNL A   1      45.476  31.087  32.428  1.00  0.00     0.029 A 
ATOM     55  N   UNL A   1      43.402  31.111  31.625  1.00  0.00    -0.354 N 
ATOM     56  N   UNL A   1      40.765  32.322  31.066  1.00  0.00    -0.248 NA
ATOM     57  C   UNL A   1      39.276  34.109  31.280  1.00  0.00     0.031 C 
ATOM     58  C   UNL A   1      44.896  32.324  32.731  1.00  0.00     0.029 A 
ATOM     59  C   UNL A   1      43.612  32.346  32.211  1.00  0.00     0.049 A 
ATOM     60  H   UNL A   1      42.568  30.829  31.185  1.00  0.00     0.167 HD
ATOM     61  C   UNL A   1      41.395  33.363  31.738  1.00  0.00     0.074 A 
ATOM     62  C   UNL A   1      40.440  34.449  31.814  1.00  0.00     0.031 C 
ATOM     63  C   UNL A   1      42.650  33.417  32.249  1.00  0.00     0.037 A 
BRANCH  50  64
ATOM     64  C   UNL A   1      45.977  28.272  31.420  1.00  0.00     0.058 A 
ATOM     65  C   UNL A   1      46.199  27.451  32.539  1.00  0.00     0.135 A 
ATOM     66  C   UNL A   1      47.005  28.382  30.472  1.00  0.00     0.135 A 
ATOM     67  F   UNL A   1      45.257  27.331  33.487  1.00  0.00    -0.206 F 
ATOM     68  C   UNL A   1      47.404  26.784  32.723  1.00  0.00     0.059 A 
ATOM     69  C   UNL A   1      48.210  27.700  30.622  1.00  0.00     0.059 A 
ATOM     70  F   UNL A   1      46.847  29.158  29.389  1.00  0.00    -0.206 F 
ATOM     71  C   UNL A   1      48.404  26.915  31.758  1.00  0.00     0.060 A 
BRANCH  71  72
ATOM     72  S   UNL A   1      49.957  26.029  32.005  1.00  0.00     0.124 S 
ATOM     73  O   UNL A   1      49.985  25.159  30.833  1.00  0.00    -0.237 OA
ATOM     74  O   UNL A   1      50.937  27.111  32.014  1.00  0.00    -0.237 OA
ATOM     75  O   UNL A   1      49.764  25.354  33.285  1.00  0.00    -0.744 OA
ENDBRANCH  71  72
ENDBRANCH  50  64
BRANCH  51  76
ATOM     76  C   UNL A   1      37.147  32.734  29.816  1.00  0.00     0.058 A 
ATOM     77  C   UNL A   1      37.004  33.696  28.803  1.00  0.00     0.135 A 
ATOM     78  C   UNL A   1      36.030  32.461  30.619  1.00  0.00     0.135 A 
ATOM     79  F   UNL A   1      38.045  33.993  28.010  1.00  0.00    -0.206 F 
ATOM     80  C   UNL A   1      35.812  34.387  28.617  1.00  0.00     0.059 A 
ATOM     81  C   UNL A   1      34.818  33.123  30.436  1.00  0.00     0.059 A 
ATOM     82  F   UNL A   1      36.107  31.536  31.589  1.00  0.00    -0.206 F 
ATOM     83  C   UNL A   1      34.726  34.099  29.443  1.00  0.00     0.060 A 
BRANCH  83  84
ATOM     84  S   UNL A   1      33.179  34.996  29.190  1.00  0.00     0.124 S 
ATOM     85  O   UNL A   1      33.665  36.303  28.763  1.00  0.00    -0.237 OA
ATOM     86  O   UNL A   1      32.519  34.194  28.165  1.00  0.00    -0.237 OA
ATOM     87  O   UNL A   1      32.550  34.956  30.508  1.00  0.00    -0.744 OA
ENDBRANCH  83  84
ENDBRANCH  51  76
BRANCH  63  88
ATOM     88  C   UNL A   1      43.076  34.707  32.890  1.00  0.00     0.058 A 
ATOM     89  C   UNL A   1      43.772  35.690  32.172  1.00  0.00     0.135 A 
ATOM     90  C   UNL A   1      42.731  34.980  34.224  1.00  0.00     0.135 A 
ATOM     91  F   UNL A   1      44.128  35.471  30.897  1.00  0.00    -0.206 F 
ATOM     92  C   UNL A   1      44.131  36.897  32.762  1.00  0.00     0.059 A 
ATOM     93  C   UNL A   1      43.059  36.190  34.825  1.00  0.00     0.059 A 
ATOM     94  F   UNL A   1      42.056  34.075  34.948  1.00  0.00    -0.206 F 
ATOM     95  C   UNL A   1      43.768  37.138  34.089  1.00  0.00     0.060 A 
BRANCH  95  96
ATOM     96  S   UNL A   1      44.205  38.724  34.831  1.00  0.00     0.124 S 
ATOM     97  O   UNL A   1      45.548  38.935  34.302  1.00  0.00    -0.237 OA
ATOM     98  O   UNL A   1      43.171  39.612  34.306  1.00  0.00    -0.237 OA
ATOM     99  O   UNL A   1      44.127  38.461  36.264  1.00  0.00    -0.744 OA
ENDBRANCH  95  96
ENDBRANCH  63  88
ENDBRANCH  37  38
ENDBRANCH  29  32
ENDBRANCH  27  28
ENDBRANCH  26  27
ENDBRANCH   1  26
TORSDOF 20
ENDMDL
