MODEL 1
REMARK VINA RESULT:     -11.3      0.000      0.000
REMARK SMILES Cc1ccc(C)c(NC(=O)/C=C/C(=O)NCCCCNC(=O)c2ccc(-c3c4nc(c(-c5c(F)cc(S(=O)(=O)[O-])cc5F)c5ccc([nH]5)c(-c5c(F)cc(S(=O)(=O)[O-])cc5F)c5nc(c(-c6c(F)cc(S(=O)(=O)[O-])cc6F)c6ccc3[nH]6)C=C5)C=C4)cc2)c1
REMARK SMILES IDX 18 1 17 2 16 3 15 4 13 5 14 6 12 8 11 9 9 10 8 11 10 13 7 14
REMARK SMILES IDX 1 15 2 16 3 17 89 18 4 19 5 20 6 21 19 22 20 23 21 24 22 26
REMARK SMILES IDX 23 27 24 28 88 29 25 30 87 31 26 32 27 33 28 34 81 35 29 36
REMARK SMILES IDX 86 37 80 38 82 39 30 40 85 41 79 42 78 43 31 45 65 46 44 47
REMARK SMILES IDX 64 48 45 49 48 50 63 51 83 52 46 53 47 54 62 56 84 57 49 58
REMARK SMILES IDX 32 59 33 60 42 61 34 62 35 63 41 64 43 65 36 66 37 67 38 68
REMARK SMILES IDX 39 69 40 70 66 71 67 72 76 73 68 74 69 75 75 76 77 77 70 78
REMARK SMILES IDX 71 79 72 80 73 81 74 82 50 83 51 84 60 85 52 86 53 87 59 88
REMARK SMILES IDX 61 89 54 90 55 91 56 92 57 93 58 94
REMARK H PARENT 15 7 8 12 20 25 82 44 48 55
REMARK Flexibility Score: inf
ROOT
ATOM      1  C   UNL A   1      34.295  35.246  28.335  1.00  0.00     0.023 C 
ENDROOT
BRANCH   1   2
ATOM      2  C   UNL A   1      33.723  36.602  28.773  1.00  0.00     0.023 C 
BRANCH   2   3
ATOM      3  C   UNL A   1      32.900  36.635  30.058  1.00  0.00     0.116 C 
BRANCH   3   4
ATOM      4  N   UNL A   1      33.615  37.330  31.105  1.00  0.00    -0.353 N 
ATOM      5  C   UNL A   1      33.815  36.910  32.375  1.00  0.00     0.244 C 
ATOM      6  O   UNL A   1      34.048  37.734  33.254  1.00  0.00    -0.270 OA
ATOM      7  H   UNL A   1      33.997  38.205  30.866  1.00  0.00     0.163 HD
BRANCH   5   8
ATOM      8  C   UNL A   1      33.773  35.461  32.637  1.00  0.00     0.077 C 
ATOM      9  C   UNL A   1      34.915  34.783  32.816  1.00  0.00     0.077 C 
BRANCH   9  10
ATOM     10  C   UNL A   1      34.836  33.321  32.822  1.00  0.00     0.248 C 
ATOM     11  N   UNL A   1      35.883  32.548  33.223  1.00  0.00    -0.322 N 
ATOM     12  H   UNL A   1      35.618  31.602  33.285  1.00  0.00     0.170 HD
ATOM     13  O   UNL A   1      33.773  32.778  32.513  1.00  0.00    -0.270 OA
BRANCH  11  14
ATOM     14  C   UNL A   1      37.246  32.718  33.579  1.00  0.00     0.044 A 
ATOM     15  C   UNL A   1      39.382  31.005  36.283  1.00  0.00     0.044 C 
ATOM     16  C   UNL A   1      38.944  31.948  35.206  1.00  0.00    -0.049 A 
ATOM     17  C   UNL A   1      39.873  32.819  34.653  1.00  0.00     0.004 A 
ATOM     18  C   UNL A   1      37.641  31.924  34.683  1.00  0.00     0.029 A 
ATOM     19  C   UNL A   1      39.522  33.583  33.553  1.00  0.00     0.006 A 
ATOM     20  C   UNL A   1      38.240  33.498  32.965  1.00  0.00    -0.027 A 
ATOM     21  C   UNL A   1      38.138  34.208  31.656  1.00  0.00     0.046 C 
ENDBRANCH  11  14
ENDBRANCH   9  10
ENDBRANCH   5   8
ENDBRANCH   3   4
ENDBRANCH   2   3
ENDBRANCH   1   2
BRANCH   1  22
ATOM     22  C   UNL A   1      34.027  33.993  29.177  1.00  0.00     0.116 C 
BRANCH  22  23
ATOM     23  N   UNL A   1      33.700  32.790  28.435  1.00  0.00    -0.352 N 
ATOM     24  C   UNL A   1      34.395  31.687  27.998  1.00  0.00     0.251 C 
ATOM     25  H   UNL A   1      32.749  32.756  28.183  1.00  0.00     0.163 HD
ATOM     26  O   UNL A   1      33.805  30.958  27.196  1.00  0.00    -0.269 OA
BRANCH  24  27
ATOM     27  C   UNL A   1      35.743  31.275  28.484  1.00  0.00     0.039 A 
ATOM     28  C   UNL A   1      36.699  32.280  28.739  1.00  0.00     0.014 A 
ATOM     29  C   UNL A   1      36.151  29.950  28.567  1.00  0.00     0.014 A 
ATOM     30  C   UNL A   1      38.038  31.957  28.998  1.00  0.00     0.010 A 
ATOM     31  C   UNL A   1      37.475  29.627  28.772  1.00  0.00     0.010 A 
ATOM     32  C   UNL A   1      38.423  30.620  28.975  1.00  0.00    -0.014 A 
BRANCH  32  33
ATOM     33  C   UNL A   1      39.790  30.169  29.210  1.00  0.00     0.031 A 
ATOM     34  C   UNL A   1      40.152  29.964  30.643  1.00  0.00     0.074 A 
ATOM     35  C   UNL A   1      40.485  29.504  28.267  1.00  0.00     0.049 A 
ATOM     36  N   UNL A   1      40.867  30.713  31.420  1.00  0.00    -0.248 NA
ATOM     37  C   UNL A   1      39.461  28.873  31.354  1.00  0.00     0.031 C 
ATOM     38  C   UNL A   1      40.033  29.106  26.933  1.00  0.00     0.029 A 
ATOM     39  N   UNL A   1      41.700  28.905  28.376  1.00  0.00    -0.354 N 
ATOM     40  C   UNL A   1      40.868  30.055  32.652  1.00  0.00     0.074 A 
ATOM     41  C   UNL A   1      39.725  29.192  32.619  1.00  0.00     0.031 C 
ATOM     42  C   UNL A   1      40.884  28.176  26.439  1.00  0.00     0.029 A 
ATOM     43  C   UNL A   1      41.987  27.992  27.371  1.00  0.00     0.049 A 
ATOM     44  H   UNL A   1      42.326  29.103  29.110  1.00  0.00     0.167 HD
ATOM     45  C   UNL A   1      41.965  29.999  33.466  1.00  0.00     0.037 A 
ATOM     46  C   UNL A   1      43.018  27.109  27.366  1.00  0.00     0.037 A 
ATOM     47  C   UNL A   1      43.001  30.879  32.973  1.00  0.00     0.049 A 
ATOM     48  C   UNL A   1      43.973  27.533  28.431  1.00  0.00     0.074 A 
ATOM     49  C   UNL A   1      43.077  32.222  32.650  1.00  0.00     0.029 A 
ATOM     50  N   UNL A   1      44.093  30.295  32.373  1.00  0.00    -0.354 N 
ATOM     51  N   UNL A   1      44.692  28.622  28.397  1.00  0.00    -0.248 NA
ATOM     52  C   UNL A   1      43.836  26.929  29.750  1.00  0.00     0.031 C 
ATOM     53  C   UNL A   1      43.921  32.284  31.502  1.00  0.00     0.029 A 
ATOM     54  C   UNL A   1      44.360  30.989  31.222  1.00  0.00     0.049 A 
ATOM     55  H   UNL A   1      44.594  29.517  32.710  1.00  0.00     0.167 HD
ATOM     56  C   UNL A   1      44.753  29.058  29.713  1.00  0.00     0.074 A 
ATOM     57  C   UNL A   1      44.309  27.920  30.510  1.00  0.00     0.031 C 
ATOM     58  C   UNL A   1      44.877  30.386  30.013  1.00  0.00     0.037 A 
BRANCH  45  59
ATOM     59  C   UNL A   1      42.281  28.888  34.472  1.00  0.00     0.058 A 
ATOM     60  C   UNL A   1      42.578  29.254  35.807  1.00  0.00     0.135 A 
ATOM     61  C   UNL A   1      42.542  27.531  34.169  1.00  0.00     0.135 A 
ATOM     62  F   UNL A   1      42.335  30.499  36.245  1.00  0.00    -0.206 F 
ATOM     63  C   UNL A   1      43.200  28.390  36.712  1.00  0.00     0.059 A 
ATOM     64  C   UNL A   1      43.107  26.637  35.075  1.00  0.00     0.059 A 
ATOM     65  F   UNL A   1      42.351  26.992  32.964  1.00  0.00    -0.206 F 
ATOM     66  C   UNL A   1      43.488  27.088  36.323  1.00  0.00     0.060 A 
BRANCH  66  67
ATOM     67  S   UNL A   1      44.419  26.008  37.419  1.00  0.00     0.124 S 
ATOM     68  O   UNL A   1      43.922  26.428  38.723  1.00  0.00    -0.237 OA
ATOM     69  O   UNL A   1      44.001  24.685  36.967  1.00  0.00    -0.237 OA
ATOM     70  O   UNL A   1      45.808  26.354  37.128  1.00  0.00    -0.744 OA
ENDBRANCH  66  67
ENDBRANCH  45  59
BRANCH  46  71
ATOM     71  C   UNL A   1      43.139  25.786  26.696  1.00  0.00     0.058 A 
ATOM     72  C   UNL A   1      44.000  25.616  25.596  1.00  0.00     0.135 A 
ATOM     73  C   UNL A   1      42.626  24.603  27.266  1.00  0.00     0.135 A 
ATOM     74  F   UNL A   1      44.546  26.684  24.995  1.00  0.00    -0.206 F 
ATOM     75  C   UNL A   1      44.381  24.355  25.129  1.00  0.00     0.059 A 
ATOM     76  C   UNL A   1      42.976  23.333  26.806  1.00  0.00     0.059 A 
ATOM     77  F   UNL A   1      41.840  24.639  28.352  1.00  0.00    -0.206 F 
ATOM     78  C   UNL A   1      43.880  23.216  25.757  1.00  0.00     0.060 A 
BRANCH  78  79
ATOM     79  S   UNL A   1      44.522  21.592  25.285  1.00  0.00     0.124 S 
ATOM     80  O   UNL A   1      45.891  21.650  25.784  1.00  0.00    -0.237 OA
ATOM     81  O   UNL A   1      43.623  20.687  25.993  1.00  0.00    -0.237 OA
ATOM     82  O   UNL A   1      44.387  21.584  23.830  1.00  0.00    -0.744 OA
ENDBRANCH  78  79
ENDBRANCH  46  71
BRANCH  58  83
ATOM     83  C   UNL A   1      45.344  31.323  28.933  1.00  0.00     0.058 A 
ATOM     84  C   UNL A   1      44.521  31.861  27.929  1.00  0.00     0.135 A 
ATOM     85  C   UNL A   1      46.661  31.806  29.007  1.00  0.00     0.135 A 
ATOM     86  F   UNL A   1      43.221  31.540  27.856  1.00  0.00    -0.206 F 
ATOM     87  C   UNL A   1      44.999  32.798  27.012  1.00  0.00     0.059 A 
ATOM     88  C   UNL A   1      47.148  32.767  28.127  1.00  0.00     0.059 A 
ATOM     89  F   UNL A   1      47.481  31.377  29.981  1.00  0.00    -0.206 F 
ATOM     90  C   UNL A   1      46.314  33.248  27.120  1.00  0.00     0.060 A 
BRANCH  90  91
ATOM     91  S   UNL A   1      46.902  34.527  25.989  1.00  0.00     0.124 S 
ATOM     92  O   UNL A   1      46.874  35.717  26.832  1.00  0.00    -0.237 OA
ATOM     93  O   UNL A   1      48.230  34.041  25.622  1.00  0.00    -0.237 OA
ATOM     94  O   UNL A   1      45.921  34.503  24.907  1.00  0.00    -0.744 OA
ENDBRANCH  90  91
ENDBRANCH  58  83
ENDBRANCH  32  33
ENDBRANCH  24  27
ENDBRANCH  22  23
ENDBRANCH   1  22
TORSDOF 16
ENDMDL
MODEL 2
REMARK VINA RESULT:     -11.2      4.953     11.577
REMARK SMILES Cc1ccc(C)c(NC(=O)/C=C/C(=O)NCCCCNC(=O)c2ccc(-c3c4nc(c(-c5c(F)cc(S(=O)(=O)[O-])cc5F)c5ccc([nH]5)c(-c5c(F)cc(S(=O)(=O)[O-])cc5F)c5nc(c(-c6c(F)cc(S(=O)(=O)[O-])cc6F)c6ccc3[nH]6)C=C5)C=C4)cc2)c1
REMARK SMILES IDX 18 1 17 2 16 3 15 4 13 5 14 6 12 8 11 9 9 10 8 11 10 13 7 14
REMARK SMILES IDX 1 15 2 16 3 17 89 18 4 19 5 20 6 21 19 22 20 23 21 24 22 26
REMARK SMILES IDX 23 27 24 28 88 29 25 30 87 31 26 32 27 33 28 34 81 35 29 36
REMARK SMILES IDX 86 37 80 38 82 39 30 40 85 41 79 42 78 43 31 45 65 46 44 47
REMARK SMILES IDX 64 48 45 49 48 50 63 51 83 52 46 53 47 54 62 56 84 57 49 58
REMARK SMILES IDX 32 59 33 60 42 61 34 62 35 63 41 64 43 65 36 66 37 67 38 68
REMARK SMILES IDX 39 69 40 70 66 71 67 72 76 73 68 74 69 75 75 76 77 77 70 78
REMARK SMILES IDX 71 79 72 80 73 81 74 82 50 83 51 84 60 85 52 86 53 87 59 88
REMARK SMILES IDX 61 89 54 90 55 91 56 92 57 93 58 94
REMARK H PARENT 15 7 8 12 20 25 82 44 48 55
REMARK Flexibility Score: inf
ROOT
ATOM      1  C   UNL A   1      40.131  21.528  26.130  1.00  0.00     0.023 C 
ENDROOT
BRANCH   1   2
ATOM      2  C   UNL A   1      39.997  22.804  26.975  1.00  0.00     0.023 C 
BRANCH   2   3
ATOM      3  C   UNL A   1      38.719  23.622  26.813  1.00  0.00     0.116 C 
BRANCH   3   4
ATOM      4  N   UNL A   1      38.243  23.562  25.450  1.00  0.00    -0.353 N 
ATOM      5  C   UNL A   1      37.142  22.921  24.997  1.00  0.00     0.244 C 
ATOM      6  O   UNL A   1      37.078  22.589  23.817  1.00  0.00    -0.270 OA
ATOM      7  H   UNL A   1      38.781  24.039  24.777  1.00  0.00     0.163 HD
BRANCH   5   8
ATOM      8  C   UNL A   1      36.045  22.677  25.949  1.00  0.00     0.077 C 
ATOM      9  C   UNL A   1      35.448  21.478  25.986  1.00  0.00     0.077 C 
BRANCH   9  10
ATOM     10  C   UNL A   1      34.212  21.364  26.762  1.00  0.00     0.248 C 
ATOM     11  N   UNL A   1      33.254  20.448  26.453  1.00  0.00    -0.322 N 
ATOM     12  H   UNL A   1      32.555  20.423  27.146  1.00  0.00     0.170 HD
ATOM     13  O   UNL A   1      34.063  22.075  27.759  1.00  0.00    -0.270 OA
BRANCH  11  14
ATOM     14  C   UNL A   1      32.975  19.519  25.417  1.00  0.00     0.044 A 
ATOM     15  C   UNL A   1      32.499  15.701  25.508  1.00  0.00     0.044 C 
ATOM     16  C   UNL A   1      32.679  17.098  25.000  1.00  0.00    -0.049 A 
ATOM     17  C   UNL A   1      32.518  17.348  23.644  1.00  0.00     0.004 A 
ATOM     18  C   UNL A   1      32.929  18.176  25.864  1.00  0.00     0.029 A 
ATOM     19  C   UNL A   1      32.527  18.655  23.185  1.00  0.00     0.006 A 
ATOM     20  C   UNL A   1      32.687  19.751  24.061  1.00  0.00    -0.027 A 
ATOM     21  C   UNL A   1      32.425  21.072  23.416  1.00  0.00     0.046 C 
ENDBRANCH  11  14
ENDBRANCH   9  10
ENDBRANCH   5   8
ENDBRANCH   3   4
ENDBRANCH   2   3
ENDBRANCH   1   2
BRANCH   1  22
ATOM     22  C   UNL A   1      41.280  20.549  26.396  1.00  0.00     0.116 C 
BRANCH  22  23
ATOM     23  N   UNL A   1      42.465  20.728  25.580  1.00  0.00    -0.352 N 
ATOM     24  C   UNL A   1      43.306  21.776  25.288  1.00  0.00     0.251 C 
ATOM     25  H   UNL A   1      42.733  19.897  25.125  1.00  0.00     0.163 HD
ATOM     26  O   UNL A   1      44.103  21.590  24.364  1.00  0.00    -0.269 OA
BRANCH  24  27
ATOM     27  C   UNL A   1      43.380  23.055  26.050  1.00  0.00     0.039 A 
ATOM     28  C   UNL A   1      43.837  23.013  27.385  1.00  0.00     0.014 A 
ATOM     29  C   UNL A   1      42.896  24.263  25.564  1.00  0.00     0.014 A 
ATOM     30  C   UNL A   1      43.737  24.135  28.219  1.00  0.00     0.010 A 
ATOM     31  C   UNL A   1      42.750  25.354  26.392  1.00  0.00     0.010 A 
ATOM     32  C   UNL A   1      43.155  25.295  27.719  1.00  0.00    -0.014 A 
BRANCH  32  33
ATOM     33  C   UNL A   1      42.983  26.515  28.500  1.00  0.00     0.031 A 
ATOM     34  C   UNL A   1      43.972  27.595  28.216  1.00  0.00     0.074 A 
ATOM     35  C   UNL A   1      41.789  26.854  29.024  1.00  0.00     0.049 A 
ATOM     36  N   UNL A   1      44.997  27.968  28.912  1.00  0.00    -0.248 NA
ATOM     37  C   UNL A   1      43.917  28.212  26.877  1.00  0.00     0.031 C 
ATOM     38  C   UNL A   1      40.518  26.138  28.897  1.00  0.00     0.029 A 
ATOM     39  N   UNL A   1      41.437  28.007  29.651  1.00  0.00    -0.354 N 
ATOM     40  C   UNL A   1      45.574  29.004  28.175  1.00  0.00     0.074 A 
ATOM     41  C   UNL A   1      45.096  28.826  26.837  1.00  0.00     0.031 C 
ATOM     42  C   UNL A   1      39.510  26.965  29.264  1.00  0.00     0.029 A 
ATOM     43  C   UNL A   1      40.068  28.220  29.743  1.00  0.00     0.049 A 
ATOM     44  H   UNL A   1      42.099  28.641  30.009  1.00  0.00     0.167 HD
ATOM     45  C   UNL A   1      46.118  30.118  28.754  1.00  0.00     0.037 A 
ATOM     46  C   UNL A   1      39.464  29.378  30.116  1.00  0.00     0.037 A 
ATOM     47  C   UNL A   1      46.196  29.950  30.188  1.00  0.00     0.049 A 
ATOM     48  C   UNL A   1      40.506  30.241  30.744  1.00  0.00     0.074 A 
ATOM     49  C   UNL A   1      46.751  29.009  31.038  1.00  0.00     0.029 A 
ATOM     50  N   UNL A   1      45.298  30.655  30.956  1.00  0.00    -0.354 N 
ATOM     51  N   UNL A   1      41.095  29.992  31.882  1.00  0.00    -0.248 NA
ATOM     52  C   UNL A   1      41.194  31.207  29.895  1.00  0.00     0.031 C 
ATOM     53  C   UNL A   1      45.826  28.889  32.117  1.00  0.00     0.029 A 
ATOM     54  C   UNL A   1      44.791  29.800  31.898  1.00  0.00     0.049 A 
ATOM     55  H   UNL A   1      45.063  31.605  30.848  1.00  0.00     0.167 HD
ATOM     56  C   UNL A   1      42.399  30.440  31.721  1.00  0.00     0.074 A 
ATOM     57  C   UNL A   1      42.368  31.277  30.528  1.00  0.00     0.031 C 
ATOM     58  C   UNL A   1      43.434  29.857  32.398  1.00  0.00     0.037 A 
BRANCH  45  59
ATOM     59  C   UNL A   1      46.222  31.504  28.111  1.00  0.00     0.058 A 
ATOM     60  C   UNL A   1      47.478  32.156  28.117  1.00  0.00     0.135 A 
ATOM     61  C   UNL A   1      45.143  32.325  27.707  1.00  0.00     0.135 A 
ATOM     62  F   UNL A   1      48.596  31.484  28.435  1.00  0.00    -0.206 F 
ATOM     63  C   UNL A   1      47.626  33.524  27.877  1.00  0.00     0.059 A 
ATOM     64  C   UNL A   1      45.278  33.677  27.407  1.00  0.00     0.059 A 
ATOM     65  F   UNL A   1      43.876  31.909  27.654  1.00  0.00    -0.206 F 
ATOM     66  C   UNL A   1      46.510  34.283  27.552  1.00  0.00     0.060 A 
BRANCH  66  67
ATOM     67  S   UNL A   1      46.654  36.069  27.385  1.00  0.00     0.124 S 
ATOM     68  O   UNL A   1      46.484  36.498  28.768  1.00  0.00    -0.237 OA
ATOM     69  O   UNL A   1      47.994  36.214  26.827  1.00  0.00    -0.237 OA
ATOM     70  O   UNL A   1      45.562  36.408  26.477  1.00  0.00    -0.744 OA
ENDBRANCH  66  67
ENDBRANCH  45  59
BRANCH  46  71
ATOM     71  C   UNL A   1      38.124  29.914  29.757  1.00  0.00     0.058 A 
ATOM     72  C   UNL A   1      37.336  30.574  30.719  1.00  0.00     0.135 A 
ATOM     73  C   UNL A   1      37.691  30.030  28.420  1.00  0.00     0.135 A 
ATOM     74  F   UNL A   1      37.676  30.529  32.016  1.00  0.00    -0.206 F 
ATOM     75  C   UNL A   1      36.227  31.352  30.374  1.00  0.00     0.059 A 
ATOM     76  C   UNL A   1      36.576  30.785  28.054  1.00  0.00     0.059 A 
ATOM     77  F   UNL A   1      38.393  29.489  27.414  1.00  0.00    -0.206 F 
ATOM     78  C   UNL A   1      35.868  31.470  29.033  1.00  0.00     0.060 A 
BRANCH  78  79
ATOM     79  S   UNL A   1      34.560  32.629  28.568  1.00  0.00     0.124 S 
ATOM     80  O   UNL A   1      35.274  33.561  27.702  1.00  0.00    -0.237 OA
ATOM     81  O   UNL A   1      33.595  31.757  27.907  1.00  0.00    -0.237 OA
ATOM     82  O   UNL A   1      34.121  33.179  29.849  1.00  0.00    -0.744 OA
ENDBRANCH  78  79
ENDBRANCH  46  71
BRANCH  58  83
ATOM     83  C   UNL A   1      43.117  29.011  33.601  1.00  0.00     0.058 A 
ATOM     84  C   UNL A   1      42.897  29.511  34.896  1.00  0.00     0.135 A 
ATOM     85  C   UNL A   1      42.890  27.640  33.399  1.00  0.00     0.135 A 
ATOM     86  F   UNL A   1      42.983  30.825  35.151  1.00  0.00    -0.206 F 
ATOM     87  C   UNL A   1      42.517  28.679  35.950  1.00  0.00     0.059 A 
ATOM     88  C   UNL A   1      42.474  26.799  34.425  1.00  0.00     0.059 A 
ATOM     89  F   UNL A   1      43.023  27.109  32.170  1.00  0.00    -0.206 F 
ATOM     90  C   UNL A   1      42.304  27.324  35.704  1.00  0.00     0.060 A 
BRANCH  90  91
ATOM     91  S   UNL A   1      41.724  26.267  37.049  1.00  0.00     0.124 S 
ATOM     92  O   UNL A   1      40.484  26.926  37.443  1.00  0.00    -0.237 OA
ATOM     93  O   UNL A   1      41.573  24.971  36.392  1.00  0.00    -0.237 OA
ATOM     94  O   UNL A   1      42.807  26.335  38.027  1.00  0.00    -0.744 OA
ENDBRANCH  90  91
ENDBRANCH  58  83
ENDBRANCH  32  33
ENDBRANCH  24  27
ENDBRANCH  22  23
ENDBRANCH   1  22
TORSDOF 16
ENDMDL
MODEL 3
REMARK VINA RESULT:     -11.0      4.158     10.531
REMARK SMILES Cc1ccc(C)c(NC(=O)/C=C/C(=O)NCCCCNC(=O)c2ccc(-c3c4nc(c(-c5c(F)cc(S(=O)(=O)[O-])cc5F)c5ccc([nH]5)c(-c5c(F)cc(S(=O)(=O)[O-])cc5F)c5nc(c(-c6c(F)cc(S(=O)(=O)[O-])cc6F)c6ccc3[nH]6)C=C5)C=C4)cc2)c1
REMARK SMILES IDX 18 1 17 2 16 3 15 4 13 5 14 6 12 8 11 9 9 10 8 11 10 13 7 14
REMARK SMILES IDX 1 15 2 16 3 17 89 18 4 19 5 20 6 21 19 22 20 23 21 24 22 26
REMARK SMILES IDX 23 27 24 28 88 29 25 30 87 31 26 32 27 33 28 34 81 35 29 36
REMARK SMILES IDX 86 37 80 38 82 39 30 40 85 41 79 42 78 43 31 45 65 46 44 47
REMARK SMILES IDX 64 48 45 49 48 50 63 51 83 52 46 53 47 54 62 56 84 57 49 58
REMARK SMILES IDX 32 59 33 60 42 61 34 62 35 63 41 64 43 65 36 66 37 67 38 68
REMARK SMILES IDX 39 69 40 70 66 71 67 72 76 73 68 74 69 75 75 76 77 77 70 78
REMARK SMILES IDX 71 79 72 80 73 81 74 82 50 83 51 84 60 85 52 86 53 87 59 88
REMARK SMILES IDX 61 89 54 90 55 91 56 92 57 93 58 94
REMARK H PARENT 15 7 8 12 20 25 82 44 48 55
REMARK Flexibility Score: inf
ROOT
ATOM      1  C   UNL A   1      34.857  22.905  26.848  1.00  0.00     0.023 C 
ENDROOT
BRANCH   1   2
ATOM      2  C   UNL A   1      34.155  21.579  26.518  1.00  0.00     0.023 C 
BRANCH   2   3
ATOM      3  C   UNL A   1      32.920  21.643  25.624  1.00  0.00     0.116 C 
BRANCH   3   4
ATOM      4  N   UNL A   1      31.726  21.832  26.416  1.00  0.00    -0.353 N 
ATOM      5  C   UNL A   1      31.001  22.967  26.542  1.00  0.00     0.244 C 
ATOM      6  O   UNL A   1      30.293  23.125  27.532  1.00  0.00    -0.270 OA
ATOM      7  H   UNL A   1      31.406  21.048  26.918  1.00  0.00     0.163 HD
BRANCH   5   8
ATOM      8  C   UNL A   1      31.075  23.957  25.454  1.00  0.00     0.077 C 
ATOM      9  C   UNL A   1      30.567  25.184  25.635  1.00  0.00     0.077 C 
BRANCH   9  10
ATOM     10  C   UNL A   1      30.439  26.041  24.454  1.00  0.00     0.248 C 
ATOM     11  N   UNL A   1      31.164  27.184  24.316  1.00  0.00    -0.322 N 
ATOM     12  H   UNL A   1      31.050  27.566  23.416  1.00  0.00     0.170 HD
ATOM     13  O   UNL A   1      29.700  25.683  23.533  1.00  0.00    -0.270 OA
BRANCH  11  14
ATOM     14  C   UNL A   1      32.038  27.982  25.099  1.00  0.00     0.044 A 
ATOM     15  C   UNL A   1      31.575  31.485  26.625  1.00  0.00     0.044 C 
ATOM     16  C   UNL A   1      32.206  30.202  26.178  1.00  0.00    -0.049 A 
ATOM     17  C   UNL A   1      33.499  29.909  26.589  1.00  0.00     0.004 A 
ATOM     18  C   UNL A   1      31.502  29.252  25.421  1.00  0.00     0.029 A 
ATOM     19  C   UNL A   1      34.036  28.662  26.315  1.00  0.00     0.006 A 
ATOM     20  C   UNL A   1      33.299  27.668  25.632  1.00  0.00    -0.027 A 
ATOM     21  C   UNL A   1      33.953  26.326  25.651  1.00  0.00     0.046 C 
ENDBRANCH  11  14
ENDBRANCH   9  10
ENDBRANCH   5   8
ENDBRANCH   3   4
ENDBRANCH   2   3
ENDBRANCH   1   2
BRANCH   1  22
ATOM     22  C   UNL A   1      36.108  23.326  26.068  1.00  0.00     0.116 C 
BRANCH  22  23
ATOM     23  N   UNL A   1      37.209  22.383  26.081  1.00  0.00    -0.352 N 
ATOM     24  C   UNL A   1      38.571  22.466  26.251  1.00  0.00     0.251 C 
ATOM     25  H   UNL A   1      36.907  21.457  25.932  1.00  0.00     0.163 HD
ATOM     26  O   UNL A   1      39.214  21.448  25.978  1.00  0.00    -0.269 OA
BRANCH  24  27
ATOM     27  C   UNL A   1      39.295  23.642  26.812  1.00  0.00     0.039 A 
ATOM     28  C   UNL A   1      40.537  23.424  27.444  1.00  0.00     0.014 A 
ATOM     29  C   UNL A   1      38.750  24.919  26.867  1.00  0.00     0.014 A 
ATOM     30  C   UNL A   1      41.169  24.444  28.169  1.00  0.00     0.010 A 
ATOM     31  C   UNL A   1      39.341  25.911  27.618  1.00  0.00     0.010 A 
ATOM     32  C   UNL A   1      40.539  25.679  28.280  1.00  0.00    -0.014 A 
BRANCH  32  33
ATOM     33  C   UNL A   1      41.093  26.805  29.023  1.00  0.00     0.031 A 
ATOM     34  C   UNL A   1      42.234  27.503  28.361  1.00  0.00     0.074 A 
ATOM     35  C   UNL A   1      40.360  27.482  29.929  1.00  0.00     0.049 A 
ATOM     36  N   UNL A   1      43.498  27.435  28.627  1.00  0.00    -0.248 NA
ATOM     37  C   UNL A   1      41.936  28.223  27.109  1.00  0.00     0.031 C 
ATOM     38  C   UNL A   1      38.960  27.260  30.295  1.00  0.00     0.029 A 
ATOM     39  N   UNL A   1      40.680  28.622  30.595  1.00  0.00    -0.354 N 
ATOM     40  C   UNL A   1      44.108  28.275  27.692  1.00  0.00     0.074 A 
ATOM     41  C   UNL A   1      43.162  28.398  26.623  1.00  0.00     0.031 C 
ATOM     42  C   UNL A   1      38.504  28.344  30.967  1.00  0.00     0.029 A 
ATOM     43  C   UNL A   1      39.600  29.282  31.165  1.00  0.00     0.049 A 
ATOM     44  H   UNL A   1      41.604  28.954  30.667  1.00  0.00     0.167 HD
ATOM     45  C   UNL A   1      45.175  29.076  27.993  1.00  0.00     0.037 A 
ATOM     46  C   UNL A   1      39.615  30.536  31.685  1.00  0.00     0.037 A 
ATOM     47  C   UNL A   1      45.685  28.757  29.309  1.00  0.00     0.049 A 
ATOM     48  C   UNL A   1      41.043  30.927  31.863  1.00  0.00     0.074 A 
ATOM     49  C   UNL A   1      46.131  27.609  29.938  1.00  0.00     0.029 A 
ATOM     50  N   UNL A   1      45.423  29.653  30.321  1.00  0.00    -0.354 N 
ATOM     51  N   UNL A   1      41.865  30.386  32.721  1.00  0.00    -0.248 NA
ATOM     52  C   UNL A   1      41.685  31.673  30.787  1.00  0.00     0.031 C 
ATOM     53  C   UNL A   1      45.662  27.712  31.281  1.00  0.00     0.029 A 
ATOM     54  C   UNL A   1      45.010  28.938  31.414  1.00  0.00     0.049 A 
ATOM     55  H   UNL A   1      45.516  30.632  30.268  1.00  0.00     0.167 HD
ATOM     56  C   UNL A   1      43.098  30.373  32.086  1.00  0.00     0.074 A 
ATOM     57  C   UNL A   1      42.949  31.277  30.952  1.00  0.00     0.031 C 
ATOM     58  C   UNL A   1      44.027  29.410  32.367  1.00  0.00     0.037 A 
BRANCH  45  59
ATOM     59  C   UNL A   1      45.530  30.396  27.303  1.00  0.00     0.058 A 
ATOM     60  C   UNL A   1      46.871  30.606  26.903  1.00  0.00     0.135 A 
ATOM     61  C   UNL A   1      44.711  31.547  27.222  1.00  0.00     0.135 A 
ATOM     62  F   UNL A   1      47.747  29.589  26.884  1.00  0.00    -0.206 F 
ATOM     63  C   UNL A   1      47.380  31.867  26.583  1.00  0.00     0.059 A 
ATOM     64  C   UNL A   1      45.186  32.802  26.850  1.00  0.00     0.059 A 
ATOM     65  F   UNL A   1      43.425  31.566  27.574  1.00  0.00    -0.206 F 
ATOM     66  C   UNL A   1      46.532  32.966  26.590  1.00  0.00     0.060 A 
BRANCH  66  67
ATOM     67  S   UNL A   1      47.196  34.617  26.327  1.00  0.00     0.124 S 
ATOM     68  O   UNL A   1      48.055  34.767  27.496  1.00  0.00    -0.237 OA
ATOM     69  O   UNL A   1      47.877  34.469  25.045  1.00  0.00    -0.237 OA
ATOM     70  O   UNL A   1      46.003  35.458  26.305  1.00  0.00    -0.744 OA
ENDBRANCH  66  67
ENDBRANCH  45  59
BRANCH  46  71
ATOM     71  C   UNL A   1      38.515  31.530  31.813  1.00  0.00     0.058 A 
ATOM     72  C   UNL A   1      38.055  32.237  30.686  1.00  0.00     0.135 A 
ATOM     73  C   UNL A   1      37.715  31.624  32.969  1.00  0.00     0.135 A 
ATOM     74  F   UNL A   1      38.745  32.197  29.536  1.00  0.00    -0.206 F 
ATOM     75  C   UNL A   1      36.848  32.941  30.684  1.00  0.00     0.059 A 
ATOM     76  C   UNL A   1      36.515  32.336  32.998  1.00  0.00     0.059 A 
ATOM     77  F   UNL A   1      38.025  30.949  34.085  1.00  0.00    -0.206 F 
ATOM     78  C   UNL A   1      36.072  32.966  31.841  1.00  0.00     0.060 A 
BRANCH  78  79
ATOM     79  S   UNL A   1      34.423  33.706  31.783  1.00  0.00     0.124 S 
ATOM     80  O   UNL A   1      34.054  33.517  30.385  1.00  0.00    -0.237 OA
ATOM     81  O   UNL A   1      33.688  32.899  32.751  1.00  0.00    -0.237 OA
ATOM     82  O   UNL A   1      34.657  35.091  32.185  1.00  0.00    -0.744 OA
ENDBRANCH  78  79
ENDBRANCH  46  71
BRANCH  58  83
ATOM     83  C   UNL A   1      43.874  28.614  33.634  1.00  0.00     0.058 A 
ATOM     84  C   UNL A   1      44.318  29.034  34.900  1.00  0.00     0.135 A 
ATOM     85  C   UNL A   1      43.116  27.433  33.582  1.00  0.00     0.135 A 
ATOM     86  F   UNL A   1      44.951  30.205  35.056  1.00  0.00    -0.206 F 
ATOM     87  C   UNL A   1      44.062  28.288  36.052  1.00  0.00     0.059 A 
ATOM     88  C   UNL A   1      42.817  26.694  34.722  1.00  0.00     0.059 A 
ATOM     89  F   UNL A   1      42.609  27.010  32.411  1.00  0.00    -0.206 F 
ATOM     90  C   UNL A   1      43.307  27.121  35.954  1.00  0.00     0.060 A 
BRANCH  90  91
ATOM     91  S   UNL A   1      42.901  26.207  37.457  1.00  0.00     0.124 S 
ATOM     92  O   UNL A   1      43.793  26.816  38.437  1.00  0.00    -0.237 OA
ATOM     93  O   UNL A   1      41.479  26.494  37.629  1.00  0.00    -0.237 OA
ATOM     94  O   UNL A   1      43.208  24.822  37.108  1.00  0.00    -0.744 OA
ENDBRANCH  90  91
ENDBRANCH  58  83
ENDBRANCH  32  33
ENDBRANCH  24  27
ENDBRANCH  22  23
ENDBRANCH   1  22
TORSDOF 16
ENDMDL
