MODEL 1
REMARK VINA RESULT:     -12.5      0.000      0.000
REMARK SMILES Cc1ccnc(C(=O)c2[nH]c3ccc(OC(F)(F)F)cc3c2CC(=O)NCCCCNC(=O)c2ccc(-c3c4nc(c(-c5c(F)cc(S(=O)(=O)[O-])cc5F)c5ccc([nH]5)c(-c5c(F)cc(S(=O)(=O)[O-])cc5F)c5nc(c(-c6c(F)cc(S(=O)(=O)[O-])cc6F)c6ccc3[nH]6)C=C5)C=C4)cc2)c1
REMARK SMILES IDX 28 1 27 2 26 3 24 4 25 5 23 7 22 8 9 9 10 10 11 11 21 13
REMARK SMILES IDX 12 14 20 15 13 16 14 17 7 18 8 19 6 20 1 21 2 22 3 23 100 24
REMARK SMILES IDX 4 25 5 26 15 27 16 28 17 29 18 30 19 31 29 32 30 33 31 34
REMARK SMILES IDX 32 35 33 37 34 38 35 39 99 40 36 41 98 42 37 43 38 44 39 45
REMARK SMILES IDX 92 46 40 47 97 48 91 49 93 50 41 51 96 52 90 53 89 54 42 56
REMARK SMILES IDX 76 57 55 58 75 59 56 60 59 61 74 62 94 63 57 64 58 65 73 67
REMARK SMILES IDX 95 68 60 69 43 70 44 71 53 72 45 73 46 74 52 75 54 76 47 77
REMARK SMILES IDX 48 78 49 79 50 80 51 81 77 82 78 83 87 84 79 85 80 86 86 87
REMARK SMILES IDX 88 88 81 89 82 90 83 91 84 92 85 93 61 94 62 95 71 96 63 97
REMARK SMILES IDX 64 98 70 99 72 100 65 101 66 102 67 103 68 104 69 105
REMARK H PARENT 26 6 10 12 31 36 93 55 59 66
REMARK Flexibility Score: inf
ROOT
ATOM      1  C   UNL A   1      34.954  30.704  27.994  1.00  0.00     0.023 C 
ENDROOT
BRANCH   1   2
ATOM      2  C   UNL A   1      34.491  29.380  27.386  1.00  0.00     0.116 C 
BRANCH   2   3
ATOM      3  N   UNL A   1      33.207  28.940  27.892  1.00  0.00    -0.356 N 
ATOM      4  C   UNL A   1      32.304  28.083  27.328  1.00  0.00     0.224 C 
ATOM      5  O   UNL A   1      31.353  27.700  28.016  1.00  0.00    -0.275 OA
ATOM      6  H   UNL A   1      32.948  29.310  28.766  1.00  0.00     0.163 HD
BRANCH   4   7
ATOM      7  C   UNL A   1      32.529  27.510  25.936  1.00  0.00     0.138 C 
BRANCH   7   8
ATOM      8  C   UNL A   1      31.300  26.980  25.252  1.00  0.00    -0.002 A 
ATOM      9  C   UNL A   1      30.808  25.678  25.281  1.00  0.00     0.093 A 
ATOM     10  N   UNL A   1      29.607  25.678  24.607  1.00  0.00    -0.352 N 
ATOM     11  C   UNL A   1      29.365  26.906  24.043  1.00  0.00     0.046 A 
ATOM     12  H   UNL A   1      29.005  24.903  24.539  1.00  0.00     0.167 HD
ATOM     13  C   UNL A   1      30.417  27.739  24.410  1.00  0.00     0.008 A 
ATOM     14  C   UNL A   1      28.288  27.344  23.268  1.00  0.00     0.030 A 
ATOM     15  C   UNL A   1      30.395  29.075  23.959  1.00  0.00     0.057 A 
ATOM     16  C   UNL A   1      28.287  28.680  22.842  1.00  0.00     0.049 A 
ATOM     17  C   UNL A   1      29.328  29.544  23.177  1.00  0.00     0.130 A 
BRANCH   9  18
ATOM     18  C   UNL A   1      31.329  24.509  25.968  1.00  0.00     0.227 C 
ATOM     19  O   UNL A   1      31.366  24.461  27.192  1.00  0.00    -0.285 OA
BRANCH  18  20
ATOM     20  C   UNL A   1      31.788  23.331  25.139  1.00  0.00     0.113 A 
ATOM     21  C   UNL A   1      32.748  19.671  25.436  1.00  0.00     0.044 C 
ATOM     22  C   UNL A   1      32.471  21.035  24.879  1.00  0.00    -0.047 A 
ATOM     23  C   UNL A   1      32.665  21.291  23.521  1.00  0.00     0.023 A 
ATOM     24  C   UNL A   1      32.003  22.069  25.696  1.00  0.00     0.036 A 
ATOM     25  C   UNL A   1      32.409  22.564  23.044  1.00  0.00     0.112 A 
ATOM     26  N   UNL A   1      31.991  23.583  23.821  1.00  0.00    -0.253 NA
ENDBRANCH  18  20
ENDBRANCH   9  18
BRANCH  17  27
ATOM     27  O   UNL A   1      29.435  30.860  22.826  1.00  0.00    -0.406 OA
BRANCH  27  28
ATOM     28  C   UNL A   1      28.829  31.822  23.670  1.00  0.00     0.573 C 
ATOM     29  F   UNL A   1      28.636  32.990  23.018  1.00  0.00    -0.132 F 
ATOM     30  F   UNL A   1      27.652  31.378  24.157  1.00  0.00    -0.132 F 
ATOM     31  F   UNL A   1      29.654  32.063  24.715  1.00  0.00    -0.132 F 
ENDBRANCH  27  28
ENDBRANCH  17  27
ENDBRANCH   7   8
ENDBRANCH   4   7
ENDBRANCH   2   3
ENDBRANCH   1   2
BRANCH   1  32
ATOM     32  C   UNL A   1      34.402  31.968  27.329  1.00  0.00     0.023 C 
BRANCH  32  33
ATOM     33  C   UNL A   1      32.980  32.359  27.722  1.00  0.00     0.116 C 
BRANCH  33  34
ATOM     34  N   UNL A   1      32.796  33.795  27.863  1.00  0.00    -0.352 N 
ATOM     35  C   UNL A   1      33.492  34.686  28.641  1.00  0.00     0.251 C 
ATOM     36  H   UNL A   1      32.068  34.182  27.324  1.00  0.00     0.163 HD
ATOM     37  O   UNL A   1      33.125  35.857  28.696  1.00  0.00    -0.269 OA
BRANCH  35  38
ATOM     38  C   UNL A   1      34.649  34.237  29.448  1.00  0.00     0.039 A 
ATOM     39  C   UNL A   1      34.401  33.535  30.632  1.00  0.00     0.014 A 
ATOM     40  C   UNL A   1      35.965  34.507  29.059  1.00  0.00     0.014 A 
ATOM     41  C   UNL A   1      35.467  33.045  31.389  1.00  0.00     0.010 A 
ATOM     42  C   UNL A   1      37.029  33.985  29.794  1.00  0.00     0.010 A 
ATOM     43  C   UNL A   1      36.787  33.241  30.958  1.00  0.00    -0.014 A 
BRANCH  43  44
ATOM     44  C   UNL A   1      37.928  32.655  31.698  1.00  0.00     0.031 A 
ATOM     45  C   UNL A   1      38.656  31.462  31.153  1.00  0.00     0.074 A 
ATOM     46  C   UNL A   1      38.267  33.161  32.899  1.00  0.00     0.049 A 
ATOM     47  N   UNL A   1      39.610  30.757  31.703  1.00  0.00    -0.248 NA
ATOM     48  C   UNL A   1      38.244  30.991  29.822  1.00  0.00     0.031 C 
ATOM     49  C   UNL A   1      37.620  34.302  33.549  1.00  0.00     0.029 A 
ATOM     50  N   UNL A   1      39.235  32.774  33.789  1.00  0.00    -0.354 N 
ATOM     51  C   UNL A   1      39.891  29.738  30.804  1.00  0.00     0.074 A 
ATOM     52  C   UNL A   1      39.006  29.916  29.672  1.00  0.00     0.031 C 
ATOM     53  C   UNL A   1      38.221  34.533  34.727  1.00  0.00     0.029 A 
ATOM     54  C   UNL A   1      39.276  33.543  34.924  1.00  0.00     0.049 A 
ATOM     55  H   UNL A   1      39.842  32.016  33.629  1.00  0.00     0.167 HD
ATOM     56  C   UNL A   1      40.804  28.743  30.912  1.00  0.00     0.037 A 
ATOM     57  C   UNL A   1      40.071  33.458  36.007  1.00  0.00     0.037 A 
ATOM     58  C   UNL A   1      41.713  28.582  32.013  1.00  0.00     0.049 A 
ATOM     59  C   UNL A   1      41.103  32.373  36.087  1.00  0.00     0.074 A 
ATOM     60  C   UNL A   1      42.707  27.634  32.186  1.00  0.00     0.029 A 
ATOM     61  N   UNL A   1      41.743  29.399  33.134  1.00  0.00    -0.354 N 
ATOM     62  N   UNL A   1      41.367  31.426  35.220  1.00  0.00    -0.248 NA
ATOM     63  C   UNL A   1      41.941  32.342  37.293  1.00  0.00     0.031 C 
ATOM     64  C   UNL A   1      43.334  27.875  33.415  1.00  0.00     0.029 A 
ATOM     65  C   UNL A   1      42.734  28.978  34.003  1.00  0.00     0.049 A 
ATOM     66  H   UNL A   1      41.145  30.167  33.288  1.00  0.00     0.167 HD
ATOM     67  C   UNL A   1      42.408  30.689  35.771  1.00  0.00     0.074 A 
ATOM     68  C   UNL A   1      42.727  31.301  37.045  1.00  0.00     0.031 C 
ATOM     69  C   UNL A   1      43.040  29.603  35.264  1.00  0.00     0.037 A 
BRANCH  56  70
ATOM     70  C   UNL A   1      40.839  27.746  29.792  1.00  0.00     0.058 A 
ATOM     71  C   UNL A   1      41.849  27.776  28.819  1.00  0.00     0.135 A 
ATOM     72  C   UNL A   1      39.825  26.785  29.666  1.00  0.00     0.135 A 
ATOM     73  F   UNL A   1      42.828  28.693  28.891  1.00  0.00    -0.206 F 
ATOM     74  C   UNL A   1      41.834  26.907  27.734  1.00  0.00     0.059 A 
ATOM     75  C   UNL A   1      39.796  25.899  28.594  1.00  0.00     0.059 A 
ATOM     76  F   UNL A   1      38.833  26.725  30.567  1.00  0.00    -0.206 F 
ATOM     77  C   UNL A   1      40.793  25.984  27.620  1.00  0.00     0.060 A 
BRANCH  77  78
ATOM     78  S   UNL A   1      40.728  24.887  26.188  1.00  0.00     0.124 S 
ATOM     79  O   UNL A   1      41.270  25.748  25.142  1.00  0.00    -0.237 OA
ATOM     80  O   UNL A   1      41.580  23.771  26.590  1.00  0.00    -0.237 OA
ATOM     81  O   UNL A   1      39.307  24.575  26.077  1.00  0.00    -0.744 OA
ENDBRANCH  77  78
ENDBRANCH  56  70
BRANCH  57  82
ATOM     82  C   UNL A   1      39.931  34.459  37.090  1.00  0.00     0.058 A 
ATOM     83  C   UNL A   1      40.598  35.688  37.011  1.00  0.00     0.135 A 
ATOM     84  C   UNL A   1      39.082  34.235  38.183  1.00  0.00     0.135 A 
ATOM     85  F   UNL A   1      41.419  35.940  35.980  1.00  0.00    -0.206 F 
ATOM     86  C   UNL A   1      40.425  36.670  37.978  1.00  0.00     0.059 A 
ATOM     87  C   UNL A   1      38.886  35.205  39.160  1.00  0.00     0.059 A 
ATOM     88  F   UNL A   1      38.415  33.075  38.288  1.00  0.00    -0.206 F 
ATOM     89  C   UNL A   1      39.564  36.421  39.049  1.00  0.00     0.060 A 
BRANCH  89  90
ATOM     90  S   UNL A   1      39.264  37.730  40.257  1.00  0.00     0.124 S 
ATOM     91  O   UNL A   1      38.888  36.960  41.436  1.00  0.00    -0.237 OA
ATOM     92  O   UNL A   1      40.557  38.404  40.322  1.00  0.00    -0.237 OA
ATOM     93  O   UNL A   1      38.195  38.508  39.638  1.00  0.00    -0.744 OA
ENDBRANCH  89  90
ENDBRANCH  57  82
BRANCH  69  94
ATOM     94  C   UNL A   1      44.149  29.021  36.087  1.00  0.00     0.058 A 
ATOM     95  C   UNL A   1      45.441  29.563  36.049  1.00  0.00     0.135 A 
ATOM     96  C   UNL A   1      43.910  27.932  36.938  1.00  0.00     0.135 A 
ATOM     97  F   UNL A   1      45.715  30.601  35.243  1.00  0.00    -0.206 F 
ATOM     98  C   UNL A   1      46.471  29.036  36.822  1.00  0.00     0.059 A 
ATOM     99  C   UNL A   1      44.923  27.393  37.724  1.00  0.00     0.059 A 
ATOM    100  F   UNL A   1      42.689  27.381  37.005  1.00  0.00    -0.206 F 
ATOM    101  C   UNL A   1      46.203  27.946  37.653  1.00  0.00     0.060 A 
BRANCH 101 102
ATOM    102  S   UNL A   1      47.526  27.272  38.681  1.00  0.00     0.124 S 
ATOM    103  O   UNL A   1      47.339  28.017  39.922  1.00  0.00    -0.237 OA
ATOM    104  O   UNL A   1      47.199  25.851  38.741  1.00  0.00    -0.237 OA
ATOM    105  O   UNL A   1      48.731  27.598  37.924  1.00  0.00    -0.744 OA
ENDBRANCH 101 102
ENDBRANCH  69  94
ENDBRANCH  43  44
ENDBRANCH  35  38
ENDBRANCH  33  34
ENDBRANCH  32  33
ENDBRANCH   1  32
TORSDOF 19
ENDMDL
MODEL 2
REMARK VINA RESULT:     -12.4      2.995      8.933
REMARK SMILES Cc1ccnc(C(=O)c2[nH]c3ccc(OC(F)(F)F)cc3c2CC(=O)NCCCCNC(=O)c2ccc(-c3c4nc(c(-c5c(F)cc(S(=O)(=O)[O-])cc5F)c5ccc([nH]5)c(-c5c(F)cc(S(=O)(=O)[O-])cc5F)c5nc(c(-c6c(F)cc(S(=O)(=O)[O-])cc6F)c6ccc3[nH]6)C=C5)C=C4)cc2)c1
REMARK SMILES IDX 28 1 27 2 26 3 24 4 25 5 23 7 22 8 9 9 10 10 11 11 21 13
REMARK SMILES IDX 12 14 20 15 13 16 14 17 7 18 8 19 6 20 1 21 2 22 3 23 100 24
REMARK SMILES IDX 4 25 5 26 15 27 16 28 17 29 18 30 19 31 29 32 30 33 31 34
REMARK SMILES IDX 32 35 33 37 34 38 35 39 99 40 36 41 98 42 37 43 38 44 39 45
REMARK SMILES IDX 92 46 40 47 97 48 91 49 93 50 41 51 96 52 90 53 89 54 42 56
REMARK SMILES IDX 76 57 55 58 75 59 56 60 59 61 74 62 94 63 57 64 58 65 73 67
REMARK SMILES IDX 95 68 60 69 43 70 44 71 53 72 45 73 46 74 52 75 54 76 47 77
REMARK SMILES IDX 48 78 49 79 50 80 51 81 77 82 78 83 87 84 79 85 80 86 86 87
REMARK SMILES IDX 88 88 81 89 82 90 83 91 84 92 85 93 61 94 62 95 71 96 63 97
REMARK SMILES IDX 64 98 70 99 72 100 65 101 66 102 67 103 68 104 69 105
REMARK H PARENT 26 6 10 12 31 36 93 55 59 66
REMARK Flexibility Score: inf
ROOT
ATOM      1  C   UNL A   1      31.770  27.573  26.475  1.00  0.00     0.023 C 
ENDROOT
BRANCH   1   2
ATOM      2  C   UNL A   1      31.015  26.264  26.248  1.00  0.00     0.116 C 
BRANCH   2   3
ATOM      3  N   UNL A   1      31.471  25.188  27.103  1.00  0.00    -0.356 N 
ATOM      4  C   UNL A   1      31.572  23.852  26.832  1.00  0.00     0.224 C 
ATOM      5  O   UNL A   1      32.162  23.134  27.645  1.00  0.00    -0.275 OA
ATOM      6  H   UNL A   1      31.748  25.457  28.008  1.00  0.00     0.163 HD
BRANCH   4   7
ATOM      7  C   UNL A   1      31.089  23.282  25.507  1.00  0.00     0.138 C 
BRANCH   7   8
ATOM      8  C   UNL A   1      32.058  23.397  24.365  1.00  0.00    -0.002 A 
ATOM      9  C   UNL A   1      33.133  22.561  24.076  1.00  0.00     0.093 A 
ATOM     10  N   UNL A   1      33.673  22.982  22.881  1.00  0.00    -0.352 N 
ATOM     11  C   UNL A   1      33.060  24.132  22.449  1.00  0.00     0.046 A 
ATOM     12  H   UNL A   1      34.399  22.522  22.403  1.00  0.00     0.167 HD
ATOM     13  C   UNL A   1      32.057  24.430  23.366  1.00  0.00     0.008 A 
ATOM     14  C   UNL A   1      33.296  24.904  21.308  1.00  0.00     0.030 A 
ATOM     15  C   UNL A   1      31.265  25.575  23.136  1.00  0.00     0.057 A 
ATOM     16  C   UNL A   1      32.487  26.030  21.099  1.00  0.00     0.049 A 
ATOM     17  C   UNL A   1      31.481  26.371  22.000  1.00  0.00     0.130 A 
BRANCH   9  18
ATOM     18  C   UNL A   1      33.595  21.375  24.777  1.00  0.00     0.227 C 
ATOM     19  O   UNL A   1      34.166  21.463  25.858  1.00  0.00    -0.285 OA
BRANCH  18  20
ATOM     20  C   UNL A   1      33.321  20.022  24.162  1.00  0.00     0.113 A 
ATOM     21  C   UNL A   1      34.381  16.384  24.370  1.00  0.00     0.044 C 
ATOM     22  C   UNL A   1      33.694  17.650  23.958  1.00  0.00    -0.047 A 
ATOM     23  C   UNL A   1      32.756  17.636  22.924  1.00  0.00     0.023 A 
ATOM     24  C   UNL A   1      33.963  18.862  24.601  1.00  0.00     0.036 A 
ATOM     25  C   UNL A   1      32.150  18.826  22.563  1.00  0.00     0.112 A 
ATOM     26  N   UNL A   1      32.420  20.010  23.147  1.00  0.00    -0.253 NA
ENDBRANCH  18  20
ENDBRANCH   9  18
BRANCH  17  27
ATOM     27  O   UNL A   1      30.630  27.437  21.902  1.00  0.00    -0.406 OA
BRANCH  27  28
ATOM     28  C   UNL A   1      30.988  28.634  22.568  1.00  0.00     0.573 C 
ATOM     29  F   UNL A   1      30.262  28.801  23.695  1.00  0.00    -0.132 F 
ATOM     30  F   UNL A   1      32.303  28.653  22.871  1.00  0.00    -0.132 F 
ATOM     31  F   UNL A   1      30.730  29.679  21.750  1.00  0.00    -0.132 F 
ENDBRANCH  27  28
ENDBRANCH  17  27
ENDBRANCH   7   8
ENDBRANCH   4   7
ENDBRANCH   2   3
ENDBRANCH   1   2
BRANCH   1  32
ATOM     32  C   UNL A   1      33.297  27.466  26.485  1.00  0.00     0.023 C 
BRANCH  32  33
ATOM     33  C   UNL A   1      34.049  28.611  25.816  1.00  0.00     0.116 C 
BRANCH  33  34
ATOM     34  N   UNL A   1      33.701  29.919  26.348  1.00  0.00    -0.352 N 
ATOM     35  C   UNL A   1      34.338  30.661  27.312  1.00  0.00     0.251 C 
ATOM     36  H   UNL A   1      32.894  30.331  25.962  1.00  0.00     0.163 HD
ATOM     37  O   UNL A   1      33.835  31.714  27.696  1.00  0.00    -0.269 OA
BRANCH  35  38
ATOM     38  C   UNL A   1      35.598  30.178  27.922  1.00  0.00     0.039 A 
ATOM     39  C   UNL A   1      36.803  30.461  27.270  1.00  0.00     0.014 A 
ATOM     40  C   UNL A   1      35.604  29.447  29.114  1.00  0.00     0.014 A 
ATOM     41  C   UNL A   1      38.014  30.072  27.843  1.00  0.00     0.010 A 
ATOM     42  C   UNL A   1      36.815  29.092  29.706  1.00  0.00     0.010 A 
ATOM     43  C   UNL A   1      38.029  29.412  29.082  1.00  0.00    -0.014 A 
BRANCH  43  44
ATOM     44  C   UNL A   1      39.306  29.070  29.749  1.00  0.00     0.031 A 
ATOM     45  C   UNL A   1      39.768  29.845  30.947  1.00  0.00     0.074 A 
ATOM     46  C   UNL A   1      40.082  28.098  29.234  1.00  0.00     0.049 A 
ATOM     47  N   UNL A   1      40.898  29.754  31.602  1.00  0.00    -0.248 NA
ATOM     48  C   UNL A   1      38.848  30.868  31.465  1.00  0.00     0.031 C 
ATOM     49  C   UNL A   1      39.755  27.290  28.058  1.00  0.00     0.029 A 
ATOM     50  N   UNL A   1      41.308  27.633  29.629  1.00  0.00    -0.354 N 
ATOM     51  C   UNL A   1      40.841  30.729  32.587  1.00  0.00     0.074 A 
ATOM     52  C   UNL A   1      39.566  31.401  32.445  1.00  0.00     0.031 C 
ATOM     53  C   UNL A   1      40.750  26.415  27.838  1.00  0.00     0.029 A 
ATOM     54  C   UNL A   1      41.792  26.619  28.840  1.00  0.00     0.049 A 
ATOM     55  H   UNL A   1      41.797  27.991  30.405  1.00  0.00     0.167 HD
ATOM     56  C   UNL A   1      41.767  31.037  33.527  1.00  0.00     0.037 A 
ATOM     57  C   UNL A   1      42.948  25.933  28.912  1.00  0.00     0.037 A 
ATOM     58  C   UNL A   1      43.017  30.349  33.700  1.00  0.00     0.049 A 
ATOM     59  C   UNL A   1      43.942  26.264  29.986  1.00  0.00     0.074 A 
ATOM     60  C   UNL A   1      43.997  30.559  34.655  1.00  0.00     0.029 A 
ATOM     61  N   UNL A   1      43.459  29.308  32.897  1.00  0.00    -0.354 N 
ATOM     62  N   UNL A   1      43.866  27.179  30.921  1.00  0.00    -0.248 NA
ATOM     63  C   UNL A   1      45.179  25.472  30.011  1.00  0.00     0.031 C 
ATOM     64  C   UNL A   1      45.035  29.646  34.426  1.00  0.00     0.029 A 
ATOM     65  C   UNL A   1      44.697  28.865  33.331  1.00  0.00     0.049 A 
ATOM     66  H   UNL A   1      42.965  28.939  32.129  1.00  0.00     0.167 HD
ATOM     67  C   UNL A   1      45.041  27.071  31.653  1.00  0.00     0.074 A 
ATOM     68  C   UNL A   1      45.811  25.999  31.052  1.00  0.00     0.031 C 
ATOM     69  C   UNL A   1      45.445  27.794  32.725  1.00  0.00     0.037 A 
BRANCH  56  70
ATOM     70  C   UNL A   1      41.444  32.190  34.429  1.00  0.00     0.058 A 
ATOM     71  C   UNL A   1      40.660  32.018  35.580  1.00  0.00     0.135 A 
ATOM     72  C   UNL A   1      41.880  33.485  34.111  1.00  0.00     0.135 A 
ATOM     73  F   UNL A   1      40.205  30.799  35.911  1.00  0.00    -0.206 F 
ATOM     74  C   UNL A   1      40.289  33.101  36.371  1.00  0.00     0.059 A 
ATOM     75  C   UNL A   1      41.528  34.580  34.893  1.00  0.00     0.059 A 
ATOM     76  F   UNL A   1      42.623  33.698  33.015  1.00  0.00    -0.206 F 
ATOM     77  C   UNL A   1      40.713  34.380  36.008  1.00  0.00     0.060 A 
BRANCH  77  78
ATOM     78  S   UNL A   1      40.191  35.802  36.991  1.00  0.00     0.124 S 
ATOM     79  O   UNL A   1      39.750  36.725  35.949  1.00  0.00    -0.237 OA
ATOM     80  O   UNL A   1      39.134  35.250  37.833  1.00  0.00    -0.237 OA
ATOM     81  O   UNL A   1      41.413  36.180  37.694  1.00  0.00    -0.744 OA
ENDBRANCH  77  78
ENDBRANCH  56  70
BRANCH  57  82
ATOM     82  C   UNL A   1      43.204  24.842  27.944  1.00  0.00     0.058 A 
ATOM     83  C   UNL A   1      43.864  25.105  26.737  1.00  0.00     0.135 A 
ATOM     84  C   UNL A   1      42.857  23.516  28.234  1.00  0.00     0.135 A 
ATOM     85  F   UNL A   1      44.213  26.362  26.423  1.00  0.00    -0.206 F 
ATOM     86  C   UNL A   1      44.179  24.086  25.846  1.00  0.00     0.059 A 
ATOM     87  C   UNL A   1      43.168  22.477  27.363  1.00  0.00     0.059 A 
ATOM     88  F   UNL A   1      42.235  23.221  29.386  1.00  0.00    -0.206 F 
ATOM     89  C   UNL A   1      43.830  22.774  26.169  1.00  0.00     0.060 A 
BRANCH  89  90
ATOM     90  S   UNL A   1      44.322  21.436  25.059  1.00  0.00     0.124 S 
ATOM     91  O   UNL A   1      44.181  22.072  23.754  1.00  0.00    -0.237 OA
ATOM     92  O   UNL A   1      45.688  21.155  25.486  1.00  0.00    -0.237 OA
ATOM     93  O   UNL A   1      43.353  20.386  25.362  1.00  0.00    -0.744 OA
ENDBRANCH  89  90
ENDBRANCH  57  82
BRANCH  69  94
ATOM     94  C   UNL A   1      46.771  27.437  33.321  1.00  0.00     0.058 A 
ATOM     95  C   UNL A   1      46.885  26.423  34.283  1.00  0.00     0.135 A 
ATOM     96  C   UNL A   1      47.940  28.095  32.910  1.00  0.00     0.135 A 
ATOM     97  F   UNL A   1      45.791  25.773  34.711  1.00  0.00    -0.206 F 
ATOM     98  C   UNL A   1      48.116  26.077  34.829  1.00  0.00     0.059 A 
ATOM     99  C   UNL A   1      49.183  27.762  33.438  1.00  0.00     0.059 A 
ATOM    100  F   UNL A   1      47.878  29.072  31.993  1.00  0.00    -0.206 F 
ATOM    101  C   UNL A   1      49.260  26.757  34.405  1.00  0.00     0.060 A 
BRANCH 101 102
ATOM    102  S   UNL A   1      50.867  26.297  35.088  1.00  0.00     0.124 S 
ATOM    103  O   UNL A   1      50.494  25.820  36.415  1.00  0.00    -0.237 OA
ATOM    104  O   UNL A   1      51.336  25.275  34.157  1.00  0.00    -0.237 OA
ATOM    105  O   UNL A   1      51.612  27.552  35.054  1.00  0.00    -0.744 OA
ENDBRANCH 101 102
ENDBRANCH  69  94
ENDBRANCH  43  44
ENDBRANCH  35  38
ENDBRANCH  33  34
ENDBRANCH  32  33
ENDBRANCH   1  32
TORSDOF 19
ENDMDL
MODEL 3
REMARK VINA RESULT:     -12.4      4.338      9.421
REMARK SMILES Cc1ccnc(C(=O)c2[nH]c3ccc(OC(F)(F)F)cc3c2CC(=O)NCCCCNC(=O)c2ccc(-c3c4nc(c(-c5c(F)cc(S(=O)(=O)[O-])cc5F)c5ccc([nH]5)c(-c5c(F)cc(S(=O)(=O)[O-])cc5F)c5nc(c(-c6c(F)cc(S(=O)(=O)[O-])cc6F)c6ccc3[nH]6)C=C5)C=C4)cc2)c1
REMARK SMILES IDX 28 1 27 2 26 3 24 4 25 5 23 7 22 8 9 9 10 10 11 11 21 13
REMARK SMILES IDX 12 14 20 15 13 16 14 17 7 18 8 19 6 20 1 21 2 22 3 23 100 24
REMARK SMILES IDX 4 25 5 26 15 27 16 28 17 29 18 30 19 31 29 32 30 33 31 34
REMARK SMILES IDX 32 35 33 37 34 38 35 39 99 40 36 41 98 42 37 43 38 44 39 45
REMARK SMILES IDX 92 46 40 47 97 48 91 49 93 50 41 51 96 52 90 53 89 54 42 56
REMARK SMILES IDX 76 57 55 58 75 59 56 60 59 61 74 62 94 63 57 64 58 65 73 67
REMARK SMILES IDX 95 68 60 69 43 70 44 71 53 72 45 73 46 74 52 75 54 76 47 77
REMARK SMILES IDX 48 78 49 79 50 80 51 81 77 82 78 83 87 84 79 85 80 86 86 87
REMARK SMILES IDX 88 88 81 89 82 90 83 91 84 92 85 93 61 94 62 95 71 96 63 97
REMARK SMILES IDX 64 98 70 99 72 100 65 101 66 102 67 103 68 104 69 105
REMARK H PARENT 26 6 10 12 31 36 93 55 59 66
REMARK Flexibility Score: inf
ROOT
ATOM      1  C   UNL A   1      31.908  27.603  26.663  1.00  0.00     0.023 C 
ENDROOT
BRANCH   1   2
ATOM      2  C   UNL A   1      31.124  26.328  26.353  1.00  0.00     0.116 C 
BRANCH   2   3
ATOM      3  N   UNL A   1      31.532  25.198  27.162  1.00  0.00    -0.356 N 
ATOM      4  C   UNL A   1      31.552  23.869  26.843  1.00  0.00     0.224 C 
ATOM      5  O   UNL A   1      32.112  23.090  27.619  1.00  0.00    -0.275 OA
ATOM      6  H   UNL A   1      31.839  25.418  28.070  1.00  0.00     0.163 HD
BRANCH   4   7
ATOM      7  C   UNL A   1      31.015  23.375  25.507  1.00  0.00     0.138 C 
BRANCH   7   8
ATOM      8  C   UNL A   1      31.982  23.442  24.360  1.00  0.00    -0.002 A 
ATOM      9  C   UNL A   1      33.040  22.578  24.090  1.00  0.00     0.093 A 
ATOM     10  N   UNL A   1      33.583  22.957  22.883  1.00  0.00    -0.352 N 
ATOM     11  C   UNL A   1      32.991  24.107  22.423  1.00  0.00     0.046 A 
ATOM     12  H   UNL A   1      34.298  22.470  22.414  1.00  0.00     0.167 HD
ATOM     13  C   UNL A   1      31.998  24.449  23.335  1.00  0.00     0.008 A 
ATOM     14  C   UNL A   1      33.239  24.844  21.262  1.00  0.00     0.030 A 
ATOM     15  C   UNL A   1      31.228  25.602  23.078  1.00  0.00     0.057 A 
ATOM     16  C   UNL A   1      32.451  25.980  21.026  1.00  0.00     0.049 A 
ATOM     17  C   UNL A   1      31.455  26.365  21.921  1.00  0.00     0.130 A 
BRANCH   9  18
ATOM     18  C   UNL A   1      33.481  21.401  24.820  1.00  0.00     0.227 C 
ATOM     19  O   UNL A   1      33.984  21.501  25.933  1.00  0.00    -0.285 OA
BRANCH  18  20
ATOM     20  C   UNL A   1      33.269  20.042  24.192  1.00  0.00     0.113 A 
ATOM     21  C   UNL A   1      34.493  16.454  24.371  1.00  0.00     0.044 C 
ATOM     22  C   UNL A   1      33.750  17.692  23.968  1.00  0.00    -0.047 A 
ATOM     23  C   UNL A   1      32.816  17.644  22.931  1.00  0.00     0.023 A 
ATOM     24  C   UNL A   1      33.962  18.909  24.623  1.00  0.00     0.036 A 
ATOM     25  C   UNL A   1      32.157  18.809  22.580  1.00  0.00     0.112 A 
ATOM     26  N   UNL A   1      32.373  19.998  23.175  1.00  0.00    -0.253 NA
ENDBRANCH  18  20
ENDBRANCH   9  18
BRANCH  17  27
ATOM     27  O   UNL A   1      30.625  27.444  21.798  1.00  0.00    -0.406 OA
BRANCH  27  28
ATOM     28  C   UNL A   1      30.938  28.608  22.540  1.00  0.00     0.573 C 
ATOM     29  F   UNL A   1      32.269  28.705  22.756  1.00  0.00    -0.132 F 
ATOM     30  F   UNL A   1      30.501  29.721  21.915  1.00  0.00    -0.132 F 
ATOM     31  F   UNL A   1      30.327  28.533  23.744  1.00  0.00    -0.132 F 
ENDBRANCH  27  28
ENDBRANCH  17  27
ENDBRANCH   7   8
ENDBRANCH   4   7
ENDBRANCH   2   3
ENDBRANCH   1   2
BRANCH   1  32
ATOM     32  C   UNL A   1      33.426  27.507  26.495  1.00  0.00     0.023 C 
BRANCH  32  33
ATOM     33  C   UNL A   1      34.122  28.771  26.000  1.00  0.00     0.116 C 
BRANCH  33  34
ATOM     34  N   UNL A   1      33.824  29.946  26.803  1.00  0.00    -0.352 N 
ATOM     35  C   UNL A   1      34.580  30.541  27.783  1.00  0.00     0.251 C 
ATOM     36  H   UNL A   1      32.958  30.375  26.617  1.00  0.00     0.163 HD
ATOM     37  O   UNL A   1      34.113  31.483  28.417  1.00  0.00    -0.269 OA
BRANCH  35  38
ATOM     38  C   UNL A   1      35.929  30.027  28.108  1.00  0.00     0.039 A 
ATOM     39  C   UNL A   1      36.940  30.161  27.150  1.00  0.00     0.014 A 
ATOM     40  C   UNL A   1      36.205  29.410  29.332  1.00  0.00     0.014 A 
ATOM     41  C   UNL A   1      38.239  29.741  27.442  1.00  0.00     0.010 A 
ATOM     42  C   UNL A   1      37.509  29.025  29.639  1.00  0.00     0.010 A 
ATOM     43  C   UNL A   1      38.538  29.198  28.701  1.00  0.00    -0.014 A 
BRANCH  43  44
ATOM     44  C   UNL A   1      39.925  28.826  29.063  1.00  0.00     0.031 A 
ATOM     45  C   UNL A   1      40.808  29.801  29.785  1.00  0.00     0.074 A 
ATOM     46  C   UNL A   1      40.410  27.630  28.681  1.00  0.00     0.049 A 
ATOM     47  N   UNL A   1      42.074  29.691  30.098  1.00  0.00    -0.248 NA
ATOM     48  C   UNL A   1      40.191  31.072  30.193  1.00  0.00     0.031 C 
ATOM     49  C   UNL A   1      39.660  26.607  27.952  1.00  0.00     0.029 A 
ATOM     50  N   UNL A   1      41.654  27.079  28.847  1.00  0.00    -0.354 N 
ATOM     51  C   UNL A   1      42.416  30.888  30.708  1.00  0.00     0.074 A 
ATOM     52  C   UNL A   1      41.225  31.712  30.722  1.00  0.00     0.031 C 
ATOM     53  C   UNL A   1      40.454  25.544  27.748  1.00  0.00     0.029 A 
ATOM     54  C   UNL A   1      41.773  25.821  28.310  1.00  0.00     0.049 A 
ATOM     55  H   UNL A   1      42.392  27.540  29.307  1.00  0.00     0.167 HD
ATOM     56  C   UNL A   1      43.615  31.269  31.212  1.00  0.00     0.037 A 
ATOM     57  C   UNL A   1      42.828  24.987  28.269  1.00  0.00     0.037 A 
ATOM     58  C   UNL A   1      44.791  30.442  31.238  1.00  0.00     0.049 A 
ATOM     59  C   UNL A   1      44.136  25.412  28.870  1.00  0.00     0.074 A 
ATOM     60  C   UNL A   1      46.036  30.724  31.772  1.00  0.00     0.029 A 
ATOM     61  N   UNL A   1      44.864  29.163  30.708  1.00  0.00    -0.354 N 
ATOM     62  N   UNL A   1      44.438  26.544  29.458  1.00  0.00    -0.248 NA
ATOM     63  C   UNL A   1      45.243  24.450  28.797  1.00  0.00     0.031 C 
ATOM     64  C   UNL A   1      46.865  29.614  31.560  1.00  0.00     0.029 A 
ATOM     65  C   UNL A   1      46.132  28.641  30.899  1.00  0.00     0.049 A 
ATOM     66  H   UNL A   1      44.122  28.694  30.260  1.00  0.00     0.167 HD
ATOM     67  C   UNL A   1      45.771  26.429  29.833  1.00  0.00     0.074 A 
ATOM     68  C   UNL A   1      46.215  25.117  29.407  1.00  0.00     0.031 C 
ATOM     69  C   UNL A   1      46.554  27.331  30.473  1.00  0.00     0.037 A 
BRANCH  56  70
ATOM     70  C   UNL A   1      43.695  32.660  31.765  1.00  0.00     0.058 A 
ATOM     71  C   UNL A   1      43.329  32.941  33.090  1.00  0.00     0.135 A 
ATOM     72  C   UNL A   1      44.094  33.727  30.947  1.00  0.00     0.135 A 
ATOM     73  F   UNL A   1      42.921  31.952  33.901  1.00  0.00    -0.206 F 
ATOM     74  C   UNL A   1      43.320  34.243  33.577  1.00  0.00     0.059 A 
ATOM     75  C   UNL A   1      44.103  35.036  31.417  1.00  0.00     0.059 A 
ATOM     76  F   UNL A   1      44.444  33.507  29.670  1.00  0.00    -0.206 F 
ATOM     77  C   UNL A   1      43.692  35.286  32.727  1.00  0.00     0.060 A 
BRANCH  77  78
ATOM     78  S   UNL A   1      43.632  36.988  33.328  1.00  0.00     0.124 S 
ATOM     79  O   UNL A   1      44.864  37.061  34.107  1.00  0.00    -0.237 OA
ATOM     80  O   UNL A   1      43.620  37.770  32.095  1.00  0.00    -0.237 OA
ATOM     81  O   UNL A   1      42.393  37.021  34.098  1.00  0.00    -0.744 OA
ENDBRANCH  77  78
ENDBRANCH  56  70
BRANCH  57  82
ATOM     82  C   UNL A   1      42.670  23.648  27.656  1.00  0.00     0.058 A 
ATOM     83  C   UNL A   1      42.838  23.475  26.276  1.00  0.00     0.135 A 
ATOM     84  C   UNL A   1      42.413  22.515  28.440  1.00  0.00     0.135 A 
ATOM     85  F   UNL A   1      43.085  24.536  25.493  1.00  0.00    -0.206 F 
ATOM     86  C   UNL A   1      42.766  22.218  25.689  1.00  0.00     0.059 A 
ATOM     87  C   UNL A   1      42.344  21.245  27.877  1.00  0.00     0.059 A 
ATOM     88  F   UNL A   1      42.258  22.636  29.767  1.00  0.00    -0.206 F 
ATOM     89  C   UNL A   1      42.521  21.107  26.499  1.00  0.00     0.060 A 
BRANCH  89  90
ATOM     90  S   UNL A   1      42.519  19.461  25.753  1.00  0.00     0.124 S 
ATOM     91  O   UNL A   1      42.989  18.637  26.860  1.00  0.00    -0.237 OA
ATOM     92  O   UNL A   1      41.121  19.284  25.376  1.00  0.00    -0.237 OA
ATOM     93  O   UNL A   1      43.444  19.609  24.633  1.00  0.00    -0.744 OA
ENDBRANCH  89  90
ENDBRANCH  57  82
BRANCH  69  94
ATOM     94  C   UNL A   1      47.965  26.918  30.761  1.00  0.00     0.058 A 
ATOM     95  C   UNL A   1      49.014  27.274  29.901  1.00  0.00     0.135 A 
ATOM     96  C   UNL A   1      48.272  26.185  31.916  1.00  0.00     0.135 A 
ATOM     97  F   UNL A   1      48.763  27.968  28.780  1.00  0.00    -0.206 F 
ATOM     98  C   UNL A   1      50.328  26.905  30.171  1.00  0.00     0.059 A 
ATOM     99  C   UNL A   1      49.580  25.811  32.210  1.00  0.00     0.059 A 
ATOM    100  F   UNL A   1      47.300  25.823  32.766  1.00  0.00    -0.206 F 
ATOM    101  C   UNL A   1      50.600  26.168  31.326  1.00  0.00     0.060 A 
BRANCH 101 102
ATOM    102  S   UNL A   1      52.306  25.708  31.699  1.00  0.00     0.124 S 
ATOM    103  O   UNL A   1      52.616  26.610  32.804  1.00  0.00    -0.237 OA
ATOM    104  O   UNL A   1      52.194  24.296  32.049  1.00  0.00    -0.237 OA
ATOM    105  O   UNL A   1      53.004  25.982  30.446  1.00  0.00    -0.744 OA
ENDBRANCH 101 102
ENDBRANCH  69  94
ENDBRANCH  43  44
ENDBRANCH  35  38
ENDBRANCH  33  34
ENDBRANCH  32  33
ENDBRANCH   1  32
TORSDOF 19
ENDMDL
