MODEL 1
REMARK VINA RESULT:     -11.5      0.000      0.000
REMARK SMILES COc1ccc(-c2nc(SCC(=O)NCCCCNC(=O)c3ccc(-c4c5nc(c(-c6c(F)cc(S(=O)(=O)[O-])cc6F)c6ccc([nH]6)c(-c6c(F)cc(S(=O)(=O)[O-])cc6F)c6nc(c(-c7c(F)cc(S(=O)(=O)[O-])cc7F)c7ccc4[nH]7)C=C6)C=C5)cc3)cc(-c3ccncc3)n2)cc1
REMARK SMILES IDX 16 1 15 2 14 3 12 4 13 5 11 7 10 8 9 9 7 10 8 11 96 12 89 13
REMARK SMILES IDX 88 14 6 15 3 16 4 17 98 18 5 19 97 20 2 21 1 22 90 23 91 24
REMARK SMILES IDX 95 25 92 26 94 27 93 28 17 29 18 30 19 31 20 32 21 34 22 35
REMARK SMILES IDX 23 36 87 37 24 38 86 39 25 40 26 41 27 42 80 43 28 44 85 45
REMARK SMILES IDX 79 46 81 47 29 48 84 49 78 50 77 51 30 53 64 54 43 55 63 56
REMARK SMILES IDX 44 57 47 58 62 59 82 60 45 61 46 62 61 64 83 65 48 66 31 67
REMARK SMILES IDX 32 68 41 69 33 70 34 71 40 72 42 73 35 74 36 75 37 76 38 77
REMARK SMILES IDX 39 78 65 79 66 80 75 81 67 82 68 83 74 84 76 85 69 86 70 87
REMARK SMILES IDX 71 88 72 89 73 90 49 91 50 92 59 93 51 94 52 95 58 96 60 97
REMARK SMILES IDX 53 98 54 99 55 100 56 101 57 102
REMARK H PARENT 14 6 19 33 81 52 47 63
REMARK Flexibility Score: inf
ROOT
ATOM      1  C   UNL A   1      31.752  27.984  25.217  1.00  0.00     0.023 C 
ENDROOT
BRANCH   1   2
ATOM      2  C   UNL A   1      31.413  27.009  24.090  1.00  0.00     0.116 C 
BRANCH   2   3
ATOM      3  N   UNL A   1      32.556  26.787  23.226  1.00  0.00    -0.355 N 
ATOM      4  C   UNL A   1      33.056  25.622  22.737  1.00  0.00     0.230 C 
ATOM      5  O   UNL A   1      34.108  25.670  22.092  1.00  0.00    -0.274 OA
ATOM      6  H   UNL A   1      33.043  27.599  22.956  1.00  0.00     0.163 HD
BRANCH   4   7
ATOM      7  C   UNL A   1      32.311  24.310  22.905  1.00  0.00     0.176 C 
BRANCH   7   8
ATOM      8  S   UNL A   1      32.120  23.747  24.624  1.00  0.00    -0.096 SA
BRANCH   8   9
ATOM      9  C   UNL A   1      33.531  22.714  24.939  1.00  0.00     0.101 A 
ATOM     10  C   UNL A   1      34.263  20.543  25.107  1.00  0.00     0.161 A 
ATOM     11  N   UNL A   1      33.258  21.400  24.863  1.00  0.00    -0.222 NA
ATOM     12  N   UNL A   1      35.520  20.900  25.415  1.00  0.00    -0.228 NA
ATOM     13  C   UNL A   1      35.766  22.222  25.461  1.00  0.00     0.076 A 
ATOM     14  C   UNL A   1      34.797  23.173  25.204  1.00  0.00     0.064 A 
BRANCH  10  15
ATOM     15  C   UNL A   1      33.958  19.113  24.994  1.00  0.00     0.019 A 
ATOM     16  C   UNL A   1      33.385  16.346  24.831  1.00  0.00     0.118 A 
ATOM     17  C   UNL A   1      32.554  17.197  25.557  1.00  0.00     0.047 A 
ATOM     18  C   UNL A   1      34.489  16.874  24.164  1.00  0.00     0.047 A 
ATOM     19  C   UNL A   1      32.846  18.562  25.654  1.00  0.00     0.016 A 
ATOM     20  C   UNL A   1      34.766  18.248  24.239  1.00  0.00     0.016 A 
BRANCH  16  21
ATOM     21  O   UNL A   1      32.999  15.033  24.805  1.00  0.00    -0.497 OA
ATOM     22  C   UNL A   1      32.005  14.669  25.759  1.00  0.00     0.278 C 
ENDBRANCH  16  21
ENDBRANCH  10  15
BRANCH  13  23
ATOM     23  C   UNL A   1      37.139  22.627  25.766  1.00  0.00     0.003 A 
ATOM     24  C   UNL A   1      38.179  21.689  25.801  1.00  0.00     0.030 A 
ATOM     25  C   UNL A   1      37.438  23.953  26.094  1.00  0.00     0.030 A 
ATOM     26  C   UNL A   1      39.445  22.108  26.173  1.00  0.00     0.111 A 
ATOM     27  C   UNL A   1      38.733  24.272  26.466  1.00  0.00     0.111 A 
ATOM     28  N   UNL A   1      39.742  23.378  26.521  1.00  0.00    -0.265 NA
ENDBRANCH  13  23
ENDBRANCH   8   9
ENDBRANCH   7   8
ENDBRANCH   4   7
ENDBRANCH   2   3
ENDBRANCH   1   2
BRANCH   1  29
ATOM     29  C   UNL A   1      32.967  27.587  26.064  1.00  0.00     0.023 C 
BRANCH  29  30
ATOM     30  C   UNL A   1      34.170  28.520  25.961  1.00  0.00     0.116 C 
BRANCH  30  31
ATOM     31  N   UNL A   1      33.877  29.873  26.404  1.00  0.00    -0.352 N 
ATOM     32  C   UNL A   1      34.522  30.637  27.347  1.00  0.00     0.251 C 
ATOM     33  H   UNL A   1      33.108  30.304  25.966  1.00  0.00     0.163 HD
ATOM     34  O   UNL A   1      34.045  31.717  27.687  1.00  0.00    -0.269 OA
BRANCH  32  35
ATOM     35  C   UNL A   1      35.769  30.144  27.975  1.00  0.00     0.039 A 
ATOM     36  C   UNL A   1      36.992  30.441  27.367  1.00  0.00     0.014 A 
ATOM     37  C   UNL A   1      35.737  29.402  29.159  1.00  0.00     0.014 A 
ATOM     38  C   UNL A   1      38.185  30.053  27.983  1.00  0.00     0.010 A 
ATOM     39  C   UNL A   1      36.926  29.078  29.806  1.00  0.00     0.010 A 
ATOM     40  C   UNL A   1      38.163  29.401  29.227  1.00  0.00    -0.014 A 
BRANCH  40  41
ATOM     41  C   UNL A   1      39.422  29.065  29.942  1.00  0.00     0.031 A 
ATOM     42  C   UNL A   1      39.822  29.829  31.176  1.00  0.00     0.074 A 
ATOM     43  C   UNL A   1      40.239  28.116  29.443  1.00  0.00     0.049 A 
ATOM     44  N   UNL A   1      40.908  29.724  31.896  1.00  0.00    -0.248 NA
ATOM     45  C   UNL A   1      38.890  30.867  31.646  1.00  0.00     0.031 C 
ATOM     46  C   UNL A   1      39.986  27.335  28.230  1.00  0.00     0.029 A 
ATOM     47  N   UNL A   1      41.452  27.650  29.889  1.00  0.00    -0.354 N 
ATOM     48  C   UNL A   1      40.801  30.689  32.891  1.00  0.00     0.074 A 
ATOM     49  C   UNL A   1      39.565  31.403  32.652  1.00  0.00     0.031 C 
ATOM     50  C   UNL A   1      40.998  26.472  28.043  1.00  0.00     0.029 A 
ATOM     51  C   UNL A   1      41.990  26.663  29.095  1.00  0.00     0.049 A 
ATOM     52  H   UNL A   1      41.895  27.991  30.698  1.00  0.00     0.167 HD
ATOM     53  C   UNL A   1      41.643  30.943  33.921  1.00  0.00     0.037 A 
ATOM     54  C   UNL A   1      43.155  25.993  29.199  1.00  0.00     0.037 A 
ATOM     55  C   UNL A   1      42.859  30.210  34.169  1.00  0.00     0.049 A 
ATOM     56  C   UNL A   1      44.077  26.297  30.349  1.00  0.00     0.074 A 
ATOM     57  C   UNL A   1      43.743  30.345  35.225  1.00  0.00     0.029 A 
ATOM     58  N   UNL A   1      43.364  29.210  33.351  1.00  0.00    -0.354 N 
ATOM     59  N   UNL A   1      43.923  27.165  31.322  1.00  0.00    -0.248 NA
ATOM     60  C   UNL A   1      45.329  25.529  30.420  1.00  0.00     0.031 C 
ATOM     61  C   UNL A   1      44.809  29.463  35.018  1.00  0.00     0.029 A 
ATOM     62  C   UNL A   1      44.562  28.739  33.862  1.00  0.00     0.049 A 
ATOM     63  H   UNL A   1      42.934  28.885  32.527  1.00  0.00     0.167 HD
ATOM     64  C   UNL A   1      45.043  27.025  32.136  1.00  0.00     0.074 A 
ATOM     65  C   UNL A   1      45.859  25.983  31.547  1.00  0.00     0.031 C 
ATOM     66  C   UNL A   1      45.363  27.697  33.270  1.00  0.00     0.037 A 
BRANCH  53  67
ATOM     67  C   UNL A   1      41.285  32.065  34.859  1.00  0.00     0.058 A 
ATOM     68  C   UNL A   1      41.716  33.383  34.635  1.00  0.00     0.135 A 
ATOM     69  C   UNL A   1      40.470  31.827  35.977  1.00  0.00     0.135 A 
ATOM     70  F   UNL A   1      42.509  33.667  33.589  1.00  0.00    -0.206 F 
ATOM     71  C   UNL A   1      41.379  34.417  35.502  1.00  0.00     0.059 A 
ATOM     72  C   UNL A   1      40.095  32.851  36.842  1.00  0.00     0.059 A 
ATOM     73  F   UNL A   1      40.028  30.587  36.240  1.00  0.00    -0.206 F 
ATOM     74  C   UNL A   1      40.568  34.141  36.604  1.00  0.00     0.060 A 
BRANCH  74  75
ATOM     75  S   UNL A   1      40.140  35.494  37.720  1.00  0.00     0.124 S 
ATOM     76  O   UNL A   1      41.257  35.459  38.660  1.00  0.00    -0.237 OA
ATOM     77  O   UNL A   1      40.107  36.642  36.819  1.00  0.00    -0.237 OA
ATOM     78  O   UNL A   1      38.849  35.091  38.265  1.00  0.00    -0.744 OA
ENDBRANCH  74  75
ENDBRANCH  53  67
BRANCH  54  79
ATOM     79  C   UNL A   1      43.503  24.946  28.202  1.00  0.00     0.058 A 
ATOM     80  C   UNL A   1      44.299  25.250  27.087  1.00  0.00     0.135 A 
ATOM     81  C   UNL A   1      43.061  23.621  28.345  1.00  0.00     0.135 A 
ATOM     82  F   UNL A   1      44.740  26.504  26.901  1.00  0.00    -0.206 F 
ATOM     83  C   UNL A   1      44.630  24.286  26.142  1.00  0.00     0.059 A 
ATOM     84  C   UNL A   1      43.401  22.633  27.427  1.00  0.00     0.059 A 
ATOM     85  F   UNL A   1      42.311  23.274  29.403  1.00  0.00    -0.206 F 
ATOM     86  C   UNL A   1      44.179  22.978  26.323  1.00  0.00     0.060 A 
BRANCH  86  87
ATOM     87  S   UNL A   1      44.657  21.723  25.115  1.00  0.00     0.124 S 
ATOM     88  O   UNL A   1      46.080  21.574  25.394  1.00  0.00    -0.237 OA
ATOM     89  O   UNL A   1      43.809  20.595  25.494  1.00  0.00    -0.237 OA
ATOM     90  O   UNL A   1      44.325  22.344  23.836  1.00  0.00    -0.744 OA
ENDBRANCH  86  87
ENDBRANCH  54  79
BRANCH  66  91
ATOM     91  C   UNL A   1      46.632  27.302  33.975  1.00  0.00     0.058 A 
ATOM     92  C   UNL A   1      47.855  27.938  33.709  1.00  0.00     0.135 A 
ATOM     93  C   UNL A   1      46.612  26.311  34.970  1.00  0.00     0.135 A 
ATOM     94  F   UNL A   1      47.932  28.887  32.763  1.00  0.00    -0.206 F 
ATOM     95  C   UNL A   1      49.018  27.587  34.386  1.00  0.00     0.059 A 
ATOM     96  C   UNL A   1      47.756  25.966  35.681  1.00  0.00     0.059 A 
ATOM     97  F   UNL A   1      45.467  25.679  35.272  1.00  0.00    -0.206 F 
ATOM     98  C   UNL A   1      48.958  26.602  35.374  1.00  0.00     0.060 A 
BRANCH  98  99
ATOM     99  S   UNL A   1      50.467  26.182  36.271  1.00  0.00     0.124 S 
ATOM    100  O   UNL A   1      49.930  25.682  37.532  1.00  0.00    -0.237 OA
ATOM    101  O   UNL A   1      51.079  25.181  35.402  1.00  0.00    -0.237 OA
ATOM    102  O   UNL A   1      51.181  27.452  36.352  1.00  0.00    -0.744 OA
ENDBRANCH  98  99
ENDBRANCH  66  91
ENDBRANCH  40  41
ENDBRANCH  32  35
ENDBRANCH  30  31
ENDBRANCH  29  30
ENDBRANCH   1  29
TORSDOF 19
ENDMDL
MODEL 2
REMARK VINA RESULT:     -11.1      1.698      3.655
REMARK SMILES COc1ccc(-c2nc(SCC(=O)NCCCCNC(=O)c3ccc(-c4c5nc(c(-c6c(F)cc(S(=O)(=O)[O-])cc6F)c6ccc([nH]6)c(-c6c(F)cc(S(=O)(=O)[O-])cc6F)c6nc(c(-c7c(F)cc(S(=O)(=O)[O-])cc7F)c7ccc4[nH]7)C=C6)C=C5)cc3)cc(-c3ccncc3)n2)cc1
REMARK SMILES IDX 16 1 15 2 14 3 12 4 13 5 11 7 10 8 9 9 7 10 8 11 96 12 89 13
REMARK SMILES IDX 88 14 6 15 3 16 4 17 98 18 5 19 97 20 2 21 1 22 90 23 91 24
REMARK SMILES IDX 95 25 92 26 94 27 93 28 17 29 18 30 19 31 20 32 21 34 22 35
REMARK SMILES IDX 23 36 87 37 24 38 86 39 25 40 26 41 27 42 80 43 28 44 85 45
REMARK SMILES IDX 79 46 81 47 29 48 84 49 78 50 77 51 30 53 64 54 43 55 63 56
REMARK SMILES IDX 44 57 47 58 62 59 82 60 45 61 46 62 61 64 83 65 48 66 31 67
REMARK SMILES IDX 32 68 41 69 33 70 34 71 40 72 42 73 35 74 36 75 37 76 38 77
REMARK SMILES IDX 39 78 65 79 66 80 75 81 67 82 68 83 74 84 76 85 69 86 70 87
REMARK SMILES IDX 71 88 72 89 73 90 49 91 50 92 59 93 51 94 52 95 58 96 60 97
REMARK SMILES IDX 53 98 54 99 55 100 56 101 57 102
REMARK H PARENT 14 6 19 33 81 52 47 63
REMARK Flexibility Score: inf
ROOT
ATOM      1  C   UNL A   1      32.196  28.219  26.450  1.00  0.00     0.023 C 
ENDROOT
BRANCH   1   2
ATOM      2  C   UNL A   1      31.150  27.283  25.846  1.00  0.00     0.116 C 
BRANCH   2   3
ATOM      3  N   UNL A   1      30.987  26.088  26.651  1.00  0.00    -0.355 N 
ATOM      4  C   UNL A   1      31.349  24.807  26.377  1.00  0.00     0.230 C 
ATOM      5  O   UNL A   1      31.018  23.930  27.181  1.00  0.00    -0.274 OA
ATOM      6  H   UNL A   1      30.550  26.224  27.522  1.00  0.00     0.163 HD
BRANCH   4   7
ATOM      7  C   UNL A   1      32.198  24.467  25.167  1.00  0.00     0.176 C 
BRANCH   7   8
ATOM      8  S   UNL A   1      31.639  23.021  24.214  1.00  0.00    -0.096 SA
BRANCH   8   9
ATOM      9  C   UNL A   1      32.852  21.759  24.522  1.00  0.00     0.101 A 
ATOM     10  C   UNL A   1      35.050  21.365  25.062  1.00  0.00     0.161 A 
ATOM     11  N   UNL A   1      34.065  22.249  24.832  1.00  0.00    -0.222 NA
ATOM     12  N   UNL A   1      34.913  20.030  25.010  1.00  0.00    -0.228 NA
ATOM     13  C   UNL A   1      33.681  19.572  24.718  1.00  0.00     0.076 A 
ATOM     14  C   UNL A   1      32.607  20.410  24.488  1.00  0.00     0.064 A 
BRANCH  10  15
ATOM     15  C   UNL A   1      36.361  21.912  25.427  1.00  0.00     0.019 A 
ATOM     16  C   UNL A   1      38.890  22.934  26.182  1.00  0.00     0.118 A 
ATOM     17  C   UNL A   1      38.763  21.616  25.746  1.00  0.00     0.047 A 
ATOM     18  C   UNL A   1      37.763  23.753  26.219  1.00  0.00     0.047 A 
ATOM     19  C   UNL A   1      37.511  21.104  25.390  1.00  0.00     0.016 A 
ATOM     20  C   UNL A   1      36.511  23.246  25.836  1.00  0.00     0.016 A 
BRANCH  16  21
ATOM     21  O   UNL A   1      40.163  23.324  26.500  1.00  0.00    -0.497 OA
ATOM     22  C   UNL A   1      40.258  24.443  27.375  1.00  0.00     0.278 C 
ENDBRANCH  16  21
ENDBRANCH  10  15
BRANCH  13  23
ATOM     23  C   UNL A   1      33.508  18.119  24.687  1.00  0.00     0.003 A 
ATOM     24  C   UNL A   1      32.591  17.482  25.533  1.00  0.00     0.030 A 
ATOM     25  C   UNL A   1      34.300  17.323  23.856  1.00  0.00     0.030 A 
ATOM     26  C   UNL A   1      32.522  16.099  25.523  1.00  0.00     0.111 A 
ATOM     27  C   UNL A   1      34.167  15.946  23.927  1.00  0.00     0.111 A 
ATOM     28  N   UNL A   1      33.301  15.316  24.748  1.00  0.00    -0.265 NA
ENDBRANCH  13  23
ENDBRANCH   8   9
ENDBRANCH   7   8
ENDBRANCH   4   7
ENDBRANCH   2   3
ENDBRANCH   1   2
BRANCH   1  29
ATOM     29  C   UNL A   1      33.629  27.674  26.436  1.00  0.00     0.023 C 
BRANCH  29  30
ATOM     30  C   UNL A   1      34.731  28.727  26.484  1.00  0.00     0.116 C 
BRANCH  30  31
ATOM     31  N   UNL A   1      34.220  30.073  26.692  1.00  0.00    -0.352 N 
ATOM     32  C   UNL A   1      34.637  31.030  27.586  1.00  0.00     0.251 C 
ATOM     33  H   UNL A   1      33.470  30.335  26.111  1.00  0.00     0.163 HD
ATOM     34  O   UNL A   1      33.992  32.068  27.711  1.00  0.00    -0.269 OA
BRANCH  32  35
ATOM     35  C   UNL A   1      35.839  30.796  28.417  1.00  0.00     0.039 A 
ATOM     36  C   UNL A   1      35.840  29.724  29.313  1.00  0.00     0.014 A 
ATOM     37  C   UNL A   1      36.962  31.621  28.309  1.00  0.00     0.014 A 
ATOM     38  C   UNL A   1      36.991  29.438  30.052  1.00  0.00     0.010 A 
ATOM     39  C   UNL A   1      38.131  31.292  28.992  1.00  0.00     0.010 A 
ATOM     40  C   UNL A   1      38.159  30.197  29.869  1.00  0.00    -0.014 A 
BRANCH  40  41
ATOM     41  C   UNL A   1      39.421  29.850  30.574  1.00  0.00     0.031 A 
ATOM     42  C   UNL A   1      39.791  30.545  31.856  1.00  0.00     0.074 A 
ATOM     43  C   UNL A   1      40.267  28.955  30.025  1.00  0.00     0.049 A 
ATOM     44  N   UNL A   1      40.875  30.424  32.579  1.00  0.00    -0.248 NA
ATOM     45  C   UNL A   1      38.829  31.527  32.381  1.00  0.00     0.031 C 
ATOM     46  C   UNL A   1      40.044  28.245  28.763  1.00  0.00     0.029 A 
ATOM     47  N   UNL A   1      41.488  28.494  30.451  1.00  0.00    -0.354 N 
ATOM     48  C   UNL A   1      40.734  31.322  33.631  1.00  0.00     0.074 A 
ATOM     49  C   UNL A   1      39.482  32.017  33.425  1.00  0.00     0.031 C 
ATOM     50  C   UNL A   1      41.079  27.422  28.532  1.00  0.00     0.029 A 
ATOM     51  C   UNL A   1      42.059  27.573  29.603  1.00  0.00     0.049 A 
ATOM     52  H   UNL A   1      41.916  28.795  31.285  1.00  0.00     0.167 HD
ATOM     53  C   UNL A   1      41.562  31.533  34.682  1.00  0.00     0.037 A 
ATOM     54  C   UNL A   1      43.240  26.928  29.676  1.00  0.00     0.037 A 
ATOM     55  C   UNL A   1      42.794  30.818  34.895  1.00  0.00     0.049 A 
ATOM     56  C   UNL A   1      44.144  27.184  30.851  1.00  0.00     0.074 A 
ATOM     57  C   UNL A   1      43.666  30.910  35.965  1.00  0.00     0.029 A 
ATOM     58  N   UNL A   1      43.332  29.885  34.021  1.00  0.00    -0.354 N 
ATOM     59  N   UNL A   1      43.961  27.985  31.875  1.00  0.00    -0.248 NA
ATOM     60  C   UNL A   1      45.416  26.446  30.885  1.00  0.00     0.031 C 
ATOM     61  C   UNL A   1      44.757  30.071  35.714  1.00  0.00     0.029 A 
ATOM     62  C   UNL A   1      44.538  29.414  34.513  1.00  0.00     0.049 A 
ATOM     63  H   UNL A   1      42.917  29.600  33.175  1.00  0.00     0.167 HD
ATOM     64  C   UNL A   1      45.077  27.824  32.689  1.00  0.00     0.074 A 
ATOM     65  C   UNL A   1      45.925  26.842  32.044  1.00  0.00     0.031 C 
ATOM     66  C   UNL A   1      45.371  28.431  33.865  1.00  0.00     0.037 A 
BRANCH  53  67
ATOM     67  C   UNL A   1      41.167  32.585  35.684  1.00  0.00     0.058 A 
ATOM     68  C   UNL A   1      41.744  33.865  35.680  1.00  0.00     0.135 A 
ATOM     69  C   UNL A   1      40.171  32.322  36.639  1.00  0.00     0.135 A 
ATOM     70  F   UNL A   1      42.711  34.168  34.798  1.00  0.00    -0.206 F 
ATOM     71  C   UNL A   1      41.373  34.834  36.605  1.00  0.00     0.059 A 
ATOM     72  C   UNL A   1      39.762  33.286  37.555  1.00  0.00     0.059 A 
ATOM     73  F   UNL A   1      39.584  31.116  36.688  1.00  0.00    -0.206 F 
ATOM     74  C   UNL A   1      40.381  34.536  37.540  1.00  0.00     0.060 A 
BRANCH  74  75
ATOM     75  S   UNL A   1      39.911  35.805  38.735  1.00  0.00     0.124 S 
ATOM     76  O   UNL A   1      39.534  36.907  37.854  1.00  0.00    -0.237 OA
ATOM     77  O   UNL A   1      38.814  35.166  39.453  1.00  0.00    -0.237 OA
ATOM     78  O   UNL A   1      41.129  36.012  39.510  1.00  0.00    -0.744 OA
ENDBRANCH  74  75
ENDBRANCH  53  67
BRANCH  54  79
ATOM     79  C   UNL A   1      43.623  25.955  28.619  1.00  0.00     0.058 A 
ATOM     80  C   UNL A   1      44.215  26.387  27.423  1.00  0.00     0.135 A 
ATOM     81  C   UNL A   1      43.419  24.575  28.784  1.00  0.00     0.135 A 
ATOM     82  F   UNL A   1      44.424  27.696  27.214  1.00  0.00    -0.206 F 
ATOM     83  C   UNL A   1      44.576  25.493  26.421  1.00  0.00     0.059 A 
ATOM     84  C   UNL A   1      43.795  23.658  27.808  1.00  0.00     0.059 A 
ATOM     85  F   UNL A   1      42.872  24.107  29.917  1.00  0.00    -0.206 F 
ATOM     86  C   UNL A   1      44.364  24.128  26.625  1.00  0.00     0.060 A 
BRANCH  86  87
ATOM     87  S   UNL A   1      44.882  22.971  25.338  1.00  0.00     0.124 S 
ATOM     88  O   UNL A   1      43.802  21.993  25.371  1.00  0.00    -0.237 OA
ATOM     89  O   UNL A   1      44.933  23.830  24.158  1.00  0.00    -0.237 OA
ATOM     90  O   UNL A   1      46.179  22.498  25.815  1.00  0.00    -0.744 OA
ENDBRANCH  86  87
ENDBRANCH  54  79
BRANCH  66  91
ATOM     91  C   UNL A   1      46.644  28.027  34.556  1.00  0.00     0.058 A 
ATOM     92  C   UNL A   1      46.683  26.973  35.482  1.00  0.00     0.135 A 
ATOM     93  C   UNL A   1      47.855  28.669  34.244  1.00  0.00     0.135 A 
ATOM     94  F   UNL A   1      45.555  26.330  35.821  1.00  0.00    -0.206 F 
ATOM     95  C   UNL A   1      47.871  26.586  36.094  1.00  0.00     0.059 A 
ATOM     96  C   UNL A   1      49.059  28.279  34.820  1.00  0.00     0.059 A 
ATOM     97  F   UNL A   1      47.877  29.676  33.356  1.00  0.00    -0.206 F 
ATOM     98  C   UNL A   1      49.055  27.244  35.754  1.00  0.00     0.060 A 
BRANCH  98  99
ATOM     99  S   UNL A   1      50.596  26.708  36.527  1.00  0.00     0.124 S 
ATOM    100  O   UNL A   1      50.508  27.350  37.834  1.00  0.00    -0.237 OA
ATOM    101  O   UNL A   1      50.458  25.255  36.524  1.00  0.00    -0.237 OA
ATOM    102  O   UNL A   1      51.626  27.234  35.636  1.00  0.00    -0.744 OA
ENDBRANCH  98  99
ENDBRANCH  66  91
ENDBRANCH  40  41
ENDBRANCH  32  35
ENDBRANCH  30  31
ENDBRANCH  29  30
ENDBRANCH   1  29
TORSDOF 19
ENDMDL
MODEL 3
REMARK VINA RESULT:     -11.0      1.581      8.717
REMARK SMILES COc1ccc(-c2nc(SCC(=O)NCCCCNC(=O)c3ccc(-c4c5nc(c(-c6c(F)cc(S(=O)(=O)[O-])cc6F)c6ccc([nH]6)c(-c6c(F)cc(S(=O)(=O)[O-])cc6F)c6nc(c(-c7c(F)cc(S(=O)(=O)[O-])cc7F)c7ccc4[nH]7)C=C6)C=C5)cc3)cc(-c3ccncc3)n2)cc1
REMARK SMILES IDX 16 1 15 2 14 3 12 4 13 5 11 7 10 8 9 9 7 10 8 11 96 12 89 13
REMARK SMILES IDX 88 14 6 15 3 16 4 17 98 18 5 19 97 20 2 21 1 22 90 23 91 24
REMARK SMILES IDX 95 25 92 26 94 27 93 28 17 29 18 30 19 31 20 32 21 34 22 35
REMARK SMILES IDX 23 36 87 37 24 38 86 39 25 40 26 41 27 42 80 43 28 44 85 45
REMARK SMILES IDX 79 46 81 47 29 48 84 49 78 50 77 51 30 53 64 54 43 55 63 56
REMARK SMILES IDX 44 57 47 58 62 59 82 60 45 61 46 62 61 64 83 65 48 66 31 67
REMARK SMILES IDX 32 68 41 69 33 70 34 71 40 72 42 73 35 74 36 75 37 76 38 77
REMARK SMILES IDX 39 78 65 79 66 80 75 81 67 82 68 83 74 84 76 85 69 86 70 87
REMARK SMILES IDX 71 88 72 89 73 90 49 91 50 92 59 93 51 94 52 95 58 96 60 97
REMARK SMILES IDX 53 98 54 99 55 100 56 101 57 102
REMARK H PARENT 14 6 19 33 81 52 47 63
REMARK Flexibility Score: inf
ROOT
ATOM      1  C   UNL A   1      33.675  27.728  23.871  1.00  0.00     0.023 C 
ENDROOT
BRANCH   1   2
ATOM      2  C   UNL A   1      33.156  26.818  22.759  1.00  0.00     0.116 C 
BRANCH   2   3
ATOM      3  N   UNL A   1      31.832  26.314  23.068  1.00  0.00    -0.355 N 
ATOM      4  C   UNL A   1      31.376  25.034  23.079  1.00  0.00     0.230 C 
ATOM      5  O   UNL A   1      30.171  24.852  23.281  1.00  0.00    -0.274 OA
ATOM      6  H   UNL A   1      31.166  27.000  23.304  1.00  0.00     0.163 HD
BRANCH   4   7
ATOM      7  C   UNL A   1      32.321  23.857  22.926  1.00  0.00     0.176 C 
BRANCH   7   8
ATOM      8  S   UNL A   1      31.544  22.219  23.074  1.00  0.00    -0.096 SA
BRANCH   8   9
ATOM      9  C   UNL A   1      32.779  21.178  23.814  1.00  0.00     0.101 A 
ATOM     10  C   UNL A   1      34.866  21.140  24.774  1.00  0.00     0.161 A 
ATOM     11  N   UNL A   1      33.870  21.851  24.219  1.00  0.00    -0.222 NA
ATOM     12  N   UNL A   1      34.851  19.810  24.959  1.00  0.00    -0.228 NA
ATOM     13  C   UNL A   1      33.735  19.170  24.563  1.00  0.00     0.076 A 
ATOM     14  C   UNL A   1      32.656  19.825  24.002  1.00  0.00     0.064 A 
BRANCH  10  15
ATOM     15  C   UNL A   1      36.039  21.889  25.237  1.00  0.00     0.019 A 
ATOM     16  C   UNL A   1      38.301  23.367  26.081  1.00  0.00     0.118 A 
ATOM     17  C   UNL A   1      37.041  23.963  26.045  1.00  0.00     0.047 A 
ATOM     18  C   UNL A   1      38.432  22.027  25.721  1.00  0.00     0.047 A 
ATOM     19  C   UNL A   1      35.926  23.239  25.611  1.00  0.00     0.016 A 
ATOM     20  C   UNL A   1      37.308  21.294  25.311  1.00  0.00     0.016 A 
BRANCH  16  21
ATOM     21  O   UNL A   1      39.316  24.170  26.525  1.00  0.00    -0.497 OA
ATOM     22  C   UNL A   1      40.533  23.501  26.839  1.00  0.00     0.278 C 
ENDBRANCH  16  21
ENDBRANCH  10  15
BRANCH  13  23
ATOM     23  C   UNL A   1      33.691  17.724  24.785  1.00  0.00     0.003 A 
ATOM     24  C   UNL A   1      32.501  17.086  25.160  1.00  0.00     0.030 A 
ATOM     25  C   UNL A   1      34.850  16.950  24.691  1.00  0.00     0.030 A 
ATOM     26  C   UNL A   1      32.528  15.730  25.437  1.00  0.00     0.111 A 
ATOM     27  C   UNL A   1      34.780  15.602  25.000  1.00  0.00     0.111 A 
ATOM     28  N   UNL A   1      33.646  14.976  25.379  1.00  0.00    -0.265 NA
ENDBRANCH  13  23
ENDBRANCH   8   9
ENDBRANCH   7   8
ENDBRANCH   4   7
ENDBRANCH   2   3
ENDBRANCH   1   2
BRANCH   1  29
ATOM     29  C   UNL A   1      33.387  27.232  25.293  1.00  0.00     0.023 C 
BRANCH  29  30
ATOM     30  C   UNL A   1      34.206  27.895  26.397  1.00  0.00     0.116 C 
BRANCH  30  31
ATOM     31  N   UNL A   1      33.852  29.291  26.603  1.00  0.00    -0.352 N 
ATOM     32  C   UNL A   1      34.488  30.244  27.360  1.00  0.00     0.251 C 
ATOM     33  H   UNL A   1      33.043  29.596  26.132  1.00  0.00     0.163 HD
ATOM     34  O   UNL A   1      33.964  31.343  27.523  1.00  0.00    -0.269 OA
BRANCH  32  35
ATOM     35  C   UNL A   1      35.784  29.936  28.005  1.00  0.00     0.039 A 
ATOM     36  C   UNL A   1      36.964  30.185  27.299  1.00  0.00     0.014 A 
ATOM     37  C   UNL A   1      35.841  29.414  29.301  1.00  0.00     0.014 A 
ATOM     38  C   UNL A   1      38.200  29.976  27.916  1.00  0.00     0.010 A 
ATOM     39  C   UNL A   1      37.071  29.273  29.938  1.00  0.00     0.010 A 
ATOM     40  C   UNL A   1      38.264  29.554  29.254  1.00  0.00    -0.014 A 
BRANCH  40  41
ATOM     41  C   UNL A   1      39.566  29.416  29.958  1.00  0.00     0.031 A 
ATOM     42  C   UNL A   1      40.582  28.412  29.485  1.00  0.00     0.074 A 
ATOM     43  C   UNL A   1      39.807  30.150  31.063  1.00  0.00     0.049 A 
ATOM     44  N   UNL A   1      41.743  28.104  30.004  1.00  0.00    -0.248 NA
ATOM     45  C   UNL A   1      40.237  27.631  28.286  1.00  0.00     0.031 C 
ATOM     46  C   UNL A   1      38.884  31.125  31.649  1.00  0.00     0.029 A 
ATOM     47  N   UNL A   1      40.897  30.184  31.898  1.00  0.00    -0.354 N 
ATOM     48  C   UNL A   1      42.258  27.086  29.210  1.00  0.00     0.074 A 
ATOM     49  C   UNL A   1      41.261  26.795  28.202  1.00  0.00     0.031 C 
ATOM     50  C   UNL A   1      39.457  31.679  32.729  1.00  0.00     0.029 A 
ATOM     51  C   UNL A   1      40.767  31.073  32.941  1.00  0.00     0.049 A 
ATOM     52  H   UNL A   1      41.696  29.626  31.763  1.00  0.00     0.167 HD
ATOM     53  C   UNL A   1      43.459  26.466  29.299  1.00  0.00     0.037 A 
ATOM     54  C   UNL A   1      41.605  31.361  33.956  1.00  0.00     0.037 A 
ATOM     55  C   UNL A   1      44.458  26.780  30.288  1.00  0.00     0.049 A 
ATOM     56  C   UNL A   1      42.931  30.655  34.036  1.00  0.00     0.074 A 
ATOM     57  C   UNL A   1      45.732  26.258  30.418  1.00  0.00     0.029 A 
ATOM     58  N   UNL A   1      44.294  27.694  31.320  1.00  0.00    -0.354 N 
ATOM     59  N   UNL A   1      43.432  29.746  33.232  1.00  0.00    -0.248 NA
ATOM     60  C   UNL A   1      43.810  31.016  35.158  1.00  0.00     0.031 C 
ATOM     61  C   UNL A   1      46.320  26.817  31.558  1.00  0.00     0.029 A 
ATOM     62  C   UNL A   1      45.434  27.729  32.107  1.00  0.00     0.049 A 
ATOM     63  H   UNL A   1      43.486  28.236  31.470  1.00  0.00     0.167 HD
ATOM     64  C   UNL A   1      44.695  29.449  33.734  1.00  0.00     0.074 A 
ATOM     65  C   UNL A   1      44.886  30.282  34.903  1.00  0.00     0.031 C 
ATOM     66  C   UNL A   1      45.614  28.568  33.266  1.00  0.00     0.037 A 
BRANCH  53  67
ATOM     67  C   UNL A   1      43.762  25.379  28.303  1.00  0.00     0.058 A 
ATOM     68  C   UNL A   1      43.596  24.020  28.617  1.00  0.00     0.135 A 
ATOM     69  C   UNL A   1      44.189  25.701  27.004  1.00  0.00     0.135 A 
ATOM     70  F   UNL A   1      43.203  23.654  29.847  1.00  0.00    -0.206 F 
ATOM     71  C   UNL A   1      43.873  23.020  27.692  1.00  0.00     0.059 A 
ATOM     72  C   UNL A   1      44.443  24.717  26.052  1.00  0.00     0.059 A 
ATOM     73  F   UNL A   1      44.363  26.983  26.648  1.00  0.00    -0.206 F 
ATOM     74  C   UNL A   1      44.297  23.378  26.411  1.00  0.00     0.060 A 
BRANCH  74  75
ATOM     75  S   UNL A   1      44.653  22.067  25.222  1.00  0.00     0.124 S 
ATOM     76  O   UNL A   1      44.654  22.809  23.964  1.00  0.00    -0.237 OA
ATOM     77  O   UNL A   1      45.953  21.582  25.672  1.00  0.00    -0.237 OA
ATOM     78  O   UNL A   1      43.544  21.136  25.399  1.00  0.00    -0.744 OA
ENDBRANCH  74  75
ENDBRANCH  53  67
BRANCH  54  79
ATOM     79  C   UNL A   1      41.228  32.388  34.964  1.00  0.00     0.058 A 
ATOM     80  C   UNL A   1      40.510  32.036  36.116  1.00  0.00     0.135 A 
ATOM     81  C   UNL A   1      41.585  33.737  34.804  1.00  0.00     0.135 A 
ATOM     82  F   UNL A   1      40.139  30.761  36.311  1.00  0.00    -0.206 F 
ATOM     83  C   UNL A   1      40.145  32.982  37.066  1.00  0.00     0.059 A 
ATOM     84  C   UNL A   1      41.254  34.698  35.754  1.00  0.00     0.059 A 
ATOM     85  F   UNL A   1      42.287  34.124  33.728  1.00  0.00    -0.206 F 
ATOM     86  C   UNL A   1      40.525  34.312  36.878  1.00  0.00     0.060 A 
BRANCH  86  87
ATOM     87  S   UNL A   1      40.088  35.525  38.143  1.00  0.00     0.124 S 
ATOM     88  O   UNL A   1      38.855  34.961  38.677  1.00  0.00    -0.237 OA
ATOM     89  O   UNL A   1      41.249  35.475  39.028  1.00  0.00    -0.237 OA
ATOM     90  O   UNL A   1      39.941  36.763  37.384  1.00  0.00    -0.744 OA
ENDBRANCH  86  87
ENDBRANCH  54  79
BRANCH  66  91
ATOM     91  C   UNL A   1      46.928  28.484  33.993  1.00  0.00     0.058 A 
ATOM     92  C   UNL A   1      47.138  27.574  35.041  1.00  0.00     0.135 A 
ATOM     93  C   UNL A   1      48.010  29.290  33.599  1.00  0.00     0.135 A 
ATOM     94  F   UNL A   1      46.137  26.785  35.461  1.00  0.00    -0.206 F 
ATOM     95  C   UNL A   1      48.366  27.482  35.689  1.00  0.00     0.059 A 
ATOM     96  C   UNL A   1      49.254  29.194  34.213  1.00  0.00     0.059 A 
ATOM     97  F   UNL A   1      47.867  30.171  32.596  1.00  0.00    -0.206 F 
ATOM     98  C   UNL A   1      49.419  28.295  35.265  1.00  0.00     0.060 A 
BRANCH  98  99
ATOM     99  S   UNL A   1      51.018  28.141  36.090  1.00  0.00     0.124 S 
ATOM    100  O   UNL A   1      51.796  29.177  35.419  1.00  0.00    -0.237 OA
ATOM    101  O   UNL A   1      50.677  28.407  37.484  1.00  0.00    -0.237 OA
ATOM    102  O   UNL A   1      51.420  26.768  35.800  1.00  0.00    -0.744 OA
ENDBRANCH  98  99
ENDBRANCH  66  91
ENDBRANCH  40  41
ENDBRANCH  32  35
ENDBRANCH  30  31
ENDBRANCH  29  30
ENDBRANCH   1  29
TORSDOF 19
ENDMDL
