MODEL 1
REMARK VINA RESULT:     -11.3      0.000      0.000
REMARK SMILES C[C@H](CC(=O)NCCCCNC(=O)c1ccc(-c2c3nc(c(-c4c(F)cc(S(=O)(=O)[O-])cc4F)c4ccc([nH]4)c(-c4c(F)cc(S(=O)(=O)[O-])cc4F)c4nc(c(-c5c(F)cc(S(=O)(=O)[O-])cc5F)c5ccc2[nH]5)C=C4)C=C3)cc1)NC(=O)Cc1cn2ccsc2n1
REMARK SMILES IDX 8 1 7 2 6 3 4 4 5 5 3 7 2 8 1 9 80 10 81 11 82 13 83 14
REMARK SMILES IDX 84 15 85 16 91 17 86 18 90 19 87 20 89 21 88 22 9 23 10 24
REMARK SMILES IDX 11 25 12 26 13 28 14 29 15 30 79 31 16 32 78 33 17 34 18 35
REMARK SMILES IDX 19 36 72 37 20 38 77 39 71 40 73 41 21 42 76 43 70 44 69 45
REMARK SMILES IDX 22 47 56 48 35 49 55 50 36 51 39 52 54 53 74 54 37 55 38 56
REMARK SMILES IDX 53 58 75 59 40 60 23 61 24 62 33 63 25 64 26 65 32 66 34 67
REMARK SMILES IDX 27 68 28 69 29 70 30 71 31 72 57 73 58 74 67 75 59 76 60 77
REMARK SMILES IDX 66 78 68 79 61 80 62 81 63 82 64 83 65 84 41 85 42 86 51 87
REMARK SMILES IDX 43 88 44 89 50 90 52 91 45 92 46 93 47 94 48 95 49 96
REMARK H PARENT 6 6 80 12 11 27 73 46 39 57
REMARK Flexibility Score: inf
ROOT
ATOM      1  C   UNL A   1      37.810  22.604  25.203  1.00  0.00     0.023 C 
ENDROOT
BRANCH   1   2
ATOM      2  C   UNL A   1      36.622  21.644  25.138  1.00  0.00     0.116 C 
BRANCH   2   3
ATOM      3  N   UNL A   1      35.812  21.786  26.328  1.00  0.00    -0.356 N 
ATOM      4  C   UNL A   1      34.499  22.133  26.409  1.00  0.00     0.222 C 
ATOM      5  O   UNL A   1      33.993  22.293  27.520  1.00  0.00    -0.275 OA
ATOM      6  H   UNL A   1      36.266  21.608  27.184  1.00  0.00     0.163 HD
BRANCH   4   7
ATOM      7  C   UNL A   1      33.679  22.259  25.141  1.00  0.00     0.124 C 
BRANCH   7   8
ATOM      8  C   UNL A   1      32.351  21.468  25.046  1.00  0.00     0.088 C 
ATOM      9  C   UNL A   1      32.595  19.959  25.043  1.00  0.00     0.031 C 
BRANCH   8  10
ATOM     10  N   UNL A   1      31.373  21.794  26.096  1.00  0.00    -0.353 N 
ATOM     11  C   UNL A   1      30.797  22.958  26.505  1.00  0.00     0.226 C 
ATOM     12  H   UNL A   1      31.072  21.008  26.608  1.00  0.00     0.163 HD
ATOM     13  O   UNL A   1      30.354  22.993  27.659  1.00  0.00    -0.275 OA
BRANCH  11  14
ATOM     14  C   UNL A   1      30.552  24.096  25.546  1.00  0.00     0.157 C 
BRANCH  14  15
ATOM     15  C   UNL A   1      31.328  25.329  25.822  1.00  0.00     0.070 A 
ATOM     16  C   UNL A   1      32.691  25.561  25.662  1.00  0.00     0.118 A 
ATOM     17  N   UNL A   1      30.721  26.418  26.405  1.00  0.00    -0.223 NA
ATOM     18  N   UNL A   1      32.892  26.806  26.181  1.00  0.00    -0.297 N 
ATOM     19  C   UNL A   1      31.683  27.267  26.591  1.00  0.00     0.193 A 
ATOM     20  C   UNL A   1      33.944  27.657  26.415  1.00  0.00     0.104 A 
ATOM     21  S   UNL A   1      31.793  28.834  27.314  1.00  0.00    -0.105 S 
ATOM     22  C   UNL A   1      33.537  28.790  27.018  1.00  0.00     0.087 A 
ENDBRANCH  14  15
ENDBRANCH  11  14
ENDBRANCH   8  10
ENDBRANCH   7   8
ENDBRANCH   4   7
ENDBRANCH   2   3
ENDBRANCH   1   2
BRANCH   1  23
ATOM     23  C   UNL A   1      37.674  23.707  26.230  1.00  0.00     0.023 C 
BRANCH  23  24
ATOM     24  C   UNL A   1      38.961  23.997  26.961  1.00  0.00     0.116 C 
BRANCH  24  25
ATOM     25  N   UNL A   1      40.071  24.262  26.055  1.00  0.00    -0.352 N 
ATOM     26  C   UNL A   1      40.983  25.285  26.130  1.00  0.00     0.251 C 
ATOM     27  H   UNL A   1      40.180  23.636  25.303  1.00  0.00     0.163 HD
ATOM     28  O   UNL A   1      41.756  25.513  25.201  1.00  0.00    -0.269 OA
BRANCH  26  29
ATOM     29  C   UNL A   1      40.984  26.126  27.340  1.00  0.00     0.039 A 
ATOM     30  C   UNL A   1      41.823  27.236  27.398  1.00  0.00     0.014 A 
ATOM     31  C   UNL A   1      40.072  25.864  28.367  1.00  0.00     0.014 A 
ATOM     32  C   UNL A   1      41.708  28.114  28.474  1.00  0.00     0.010 A 
ATOM     33  C   UNL A   1      39.861  26.814  29.352  1.00  0.00     0.010 A 
ATOM     34  C   UNL A   1      40.700  27.931  29.438  1.00  0.00    -0.014 A 
BRANCH  34  35
ATOM     35  C   UNL A   1      40.538  28.871  30.573  1.00  0.00     0.031 A 
ATOM     36  C   UNL A   1      41.416  28.727  31.787  1.00  0.00     0.074 A 
ATOM     37  C   UNL A   1      39.590  29.827  30.524  1.00  0.00     0.049 A 
ATOM     38  N   UNL A   1      41.415  29.428  32.891  1.00  0.00    -0.248 NA
ATOM     39  C   UNL A   1      42.408  27.637  31.773  1.00  0.00     0.031 C 
ATOM     40  C   UNL A   1      38.654  30.036  29.416  1.00  0.00     0.029 A 
ATOM     41  N   UNL A   1      39.254  30.803  31.427  1.00  0.00    -0.354 N 
ATOM     42  C   UNL A   1      42.397  28.864  33.695  1.00  0.00     0.074 A 
ATOM     43  C   UNL A   1      42.918  27.716  32.991  1.00  0.00     0.031 C 
ATOM     44  C   UNL A   1      37.883  31.101  29.686  1.00  0.00     0.029 A 
ATOM     45  C   UNL A   1      38.224  31.612  31.009  1.00  0.00     0.049 A 
ATOM     46  H   UNL A   1      39.710  30.914  32.294  1.00  0.00     0.167 HD
ATOM     47  C   UNL A   1      42.844  29.284  34.901  1.00  0.00     0.037 A 
ATOM     48  C   UNL A   1      37.613  32.641  31.630  1.00  0.00     0.037 A 
ATOM     49  C   UNL A   1      42.316  30.429  35.593  1.00  0.00     0.049 A 
ATOM     50  C   UNL A   1      38.092  33.052  32.997  1.00  0.00     0.074 A 
ATOM     51  C   UNL A   1      42.722  30.960  36.803  1.00  0.00     0.029 A 
ATOM     52  N   UNL A   1      41.258  31.210  35.148  1.00  0.00    -0.354 N 
ATOM     53  N   UNL A   1      39.063  32.545  33.719  1.00  0.00    -0.248 NA
ATOM     54  C   UNL A   1      37.396  34.179  33.632  1.00  0.00     0.031 C 
ATOM     55  C   UNL A   1      41.856  32.005  37.133  1.00  0.00     0.029 A 
ATOM     56  C   UNL A   1      40.974  32.194  36.081  1.00  0.00     0.049 A 
ATOM     57  H   UNL A   1      40.781  31.082  34.297  1.00  0.00     0.167 HD
ATOM     58  C   UNL A   1      39.122  33.320  34.874  1.00  0.00     0.074 A 
ATOM     59  C   UNL A   1      38.097  34.333  34.745  1.00  0.00     0.031 C 
ATOM     60  C   UNL A   1      39.955  33.205  35.939  1.00  0.00     0.037 A 
BRANCH  47  61
ATOM     61  C   UNL A   1      43.946  28.493  35.555  1.00  0.00     0.058 A 
ATOM     62  C   UNL A   1      45.303  28.762  35.311  1.00  0.00     0.135 A 
ATOM     63  C   UNL A   1      43.639  27.473  36.471  1.00  0.00     0.135 A 
ATOM     64  F   UNL A   1      45.660  29.712  34.432  1.00  0.00    -0.206 F 
ATOM     65  C   UNL A   1      46.313  28.032  35.929  1.00  0.00     0.059 A 
ATOM     66  C   UNL A   1      44.631  26.760  37.134  1.00  0.00     0.059 A 
ATOM     67  F   UNL A   1      42.360  27.168  36.740  1.00  0.00    -0.206 F 
ATOM     68  C   UNL A   1      45.967  27.039  36.846  1.00  0.00     0.060 A 
BRANCH  68  69
ATOM     69  S   UNL A   1      47.291  26.123  37.660  1.00  0.00     0.124 S 
ATOM     70  O   UNL A   1      48.435  26.443  36.811  1.00  0.00    -0.237 OA
ATOM     71  O   UNL A   1      47.303  26.721  38.991  1.00  0.00    -0.237 OA
ATOM     72  O   UNL A   1      46.836  24.737  37.601  1.00  0.00    -0.744 OA
ENDBRANCH  68  69
ENDBRANCH  47  61
BRANCH  48  73
ATOM     73  C   UNL A   1      36.485  33.354  30.968  1.00  0.00     0.058 A 
ATOM     74  C   UNL A   1      36.700  34.191  29.863  1.00  0.00     0.135 A 
ATOM     75  C   UNL A   1      35.168  33.222  31.437  1.00  0.00     0.135 A 
ATOM     76  F   UNL A   1      37.940  34.359  29.378  1.00  0.00    -0.206 F 
ATOM     77  C   UNL A   1      35.658  34.893  29.264  1.00  0.00     0.059 A 
ATOM     78  C   UNL A   1      34.105  33.881  30.831  1.00  0.00     0.059 A 
ATOM     79  F   UNL A   1      34.901  32.425  32.483  1.00  0.00    -0.206 F 
ATOM     80  C   UNL A   1      34.361  34.724  29.751  1.00  0.00     0.060 A 
BRANCH  80  81
ATOM     81  S   UNL A   1      33.011  35.600  28.934  1.00  0.00     0.124 S 
ATOM     82  O   UNL A   1      33.731  36.630  28.193  1.00  0.00    -0.237 OA
ATOM     83  O   UNL A   1      32.407  34.541  28.133  1.00  0.00    -0.237 OA
ATOM     84  O   UNL A   1      32.197  36.078  30.048  1.00  0.00    -0.744 OA
ENDBRANCH  80  81
ENDBRANCH  48  73
BRANCH  60  85
ATOM     85  C   UNL A   1      39.843  34.241  37.028  1.00  0.00     0.058 A 
ATOM     86  C   UNL A   1      39.056  34.046  38.175  1.00  0.00     0.135 A 
ATOM     87  C   UNL A   1      40.579  35.435  36.939  1.00  0.00     0.135 A 
ATOM     88  F   UNL A   1      38.329  32.926  38.315  1.00  0.00    -0.206 F 
ATOM     89  C   UNL A   1      38.971  35.014  39.171  1.00  0.00     0.059 A 
ATOM     90  C   UNL A   1      40.547  36.394  37.945  1.00  0.00     0.059 A 
ATOM     91  F   UNL A   1      41.360  35.672  35.872  1.00  0.00    -0.206 F 
ATOM     92  C   UNL A   1      39.727  36.181  39.050  1.00  0.00     0.060 A 
BRANCH  92  93
ATOM     93  S   UNL A   1      39.634  37.411  40.368  1.00  0.00     0.124 S 
ATOM     94  O   UNL A   1      38.295  37.957  40.168  1.00  0.00    -0.237 OA
ATOM     95  O   UNL A   1      39.813  36.595  41.564  1.00  0.00    -0.237 OA
ATOM     96  O   UNL A   1      40.733  38.322  40.065  1.00  0.00    -0.744 OA
ENDBRANCH  92  93
ENDBRANCH  60  85
ENDBRANCH  34  35
ENDBRANCH  26  29
ENDBRANCH  24  25
ENDBRANCH  23  24
ENDBRANCH   1  23
TORSDOF 18
ENDMDL
MODEL 2
REMARK VINA RESULT:     -11.2      1.936      3.456
REMARK SMILES C[C@H](CC(=O)NCCCCNC(=O)c1ccc(-c2c3nc(c(-c4c(F)cc(S(=O)(=O)[O-])cc4F)c4ccc([nH]4)c(-c4c(F)cc(S(=O)(=O)[O-])cc4F)c4nc(c(-c5c(F)cc(S(=O)(=O)[O-])cc5F)c5ccc2[nH]5)C=C4)C=C3)cc1)NC(=O)Cc1cn2ccsc2n1
REMARK SMILES IDX 8 1 7 2 6 3 4 4 5 5 3 7 2 8 1 9 80 10 81 11 82 13 83 14
REMARK SMILES IDX 84 15 85 16 91 17 86 18 90 19 87 20 89 21 88 22 9 23 10 24
REMARK SMILES IDX 11 25 12 26 13 28 14 29 15 30 79 31 16 32 78 33 17 34 18 35
REMARK SMILES IDX 19 36 72 37 20 38 77 39 71 40 73 41 21 42 76 43 70 44 69 45
REMARK SMILES IDX 22 47 56 48 35 49 55 50 36 51 39 52 54 53 74 54 37 55 38 56
REMARK SMILES IDX 53 58 75 59 40 60 23 61 24 62 33 63 25 64 26 65 32 66 34 67
REMARK SMILES IDX 27 68 28 69 29 70 30 71 31 72 57 73 58 74 67 75 59 76 60 77
REMARK SMILES IDX 66 78 68 79 61 80 62 81 63 82 64 83 65 84 41 85 42 86 51 87
REMARK SMILES IDX 43 88 44 89 50 90 52 91 45 92 46 93 47 94 48 95 49 96
REMARK H PARENT 6 6 80 12 11 27 73 46 39 57
REMARK Flexibility Score: inf
ROOT
ATOM      1  C   UNL A   1      41.082  21.309  26.814  1.00  0.00     0.023 C 
ENDROOT
BRANCH   1   2
ATOM      2  C   UNL A   1      39.719  21.339  26.122  1.00  0.00     0.116 C 
BRANCH   2   3
ATOM      3  N   UNL A   1      39.003  22.536  26.502  1.00  0.00    -0.356 N 
ATOM      4  C   UNL A   1      37.935  23.105  25.878  1.00  0.00     0.222 C 
ATOM      5  O   UNL A   1      37.507  24.182  26.294  1.00  0.00    -0.275 OA
ATOM      6  H   UNL A   1      39.325  22.996  27.311  1.00  0.00     0.163 HD
BRANCH   4   7
ATOM      7  C   UNL A   1      37.267  22.378  24.728  1.00  0.00     0.124 C 
BRANCH   7   8
ATOM      8  C   UNL A   1      36.140  21.369  25.056  1.00  0.00     0.088 C 
ATOM      9  C   UNL A   1      36.626  19.925  24.933  1.00  0.00     0.031 C 
BRANCH   8  10
ATOM     10  N   UNL A   1      35.522  21.556  26.378  1.00  0.00    -0.353 N 
ATOM     11  C   UNL A   1      34.263  21.887  26.781  1.00  0.00     0.226 C 
ATOM     12  H   UNL A   1      36.145  21.410  27.126  1.00  0.00     0.163 HD
ATOM     13  O   UNL A   1      34.144  22.382  27.907  1.00  0.00    -0.275 OA
BRANCH  11  14
ATOM     14  C   UNL A   1      33.050  21.513  25.966  1.00  0.00     0.157 C 
BRANCH  14  15
ATOM     15  C   UNL A   1      32.983  20.089  25.558  1.00  0.00     0.070 A 
ATOM     16  C   UNL A   1      32.906  18.951  26.355  1.00  0.00     0.118 A 
ATOM     17  N   UNL A   1      33.098  19.739  24.232  1.00  0.00    -0.223 NA
ATOM     18  N   UNL A   1      32.998  17.910  25.478  1.00  0.00    -0.297 N 
ATOM     19  C   UNL A   1      33.095  18.443  24.235  1.00  0.00     0.193 A 
ATOM     20  C   UNL A   1      33.049  16.538  25.525  1.00  0.00     0.104 A 
ATOM     21  S   UNL A   1      33.261  17.229  23.015  1.00  0.00    -0.105 S 
ATOM     22  C   UNL A   1      33.190  16.008  24.295  1.00  0.00     0.087 A 
ENDBRANCH  14  15
ENDBRANCH  11  14
ENDBRANCH   8  10
ENDBRANCH   7   8
ENDBRANCH   4   7
ENDBRANCH   2   3
ENDBRANCH   1   2
BRANCH   1  23
ATOM     23  C   UNL A   1      41.174  22.163  28.061  1.00  0.00     0.023 C 
BRANCH  23  24
ATOM     24  C   UNL A   1      42.280  23.188  27.996  1.00  0.00     0.116 C 
BRANCH  24  25
ATOM     25  N   UNL A   1      42.466  23.724  26.653  1.00  0.00    -0.352 N 
ATOM     26  C   UNL A   1      42.176  24.992  26.215  1.00  0.00     0.251 C 
ATOM     27  H   UNL A   1      42.843  23.108  25.986  1.00  0.00     0.163 HD
ATOM     28  O   UNL A   1      42.199  25.268  25.017  1.00  0.00    -0.269 OA
BRANCH  26  29
ATOM     29  C   UNL A   1      41.799  26.004  27.218  1.00  0.00     0.039 A 
ATOM     30  C   UNL A   1      40.666  25.797  28.002  1.00  0.00     0.014 A 
ATOM     31  C   UNL A   1      42.635  27.101  27.445  1.00  0.00     0.014 A 
ATOM     32  C   UNL A   1      40.402  26.675  29.052  1.00  0.00     0.010 A 
ATOM     33  C   UNL A   1      42.451  27.879  28.575  1.00  0.00     0.010 A 
ATOM     34  C   UNL A   1      41.313  27.698  29.371  1.00  0.00    -0.014 A 
BRANCH  34  35
ATOM     35  C   UNL A   1      41.069  28.623  30.504  1.00  0.00     0.031 A 
ATOM     36  C   UNL A   1      41.906  28.507  31.749  1.00  0.00     0.074 A 
ATOM     37  C   UNL A   1      40.084  29.538  30.425  1.00  0.00     0.049 A 
ATOM     38  N   UNL A   1      41.835  29.201  32.856  1.00  0.00    -0.248 NA
ATOM     39  C   UNL A   1      42.943  27.460  31.767  1.00  0.00     0.031 C 
ATOM     40  C   UNL A   1      39.182  29.715  29.284  1.00  0.00     0.029 A 
ATOM     41  N   UNL A   1      39.674  30.493  31.319  1.00  0.00    -0.354 N 
ATOM     42  C   UNL A   1      42.809  28.673  33.693  1.00  0.00     0.074 A 
ATOM     43  C   UNL A   1      43.405  27.553  33.004  1.00  0.00     0.031 C 
ATOM     44  C   UNL A   1      38.357  30.745  29.530  1.00  0.00     0.029 A 
ATOM     45  C   UNL A   1      38.626  31.261  30.867  1.00  0.00     0.049 A 
ATOM     46  H   UNL A   1      40.092  30.618  32.203  1.00  0.00     0.167 HD
ATOM     47  C   UNL A   1      43.194  29.104  34.917  1.00  0.00     0.037 A 
ATOM     48  C   UNL A   1      37.950  32.259  31.470  1.00  0.00     0.037 A 
ATOM     49  C   UNL A   1      42.592  30.221  35.594  1.00  0.00     0.049 A 
ATOM     50  C   UNL A   1      38.360  32.681  32.856  1.00  0.00     0.074 A 
ATOM     51  C   UNL A   1      42.930  30.760  36.822  1.00  0.00     0.029 A 
ATOM     52  N   UNL A   1      41.519  30.959  35.114  1.00  0.00    -0.354 N 
ATOM     53  N   UNL A   1      39.324  32.211  33.611  1.00  0.00    -0.248 NA
ATOM     54  C   UNL A   1      37.594  33.773  33.470  1.00  0.00     0.031 C 
ATOM     55  C   UNL A   1      42.009  31.766  37.124  1.00  0.00     0.029 A 
ATOM     56  C   UNL A   1      41.159  31.924  36.041  1.00  0.00     0.049 A 
ATOM     57  H   UNL A   1      41.080  30.818  34.245  1.00  0.00     0.167 HD
ATOM     58  C   UNL A   1      39.308  32.979  34.771  1.00  0.00     0.074 A 
ATOM     59  C   UNL A   1      38.246  33.950  34.610  1.00  0.00     0.031 C 
ATOM     60  C   UNL A   1      40.104  32.892  35.866  1.00  0.00     0.037 A 
BRANCH  47  61
ATOM     61  C   UNL A   1      44.302  28.355  35.608  1.00  0.00     0.058 A 
ATOM     62  C   UNL A   1      45.657  28.665  35.396  1.00  0.00     0.135 A 
ATOM     63  C   UNL A   1      44.005  27.336  36.527  1.00  0.00     0.135 A 
ATOM     64  F   UNL A   1      46.005  29.617  34.515  1.00  0.00    -0.206 F 
ATOM     65  C   UNL A   1      46.673  27.974  36.047  1.00  0.00     0.059 A 
ATOM     66  C   UNL A   1      45.002  26.662  37.223  1.00  0.00     0.059 A 
ATOM     67  F   UNL A   1      42.730  26.992  36.767  1.00  0.00    -0.206 F 
ATOM     68  C   UNL A   1      46.335  26.981  36.966  1.00  0.00     0.060 A 
BRANCH  68  69
ATOM     69  S   UNL A   1      47.666  26.116  37.824  1.00  0.00     0.124 S 
ATOM     70  O   UNL A   1      47.569  26.684  39.165  1.00  0.00    -0.237 OA
ATOM     71  O   UNL A   1      47.258  24.721  37.695  1.00  0.00    -0.237 OA
ATOM     72  O   UNL A   1      48.859  26.492  37.071  1.00  0.00    -0.744 OA
ENDBRANCH  68  69
ENDBRANCH  47  61
BRANCH  48  73
ATOM     73  C   UNL A   1      36.818  32.928  30.770  1.00  0.00     0.058 A 
ATOM     74  C   UNL A   1      37.042  33.938  29.822  1.00  0.00     0.135 A 
ATOM     75  C   UNL A   1      35.486  32.580  31.045  1.00  0.00     0.135 A 
ATOM     76  F   UNL A   1      38.295  34.315  29.526  1.00  0.00    -0.206 F 
ATOM     77  C   UNL A   1      35.990  34.597  29.194  1.00  0.00     0.059 A 
ATOM     78  C   UNL A   1      34.419  33.195  30.401  1.00  0.00     0.059 A 
ATOM     79  F   UNL A   1      35.213  31.611  31.934  1.00  0.00    -0.206 F 
ATOM     80  C   UNL A   1      34.680  34.211  29.485  1.00  0.00     0.060 A 
BRANCH  80  81
ATOM     81  S   UNL A   1      33.325  35.038  28.625  1.00  0.00     0.124 S 
ATOM     82  O   UNL A   1      34.041  36.025  27.824  1.00  0.00    -0.237 OA
ATOM     83  O   UNL A   1      32.718  33.935  27.889  1.00  0.00    -0.237 OA
ATOM     84  O   UNL A   1      32.517  35.579  29.715  1.00  0.00    -0.744 OA
ENDBRANCH  80  81
ENDBRANCH  48  73
BRANCH  60  85
ATOM     85  C   UNL A   1      39.908  33.916  36.956  1.00  0.00     0.058 A 
ATOM     86  C   UNL A   1      40.442  35.212  36.876  1.00  0.00     0.135 A 
ATOM     87  C   UNL A   1      39.129  33.600  38.083  1.00  0.00     0.135 A 
ATOM     88  F   UNL A   1      41.196  35.571  35.825  1.00  0.00    -0.206 F 
ATOM     89  C   UNL A   1      40.244  36.143  37.892  1.00  0.00     0.059 A 
ATOM     90  C   UNL A   1      38.879  34.530  39.085  1.00  0.00     0.059 A 
ATOM     91  F   UNL A   1      38.582  32.380  38.208  1.00  0.00    -0.206 F 
ATOM     92  C   UNL A   1      39.454  35.794  38.989  1.00  0.00     0.060 A 
BRANCH  92  93
ATOM     93  S   UNL A   1      39.179  37.024  40.280  1.00  0.00     0.124 S 
ATOM     94  O   UNL A   1      38.556  38.109  39.526  1.00  0.00    -0.237 OA
ATOM     95  O   UNL A   1      38.303  36.310  41.203  1.00  0.00    -0.237 OA
ATOM     96  O   UNL A   1      40.521  37.301  40.781  1.00  0.00    -0.744 OA
ENDBRANCH  92  93
ENDBRANCH  60  85
ENDBRANCH  34  35
ENDBRANCH  26  29
ENDBRANCH  24  25
ENDBRANCH  23  24
ENDBRANCH   1  23
TORSDOF 18
ENDMDL
MODEL 3
REMARK VINA RESULT:     -11.2      6.278      8.486
REMARK SMILES C[C@H](CC(=O)NCCCCNC(=O)c1ccc(-c2c3nc(c(-c4c(F)cc(S(=O)(=O)[O-])cc4F)c4ccc([nH]4)c(-c4c(F)cc(S(=O)(=O)[O-])cc4F)c4nc(c(-c5c(F)cc(S(=O)(=O)[O-])cc5F)c5ccc2[nH]5)C=C4)C=C3)cc1)NC(=O)Cc1cn2ccsc2n1
REMARK SMILES IDX 8 1 7 2 6 3 4 4 5 5 3 7 2 8 1 9 80 10 81 11 82 13 83 14
REMARK SMILES IDX 84 15 85 16 91 17 86 18 90 19 87 20 89 21 88 22 9 23 10 24
REMARK SMILES IDX 11 25 12 26 13 28 14 29 15 30 79 31 16 32 78 33 17 34 18 35
REMARK SMILES IDX 19 36 72 37 20 38 77 39 71 40 73 41 21 42 76 43 70 44 69 45
REMARK SMILES IDX 22 47 56 48 35 49 55 50 36 51 39 52 54 53 74 54 37 55 38 56
REMARK SMILES IDX 53 58 75 59 40 60 23 61 24 62 33 63 25 64 26 65 32 66 34 67
REMARK SMILES IDX 27 68 28 69 29 70 30 71 31 72 57 73 58 74 67 75 59 76 60 77
REMARK SMILES IDX 66 78 68 79 61 80 62 81 63 82 64 83 65 84 41 85 42 86 51 87
REMARK SMILES IDX 43 88 44 89 50 90 52 91 45 92 46 93 47 94 48 95 49 96
REMARK H PARENT 6 6 80 12 11 27 73 46 39 57
REMARK Flexibility Score: inf
ROOT
ATOM      1  C   UNL A   1      37.582  21.137  25.106  1.00  0.00     0.023 C 
ENDROOT
BRANCH   1   2
ATOM      2  C   UNL A   1      36.121  20.690  25.070  1.00  0.00     0.116 C 
BRANCH   2   3
ATOM      3  N   UNL A   1      35.447  21.115  26.276  1.00  0.00    -0.356 N 
ATOM      4  C   UNL A   1      34.348  21.911  26.384  1.00  0.00     0.222 C 
ATOM      5  O   UNL A   1      33.963  22.244  27.505  1.00  0.00    -0.275 OA
ATOM      6  H   UNL A   1      35.829  20.788  27.123  1.00  0.00     0.163 HD
BRANCH   4   7
ATOM      7  C   UNL A   1      33.596  22.319  25.134  1.00  0.00     0.124 C 
BRANCH   7   8
ATOM      8  C   UNL A   1      32.197  21.703  24.887  1.00  0.00     0.088 C 
ATOM      9  C   UNL A   1      32.290  20.209  24.575  1.00  0.00     0.031 C 
BRANCH   8  10
ATOM     10  N   UNL A   1      31.241  21.904  25.986  1.00  0.00    -0.353 N 
ATOM     11  C   UNL A   1      30.577  22.997  26.456  1.00  0.00     0.226 C 
ATOM     12  H   UNL A   1      31.036  21.080  26.483  1.00  0.00     0.163 HD
ATOM     13  O   UNL A   1      30.184  22.957  27.628  1.00  0.00    -0.275 OA
BRANCH  11  14
ATOM     14  C   UNL A   1      30.186  24.134  25.546  1.00  0.00     0.157 C 
BRANCH  14  15
ATOM     15  C   UNL A   1      31.023  25.352  25.665  1.00  0.00     0.070 A 
ATOM     16  C   UNL A   1      32.262  25.624  25.091  1.00  0.00     0.118 A 
ATOM     17  N   UNL A   1      30.653  26.371  26.513  1.00  0.00    -0.223 NA
ATOM     18  N   UNL A   1      32.635  26.821  25.628  1.00  0.00    -0.297 N 
ATOM     19  C   UNL A   1      31.633  27.218  26.451  1.00  0.00     0.193 A 
ATOM     20  C   UNL A   1      33.716  27.667  25.583  1.00  0.00     0.104 A 
ATOM     21  S   UNL A   1      31.991  28.715  27.240  1.00  0.00    -0.105 S 
ATOM     22  C   UNL A   1      33.541  28.732  26.387  1.00  0.00     0.087 A 
ENDBRANCH  14  15
ENDBRANCH  11  14
ENDBRANCH   8  10
ENDBRANCH   7   8
ENDBRANCH   4   7
ENDBRANCH   2   3
ENDBRANCH   1   2
BRANCH   1  23
ATOM     23  C   UNL A   1      38.586  20.005  25.154  1.00  0.00     0.023 C 
BRANCH  23  24
ATOM     24  C   UNL A   1      39.762  20.295  26.054  1.00  0.00     0.116 C 
BRANCH  24  25
ATOM     25  N   UNL A   1      40.699  19.181  26.126  1.00  0.00    -0.352 N 
ATOM     26  C   UNL A   1      42.066  19.246  26.221  1.00  0.00     0.251 C 
ATOM     27  H   UNL A   1      40.306  18.279  26.104  1.00  0.00     0.163 HD
ATOM     28  O   UNL A   1      42.758  18.240  26.083  1.00  0.00    -0.269 OA
BRANCH  26  29
ATOM     29  C   UNL A   1      42.683  20.563  26.457  1.00  0.00     0.039 A 
ATOM     30  C   UNL A   1      43.176  21.289  25.375  1.00  0.00     0.014 A 
ATOM     31  C   UNL A   1      42.670  21.115  27.742  1.00  0.00     0.014 A 
ATOM     32  C   UNL A   1      43.615  22.596  25.582  1.00  0.00     0.010 A 
ATOM     33  C   UNL A   1      42.967  22.456  27.913  1.00  0.00     0.010 A 
ATOM     34  C   UNL A   1      43.476  23.202  26.843  1.00  0.00    -0.014 A 
BRANCH  34  35
ATOM     35  C   UNL A   1      43.905  24.602  27.077  1.00  0.00     0.031 A 
ATOM     36  C   UNL A   1      45.353  24.973  26.904  1.00  0.00     0.074 A 
ATOM     37  C   UNL A   1      43.005  25.524  27.472  1.00  0.00     0.049 A 
ATOM     38  N   UNL A   1      45.933  26.131  27.084  1.00  0.00    -0.248 NA
ATOM     39  C   UNL A   1      46.279  23.899  26.500  1.00  0.00     0.031 C 
ATOM     40  C   UNL A   1      41.582  25.270  27.711  1.00  0.00     0.029 A 
ATOM     41  N   UNL A   1      43.151  26.860  27.740  1.00  0.00    -0.354 N 
ATOM     42  C   UNL A   1      47.281  25.922  26.820  1.00  0.00     0.074 A 
ATOM     43  C   UNL A   1      47.449  24.515  26.545  1.00  0.00     0.031 C 
ATOM     44  C   UNL A   1      40.980  26.421  28.047  1.00  0.00     0.029 A 
ATOM     45  C   UNL A   1      41.981  27.481  28.108  1.00  0.00     0.049 A 
ATOM     46  H   UNL A   1      44.014  27.332  27.675  1.00  0.00     0.167 HD
ATOM     47  C   UNL A   1      48.283  26.830  26.780  1.00  0.00     0.037 A 
ATOM     48  C   UNL A   1      41.745  28.758  28.469  1.00  0.00     0.037 A 
ATOM     49  C   UNL A   1      48.103  28.230  27.057  1.00  0.00     0.049 A 
ATOM     50  C   UNL A   1      42.889  29.736  28.473  1.00  0.00     0.074 A 
ATOM     51  C   UNL A   1      49.047  29.240  27.010  1.00  0.00     0.029 A 
ATOM     52  N   UNL A   1      46.908  28.817  27.447  1.00  0.00    -0.354 N 
ATOM     53  N   UNL A   1      44.148  29.535  28.161  1.00  0.00    -0.248 NA
ATOM     54  C   UNL A   1      42.582  31.116  28.872  1.00  0.00     0.031 C 
ATOM     55  C   UNL A   1      48.445  30.418  27.457  1.00  0.00     0.029 A 
ATOM     56  C   UNL A   1      47.101  30.168  27.683  1.00  0.00     0.049 A 
ATOM     57  H   UNL A   1      46.050  28.343  27.543  1.00  0.00     0.167 HD
ATOM     58  C   UNL A   1      44.772  30.773  28.285  1.00  0.00     0.074 A 
ATOM     59  C   UNL A   1      43.749  31.714  28.687  1.00  0.00     0.031 C 
ATOM     60  C   UNL A   1      46.072  31.100  28.076  1.00  0.00     0.037 A 
BRANCH  47  61
ATOM     61  C   UNL A   1      49.665  26.335  26.443  1.00  0.00     0.058 A 
ATOM     62  C   UNL A   1      50.517  25.783  27.415  1.00  0.00     0.135 A 
ATOM     63  C   UNL A   1      50.130  26.377  25.119  1.00  0.00     0.135 A 
ATOM     64  F   UNL A   1      50.136  25.732  28.702  1.00  0.00    -0.206 F 
ATOM     65  C   UNL A   1      51.787  25.318  27.091  1.00  0.00     0.059 A 
ATOM     66  C   UNL A   1      51.378  25.878  24.764  1.00  0.00     0.059 A 
ATOM     67  F   UNL A   1      49.363  26.898  24.149  1.00  0.00    -0.206 F 
ATOM     68  C   UNL A   1      52.205  25.361  25.761  1.00  0.00     0.060 A 
BRANCH  68  69
ATOM     69  S   UNL A   1      53.844  24.726  25.355  1.00  0.00     0.124 S 
ATOM     70  O   UNL A   1      54.555  24.923  26.615  1.00  0.00    -0.237 OA
ATOM     71  O   UNL A   1      53.556  23.340  25.000  1.00  0.00    -0.237 OA
ATOM     72  O   UNL A   1      54.278  25.578  24.252  1.00  0.00    -0.744 OA
ENDBRANCH  68  69
ENDBRANCH  47  61
BRANCH  48  73
ATOM     73  C   UNL A   1      40.370  29.187  28.855  1.00  0.00     0.058 A 
ATOM     74  C   UNL A   1      39.393  29.460  27.886  1.00  0.00     0.135 A 
ATOM     75  C   UNL A   1      40.011  29.345  30.203  1.00  0.00     0.135 A 
ATOM     76  F   UNL A   1      39.684  29.332  26.583  1.00  0.00    -0.206 F 
ATOM     77  C   UNL A   1      38.121  29.901  28.237  1.00  0.00     0.059 A 
ATOM     78  C   UNL A   1      38.735  29.745  30.580  1.00  0.00     0.059 A 
ATOM     79  F   UNL A   1      40.902  29.086  31.173  1.00  0.00    -0.206 F 
ATOM     80  C   UNL A   1      37.798  30.032  29.589  1.00  0.00     0.060 A 
BRANCH  80  81
ATOM     81  S   UNL A   1      36.129  30.555  30.032  1.00  0.00     0.124 S 
ATOM     82  O   UNL A   1      36.272  32.006  30.066  1.00  0.00    -0.237 OA
ATOM     83  O   UNL A   1      35.342  30.016  28.928  1.00  0.00    -0.237 OA
ATOM     84  O   UNL A   1      35.907  29.913  31.325  1.00  0.00    -0.744 OA
ENDBRANCH  80  81
ENDBRANCH  48  73
BRANCH  60  85
ATOM     85  C   UNL A   1      46.459  32.550  28.213  1.00  0.00     0.058 A 
ATOM     86  C   UNL A   1      47.005  33.076  29.395  1.00  0.00     0.135 A 
ATOM     87  C   UNL A   1      46.320  33.420  27.117  1.00  0.00     0.135 A 
ATOM     88  F   UNL A   1      47.159  32.294  30.476  1.00  0.00    -0.206 F 
ATOM     89  C   UNL A   1      47.360  34.418  29.498  1.00  0.00     0.059 A 
ATOM     90  C   UNL A   1      46.714  34.752  27.183  1.00  0.00     0.059 A 
ATOM     91  F   UNL A   1      45.816  32.972  25.956  1.00  0.00    -0.206 F 
ATOM     92  C   UNL A   1      47.218  35.245  28.383  1.00  0.00     0.060 A 
BRANCH  92  93
ATOM     93  S   UNL A   1      47.716  36.974  28.522  1.00  0.00     0.124 S 
ATOM     94  O   UNL A   1      49.056  36.943  27.943  1.00  0.00    -0.237 OA
ATOM     95  O   UNL A   1      46.698  37.653  27.728  1.00  0.00    -0.237 OA
ATOM     96  O   UNL A   1      47.661  37.232  29.958  1.00  0.00    -0.744 OA
ENDBRANCH  92  93
ENDBRANCH  60  85
ENDBRANCH  34  35
ENDBRANCH  26  29
ENDBRANCH  24  25
ENDBRANCH  23  24
ENDBRANCH   1  23
TORSDOF 18
ENDMDL
