MODEL 1
REMARK VINA RESULT:     -13.6      0.000      0.000
REMARK SMILES Cc1n[nH]c2c1[C@@]1(C(=O)N([C@@H](C)C(=O)NCCCCNC(=O)c3ccc(-c4c5nc(c(-c6c(F)cc(S(=O)(=O)[O-])cc6F)c6ccc([nH]6)c(-c6c(F)cc(S(=O)(=O)[O-])cc6F)c6nc(c(-c7c(F)cc(S(=O)(=O)[O-])cc7F)c7ccc4[nH]7)C=C6)C=C5)cc3)c3ccccc31)C(C#N)=C(N)O2
REMARK SMILES IDX 18 1 17 2 16 3 15 4 13 5 14 6 11 8 12 9 10 10 1 11 2 12 3 13
REMARK SMILES IDX 6 14 4 15 5 16 7 17 100 19 8 20 94 21 95 22 98 23 9 24 89 25
REMARK SMILES IDX 93 26 90 27 92 28 91 29 96 30 97 31 99 32 19 35 20 36 21 37
REMARK SMILES IDX 22 39 23 40 24 41 88 42 25 43 87 44 26 45 27 46 28 47 81 48
REMARK SMILES IDX 29 49 86 50 80 51 82 52 30 53 85 54 79 55 78 56 31 58 65 59
REMARK SMILES IDX 44 60 64 61 45 62 48 63 63 64 83 65 46 66 47 67 62 69 84 70
REMARK SMILES IDX 49 71 32 72 33 73 42 74 34 75 35 76 41 77 43 78 36 79 37 80
REMARK SMILES IDX 38 81 39 82 40 83 66 84 67 85 76 86 68 87 69 88 75 89 77 90
REMARK SMILES IDX 70 91 71 92 72 93 73 94 74 95 50 96 51 97 60 98 52 99 53 100
REMARK SMILES IDX 59 101 61 102 54 103 55 104 56 105 57 106 58 107
REMARK H PARENT 15 7 4 18 99 33 99 34 20 38 82 57 48 68
REMARK Flexibility Score: inf
ROOT
ATOM      1  C   UNL A   1      39.715  21.956  26.353  1.00  0.00     0.023 C 
ENDROOT
BRANCH   1   2
ATOM      2  C   UNL A   1      39.250  23.314  26.872  1.00  0.00     0.023 C 
BRANCH   2   3
ATOM      3  C   UNL A   1      37.918  23.818  26.312  1.00  0.00     0.116 C 
BRANCH   3   4
ATOM      4  N   UNL A   1      37.078  22.737  25.827  1.00  0.00    -0.354 N 
ATOM      5  C   UNL A   1      35.745  22.489  25.918  1.00  0.00     0.242 C 
ATOM      6  O   UNL A   1      35.337  21.494  25.301  1.00  0.00    -0.273 OA
ATOM      7  H   UNL A   1      37.574  22.046  25.332  1.00  0.00     0.163 HD
BRANCH   5   8
ATOM      8  C   UNL A   1      34.729  23.326  26.736  1.00  0.00     0.176 C 
ATOM      9  C   UNL A   1      33.971  22.573  27.823  1.00  0.00     0.042 C 
BRANCH   8  10
ATOM     10  N   UNL A   1      33.901  24.195  25.905  1.00  0.00    -0.298 N 
ATOM     11  C   UNL A   1      33.174  22.963  22.353  1.00  0.00     0.069 C 
ATOM     12  C   UNL A   1      32.994  24.393  21.992  1.00  0.00     0.068 A 
ATOM     13  N   UNL A   1      32.878  24.734  20.697  1.00  0.00    -0.177 NA
ATOM     14  C   UNL A   1      33.007  25.537  22.831  1.00  0.00     0.063 A 
ATOM     15  N   UNL A   1      32.909  26.083  20.706  1.00  0.00    -0.246 N 
ATOM     16  C   UNL A   1      32.997  26.594  21.960  1.00  0.00     0.222 A 
ATOM     17  C   UNL A   1      33.215  25.793  24.288  1.00  0.00     0.149 C 
ATOM     18  H   UNL A   1      32.873  26.635  19.893  1.00  0.00     0.193 HD
ATOM     19  O   UNL A   1      33.142  27.882  22.234  1.00  0.00    -0.422 OA
ATOM     20  C   UNL A   1      34.360  24.904  24.795  1.00  0.00     0.248 C 
ATOM     21  C   UNL A   1      32.036  25.228  25.037  1.00  0.00     0.002 A 
ATOM     22  C   UNL A   1      33.466  27.277  24.562  1.00  0.00     0.114 C 
ATOM     23  C   UNL A   1      33.407  28.216  23.573  1.00  0.00     0.208 C 
ATOM     24  O   UNL A   1      35.446  24.764  24.239  1.00  0.00    -0.273 OA
ATOM     25  C   UNL A   1      32.501  24.337  26.016  1.00  0.00     0.050 A 
ATOM     26  C   UNL A   1      30.681  25.493  24.885  1.00  0.00     0.008 A 
ATOM     27  C   UNL A   1      31.617  23.694  26.864  1.00  0.00     0.027 A 
ATOM     28  C   UNL A   1      29.784  24.829  25.721  1.00  0.00     0.001 A 
ATOM     29  C   UNL A   1      30.248  23.940  26.703  1.00  0.00     0.002 A 
BRANCH  22  30
ATOM     30  C   UNL A   1      33.731  27.780  25.971  1.00  0.00     0.102 C 
ATOM     31  N   UNL A   1      33.951  28.196  27.141  1.00  0.00    -0.193 NA
ENDBRANCH  22  30
BRANCH  23  32
ATOM     32  N   UNL A   1      33.575  29.557  23.748  1.00  0.00    -0.369 N 
ATOM     33  H   UNL A   1      33.472  30.170  22.985  1.00  0.00     0.159 HD
ATOM     34  H   UNL A   1      33.801  29.913  24.637  1.00  0.00     0.159 HD
ENDBRANCH  23  32
ENDBRANCH   8  10
ENDBRANCH   5   8
ENDBRANCH   3   4
ENDBRANCH   2   3
ENDBRANCH   1   2
BRANCH   1  35
ATOM     35  C   UNL A   1      41.175  21.628  26.680  1.00  0.00     0.116 C 
BRANCH  35  36
ATOM     36  N   UNL A   1      42.112  22.076  25.665  1.00  0.00    -0.352 N 
ATOM     37  C   UNL A   1      42.769  23.249  25.412  1.00  0.00     0.251 C 
ATOM     38  H   UNL A   1      42.322  21.375  25.008  1.00  0.00     0.163 HD
ATOM     39  O   UNL A   1      43.613  23.211  24.511  1.00  0.00    -0.269 OA
BRANCH  37  40
ATOM     40  C   UNL A   1      42.531  24.540  26.116  1.00  0.00     0.039 A 
ATOM     41  C   UNL A   1      42.883  24.808  27.437  1.00  0.00     0.014 A 
ATOM     42  C   UNL A   1      41.842  25.536  25.394  1.00  0.00     0.014 A 
ATOM     43  C   UNL A   1      42.535  26.016  28.031  1.00  0.00     0.010 A 
ATOM     44  C   UNL A   1      41.501  26.754  25.981  1.00  0.00     0.010 A 
ATOM     45  C   UNL A   1      41.832  26.985  27.312  1.00  0.00    -0.014 A 
BRANCH  45  46
ATOM     46  C   UNL A   1      41.575  28.251  27.995  1.00  0.00     0.031 A 
ATOM     47  C   UNL A   1      42.663  29.262  27.870  1.00  0.00     0.074 A 
ATOM     48  C   UNL A   1      40.436  28.560  28.645  1.00  0.00     0.049 A 
ATOM     49  N   UNL A   1      43.421  29.745  28.801  1.00  0.00    -0.248 NA
ATOM     50  C   UNL A   1      43.014  29.716  26.516  1.00  0.00     0.031 C 
ATOM     51  C   UNL A   1      39.168  27.829  28.614  1.00  0.00     0.029 A 
ATOM     52  N   UNL A   1      40.150  29.656  29.411  1.00  0.00    -0.354 N 
ATOM     53  C   UNL A   1      44.213  30.711  28.185  1.00  0.00     0.074 A 
ATOM     54  C   UNL A   1      44.022  30.554  26.766  1.00  0.00     0.031 C 
ATOM     55  C   UNL A   1      38.199  28.601  29.153  1.00  0.00     0.029 A 
ATOM     56  C   UNL A   1      38.801  29.808  29.697  1.00  0.00     0.049 A 
ATOM     57  H   UNL A   1      40.840  30.281  29.731  1.00  0.00     0.167 HD
ATOM     58  C   UNL A   1      44.799  31.716  28.893  1.00  0.00     0.037 A 
ATOM     59  C   UNL A   1      38.210  30.865  30.304  1.00  0.00     0.037 A 
ATOM     60  C   UNL A   1      44.790  31.452  30.305  1.00  0.00     0.049 A 
ATOM     61  C   UNL A   1      39.231  31.562  31.123  1.00  0.00     0.074 A 
ATOM     62  C   UNL A   1      45.517  30.685  31.189  1.00  0.00     0.029 A 
ATOM     63  N   UNL A   1      43.657  31.858  30.953  1.00  0.00    -0.354 N 
ATOM     64  N   UNL A   1      39.807  31.038  32.170  1.00  0.00    -0.248 NA
ATOM     65  C   UNL A   1      39.836  32.798  30.634  1.00  0.00     0.031 C 
ATOM     66  C   UNL A   1      44.678  30.479  32.323  1.00  0.00     0.029 A 
ATOM     67  C   UNL A   1      43.465  31.127  32.097  1.00  0.00     0.049 A 
ATOM     68  H   UNL A   1      43.061  32.578  30.642  1.00  0.00     0.167 HD
ATOM     69  C   UNL A   1      41.049  31.635  32.218  1.00  0.00     0.074 A 
ATOM     70  C   UNL A   1      40.943  32.820  31.380  1.00  0.00     0.031 C 
ATOM     71  C   UNL A   1      42.141  30.952  32.658  1.00  0.00     0.037 A 
BRANCH  58  72
ATOM     72  C   UNL A   1      45.004  33.125  28.376  1.00  0.00     0.058 A 
ATOM     73  C   UNL A   1      46.313  33.613  28.179  1.00  0.00     0.135 A 
ATOM     74  C   UNL A   1      43.984  34.102  28.367  1.00  0.00     0.135 A 
ATOM     75  F   UNL A   1      47.363  32.774  28.181  1.00  0.00    -0.206 F 
ATOM     76  C   UNL A   1      46.593  34.975  28.043  1.00  0.00     0.059 A 
ATOM     77  C   UNL A   1      44.235  35.458  28.183  1.00  0.00     0.059 A 
ATOM     78  F   UNL A   1      42.709  33.798  28.640  1.00  0.00    -0.206 F 
ATOM     79  C   UNL A   1      45.546  35.892  28.064  1.00  0.00     0.060 A 
BRANCH  79  80
ATOM     80  S   UNL A   1      45.908  37.656  27.998  1.00  0.00     0.124 S 
ATOM     81  O   UNL A   1      44.796  38.211  28.763  1.00  0.00    -0.237 OA
ATOM     82  O   UNL A   1      47.219  37.723  28.636  1.00  0.00    -0.237 OA
ATOM     83  O   UNL A   1      45.899  37.947  26.567  1.00  0.00    -0.744 OA
ENDBRANCH  79  80
ENDBRANCH  58  72
BRANCH  59  84
ATOM     84  C   UNL A   1      36.875  31.458  30.039  1.00  0.00     0.058 A 
ATOM     85  C   UNL A   1      36.152  32.092  31.067  1.00  0.00     0.135 A 
ATOM     86  C   UNL A   1      36.418  31.686  28.725  1.00  0.00     0.135 A 
ATOM     87  F   UNL A   1      36.518  31.934  32.348  1.00  0.00    -0.206 F 
ATOM     88  C   UNL A   1      35.099  32.969  30.804  1.00  0.00     0.059 A 
ATOM     89  C   UNL A   1      35.358  32.543  28.439  1.00  0.00     0.059 A 
ATOM     90  F   UNL A   1      37.054  31.159  27.669  1.00  0.00    -0.206 F 
ATOM     91  C   UNL A   1      34.729  33.212  29.482  1.00  0.00     0.060 A 
BRANCH  91  92
ATOM     92  S   UNL A   1      33.521  34.510  29.132  1.00  0.00     0.124 S 
ATOM     93  O   UNL A   1      32.962  34.768  30.453  1.00  0.00    -0.237 OA
ATOM     94  O   UNL A   1      34.362  35.565  28.576  1.00  0.00    -0.237 OA
ATOM     95  O   UNL A   1      32.612  33.876  28.180  1.00  0.00    -0.744 OA
ENDBRANCH  91  92
ENDBRANCH  59  84
BRANCH  71  96
ATOM     96  C   UNL A   1      41.920  29.822  33.616  1.00  0.00     0.058 A 
ATOM     97  C   UNL A   1      41.661  28.496  33.236  1.00  0.00     0.135 A 
ATOM     98  C   UNL A   1      42.065  30.086  34.988  1.00  0.00     0.135 A 
ATOM     99  F   UNL A   1      41.587  28.151  31.943  1.00  0.00    -0.206 F 
ATOM    100  C   UNL A   1      41.524  27.480  34.183  1.00  0.00     0.059 A 
ATOM    101  C   UNL A   1      41.964  29.082  35.947  1.00  0.00     0.059 A 
ATOM    102  F   UNL A   1      42.357  31.328  35.407  1.00  0.00    -0.206 F 
ATOM    103  C   UNL A   1      41.683  27.782  35.537  1.00  0.00     0.060 A 
BRANCH 103 104
ATOM    104  S   UNL A   1      41.603  26.445  36.747  1.00  0.00     0.124 S 
ATOM    105  O   UNL A   1      42.874  26.588  37.449  1.00  0.00    -0.237 OA
ATOM    106  O   UNL A   1      40.412  26.788  37.519  1.00  0.00    -0.237 OA
ATOM    107  O   UNL A   1      41.477  25.245  35.922  1.00  0.00    -0.744 OA
ENDBRANCH 103 104
ENDBRANCH  71  96
ENDBRANCH  45  46
ENDBRANCH  37  40
ENDBRANCH  35  36
ENDBRANCH   1  35
TORSDOF 17
ENDMDL
MODEL 2
REMARK VINA RESULT:     -13.3      1.752      2.748
REMARK SMILES Cc1n[nH]c2c1[C@@]1(C(=O)N([C@@H](C)C(=O)NCCCCNC(=O)c3ccc(-c4c5nc(c(-c6c(F)cc(S(=O)(=O)[O-])cc6F)c6ccc([nH]6)c(-c6c(F)cc(S(=O)(=O)[O-])cc6F)c6nc(c(-c7c(F)cc(S(=O)(=O)[O-])cc7F)c7ccc4[nH]7)C=C6)C=C5)cc3)c3ccccc31)C(C#N)=C(N)O2
REMARK SMILES IDX 18 1 17 2 16 3 15 4 13 5 14 6 11 8 12 9 10 10 1 11 2 12 3 13
REMARK SMILES IDX 6 14 4 15 5 16 7 17 100 19 8 20 94 21 95 22 98 23 9 24 89 25
REMARK SMILES IDX 93 26 90 27 92 28 91 29 96 30 97 31 99 32 19 35 20 36 21 37
REMARK SMILES IDX 22 39 23 40 24 41 88 42 25 43 87 44 26 45 27 46 28 47 81 48
REMARK SMILES IDX 29 49 86 50 80 51 82 52 30 53 85 54 79 55 78 56 31 58 65 59
REMARK SMILES IDX 44 60 64 61 45 62 48 63 63 64 83 65 46 66 47 67 62 69 84 70
REMARK SMILES IDX 49 71 32 72 33 73 42 74 34 75 35 76 41 77 43 78 36 79 37 80
REMARK SMILES IDX 38 81 39 82 40 83 66 84 67 85 76 86 68 87 69 88 75 89 77 90
REMARK SMILES IDX 70 91 71 92 72 93 73 94 74 95 50 96 51 97 60 98 52 99 53 100
REMARK SMILES IDX 59 101 61 102 54 103 55 104 56 105 57 106 58 107
REMARK H PARENT 15 7 4 18 99 33 99 34 20 38 82 57 48 68
REMARK Flexibility Score: inf
ROOT
ATOM      1  C   UNL A   1      36.279  21.331  25.212  1.00  0.00     0.023 C 
ENDROOT
BRANCH   1   2
ATOM      2  C   UNL A   1      34.974  21.306  26.005  1.00  0.00     0.023 C 
BRANCH   2   3
ATOM      3  C   UNL A   1      33.840  22.165  25.443  1.00  0.00     0.116 C 
BRANCH   3   4
ATOM      4  N   UNL A   1      32.998  22.720  26.489  1.00  0.00    -0.354 N 
ATOM      5  C   UNL A   1      31.807  23.376  26.468  1.00  0.00     0.242 C 
ATOM      6  O   UNL A   1      31.316  23.639  27.575  1.00  0.00    -0.273 OA
ATOM      7  H   UNL A   1      33.363  22.597  27.395  1.00  0.00     0.163 HD
BRANCH   5   8
ATOM      8  C   UNL A   1      31.051  23.824  25.192  1.00  0.00     0.176 C 
ATOM      9  C   UNL A   1      31.153  22.885  23.995  1.00  0.00     0.042 C 
BRANCH   8  10
ATOM     10  N   UNL A   1      31.244  25.237  24.876  1.00  0.00    -0.298 N 
ATOM     11  C   UNL A   1      32.960  26.016  21.544  1.00  0.00     0.069 C 
ATOM     12  C   UNL A   1      33.388  27.295  22.168  1.00  0.00     0.068 A 
ATOM     13  N   UNL A   1      34.281  28.070  21.530  1.00  0.00    -0.177 NA
ATOM     14  C   UNL A   1      33.053  27.827  23.440  1.00  0.00     0.063 A 
ATOM     15  N   UNL A   1      34.579  29.036  22.424  1.00  0.00    -0.246 N 
ATOM     16  C   UNL A   1      33.873  28.915  23.576  1.00  0.00     0.222 A 
ATOM     17  C   UNL A   1      32.234  27.378  24.605  1.00  0.00     0.149 C 
ATOM     18  H   UNL A   1      35.237  29.749  22.259  1.00  0.00     0.193 HD
ATOM     19  O   UNL A   1      34.052  29.676  24.646  1.00  0.00    -0.422 OA
ATOM     20  C   UNL A   1      32.480  25.881  24.843  1.00  0.00     0.248 C 
ATOM     21  C   UNL A   1      30.785  27.386  24.193  1.00  0.00     0.002 A 
ATOM     22  C   UNL A   1      32.526  28.220  25.848  1.00  0.00     0.114 C 
ATOM     23  C   UNL A   1      33.371  29.292  25.815  1.00  0.00     0.208 C 
ATOM     24  O   UNL A   1      33.583  25.342  24.878  1.00  0.00    -0.273 OA
ATOM     25  C   UNL A   1      30.235  26.117  24.428  1.00  0.00     0.050 A 
ATOM     26  C   UNL A   1      30.016  28.423  23.680  1.00  0.00     0.008 A 
ATOM     27  C   UNL A   1      28.903  25.862  24.156  1.00  0.00     0.027 A 
ATOM     28  C   UNL A   1      28.679  28.165  23.381  1.00  0.00     0.001 A 
ATOM     29  C   UNL A   1      28.127  26.896  23.619  1.00  0.00     0.002 A 
BRANCH  22  30
ATOM     30  C   UNL A   1      31.832  27.935  27.169  1.00  0.00     0.102 C 
ATOM     31  N   UNL A   1      31.256  27.698  28.266  1.00  0.00    -0.193 NA
ENDBRANCH  22  30
BRANCH  23  32
ATOM     32  N   UNL A   1      33.646  30.113  26.866  1.00  0.00    -0.369 N 
ATOM     33  H   UNL A   1      33.332  31.045  26.859  1.00  0.00     0.159 HD
ATOM     34  H   UNL A   1      34.161  29.774  27.634  1.00  0.00     0.159 HD
ENDBRANCH  23  32
ENDBRANCH   8  10
ENDBRANCH   5   8
ENDBRANCH   3   4
ENDBRANCH   2   3
ENDBRANCH   1   2
BRANCH   1  35
ATOM     35  C   UNL A   1      37.254  22.430  25.647  1.00  0.00     0.116 C 
BRANCH  35  36
ATOM     36  N   UNL A   1      38.621  21.967  25.794  1.00  0.00    -0.352 N 
ATOM     37  C   UNL A   1      39.737  22.443  26.428  1.00  0.00     0.251 C 
ATOM     38  H   UNL A   1      38.785  21.115  25.330  1.00  0.00     0.163 HD
ATOM     39  O   UNL A   1      40.711  21.685  26.447  1.00  0.00    -0.269 OA
BRANCH  37  40
ATOM     40  C   UNL A   1      39.859  23.783  27.066  1.00  0.00     0.039 A 
ATOM     41  C   UNL A   1      38.959  24.834  26.900  1.00  0.00     0.014 A 
ATOM     42  C   UNL A   1      41.010  24.009  27.848  1.00  0.00     0.014 A 
ATOM     43  C   UNL A   1      39.211  26.078  27.468  1.00  0.00     0.010 A 
ATOM     44  C   UNL A   1      41.262  25.251  28.430  1.00  0.00     0.010 A 
ATOM     45  C   UNL A   1      40.367  26.294  28.220  1.00  0.00    -0.014 A 
BRANCH  45  46
ATOM     46  C   UNL A   1      40.511  27.611  28.840  1.00  0.00     0.031 A 
ATOM     47  C   UNL A   1      41.665  28.413  28.347  1.00  0.00     0.074 A 
ATOM     48  C   UNL A   1      39.659  28.135  29.742  1.00  0.00     0.049 A 
ATOM     49  N   UNL A   1      42.717  28.791  28.998  1.00  0.00    -0.248 NA
ATOM     50  C   UNL A   1      41.695  28.750  26.915  1.00  0.00     0.031 C 
ATOM     51  C   UNL A   1      38.334  27.633  30.110  1.00  0.00     0.029 A 
ATOM     52  N   UNL A   1      39.770  29.291  30.464  1.00  0.00    -0.354 N 
ATOM     53  C   UNL A   1      43.449  29.583  28.116  1.00  0.00     0.074 A 
ATOM     54  C   UNL A   1      42.851  29.409  26.818  1.00  0.00     0.031 C 
ATOM     55  C   UNL A   1      37.685  28.580  30.823  1.00  0.00     0.029 A 
ATOM     56  C   UNL A   1      38.594  29.684  31.085  1.00  0.00     0.049 A 
ATOM     57  H   UNL A   1      40.611  29.799  30.536  1.00  0.00     0.167 HD
ATOM     58  C   UNL A   1      44.357  30.497  28.557  1.00  0.00     0.037 A 
ATOM     59  C   UNL A   1      38.367  30.849  31.738  1.00  0.00     0.037 A 
ATOM     60  C   UNL A   1      44.699  30.289  29.937  1.00  0.00     0.049 A 
ATOM     61  C   UNL A   1      39.671  31.388  32.195  1.00  0.00     0.074 A 
ATOM     62  C   UNL A   1      45.512  29.441  30.655  1.00  0.00     0.029 A 
ATOM     63  N   UNL A   1      43.867  30.909  30.828  1.00  0.00    -0.354 N 
ATOM     64  N   UNL A   1      40.424  30.812  33.091  1.00  0.00    -0.248 NA
ATOM     65  C   UNL A   1      40.302  32.482  31.463  1.00  0.00     0.031 C 
ATOM     66  C   UNL A   1      44.998  29.425  31.984  1.00  0.00     0.029 A 
ATOM     67  C   UNL A   1      43.887  30.264  32.037  1.00  0.00     0.049 A 
ATOM     68  H   UNL A   1      43.327  31.709  30.629  1.00  0.00     0.167 HD
ATOM     69  C   UNL A   1      41.709  31.186  32.756  1.00  0.00     0.074 A 
ATOM     70  C   UNL A   1      41.562  32.340  31.882  1.00  0.00     0.031 C 
ATOM     71  C   UNL A   1      42.760  30.341  32.944  1.00  0.00     0.037 A 
BRANCH  58  72
ATOM     72  C   UNL A   1      44.629  31.829  27.889  1.00  0.00     0.058 A 
ATOM     73  C   UNL A   1      45.839  32.026  27.191  1.00  0.00     0.135 A 
ATOM     74  C   UNL A   1      43.893  33.001  28.174  1.00  0.00     0.135 A 
ATOM     75  F   UNL A   1      46.626  30.984  26.878  1.00  0.00    -0.206 F 
ATOM     76  C   UNL A   1      46.311  33.298  26.855  1.00  0.00     0.059 A 
ATOM     77  C   UNL A   1      44.320  34.272  27.803  1.00  0.00     0.059 A 
ATOM     78  F   UNL A   1      42.778  32.976  28.915  1.00  0.00    -0.206 F 
ATOM     79  C   UNL A   1      45.550  34.417  27.181  1.00  0.00     0.060 A 
BRANCH  79  80
ATOM     80  S   UNL A   1      46.202  36.063  26.847  1.00  0.00     0.124 S 
ATOM     81  O   UNL A   1      47.047  36.285  28.015  1.00  0.00    -0.237 OA
ATOM     82  O   UNL A   1      46.901  35.864  25.581  1.00  0.00    -0.237 OA
ATOM     83  O   UNL A   1      45.000  36.889  26.769  1.00  0.00    -0.744 OA
ENDBRANCH  79  80
ENDBRANCH  58  72
BRANCH  59  84
ATOM     84  C   UNL A   1      37.120  31.653  31.791  1.00  0.00     0.058 A 
ATOM     85  C   UNL A   1      36.545  32.008  33.026  1.00  0.00     0.135 A 
ATOM     86  C   UNL A   1      36.641  32.344  30.660  1.00  0.00     0.135 A 
ATOM     87  F   UNL A   1      36.943  31.405  34.156  1.00  0.00    -0.206 F 
ATOM     88  C   UNL A   1      35.617  33.045  33.144  1.00  0.00     0.059 A 
ATOM     89  C   UNL A   1      35.703  33.370  30.750  1.00  0.00     0.059 A 
ATOM     90  F   UNL A   1      37.145  32.109  29.440  1.00  0.00    -0.206 F 
ATOM     91  C   UNL A   1      35.226  33.741  32.002  1.00  0.00     0.060 A 
BRANCH  91  92
ATOM     92  S   UNL A   1      34.203  35.220  32.181  1.00  0.00     0.124 S 
ATOM     93  O   UNL A   1      33.015  34.687  32.837  1.00  0.00    -0.237 OA
ATOM     94  O   UNL A   1      35.052  36.080  32.998  1.00  0.00    -0.237 OA
ATOM     95  O   UNL A   1      34.009  35.666  30.803  1.00  0.00    -0.744 OA
ENDBRANCH  91  92
ENDBRANCH  59  84
BRANCH  71  96
ATOM     96  C   UNL A   1      42.639  29.302  34.016  1.00  0.00     0.058 A 
ATOM     97  C   UNL A   1      42.865  29.537  35.381  1.00  0.00     0.135 A 
ATOM     98  C   UNL A   1      42.184  28.027  33.645  1.00  0.00     0.135 A 
ATOM     99  F   UNL A   1      43.226  30.750  35.822  1.00  0.00    -0.206 F 
ATOM    100  C   UNL A   1      42.676  28.534  36.334  1.00  0.00     0.059 A 
ATOM    101  C   UNL A   1      41.957  27.022  34.581  1.00  0.00     0.059 A 
ATOM    102  F   UNL A   1      41.908  27.758  32.357  1.00  0.00    -0.206 F 
ATOM    103  C   UNL A   1      42.215  27.282  35.925  1.00  0.00     0.060 A 
BRANCH 103 104
ATOM    104  S   UNL A   1      41.877  26.023  37.174  1.00  0.00     0.124 S 
ATOM    105  O   UNL A   1      40.502  26.329  37.555  1.00  0.00    -0.237 OA
ATOM    106  O   UNL A   1      42.065  24.780  36.430  1.00  0.00    -0.237 OA
ATOM    107  O   UNL A   1      42.883  26.283  38.201  1.00  0.00    -0.744 OA
ENDBRANCH 103 104
ENDBRANCH  71  96
ENDBRANCH  45  46
ENDBRANCH  37  40
ENDBRANCH  35  36
ENDBRANCH   1  35
TORSDOF 17
ENDMDL
MODEL 3
REMARK VINA RESULT:     -13.1      2.830      9.273
REMARK SMILES Cc1n[nH]c2c1[C@@]1(C(=O)N([C@@H](C)C(=O)NCCCCNC(=O)c3ccc(-c4c5nc(c(-c6c(F)cc(S(=O)(=O)[O-])cc6F)c6ccc([nH]6)c(-c6c(F)cc(S(=O)(=O)[O-])cc6F)c6nc(c(-c7c(F)cc(S(=O)(=O)[O-])cc7F)c7ccc4[nH]7)C=C6)C=C5)cc3)c3ccccc31)C(C#N)=C(N)O2
REMARK SMILES IDX 18 1 17 2 16 3 15 4 13 5 14 6 11 8 12 9 10 10 1 11 2 12 3 13
REMARK SMILES IDX 6 14 4 15 5 16 7 17 100 19 8 20 94 21 95 22 98 23 9 24 89 25
REMARK SMILES IDX 93 26 90 27 92 28 91 29 96 30 97 31 99 32 19 35 20 36 21 37
REMARK SMILES IDX 22 39 23 40 24 41 88 42 25 43 87 44 26 45 27 46 28 47 81 48
REMARK SMILES IDX 29 49 86 50 80 51 82 52 30 53 85 54 79 55 78 56 31 58 65 59
REMARK SMILES IDX 44 60 64 61 45 62 48 63 63 64 83 65 46 66 47 67 62 69 84 70
REMARK SMILES IDX 49 71 32 72 33 73 42 74 34 75 35 76 41 77 43 78 36 79 37 80
REMARK SMILES IDX 38 81 39 82 40 83 66 84 67 85 76 86 68 87 69 88 75 89 77 90
REMARK SMILES IDX 70 91 71 92 72 93 73 94 74 95 50 96 51 97 60 98 52 99 53 100
REMARK SMILES IDX 59 101 61 102 54 103 55 104 56 105 57 106 58 107
REMARK H PARENT 15 7 4 18 99 33 99 34 20 38 82 57 48 68
REMARK Flexibility Score: inf
ROOT
ATOM      1  C   UNL A   1      32.175  29.737  27.006  1.00  0.00     0.023 C 
ENDROOT
BRANCH   1   2
ATOM      2  C   UNL A   1      31.509  29.614  25.638  1.00  0.00     0.023 C 
BRANCH   2   3
ATOM      3  C   UNL A   1      31.721  28.283  24.914  1.00  0.00     0.116 C 
BRANCH   3   4
ATOM      4  N   UNL A   1      31.173  27.159  25.653  1.00  0.00    -0.354 N 
ATOM      5  C   UNL A   1      31.746  26.116  26.310  1.00  0.00     0.242 C 
ATOM      6  O   UNL A   1      30.967  25.369  26.920  1.00  0.00    -0.273 OA
ATOM      7  H   UNL A   1      30.189  27.151  25.684  1.00  0.00     0.163 HD
BRANCH   5   8
ATOM      8  C   UNL A   1      33.261  25.792  26.333  1.00  0.00     0.176 C 
ATOM      9  C   UNL A   1      34.197  26.983  26.162  1.00  0.00     0.042 C 
BRANCH   8  10
ATOM     10  N   UNL A   1      33.610  24.622  25.533  1.00  0.00    -0.298 N 
ATOM     11  C   UNL A   1      31.016  21.808  25.412  1.00  0.00     0.069 C 
ATOM     12  C   UNL A   1      32.154  20.896  25.130  1.00  0.00     0.068 A 
ATOM     13  N   UNL A   1      31.950  19.567  25.148  1.00  0.00    -0.177 NA
ATOM     14  C   UNL A   1      33.520  21.208  24.911  1.00  0.00     0.063 A 
ATOM     15  N   UNL A   1      33.188  19.041  25.033  1.00  0.00    -0.246 N 
ATOM     16  C   UNL A   1      34.147  19.991  24.901  1.00  0.00     0.222 A 
ATOM     17  C   UNL A   1      34.343  22.455  24.897  1.00  0.00     0.149 C 
ATOM     18  H   UNL A   1      33.374  18.075  25.045  1.00  0.00     0.193 HD
ATOM     19  O   UNL A   1      35.448  19.740  24.870  1.00  0.00    -0.422 OA
ATOM     20  C   UNL A   1      33.899  23.361  26.054  1.00  0.00     0.248 C 
ATOM     21  C   UNL A   1      33.939  23.272  23.698  1.00  0.00     0.002 A 
ATOM     22  C   UNL A   1      35.838  22.135  24.950  1.00  0.00     0.114 C 
ATOM     23  C   UNL A   1      36.306  20.853  24.920  1.00  0.00     0.208 C 
ATOM     24  O   UNL A   1      33.721  22.994  27.213  1.00  0.00    -0.273 OA
ATOM     25  C   UNL A   1      33.572  24.558  24.123  1.00  0.00     0.050 A 
ATOM     26  C   UNL A   1      33.919  22.922  22.353  1.00  0.00     0.008 A 
ATOM     27  C   UNL A   1      33.180  25.520  23.209  1.00  0.00     0.027 A 
ATOM     28  C   UNL A   1      33.501  23.880  21.431  1.00  0.00     0.001 A 
ATOM     29  C   UNL A   1      33.137  25.168  21.855  1.00  0.00     0.002 A 
BRANCH  22  30
ATOM     30  C   UNL A   1      36.877  23.244  24.973  1.00  0.00     0.102 C 
ATOM     31  N   UNL A   1      37.739  24.164  24.993  1.00  0.00    -0.193 NA
ENDBRANCH  22  30
BRANCH  23  32
ATOM     32  N   UNL A   1      37.620  20.492  24.920  1.00  0.00    -0.369 N 
ATOM     33  H   UNL A   1      38.009  20.046  25.706  1.00  0.00     0.159 HD
ATOM     34  H   UNL A   1      38.181  20.679  24.133  1.00  0.00     0.159 HD
ENDBRANCH  23  32
ENDBRANCH   8  10
ENDBRANCH   5   8
ENDBRANCH   3   4
ENDBRANCH   2   3
ENDBRANCH   1   2
BRANCH   1  35
ATOM     35  C   UNL A   1      33.535  30.442  26.979  1.00  0.00     0.116 C 
BRANCH  35  36
ATOM     36  N   UNL A   1      33.703  31.419  28.039  1.00  0.00    -0.352 N 
ATOM     37  C   UNL A   1      34.735  31.782  28.861  1.00  0.00     0.251 C 
ATOM     38  H   UNL A   1      32.885  31.941  28.206  1.00  0.00     0.163 HD
ATOM     39  O   UNL A   1      34.540  32.776  29.566  1.00  0.00    -0.269 OA
BRANCH  37  40
ATOM     40  C   UNL A   1      36.038  31.068  28.972  1.00  0.00     0.039 A 
ATOM     41  C   UNL A   1      36.200  29.685  28.926  1.00  0.00     0.014 A 
ATOM     42  C   UNL A   1      37.178  31.866  29.199  1.00  0.00     0.014 A 
ATOM     43  C   UNL A   1      37.450  29.112  29.130  1.00  0.00     0.010 A 
ATOM     44  C   UNL A   1      38.436  31.297  29.392  1.00  0.00     0.010 A 
ATOM     45  C   UNL A   1      38.567  29.913  29.378  1.00  0.00    -0.014 A 
BRANCH  45  46
ATOM     46  C   UNL A   1      39.851  29.227  29.506  1.00  0.00     0.031 A 
ATOM     47  C   UNL A   1      40.325  29.039  30.907  1.00  0.00     0.074 A 
ATOM     48  C   UNL A   1      40.563  28.724  28.478  1.00  0.00     0.049 A 
ATOM     49  N   UNL A   1      41.363  29.557  31.479  1.00  0.00    -0.248 NA
ATOM     50  C   UNL A   1      39.472  28.252  31.811  1.00  0.00     0.031 C 
ATOM     51  C   UNL A   1      40.122  28.547  27.094  1.00  0.00     0.029 A 
ATOM     52  N   UNL A   1      41.818  28.182  28.482  1.00  0.00    -0.354 N 
ATOM     53  C   UNL A   1      41.409  29.005  32.758  1.00  0.00     0.074 A 
ATOM     54  C   UNL A   1      40.155  28.324  32.955  1.00  0.00     0.031 C 
ATOM     55  C   UNL A   1      41.007  27.758  26.445  1.00  0.00     0.029 A 
ATOM     56  C   UNL A   1      42.142  27.501  27.318  1.00  0.00     0.049 A 
ATOM     57  H   UNL A   1      42.437  28.268  29.243  1.00  0.00     0.167 HD
ATOM     58  C   UNL A   1      42.563  28.959  33.479  1.00  0.00     0.037 A 
ATOM     59  C   UNL A   1      43.245  26.747  27.094  1.00  0.00     0.037 A 
ATOM     60  C   UNL A   1      43.571  29.824  32.931  1.00  0.00     0.049 A 
ATOM     61  C   UNL A   1      44.314  27.201  28.017  1.00  0.00     0.074 A 
ATOM     62  C   UNL A   1      43.857  31.172  32.947  1.00  0.00     0.029 A 
ATOM     63  N   UNL A   1      44.337  29.256  31.951  1.00  0.00    -0.354 N 
ATOM     64  N   UNL A   1      44.873  28.378  27.961  1.00  0.00    -0.248 NA
ATOM     65  C   UNL A   1      44.618  26.424  29.215  1.00  0.00     0.031 C 
ATOM     66  C   UNL A   1      44.671  31.421  31.803  1.00  0.00     0.029 A 
ATOM     67  C   UNL A   1      44.858  30.218  31.125  1.00  0.00     0.049 A 
ATOM     68  H   UNL A   1      44.493  28.288  31.852  1.00  0.00     0.167 HD
ATOM     69  C   UNL A   1      45.251  28.644  29.260  1.00  0.00     0.074 A 
ATOM     70  C   UNL A   1      45.241  27.357  29.939  1.00  0.00     0.031 C 
ATOM     71  C   UNL A   1      45.221  29.911  29.757  1.00  0.00     0.037 A 
BRANCH  58  72
ATOM     72  C   UNL A   1      42.943  27.837  34.422  1.00  0.00     0.058 A 
ATOM     73  C   UNL A   1      43.082  28.101  35.801  1.00  0.00     0.135 A 
ATOM     74  C   UNL A   1      43.474  26.604  33.983  1.00  0.00     0.135 A 
ATOM     75  F   UNL A   1      42.625  29.249  36.327  1.00  0.00    -0.206 F 
ATOM     76  C   UNL A   1      43.751  27.232  36.667  1.00  0.00     0.059 A 
ATOM     77  C   UNL A   1      44.098  25.700  34.837  1.00  0.00     0.059 A 
ATOM     78  F   UNL A   1      43.502  26.265  32.688  1.00  0.00    -0.206 F 
ATOM     79  C   UNL A   1      44.270  26.040  36.170  1.00  0.00     0.060 A 
BRANCH  79  80
ATOM     80  S   UNL A   1      45.227  24.966  37.255  1.00  0.00     0.124 S 
ATOM     81  O   UNL A   1      46.566  25.529  37.118  1.00  0.00    -0.237 OA
ATOM     82  O   UNL A   1      44.574  25.175  38.544  1.00  0.00    -0.237 OA
ATOM     83  O   UNL A   1      45.034  23.642  36.671  1.00  0.00    -0.744 OA
ENDBRANCH  79  80
ENDBRANCH  58  72
BRANCH  59  84
ATOM     84  C   UNL A   1      43.368  25.499  26.299  1.00  0.00     0.058 A 
ATOM     85  C   UNL A   1      44.383  25.358  25.334  1.00  0.00     0.135 A 
ATOM     86  C   UNL A   1      42.699  24.318  26.676  1.00  0.00     0.135 A 
ATOM     87  F   UNL A   1      45.075  26.430  24.918  1.00  0.00    -0.206 F 
ATOM     88  C   UNL A   1      44.771  24.112  24.839  1.00  0.00     0.059 A 
ATOM     89  C   UNL A   1      43.057  23.065  26.182  1.00  0.00     0.059 A 
ATOM     90  F   UNL A   1      41.740  24.332  27.613  1.00  0.00    -0.206 F 
ATOM     91  C   UNL A   1      44.122  22.966  25.295  1.00  0.00     0.060 A 
BRANCH  91  92
ATOM     92  S   UNL A   1      44.767  21.345  24.828  1.00  0.00     0.124 S 
ATOM     93  O   UNL A   1      44.564  21.343  23.383  1.00  0.00    -0.237 OA
ATOM     94  O   UNL A   1      46.153  21.428  25.278  1.00  0.00    -0.237 OA
ATOM     95  O   UNL A   1      43.925  20.416  25.578  1.00  0.00    -0.744 OA
ENDBRANCH  91  92
ENDBRANCH  59  84
BRANCH  71  96
ATOM     96  C   UNL A   1      45.362  31.045  28.788  1.00  0.00     0.058 A 
ATOM     97  C   UNL A   1      46.583  31.497  28.264  1.00  0.00     0.135 A 
ATOM     98  C   UNL A   1      44.187  31.643  28.303  1.00  0.00     0.135 A 
ATOM     99  F   UNL A   1      47.740  30.923  28.620  1.00  0.00    -0.206 F 
ATOM    100  C   UNL A   1      46.634  32.522  27.318  1.00  0.00     0.059 A 
ATOM    101  C   UNL A   1      44.214  32.644  27.336  1.00  0.00     0.059 A 
ATOM    102  F   UNL A   1      42.988  31.221  28.737  1.00  0.00    -0.206 F 
ATOM    103  C   UNL A   1      45.444  33.086  26.856  1.00  0.00     0.060 A 
BRANCH 103 104
ATOM    104  S   UNL A   1      45.515  34.340  25.560  1.00  0.00     0.124 S 
ATOM    105  O   UNL A   1      44.728  33.729  24.495  1.00  0.00    -0.237 OA
ATOM    106  O   UNL A   1      44.908  35.500  26.208  1.00  0.00    -0.237 OA
ATOM    107  O   UNL A   1      46.945  34.468  25.286  1.00  0.00    -0.744 OA
ENDBRANCH 103 104
ENDBRANCH  71  96
ENDBRANCH  45  46
ENDBRANCH  37  40
ENDBRANCH  35  36
ENDBRANCH   1  35
TORSDOF 17
ENDMDL
