MODEL 1
REMARK VINA RESULT:     -13.5      0.000      0.000
REMARK SMILES CC[C@@H](Sc1nnc2ccc3ccccc3n12)C(=O)Nc1cccc(C(=O)NCCCCNC(=O)c2ccc(-c3c4nc(c(-c5c(F)cc(S(=O)(=O)[O-])cc5F)c5ccc([nH]5)c(-c5c(F)cc(S(=O)(=O)[O-])cc5F)c5nc(c(-c6c(F)cc(S(=O)(=O)[O-])cc6F)c6ccc3[nH]6)C=C5)C=C4)cc2)c1
REMARK SMILES IDX 30 1 29 2 28 3 26 4 27 5 25 7 21 8 22 9 102 10 23 11 24 12
REMARK SMILES IDX 20 13 18 14 19 15 3 17 2 18 1 19 4 20 5 21 6 22 17 23 7 24
REMARK SMILES IDX 8 25 16 26 9 27 11 28 15 29 10 30 12 31 14 32 13 33 31 34
REMARK SMILES IDX 32 35 33 36 34 37 35 39 36 40 37 41 101 42 38 43 100 44
REMARK SMILES IDX 39 45 40 46 41 47 94 48 42 49 99 50 93 51 95 52 43 53 98 54
REMARK SMILES IDX 92 55 91 56 44 58 78 59 57 60 77 61 58 62 61 63 76 64 96 65
REMARK SMILES IDX 59 66 60 67 75 69 97 70 62 71 45 72 46 73 55 74 47 75 48 76
REMARK SMILES IDX 54 77 56 78 49 79 50 80 51 81 52 82 53 83 79 84 80 85 89 86
REMARK SMILES IDX 81 87 82 88 88 89 90 90 83 91 84 92 85 93 86 94 87 95 63 96
REMARK SMILES IDX 64 97 73 98 65 99 66 100 72 101 74 102 67 103 68 104 69 105
REMARK SMILES IDX 70 106 71 107
REMARK H PARENT 28 6 20 16 33 38 95 57 61 68
REMARK Flexibility Score: inf
ROOT
ATOM      1  C   UNL A   1      35.960  21.385  24.581  1.00  0.00     0.023 C 
ENDROOT
BRANCH   1   2
ATOM      2  C   UNL A   1      35.100  21.035  25.781  1.00  0.00     0.116 C 
BRANCH   2   3
ATOM      3  N   UNL A   1      34.106  20.007  25.548  1.00  0.00    -0.352 N 
ATOM      4  C   UNL A   1      32.835  20.064  25.028  1.00  0.00     0.251 C 
ATOM      5  O   UNL A   1      32.236  18.995  24.891  1.00  0.00    -0.269 OA
ATOM      6  H   UNL A   1      34.394  19.102  25.809  1.00  0.00     0.163 HD
BRANCH   4   7
ATOM      7  C   UNL A   1      32.130  21.331  24.661  1.00  0.00     0.041 A 
ATOM      8  C   UNL A   1      31.773  23.297  23.302  1.00  0.00     0.041 A 
ATOM      9  C   UNL A   1      30.835  23.768  24.206  1.00  0.00     0.026 A 
ATOM     10  C   UNL A   1      32.259  21.999  23.441  1.00  0.00     0.040 A 
ATOM     11  C   UNL A   1      30.616  23.089  25.398  1.00  0.00     0.003 A 
ATOM     12  C   UNL A   1      31.311  21.907  25.649  1.00  0.00     0.014 A 
BRANCH   8  13
ATOM     13  N   UNL A   1      32.308  24.099  22.284  1.00  0.00    -0.325 N 
ATOM     14  C   UNL A   1      33.066  25.248  22.396  1.00  0.00     0.237 C 
ATOM     15  O   UNL A   1      33.505  25.707  21.331  1.00  0.00    -0.273 OA
ATOM     16  H   UNL A   1      32.117  23.803  21.365  1.00  0.00     0.169 HD
BRANCH  14  17
ATOM     17  C   UNL A   1      33.435  25.953  23.740  1.00  0.00     0.144 C 
BRANCH  17  18
ATOM     18  C   UNL A   1      34.577  25.213  24.451  1.00  0.00     0.021 C 
ATOM     19  C   UNL A   1      34.331  24.650  25.839  1.00  0.00     0.005 C 
ENDBRANCH  17  18
BRANCH  17  20
ATOM     20  S   UNL A   1      33.654  27.750  23.399  1.00  0.00    -0.072 SA
BRANCH  20  21
ATOM     21  C   UNL A   1      33.134  28.548  24.844  1.00  0.00     0.196 A 
ATOM     22  N   UNL A   1      33.783  28.521  25.986  1.00  0.00    -0.122 NA
ATOM     23  N   UNL A   1      32.101  29.465  24.928  1.00  0.00    -0.270 N 
ATOM     24  N   UNL A   1      33.370  29.593  26.736  1.00  0.00    -0.129 NA
ATOM     25  C   UNL A   1      32.404  30.194  26.074  1.00  0.00     0.161 A 
ATOM     26  C   UNL A   1      30.946  29.726  24.143  1.00  0.00     0.057 A 
ATOM     27  C   UNL A   1      31.686  31.379  26.359  1.00  0.00     0.050 A 
ATOM     28  C   UNL A   1      30.185  30.858  24.510  1.00  0.00    -0.001 A 
ATOM     29  C   UNL A   1      30.493  28.877  23.132  1.00  0.00     0.027 A 
ATOM     30  C   UNL A   1      30.628  31.723  25.612  1.00  0.00     0.014 A 
ATOM     31  C   UNL A   1      28.987  31.134  23.845  1.00  0.00     0.010 A 
ATOM     32  C   UNL A   1      29.289  29.162  22.481  1.00  0.00     0.002 A 
ATOM     33  C   UNL A   1      28.540  30.283  22.834  1.00  0.00     0.001 A 
ENDBRANCH  20  21
ENDBRANCH  17  20
ENDBRANCH  14  17
ENDBRANCH   8  13
ENDBRANCH   4   7
ENDBRANCH   2   3
ENDBRANCH   1   2
BRANCH   1  34
ATOM     34  C   UNL A   1      37.200  22.230  24.836  1.00  0.00     0.023 C 
BRANCH  34  35
ATOM     35  C   UNL A   1      38.190  21.703  25.875  1.00  0.00     0.116 C 
BRANCH  35  36
ATOM     36  N   UNL A   1      39.592  21.781  25.514  1.00  0.00    -0.352 N 
ATOM     37  C   UNL A   1      40.667  22.488  25.985  1.00  0.00     0.251 C 
ATOM     38  H   UNL A   1      39.824  21.194  24.759  1.00  0.00     0.163 HD
ATOM     39  O   UNL A   1      41.775  22.088  25.616  1.00  0.00    -0.269 OA
BRANCH  37  40
ATOM     40  C   UNL A   1      40.588  23.715  26.822  1.00  0.00     0.039 A 
ATOM     41  C   UNL A   1      39.712  24.775  26.606  1.00  0.00     0.014 A 
ATOM     42  C   UNL A   1      41.551  23.840  27.843  1.00  0.00     0.014 A 
ATOM     43  C   UNL A   1      39.888  25.979  27.275  1.00  0.00     0.010 A 
ATOM     44  C   UNL A   1      41.702  25.030  28.550  1.00  0.00     0.010 A 
ATOM     45  C   UNL A   1      40.910  26.122  28.217  1.00  0.00    -0.014 A 
BRANCH  45  46
ATOM     46  C   UNL A   1      41.051  27.427  28.856  1.00  0.00     0.031 A 
ATOM     47  C   UNL A   1      42.150  28.280  28.320  1.00  0.00     0.074 A 
ATOM     48  C   UNL A   1      40.253  27.874  29.844  1.00  0.00     0.049 A 
ATOM     49  N   UNL A   1      43.242  28.630  28.917  1.00  0.00    -0.248 NA
ATOM     50  C   UNL A   1      42.087  28.681  26.908  1.00  0.00     0.031 C 
ATOM     51  C   UNL A   1      39.010  27.296  30.354  1.00  0.00     0.029 A 
ATOM     52  N   UNL A   1      40.372  29.025  30.564  1.00  0.00    -0.354 N 
ATOM     53  C   UNL A   1      43.935  29.445  28.023  1.00  0.00     0.074 A 
ATOM     54  C   UNL A   1      43.243  29.333  26.764  1.00  0.00     0.031 C 
ATOM     55  C   UNL A   1      38.382  28.206  31.134  1.00  0.00     0.029 A 
ATOM     56  C   UNL A   1      39.239  29.370  31.287  1.00  0.00     0.049 A 
ATOM     57  H   UNL A   1      41.194  29.567  30.569  1.00  0.00     0.167 HD
ATOM     58  C   UNL A   1      44.933  30.278  28.433  1.00  0.00     0.037 A 
ATOM     59  C   UNL A   1      39.008  30.552  31.911  1.00  0.00     0.037 A 
ATOM     60  C   UNL A   1      45.399  29.930  29.751  1.00  0.00     0.049 A 
ATOM     61  C   UNL A   1      40.337  31.165  32.188  1.00  0.00     0.074 A 
ATOM     62  C   UNL A   1      45.999  28.814  30.302  1.00  0.00     0.029 A 
ATOM     63  N   UNL A   1      44.960  30.684  30.812  1.00  0.00    -0.354 N 
ATOM     64  N   UNL A   1      41.196  30.670  33.038  1.00  0.00    -0.248 NA
ATOM     65  C   UNL A   1      40.898  32.066  31.192  1.00  0.00     0.031 C 
ATOM     66  C   UNL A   1      45.452  28.716  31.615  1.00  0.00     0.029 A 
ATOM     67  C   UNL A   1      44.595  29.802  31.797  1.00  0.00     0.049 A 
ATOM     68  H   UNL A   1      44.917  31.666  30.859  1.00  0.00     0.167 HD
ATOM     69  C   UNL A   1      42.434  30.848  32.437  1.00  0.00     0.074 A 
ATOM     70  C   UNL A   1      42.197  31.791  31.347  1.00  0.00     0.031 C 
ATOM     71  C   UNL A   1      43.482  30.010  32.697  1.00  0.00     0.037 A 
BRANCH  58  72
ATOM     72  C   UNL A   1      45.282  31.603  27.797  1.00  0.00     0.058 A 
ATOM     73  C   UNL A   1      46.590  31.810  27.307  1.00  0.00     0.135 A 
ATOM     74  C   UNL A   1      44.491  32.764  27.929  1.00  0.00     0.135 A 
ATOM     75  F   UNL A   1      47.425  30.776  27.120  1.00  0.00    -0.206 F 
ATOM     76  C   UNL A   1      47.109  33.085  27.076  1.00  0.00     0.059 A 
ATOM     77  C   UNL A   1      44.971  34.040  27.655  1.00  0.00     0.059 A 
ATOM     78  F   UNL A   1      43.249  32.728  28.427  1.00  0.00    -0.206 F 
ATOM     79  C   UNL A   1      46.297  34.195  27.283  1.00  0.00     0.060 A 
BRANCH  79  80
ATOM     80  S   UNL A   1      47.010  35.844  27.153  1.00  0.00     0.124 S 
ATOM     81  O   UNL A   1      48.254  35.681  27.896  1.00  0.00    -0.237 OA
ATOM     82  O   UNL A   1      47.143  36.003  25.709  1.00  0.00    -0.237 OA
ATOM     83  O   UNL A   1      46.005  36.695  27.783  1.00  0.00    -0.744 OA
ENDBRANCH  79  80
ENDBRANCH  58  72
BRANCH  59  84
ATOM     84  C   UNL A   1      37.726  31.308  31.972  1.00  0.00     0.058 A 
ATOM     85  C   UNL A   1      37.127  31.643  33.199  1.00  0.00     0.135 A 
ATOM     86  C   UNL A   1      37.196  31.952  30.833  1.00  0.00     0.135 A 
ATOM     87  F   UNL A   1      37.576  31.100  34.341  1.00  0.00    -0.206 F 
ATOM     88  C   UNL A   1      36.100  32.592  33.296  1.00  0.00     0.059 A 
ATOM     89  C   UNL A   1      36.168  32.889  30.904  1.00  0.00     0.059 A 
ATOM     90  F   UNL A   1      37.727  31.762  29.616  1.00  0.00    -0.206 F 
ATOM     91  C   UNL A   1      35.641  33.226  32.142  1.00  0.00     0.060 A 
BRANCH  91  92
ATOM     92  S   UNL A   1      34.444  34.576  32.276  1.00  0.00     0.124 S 
ATOM     93  O   UNL A   1      35.175  35.552  33.076  1.00  0.00    -0.237 OA
ATOM     94  O   UNL A   1      34.227  34.931  30.877  1.00  0.00    -0.237 OA
ATOM     95  O   UNL A   1      33.303  33.953  32.940  1.00  0.00    -0.744 OA
ENDBRANCH  91  92
ENDBRANCH  59  84
BRANCH  71  96
ATOM     96  C   UNL A   1      43.365  29.036  33.838  1.00  0.00     0.058 A 
ATOM     97  C   UNL A   1      43.627  29.369  35.179  1.00  0.00     0.135 A 
ATOM     98  C   UNL A   1      42.760  27.793  33.592  1.00  0.00     0.135 A 
ATOM     99  F   UNL A   1      44.108  30.575  35.508  1.00  0.00    -0.206 F 
ATOM    100  C   UNL A   1      43.318  28.499  36.225  1.00  0.00     0.059 A 
ATOM    101  C   UNL A   1      42.415  26.923  34.623  1.00  0.00     0.059 A 
ATOM    102  F   UNL A   1      42.425  27.444  32.339  1.00  0.00    -0.206 F 
ATOM    103  C   UNL A   1      42.700  27.283  35.939  1.00  0.00     0.060 A 
BRANCH 103 104
ATOM    104  S   UNL A   1      42.179  26.225  37.307  1.00  0.00     0.124 S 
ATOM    105  O   UNL A   1      42.306  24.893  36.732  1.00  0.00    -0.237 OA
ATOM    106  O   UNL A   1      43.142  26.562  38.352  1.00  0.00    -0.237 OA
ATOM    107  O   UNL A   1      40.808  26.665  37.575  1.00  0.00    -0.744 OA
ENDBRANCH 103 104
ENDBRANCH  71  96
ENDBRANCH  45  46
ENDBRANCH  37  40
ENDBRANCH  35  36
ENDBRANCH  34  35
ENDBRANCH   1  34
TORSDOF 19
ENDMDL
MODEL 2
REMARK VINA RESULT:     -13.2      2.275      3.770
REMARK SMILES CC[C@@H](Sc1nnc2ccc3ccccc3n12)C(=O)Nc1cccc(C(=O)NCCCCNC(=O)c2ccc(-c3c4nc(c(-c5c(F)cc(S(=O)(=O)[O-])cc5F)c5ccc([nH]5)c(-c5c(F)cc(S(=O)(=O)[O-])cc5F)c5nc(c(-c6c(F)cc(S(=O)(=O)[O-])cc6F)c6ccc3[nH]6)C=C5)C=C4)cc2)c1
REMARK SMILES IDX 30 1 29 2 28 3 26 4 27 5 25 7 21 8 22 9 102 10 23 11 24 12
REMARK SMILES IDX 20 13 18 14 19 15 3 17 2 18 1 19 4 20 5 21 6 22 17 23 7 24
REMARK SMILES IDX 8 25 16 26 9 27 11 28 15 29 10 30 12 31 14 32 13 33 31 34
REMARK SMILES IDX 32 35 33 36 34 37 35 39 36 40 37 41 101 42 38 43 100 44
REMARK SMILES IDX 39 45 40 46 41 47 94 48 42 49 99 50 93 51 95 52 43 53 98 54
REMARK SMILES IDX 92 55 91 56 44 58 78 59 57 60 77 61 58 62 61 63 76 64 96 65
REMARK SMILES IDX 59 66 60 67 75 69 97 70 62 71 45 72 46 73 55 74 47 75 48 76
REMARK SMILES IDX 54 77 56 78 49 79 50 80 51 81 52 82 53 83 79 84 80 85 89 86
REMARK SMILES IDX 81 87 82 88 88 89 90 90 83 91 84 92 85 93 86 94 87 95 63 96
REMARK SMILES IDX 64 97 73 98 65 99 66 100 72 101 74 102 67 103 68 104 69 105
REMARK SMILES IDX 70 106 71 107
REMARK H PARENT 28 6 20 16 33 38 95 57 61 68
REMARK Flexibility Score: inf
ROOT
ATOM      1  C   UNL A   1      39.679  22.914  27.108  1.00  0.00     0.023 C 
ENDROOT
BRANCH   1   2
ATOM      2  C   UNL A   1      38.602  23.829  26.553  1.00  0.00     0.116 C 
BRANCH   2   3
ATOM      3  N   UNL A   1      38.149  23.506  25.215  1.00  0.00    -0.352 N 
ATOM      4  C   UNL A   1      36.906  23.189  24.722  1.00  0.00     0.251 C 
ATOM      5  O   UNL A   1      36.811  23.018  23.504  1.00  0.00    -0.269 OA
ATOM      6  H   UNL A   1      38.862  23.515  24.535  1.00  0.00     0.163 HD
BRANCH   4   7
ATOM      7  C   UNL A   1      35.686  23.001  25.567  1.00  0.00     0.041 A 
ATOM      8  C   UNL A   1      33.992  21.668  26.661  1.00  0.00     0.041 A 
ATOM      9  C   UNL A   1      33.298  22.815  27.011  1.00  0.00     0.026 A 
ATOM     10  C   UNL A   1      35.270  21.787  26.119  1.00  0.00     0.040 A 
ATOM     11  C   UNL A   1      33.724  24.054  26.549  1.00  0.00     0.003 A 
ATOM     12  C   UNL A   1      34.881  24.135  25.775  1.00  0.00     0.014 A 
BRANCH   8  13
ATOM     13  N   UNL A   1      33.434  20.387  26.768  1.00  0.00    -0.325 N 
ATOM     14  C   UNL A   1      32.945  19.570  25.768  1.00  0.00     0.237 C 
ATOM     15  O   UNL A   1      32.603  18.432  26.124  1.00  0.00    -0.273 OA
ATOM     16  H   UNL A   1      33.384  20.020  27.680  1.00  0.00     0.169 HD
BRANCH  14  17
ATOM     17  C   UNL A   1      32.848  19.958  24.259  1.00  0.00     0.144 C 
BRANCH  17  18
ATOM     18  C   UNL A   1      32.558  18.724  23.392  1.00  0.00     0.021 C 
ATOM     19  C   UNL A   1      32.220  18.923  21.927  1.00  0.00     0.005 C 
ENDBRANCH  17  18
BRANCH  17  20
ATOM     20  S   UNL A   1      31.709  21.399  24.114  1.00  0.00    -0.072 SA
BRANCH  20  21
ATOM     21  C   UNL A   1      32.622  22.613  23.284  1.00  0.00     0.196 A 
ATOM     22  N   UNL A   1      33.735  22.387  22.623  1.00  0.00    -0.122 NA
ATOM     23  N   UNL A   1      32.201  23.908  23.040  1.00  0.00    -0.270 N 
ATOM     24  N   UNL A   1      33.918  23.417  21.734  1.00  0.00    -0.129 NA
ATOM     25  C   UNL A   1      32.964  24.298  21.944  1.00  0.00     0.161 A 
ATOM     26  C   UNL A   1      31.256  24.772  23.656  1.00  0.00     0.057 A 
ATOM     27  C   UNL A   1      32.647  25.496  21.262  1.00  0.00     0.050 A 
ATOM     28  C   UNL A   1      31.031  26.010  23.014  1.00  0.00    -0.001 A 
ATOM     29  C   UNL A   1      30.648  24.500  24.883  1.00  0.00     0.027 A 
ATOM     30  C   UNL A   1      31.713  26.324  21.750  1.00  0.00     0.014 A 
ATOM     31  C   UNL A   1      30.184  26.952  23.603  1.00  0.00     0.010 A 
ATOM     32  C   UNL A   1      29.809  25.457  25.463  1.00  0.00     0.002 A 
ATOM     33  C   UNL A   1      29.578  26.676  24.828  1.00  0.00     0.001 A 
ENDBRANCH  20  21
ENDBRANCH  17  20
ENDBRANCH  14  17
ENDBRANCH   8  13
ENDBRANCH   4   7
ENDBRANCH   2   3
ENDBRANCH   1   2
BRANCH   1  34
ATOM     34  C   UNL A   1      40.207  21.822  26.188  1.00  0.00     0.023 C 
BRANCH  34  35
ATOM     35  C   UNL A   1      41.717  21.578  26.208  1.00  0.00     0.116 C 
BRANCH  35  36
ATOM     36  N   UNL A   1      42.497  22.354  25.263  1.00  0.00    -0.352 N 
ATOM     37  C   UNL A   1      42.965  23.642  25.233  1.00  0.00     0.251 C 
ATOM     38  H   UNL A   1      42.747  21.840  24.463  1.00  0.00     0.163 HD
ATOM     39  O   UNL A   1      43.840  23.874  24.395  1.00  0.00    -0.269 OA
BRANCH  37  40
ATOM     40  C   UNL A   1      42.448  24.763  26.063  1.00  0.00     0.039 A 
ATOM     41  C   UNL A   1      41.638  25.795  25.597  1.00  0.00     0.014 A 
ATOM     42  C   UNL A   1      42.909  24.823  27.393  1.00  0.00     0.014 A 
ATOM     43  C   UNL A   1      41.422  26.924  26.375  1.00  0.00     0.010 A 
ATOM     44  C   UNL A   1      42.658  25.933  28.195  1.00  0.00     0.010 A 
ATOM     45  C   UNL A   1      41.967  27.014  27.658  1.00  0.00    -0.014 A 
BRANCH  45  46
ATOM     46  C   UNL A   1      41.723  28.245  28.403  1.00  0.00     0.031 A 
ATOM     47  C   UNL A   1      42.834  29.239  28.369  1.00  0.00     0.074 A 
ATOM     48  C   UNL A   1      40.582  28.513  29.066  1.00  0.00     0.049 A 
ATOM     49  N   UNL A   1      43.598  29.605  29.346  1.00  0.00    -0.248 NA
ATOM     50  C   UNL A   1      43.228  29.790  27.066  1.00  0.00     0.031 C 
ATOM     51  C   UNL A   1      39.314  27.783  29.046  1.00  0.00     0.029 A 
ATOM     52  N   UNL A   1      40.307  29.581  29.866  1.00  0.00    -0.354 N 
ATOM     53  C   UNL A   1      44.463  30.568  28.829  1.00  0.00     0.074 A 
ATOM     54  C   UNL A   1      44.277  30.544  27.401  1.00  0.00     0.031 C 
ATOM     55  C   UNL A   1      38.352  28.547  29.612  1.00  0.00     0.029 A 
ATOM     56  C   UNL A   1      38.960  29.751  30.154  1.00  0.00     0.049 A 
ATOM     57  H   UNL A   1      41.006  30.182  30.211  1.00  0.00     0.167 HD
ATOM     58  C   UNL A   1      45.150  31.426  29.636  1.00  0.00     0.037 A 
ATOM     59  C   UNL A   1      38.389  30.833  30.741  1.00  0.00     0.037 A 
ATOM     60  C   UNL A   1      45.157  30.970  31.001  1.00  0.00     0.049 A 
ATOM     61  C   UNL A   1      39.455  31.514  31.526  1.00  0.00     0.074 A 
ATOM     62  C   UNL A   1      45.648  29.851  31.646  1.00  0.00     0.029 A 
ATOM     63  N   UNL A   1      44.289  31.562  31.887  1.00  0.00    -0.354 N 
ATOM     64  N   UNL A   1      40.011  30.997  32.589  1.00  0.00    -0.248 NA
ATOM     65  C   UNL A   1      40.224  32.564  30.874  1.00  0.00     0.031 C 
ATOM     66  C   UNL A   1      44.689  29.561  32.659  1.00  0.00     0.029 A 
ATOM     67  C   UNL A   1      43.704  30.548  32.601  1.00  0.00     0.049 A 
ATOM     68  H   UNL A   1      44.120  32.525  31.989  1.00  0.00     0.167 HD
ATOM     69  C   UNL A   1      41.352  31.340  32.493  1.00  0.00     0.074 A 
ATOM     70  C   UNL A   1      41.407  32.378  31.467  1.00  0.00     0.031 C 
ATOM     71  C   UNL A   1      42.329  30.564  33.050  1.00  0.00     0.037 A 
BRANCH  58  72
ATOM     72  C   UNL A   1      45.546  32.838  29.273  1.00  0.00     0.058 A 
ATOM     73  C   UNL A   1      44.560  33.733  28.802  1.00  0.00     0.135 A 
ATOM     74  C   UNL A   1      46.882  33.246  29.074  1.00  0.00     0.135 A 
ATOM     75  F   UNL A   1      43.255  33.458  28.955  1.00  0.00    -0.206 F 
ATOM     76  C   UNL A   1      44.878  34.888  28.087  1.00  0.00     0.059 A 
ATOM     77  C   UNL A   1      47.222  34.420  28.410  1.00  0.00     0.059 A 
ATOM     78  F   UNL A   1      47.922  32.480  29.424  1.00  0.00    -0.206 F 
ATOM     79  C   UNL A   1      46.215  35.205  27.872  1.00  0.00     0.060 A 
BRANCH  79  80
ATOM     80  S   UNL A   1      46.629  36.597  26.806  1.00  0.00     0.124 S 
ATOM     81  O   UNL A   1      45.480  37.471  27.012  1.00  0.00    -0.237 OA
ATOM     82  O   UNL A   1      47.891  37.052  27.380  1.00  0.00    -0.237 OA
ATOM     83  O   UNL A   1      46.731  35.988  25.483  1.00  0.00    -0.744 OA
ENDBRANCH  79  80
ENDBRANCH  58  72
BRANCH  59  84
ATOM     84  C   UNL A   1      37.091  31.473  30.391  1.00  0.00     0.058 A 
ATOM     85  C   UNL A   1      36.148  31.812  31.378  1.00  0.00     0.135 A 
ATOM     86  C   UNL A   1      36.857  32.010  29.107  1.00  0.00     0.135 A 
ATOM     87  F   UNL A   1      36.296  31.368  32.635  1.00  0.00    -0.206 F 
ATOM     88  C   UNL A   1      35.069  32.668  31.119  1.00  0.00     0.059 A 
ATOM     89  C   UNL A   1      35.784  32.852  28.824  1.00  0.00     0.059 A 
ATOM     90  F   UNL A   1      37.720  31.809  28.101  1.00  0.00    -0.206 F 
ATOM     91  C   UNL A   1      34.908  33.201  29.841  1.00  0.00     0.060 A 
BRANCH  91  92
ATOM     92  S   UNL A   1      33.627  34.443  29.541  1.00  0.00     0.124 S 
ATOM     93  O   UNL A   1      34.370  35.482  28.838  1.00  0.00    -0.237 OA
ATOM     94  O   UNL A   1      32.660  33.697  28.742  1.00  0.00    -0.237 OA
ATOM     95  O   UNL A   1      33.177  34.798  30.884  1.00  0.00    -0.744 OA
ENDBRANCH  91  92
ENDBRANCH  59  84
BRANCH  71  96
ATOM     96  C   UNL A   1      41.930  29.461  33.993  1.00  0.00     0.058 A 
ATOM     97  C   UNL A   1      41.666  28.142  33.585  1.00  0.00     0.135 A 
ATOM     98  C   UNL A   1      42.031  29.698  35.373  1.00  0.00     0.135 A 
ATOM     99  F   UNL A   1      41.655  27.811  32.287  1.00  0.00    -0.206 F 
ATOM    100  C   UNL A   1      41.493  27.109  34.508  1.00  0.00     0.059 A 
ATOM    101  C   UNL A   1      41.893  28.677  36.310  1.00  0.00     0.059 A 
ATOM    102  F   UNL A   1      42.344  30.924  35.823  1.00  0.00    -0.206 F 
ATOM    103  C   UNL A   1      41.621  27.384  35.869  1.00  0.00     0.060 A 
BRANCH 103 104
ATOM    104  S   UNL A   1      41.533  26.018  37.047  1.00  0.00     0.124 S 
ATOM    105  O   UNL A   1      40.220  26.211  37.645  1.00  0.00    -0.237 OA
ATOM    106  O   UNL A   1      41.675  24.848  36.186  1.00  0.00    -0.237 OA
ATOM    107  O   UNL A   1      42.670  26.262  37.937  1.00  0.00    -0.744 OA
ENDBRANCH 103 104
ENDBRANCH  71  96
ENDBRANCH  45  46
ENDBRANCH  37  40
ENDBRANCH  35  36
ENDBRANCH  34  35
ENDBRANCH   1  34
TORSDOF 19
ENDMDL
MODEL 3
REMARK VINA RESULT:     -13.1      2.460      3.542
REMARK SMILES CC[C@@H](Sc1nnc2ccc3ccccc3n12)C(=O)Nc1cccc(C(=O)NCCCCNC(=O)c2ccc(-c3c4nc(c(-c5c(F)cc(S(=O)(=O)[O-])cc5F)c5ccc([nH]5)c(-c5c(F)cc(S(=O)(=O)[O-])cc5F)c5nc(c(-c6c(F)cc(S(=O)(=O)[O-])cc6F)c6ccc3[nH]6)C=C5)C=C4)cc2)c1
REMARK SMILES IDX 30 1 29 2 28 3 26 4 27 5 25 7 21 8 22 9 102 10 23 11 24 12
REMARK SMILES IDX 20 13 18 14 19 15 3 17 2 18 1 19 4 20 5 21 6 22 17 23 7 24
REMARK SMILES IDX 8 25 16 26 9 27 11 28 15 29 10 30 12 31 14 32 13 33 31 34
REMARK SMILES IDX 32 35 33 36 34 37 35 39 36 40 37 41 101 42 38 43 100 44
REMARK SMILES IDX 39 45 40 46 41 47 94 48 42 49 99 50 93 51 95 52 43 53 98 54
REMARK SMILES IDX 92 55 91 56 44 58 78 59 57 60 77 61 58 62 61 63 76 64 96 65
REMARK SMILES IDX 59 66 60 67 75 69 97 70 62 71 45 72 46 73 55 74 47 75 48 76
REMARK SMILES IDX 54 77 56 78 49 79 50 80 51 81 52 82 53 83 79 84 80 85 89 86
REMARK SMILES IDX 81 87 82 88 88 89 90 90 83 91 84 92 85 93 86 94 87 95 63 96
REMARK SMILES IDX 64 97 73 98 65 99 66 100 72 101 74 102 67 103 68 104 69 105
REMARK SMILES IDX 70 106 71 107
REMARK H PARENT 28 6 20 16 33 38 95 57 61 68
REMARK Flexibility Score: inf
ROOT
ATOM      1  C   UNL A   1      40.585  21.569  27.211  1.00  0.00     0.023 C 
ENDROOT
BRANCH   1   2
ATOM      2  C   UNL A   1      39.380  22.120  26.473  1.00  0.00     0.116 C 
BRANCH   2   3
ATOM      3  N   UNL A   1      38.609  21.142  25.733  1.00  0.00    -0.352 N 
ATOM      4  C   UNL A   1      37.313  21.154  25.275  1.00  0.00     0.251 C 
ATOM      5  O   UNL A   1      36.943  20.184  24.610  1.00  0.00    -0.269 OA
ATOM      6  H   UNL A   1      39.104  20.319  25.517  1.00  0.00     0.163 HD
BRANCH   4   7
ATOM      7  C   UNL A   1      36.325  22.238  25.568  1.00  0.00     0.041 A 
ATOM      8  C   UNL A   1      34.155  23.072  26.230  1.00  0.00     0.041 A 
ATOM      9  C   UNL A   1      34.537  24.363  25.906  1.00  0.00     0.026 A 
ATOM     10  C   UNL A   1      35.114  22.062  26.243  1.00  0.00     0.040 A 
ATOM     11  C   UNL A   1      35.769  24.593  25.306  1.00  0.00     0.003 A 
ATOM     12  C   UNL A   1      36.632  23.521  25.081  1.00  0.00     0.014 A 
BRANCH   8  13
ATOM     13  N   UNL A   1      32.821  22.722  26.482  1.00  0.00    -0.325 N 
ATOM     14  C   UNL A   1      31.763  22.651  25.597  1.00  0.00     0.237 C 
ATOM     15  O   UNL A   1      30.703  22.208  26.064  1.00  0.00    -0.273 OA
ATOM     16  H   UNL A   1      32.610  22.497  27.417  1.00  0.00     0.169 HD
BRANCH  14  17
ATOM     17  C   UNL A   1      31.830  23.031  24.085  1.00  0.00     0.144 C 
BRANCH  17  18
ATOM     18  C   UNL A   1      31.913  21.775  23.206  1.00  0.00     0.021 C 
ATOM     19  C   UNL A   1      32.966  20.729  23.522  1.00  0.00     0.005 C 
ENDBRANCH  17  18
BRANCH  17  20
ATOM     20  S   UNL A   1      30.479  24.235  23.740  1.00  0.00    -0.072 SA
BRANCH  20  21
ATOM     21  C   UNL A   1      30.676  25.482  24.925  1.00  0.00     0.196 A 
ATOM     22  N   UNL A   1      30.004  25.554  26.051  1.00  0.00    -0.122 NA
ATOM     23  N   UNL A   1      31.686  26.428  24.935  1.00  0.00    -0.270 N 
ATOM     24  N   UNL A   1      30.713  26.345  26.921  1.00  0.00    -0.129 NA
ATOM     25  C   UNL A   1      31.753  26.820  26.268  1.00  0.00     0.161 A 
ATOM     26  C   UNL A   1      32.529  26.984  23.935  1.00  0.00     0.057 A 
ATOM     27  C   UNL A   1      32.834  27.618  26.709  1.00  0.00     0.050 A 
ATOM     28  C   UNL A   1      33.538  27.861  24.387  1.00  0.00    -0.001 A 
ATOM     29  C   UNL A   1      32.336  26.786  22.567  1.00  0.00     0.027 A 
ATOM     30  C   UNL A   1      33.710  28.116  25.825  1.00  0.00     0.014 A 
ATOM     31  C   UNL A   1      34.353  28.518  23.460  1.00  0.00     0.010 A 
ATOM     32  C   UNL A   1      33.153  27.456  21.651  1.00  0.00     0.002 A 
ATOM     33  C   UNL A   1      34.157  28.317  22.095  1.00  0.00     0.001 A 
ENDBRANCH  20  21
ENDBRANCH  17  20
ENDBRANCH  14  17
ENDBRANCH   8  13
ENDBRANCH   4   7
ENDBRANCH   2   3
ENDBRANCH   1   2
BRANCH   1  34
ATOM     34  C   UNL A   1      40.846  20.073  27.098  1.00  0.00     0.023 C 
BRANCH  34  35
ATOM     35  C   UNL A   1      42.308  19.625  27.149  1.00  0.00     0.116 C 
BRANCH  35  36
ATOM     36  N   UNL A   1      43.060  19.773  25.918  1.00  0.00    -0.352 N 
ATOM     37  C   UNL A   1      43.856  20.755  25.392  1.00  0.00     0.251 C 
ATOM     38  H   UNL A   1      42.980  18.990  25.327  1.00  0.00     0.163 HD
ATOM     39  O   UNL A   1      44.566  20.418  24.440  1.00  0.00    -0.269 OA
BRANCH  37  40
ATOM     40  C   UNL A   1      43.864  22.179  25.825  1.00  0.00     0.039 A 
ATOM     41  C   UNL A   1      44.516  22.666  26.955  1.00  0.00     0.014 A 
ATOM     42  C   UNL A   1      43.063  23.066  25.080  1.00  0.00     0.014 A 
ATOM     43  C   UNL A   1      44.254  23.949  27.417  1.00  0.00     0.010 A 
ATOM     44  C   UNL A   1      42.833  24.369  25.514  1.00  0.00     0.010 A 
ATOM     45  C   UNL A   1      43.379  24.787  26.721  1.00  0.00    -0.014 A 
BRANCH  45  46
ATOM     46  C   UNL A   1      43.131  26.110  27.286  1.00  0.00     0.031 A 
ATOM     47  C   UNL A   1      44.154  27.143  26.957  1.00  0.00     0.074 A 
ATOM     48  C   UNL A   1      42.055  26.421  28.033  1.00  0.00     0.049 A 
ATOM     49  N   UNL A   1      44.994  27.708  27.762  1.00  0.00    -0.248 NA
ATOM     50  C   UNL A   1      44.356  27.490  25.545  1.00  0.00     0.031 C 
ATOM     51  C   UNL A   1      40.850  25.630  28.285  1.00  0.00     0.029 A 
ATOM     52  N   UNL A   1      41.793  27.591  28.682  1.00  0.00    -0.354 N 
ATOM     53  C   UNL A   1      45.721  28.617  26.997  1.00  0.00     0.074 A 
ATOM     54  C   UNL A   1      45.378  28.346  25.624  1.00  0.00     0.031 C 
ATOM     55  C   UNL A   1      39.904  26.424  28.838  1.00  0.00     0.029 A 
ATOM     56  C   UNL A   1      40.479  27.732  29.103  1.00  0.00     0.049 A 
ATOM     57  H   UNL A   1      42.481  28.279  28.838  1.00  0.00     0.167 HD
ATOM     58  C   UNL A   1      46.429  29.634  27.566  1.00  0.00     0.037 A 
ATOM     59  C   UNL A   1      39.899  28.864  29.576  1.00  0.00     0.037 A 
ATOM     60  C   UNL A   1      46.625  29.412  28.975  1.00  0.00     0.049 A 
ATOM     61  C   UNL A   1      40.993  29.724  30.106  1.00  0.00     0.074 A 
ATOM     62  C   UNL A   1      47.267  28.444  29.723  1.00  0.00     0.029 A 
ATOM     63  N   UNL A   1      45.821  30.094  29.856  1.00  0.00    -0.354 N 
ATOM     64  N   UNL A   1      41.702  29.422  31.161  1.00  0.00    -0.248 NA
ATOM     65  C   UNL A   1      41.605  30.691  29.206  1.00  0.00     0.031 C 
ATOM     66  C   UNL A   1      46.452  28.275  30.880  1.00  0.00     0.029 A 
ATOM     67  C   UNL A   1      45.396  29.183  30.789  1.00  0.00     0.049 A 
ATOM     68  H   UNL A   1      45.593  31.051  29.824  1.00  0.00     0.167 HD
ATOM     69  C   UNL A   1      42.994  29.816  30.847  1.00  0.00     0.074 A 
ATOM     70  C   UNL A   1      42.857  30.671  29.670  1.00  0.00     0.031 C 
ATOM     71  C   UNL A   1      44.083  29.198  31.395  1.00  0.00     0.037 A 
BRANCH  58  72
ATOM     72  C   UNL A   1      46.677  30.985  26.938  1.00  0.00     0.058 A 
ATOM     73  C   UNL A   1      47.989  31.507  26.916  1.00  0.00     0.135 A 
ATOM     74  C   UNL A   1      45.650  31.907  26.643  1.00  0.00     0.135 A 
ATOM     75  F   UNL A   1      49.046  30.717  27.161  1.00  0.00    -0.206 F 
ATOM     76  C   UNL A   1      48.250  32.865  26.730  1.00  0.00     0.059 A 
ATOM     77  C   UNL A   1      45.893  33.255  26.403  1.00  0.00     0.059 A 
ATOM     78  F   UNL A   1      44.356  31.568  26.673  1.00  0.00    -0.206 F 
ATOM     79  C   UNL A   1      47.189  33.735  26.503  1.00  0.00     0.060 A 
BRANCH  79  80
ATOM     80  S   UNL A   1      47.503  35.507  26.434  1.00  0.00     0.124 S 
ATOM     81  O   UNL A   1      48.510  35.582  25.382  1.00  0.00    -0.237 OA
ATOM     82  O   UNL A   1      46.185  36.035  26.098  1.00  0.00    -0.237 OA
ATOM     83  O   UNL A   1      47.972  35.818  27.781  1.00  0.00    -0.744 OA
ENDBRANCH  79  80
ENDBRANCH  58  72
BRANCH  59  84
ATOM     84  C   UNL A   1      38.526  29.365  29.293  1.00  0.00     0.058 A 
ATOM     85  C   UNL A   1      37.651  29.743  30.327  1.00  0.00     0.135 A 
ATOM     86  C   UNL A   1      38.132  29.737  27.989  1.00  0.00     0.135 A 
ATOM     87  F   UNL A   1      37.949  29.453  31.603  1.00  0.00    -0.206 F 
ATOM     88  C   UNL A   1      36.486  30.484  30.089  1.00  0.00     0.059 A 
ATOM     89  C   UNL A   1      36.973  30.463  27.727  1.00  0.00     0.059 A 
ATOM     90  F   UNL A   1      38.915  29.490  26.928  1.00  0.00    -0.206 F 
ATOM     91  C   UNL A   1      36.166  30.859  28.785  1.00  0.00     0.060 A 
BRANCH  91  92
ATOM     92  S   UNL A   1      34.765  31.963  28.486  1.00  0.00     0.124 S 
ATOM     93  O   UNL A   1      33.813  31.074  27.829  1.00  0.00    -0.237 OA
ATOM     94  O   UNL A   1      34.416  32.386  29.838  1.00  0.00    -0.237 OA
ATOM     95  O   UNL A   1      35.330  33.008  27.637  1.00  0.00    -0.744 OA
ENDBRANCH  91  92
ENDBRANCH  59  84
BRANCH  71  96
ATOM     96  C   UNL A   1      43.875  28.248  32.543  1.00  0.00     0.058 A 
ATOM     97  C   UNL A   1      43.708  28.659  33.877  1.00  0.00     0.135 A 
ATOM     98  C   UNL A   1      43.621  26.898  32.251  1.00  0.00     0.135 A 
ATOM     99  F   UNL A   1      43.832  29.948  34.221  1.00  0.00    -0.206 F 
ATOM    100  C   UNL A   1      43.323  27.766  34.878  1.00  0.00     0.059 A 
ATOM    101  C   UNL A   1      43.205  25.997  33.228  1.00  0.00     0.059 A 
ATOM    102  F   UNL A   1      43.700  26.458  30.985  1.00  0.00    -0.206 F 
ATOM    103  C   UNL A   1      43.061  26.439  34.542  1.00  0.00     0.060 A 
BRANCH 103 104
ATOM    104  S   UNL A   1      42.430  25.324  35.815  1.00  0.00     0.124 S 
ATOM    105  O   UNL A   1      43.359  25.554  36.913  1.00  0.00    -0.237 OA
ATOM    106  O   UNL A   1      41.070  25.813  36.018  1.00  0.00    -0.237 OA
ATOM    107  O   UNL A   1      42.518  24.004  35.186  1.00  0.00    -0.744 OA
ENDBRANCH 103 104
ENDBRANCH  71  96
ENDBRANCH  45  46
ENDBRANCH  37  40
ENDBRANCH  35  36
ENDBRANCH  34  35
ENDBRANCH   1  34
TORSDOF 19
ENDMDL
