MODEL 1
REMARK VINA RESULT:     -12.1      0.000      0.000
REMARK SMILES COc1cc(/C=C2\SC(=S)N(CC(=O)NCCCCNC(=O)c3ccc(-c4c5nc(c(-c6c(F)cc(S(=O)(=O)[O-])cc6F)c6ccc([nH]6)c(-c6c(F)cc(S(=O)(=O)[O-])cc6F)c6nc(c(-c7c(F)cc(S(=O)(=O)[O-])cc7F)c7ccc4[nH]7)C=C6)C=C5)cc3)C2=O)cc2c1OCO2
REMARK SMILES IDX 17 1 16 2 15 3 13 4 14 5 12 7 11 8 6 9 7 10 8 11 89 12 9 13
REMARK SMILES IDX 90 14 10 15 5 16 3 17 4 18 93 19 92 20 94 21 91 22 96 23
REMARK SMILES IDX 95 24 2 25 1 26 18 27 19 28 20 29 21 30 22 32 23 33 24 34
REMARK SMILES IDX 88 35 25 36 87 37 26 38 27 39 28 40 81 41 29 42 86 43 80 44
REMARK SMILES IDX 82 45 30 46 85 47 79 48 78 49 31 51 65 52 44 53 64 54 45 55
REMARK SMILES IDX 48 56 63 57 83 58 46 59 47 60 62 62 84 63 49 64 32 65 33 66
REMARK SMILES IDX 42 67 34 68 35 69 41 70 43 71 36 72 37 73 38 74 39 75 40 76
REMARK SMILES IDX 66 77 67 78 76 79 68 80 69 81 75 82 77 83 70 84 71 85 72 86
REMARK SMILES IDX 73 87 74 88 50 89 51 90 60 91 52 92 53 93 59 94 61 95 54 96
REMARK SMILES IDX 55 97 56 98 57 99 58 100
REMARK H PARENT 15 6 20 31 82 50 48 61
REMARK Flexibility Score: inf
ROOT
ATOM      1  C   UNL A   1      33.621  28.342  25.722  1.00  0.00     0.023 C 
ENDROOT
BRANCH   1   2
ATOM      2  C   UNL A   1      33.428  28.939  24.331  1.00  0.00     0.116 C 
BRANCH   2   3
ATOM      3  N   UNL A   1      32.123  29.543  24.168  1.00  0.00    -0.355 N 
ATOM      4  C   UNL A   1      31.079  29.176  23.374  1.00  0.00     0.240 C 
ATOM      5  O   UNL A   1      29.979  29.680  23.619  1.00  0.00    -0.273 OA
ATOM      6  H   UNL A   1      31.966  30.344  24.718  1.00  0.00     0.163 HD
BRANCH   4   7
ATOM      7  C   UNL A   1      31.201  28.046  22.344  1.00  0.00     0.227 C 
BRANCH   7   8
ATOM      8  N   UNL A   1      31.418  26.716  22.910  1.00  0.00    -0.283 N 
ATOM      9  C   UNL A   1      33.627  23.850  22.957  1.00  0.00     0.029 C 
ATOM     10  C   UNL A   1      32.608  24.696  23.160  1.00  0.00     0.081 C 
ATOM     11  S   UNL A   1      31.214  24.464  24.135  1.00  0.00    -0.054 SA
ATOM     12  C   UNL A   1      32.562  26.036  22.519  1.00  0.00     0.266 C 
ATOM     13  C   UNL A   1      30.510  26.002  23.660  1.00  0.00     0.148 C 
ATOM     14  O   UNL A   1      33.403  26.440  21.735  1.00  0.00    -0.268 OA
ATOM     15  S   UNL A   1      28.950  26.417  24.085  1.00  0.00    -0.052 S 
BRANCH   9  16
ATOM     16  C   UNL A   1      33.751  22.508  23.539  1.00  0.00    -0.017 A 
ATOM     17  C   UNL A   1      35.084  20.899  24.816  1.00  0.00     0.165 A 
ATOM     18  C   UNL A   1      34.927  22.165  24.236  1.00  0.00     0.058 A 
ATOM     19  C   UNL A   1      34.030  20.009  24.715  1.00  0.00     0.207 A 
ATOM     20  C   UNL A   1      32.887  20.342  24.023  1.00  0.00     0.170 A 
ATOM     21  O   UNL A   1      33.933  18.766  25.265  1.00  0.00    -0.450 OA
ATOM     22  C   UNL A   1      32.726  21.565  23.406  1.00  0.00     0.059 A 
ATOM     23  O   UNL A   1      31.949  19.356  24.043  1.00  0.00    -0.453 OA
ATOM     24  C   UNL A   1      32.587  18.402  24.910  1.00  0.00     0.468 C 
BRANCH  17  25
ATOM     25  O   UNL A   1      36.255  20.700  25.488  1.00  0.00    -0.493 OA
ATOM     26  C   UNL A   1      37.101  21.842  25.569  1.00  0.00     0.278 C 
ENDBRANCH  17  25
ENDBRANCH   9  16
ENDBRANCH   7   8
ENDBRANCH   4   7
ENDBRANCH   2   3
ENDBRANCH   1   2
BRANCH   1  27
ATOM     27  C   UNL A   1      33.836  29.377  26.829  1.00  0.00     0.023 C 
BRANCH  27  28
ATOM     28  C   UNL A   1      35.194  29.317  27.522  1.00  0.00     0.116 C 
BRANCH  28  29
ATOM     29  N   UNL A   1      35.242  30.085  28.757  1.00  0.00    -0.352 N 
ATOM     30  C   UNL A   1      36.306  30.281  29.606  1.00  0.00     0.251 C 
ATOM     31  H   UNL A   1      34.400  30.523  29.019  1.00  0.00     0.163 HD
ATOM     32  O   UNL A   1      36.139  30.852  30.680  1.00  0.00    -0.269 OA
BRANCH  30  33
ATOM     33  C   UNL A   1      37.640  29.767  29.232  1.00  0.00     0.039 A 
ATOM     34  C   UNL A   1      38.040  29.828  27.895  1.00  0.00     0.014 A 
ATOM     35  C   UNL A   1      38.508  29.263  30.204  1.00  0.00     0.014 A 
ATOM     36  C   UNL A   1      39.339  29.454  27.545  1.00  0.00     0.010 A 
ATOM     37  C   UNL A   1      39.825  28.967  29.867  1.00  0.00     0.010 A 
ATOM     38  C   UNL A   1      40.256  29.060  28.535  1.00  0.00    -0.014 A 
BRANCH  38  39
ATOM     39  C   UNL A   1      41.672  28.759  28.201  1.00  0.00     0.031 A 
ATOM     40  C   UNL A   1      42.082  27.365  27.817  1.00  0.00     0.074 A 
ATOM     41  C   UNL A   1      42.602  29.728  28.312  1.00  0.00     0.049 A 
ATOM     42  N   UNL A   1      43.273  26.900  27.539  1.00  0.00    -0.248 NA
ATOM     43  C   UNL A   1      41.016  26.352  27.769  1.00  0.00     0.031 C 
ATOM     44  C   UNL A   1      42.338  31.111  28.718  1.00  0.00     0.029 A 
ATOM     45  N   UNL A   1      43.958  29.700  28.098  1.00  0.00    -0.354 N 
ATOM     46  C   UNL A   1      43.103  25.541  27.299  1.00  0.00     0.074 A 
ATOM     47  C   UNL A   1      41.704  25.247  27.523  1.00  0.00     0.031 C 
ATOM     48  C   UNL A   1      43.486  31.806  28.686  1.00  0.00     0.029 A 
ATOM     49  C   UNL A   1      44.575  30.911  28.303  1.00  0.00     0.049 A 
ATOM     50  H   UNL A   1      44.442  28.888  27.826  1.00  0.00     0.167 HD
ATOM     51  C   UNL A   1      44.023  24.626  26.906  1.00  0.00     0.037 A 
ATOM     52  C   UNL A   1      45.871  31.264  28.196  1.00  0.00     0.037 A 
ATOM     53  C   UNL A   1      45.412  24.932  26.676  1.00  0.00     0.049 A 
ATOM     54  C   UNL A   1      46.881  30.228  27.785  1.00  0.00     0.074 A 
ATOM     55  C   UNL A   1      46.411  24.095  26.214  1.00  0.00     0.029 A 
ATOM     56  N   UNL A   1      46.001  26.168  26.905  1.00  0.00    -0.354 N 
ATOM     57  N   UNL A   1      46.692  28.965  27.486  1.00  0.00    -0.248 NA
ATOM     58  C   UNL A   1      48.280  30.666  27.693  1.00  0.00     0.031 C 
ATOM     59  C   UNL A   1      47.617  24.806  26.222  1.00  0.00     0.029 A 
ATOM     60  C   UNL A   1      47.358  26.106  26.629  1.00  0.00     0.049 A 
ATOM     61  H   UNL A   1      45.526  26.970  27.219  1.00  0.00     0.167 HD
ATOM     62  C   UNL A   1      47.943  28.463  27.143  1.00  0.00     0.074 A 
ATOM     63  C   UNL A   1      48.878  29.563  27.264  1.00  0.00     0.031 C 
ATOM     64  C   UNL A   1      48.282  27.207  26.757  1.00  0.00     0.037 A 
BRANCH  51  65
ATOM     65  C   UNL A   1      43.552  23.206  26.726  1.00  0.00     0.058 A 
ATOM     66  C   UNL A   1      43.231  22.384  27.820  1.00  0.00     0.135 A 
ATOM     67  C   UNL A   1      43.429  22.655  25.440  1.00  0.00     0.135 A 
ATOM     68  F   UNL A   1      43.338  22.854  29.073  1.00  0.00    -0.206 F 
ATOM     69  C   UNL A   1      42.864  21.054  27.649  1.00  0.00     0.059 A 
ATOM     70  C   UNL A   1      43.029  21.336  25.244  1.00  0.00     0.059 A 
ATOM     71  F   UNL A   1      43.715  23.393  24.356  1.00  0.00    -0.206 F 
ATOM     72  C   UNL A   1      42.774  20.536  26.356  1.00  0.00     0.060 A 
BRANCH  72  73
ATOM     73  S   UNL A   1      42.342  18.796  26.152  1.00  0.00     0.124 S 
ATOM     74  O   UNL A   1      40.951  18.891  25.719  1.00  0.00    -0.237 OA
ATOM     75  O   UNL A   1      43.293  18.354  25.136  1.00  0.00    -0.237 OA
ATOM     76  O   UNL A   1      42.546  18.235  27.484  1.00  0.00    -0.744 OA
ENDBRANCH  72  73
ENDBRANCH  51  65
BRANCH  52  77
ATOM     77  C   UNL A   1      46.273  32.675  28.436  1.00  0.00     0.058 A 
ATOM     78  C   UNL A   1      46.219  33.619  27.401  1.00  0.00     0.135 A 
ATOM     79  C   UNL A   1      46.669  33.122  29.707  1.00  0.00     0.135 A 
ATOM     80  F   UNL A   1      45.855  33.240  26.166  1.00  0.00    -0.206 F 
ATOM     81  C   UNL A   1      46.541  34.955  27.614  1.00  0.00     0.059 A 
ATOM     82  C   UNL A   1      46.973  34.458  29.951  1.00  0.00     0.059 A 
ATOM     83  F   UNL A   1      46.724  32.260  30.735  1.00  0.00    -0.206 F 
ATOM     84  C   UNL A   1      46.908  35.367  28.896  1.00  0.00     0.060 A 
BRANCH  84  85
ATOM     85  S   UNL A   1      47.242  37.120  29.176  1.00  0.00     0.124 S 
ATOM     86  O   UNL A   1      45.984  37.571  29.759  1.00  0.00    -0.237 OA
ATOM     87  O   UNL A   1      48.387  37.070  30.081  1.00  0.00    -0.237 OA
ATOM     88  O   UNL A   1      47.534  37.623  27.836  1.00  0.00    -0.744 OA
ENDBRANCH  84  85
ENDBRANCH  52  77
BRANCH  64  89
ATOM     89  C   UNL A   1      49.725  26.955  26.407  1.00  0.00     0.058 A 
ATOM     90  C   UNL A   1      50.649  26.490  27.356  1.00  0.00     0.135 A 
ATOM     91  C   UNL A   1      50.175  27.130  25.087  1.00  0.00     0.135 A 
ATOM     92  F   UNL A   1      50.275  26.314  28.633  1.00  0.00    -0.206 F 
ATOM     93  C   UNL A   1      51.972  26.227  27.014  1.00  0.00     0.059 A 
ATOM     94  C   UNL A   1      51.485  26.843  24.717  1.00  0.00     0.059 A 
ATOM     95  F   UNL A   1      49.332  27.563  24.136  1.00  0.00    -0.206 F 
ATOM     96  C   UNL A   1      52.380  26.403  25.690  1.00  0.00     0.060 A 
BRANCH  96  97
ATOM     97  S   UNL A   1      54.089  26.021  25.254  1.00  0.00     0.124 S 
ATOM     98  O   UNL A   1      54.365  27.027  24.232  1.00  0.00    -0.237 OA
ATOM     99  O   UNL A   1      54.784  26.202  26.525  1.00  0.00    -0.237 OA
ATOM    100  O   UNL A   1      54.019  24.644  24.776  1.00  0.00    -0.744 OA
ENDBRANCH  96  97
ENDBRANCH  64  89
ENDBRANCH  38  39
ENDBRANCH  30  33
ENDBRANCH  28  29
ENDBRANCH  27  28
ENDBRANCH   1  27
TORSDOF 17
ENDMDL
MODEL 2
REMARK VINA RESULT:     -11.9      6.507     11.577
REMARK SMILES COc1cc(/C=C2\SC(=S)N(CC(=O)NCCCCNC(=O)c3ccc(-c4c5nc(c(-c6c(F)cc(S(=O)(=O)[O-])cc6F)c6ccc([nH]6)c(-c6c(F)cc(S(=O)(=O)[O-])cc6F)c6nc(c(-c7c(F)cc(S(=O)(=O)[O-])cc7F)c7ccc4[nH]7)C=C6)C=C5)cc3)C2=O)cc2c1OCO2
REMARK SMILES IDX 17 1 16 2 15 3 13 4 14 5 12 7 11 8 6 9 7 10 8 11 89 12 9 13
REMARK SMILES IDX 90 14 10 15 5 16 3 17 4 18 93 19 92 20 94 21 91 22 96 23
REMARK SMILES IDX 95 24 2 25 1 26 18 27 19 28 20 29 21 30 22 32 23 33 24 34
REMARK SMILES IDX 88 35 25 36 87 37 26 38 27 39 28 40 81 41 29 42 86 43 80 44
REMARK SMILES IDX 82 45 30 46 85 47 79 48 78 49 31 51 65 52 44 53 64 54 45 55
REMARK SMILES IDX 48 56 63 57 83 58 46 59 47 60 62 62 84 63 49 64 32 65 33 66
REMARK SMILES IDX 42 67 34 68 35 69 41 70 43 71 36 72 37 73 38 74 39 75 40 76
REMARK SMILES IDX 66 77 67 78 76 79 68 80 69 81 75 82 77 83 70 84 71 85 72 86
REMARK SMILES IDX 73 87 74 88 50 89 51 90 60 91 52 92 53 93 59 94 61 95 54 96
REMARK SMILES IDX 55 97 56 98 57 99 58 100
REMARK H PARENT 15 6 20 31 82 50 48 61
REMARK Flexibility Score: inf
ROOT
ATOM      1  C   UNL A   1      38.050  22.052  25.451  1.00  0.00     0.023 C 
ENDROOT
BRANCH   1   2
ATOM      2  C   UNL A   1      36.593  21.819  25.060  1.00  0.00     0.116 C 
BRANCH   2   3
ATOM      3  N   UNL A   1      35.704  21.865  26.199  1.00  0.00    -0.355 N 
ATOM      4  C   UNL A   1      34.343  21.835  26.253  1.00  0.00     0.240 C 
ATOM      5  O   UNL A   1      33.826  21.603  27.350  1.00  0.00    -0.273 OA
ATOM      6  H   UNL A   1      36.153  21.929  27.074  1.00  0.00     0.163 HD
BRANCH   4   7
ATOM      7  C   UNL A   1      33.479  21.890  24.986  1.00  0.00     0.227 C 
BRANCH   7   8
ATOM      8  N   UNL A   1      32.663  23.094  24.848  1.00  0.00    -0.283 N 
ATOM      9  C   UNL A   1      32.612  26.508  23.648  1.00  0.00     0.029 C 
ATOM     10  C   UNL A   1      32.293  25.333  24.207  1.00  0.00     0.081 C 
ATOM     11  S   UNL A   1      30.821  24.885  24.968  1.00  0.00    -0.054 SA
ATOM     12  C   UNL A   1      33.246  24.192  24.234  1.00  0.00     0.266 C 
ATOM     13  C   UNL A   1      31.428  23.300  25.423  1.00  0.00     0.148 C 
ATOM     14  O   UNL A   1      34.386  24.253  23.807  1.00  0.00    -0.268 OA
ATOM     15  S   UNL A   1      30.564  22.291  26.434  1.00  0.00    -0.052 S 
BRANCH   9  16
ATOM     16  C   UNL A   1      31.742  27.687  23.583  1.00  0.00    -0.017 A 
ATOM     17  C   UNL A   1      31.006  29.800  24.580  1.00  0.00     0.165 A 
ATOM     18  C   UNL A   1      31.811  28.653  24.608  1.00  0.00     0.058 A 
ATOM     19  C   UNL A   1      30.167  29.972  23.494  1.00  0.00     0.207 A 
ATOM     20  C   UNL A   1      30.092  29.021  22.500  1.00  0.00     0.170 A 
ATOM     21  O   UNL A   1      29.363  31.038  23.224  1.00  0.00    -0.450 OA
ATOM     22  C   UNL A   1      30.841  27.864  22.526  1.00  0.00     0.059 A 
ATOM     23  O   UNL A   1      29.231  29.365  21.503  1.00  0.00    -0.453 OA
ATOM     24  C   UNL A   1      28.848  30.684  21.927  1.00  0.00     0.468 C 
BRANCH  17  25
ATOM     25  O   UNL A   1      31.188  30.672  25.614  1.00  0.00    -0.493 OA
ATOM     26  C   UNL A   1      31.990  30.177  26.681  1.00  0.00     0.278 C 
ENDBRANCH  17  25
ENDBRANCH   9  16
ENDBRANCH   7   8
ENDBRANCH   4   7
ENDBRANCH   2   3
ENDBRANCH   1   2
BRANCH   1  27
ATOM     27  C   UNL A   1      38.311  23.391  26.146  1.00  0.00     0.023 C 
BRANCH  27  28
ATOM     28  C   UNL A   1      39.580  23.449  26.991  1.00  0.00     0.116 C 
BRANCH  28  29
ATOM     29  N   UNL A   1      40.769  23.773  26.217  1.00  0.00    -0.352 N 
ATOM     30  C   UNL A   1      41.535  24.916  26.257  1.00  0.00     0.251 C 
ATOM     31  H   UNL A   1      41.065  23.083  25.582  1.00  0.00     0.163 HD
ATOM     32  O   UNL A   1      42.434  25.081  25.438  1.00  0.00    -0.269 OA
BRANCH  30  33
ATOM     33  C   UNL A   1      41.241  25.954  27.267  1.00  0.00     0.039 A 
ATOM     34  C   UNL A   1      40.262  25.704  28.231  1.00  0.00     0.014 A 
ATOM     35  C   UNL A   1      41.958  27.153  27.285  1.00  0.00     0.014 A 
ATOM     36  C   UNL A   1      40.055  26.626  29.259  1.00  0.00     0.010 A 
ATOM     37  C   UNL A   1      41.807  28.031  28.354  1.00  0.00     0.010 A 
ATOM     38  C   UNL A   1      40.855  27.778  29.353  1.00  0.00    -0.014 A 
BRANCH  38  39
ATOM     39  C   UNL A   1      40.726  28.718  30.496  1.00  0.00     0.031 A 
ATOM     40  C   UNL A   1      41.617  28.578  31.699  1.00  0.00     0.074 A 
ATOM     41  C   UNL A   1      39.757  29.655  30.480  1.00  0.00     0.049 A 
ATOM     42  N   UNL A   1      41.622  29.270  32.809  1.00  0.00    -0.248 NA
ATOM     43  C   UNL A   1      42.614  27.498  31.661  1.00  0.00     0.031 C 
ATOM     44  C   UNL A   1      38.801  29.864  29.391  1.00  0.00     0.029 A 
ATOM     45  N   UNL A   1      39.413  30.605  31.409  1.00  0.00    -0.354 N 
ATOM     46  C   UNL A   1      42.608  28.701  33.607  1.00  0.00     0.074 A 
ATOM     47  C   UNL A   1      43.138  27.570  32.875  1.00  0.00     0.031 C 
ATOM     48  C   UNL A   1      38.005  30.901  29.696  1.00  0.00     0.029 A 
ATOM     49  C   UNL A   1      38.362  31.403  31.021  1.00  0.00     0.049 A 
ATOM     50  H   UNL A   1      39.874  30.706  32.272  1.00  0.00     0.167 HD
ATOM     51  C   UNL A   1      43.048  29.097  34.826  1.00  0.00     0.037 A 
ATOM     52  C   UNL A   1      37.752  32.420  31.658  1.00  0.00     0.037 A 
ATOM     53  C   UNL A   1      42.521  30.231  35.541  1.00  0.00     0.049 A 
ATOM     54  C   UNL A   1      38.237  32.828  33.022  1.00  0.00     0.074 A 
ATOM     55  C   UNL A   1      42.939  30.755  36.751  1.00  0.00     0.029 A 
ATOM     56  N   UNL A   1      41.448  31.005  35.120  1.00  0.00    -0.354 N 
ATOM     57  N   UNL A   1      39.222  32.329  33.730  1.00  0.00    -0.248 NA
ATOM     58  C   UNL A   1      37.530  33.939  33.673  1.00  0.00     0.031 C 
ATOM     59  C   UNL A   1      42.082  31.808  37.091  1.00  0.00     0.029 A 
ATOM     60  C   UNL A   1      41.168  31.982  36.063  1.00  0.00     0.049 A 
ATOM     61  H   UNL A   1      40.958  30.880  34.276  1.00  0.00     0.167 HD
ATOM     62  C   UNL A   1      39.273  33.082  34.897  1.00  0.00     0.074 A 
ATOM     63  C   UNL A   1      38.224  34.076  34.796  1.00  0.00     0.031 C 
ATOM     64  C   UNL A   1      40.117  32.964  35.954  1.00  0.00     0.037 A 
BRANCH  51  65
ATOM     65  C   UNL A   1      44.139  28.278  35.466  1.00  0.00     0.058 A 
ATOM     66  C   UNL A   1      43.854  27.210  36.335  1.00  0.00     0.135 A 
ATOM     67  C   UNL A   1      45.489  28.570  35.215  1.00  0.00     0.135 A 
ATOM     68  F   UNL A   1      42.582  26.889  36.619  1.00  0.00    -0.206 F 
ATOM     69  C   UNL A   1      44.866  26.503  36.977  1.00  0.00     0.059 A 
ATOM     70  C   UNL A   1      46.518  27.852  35.819  1.00  0.00     0.059 A 
ATOM     71  F   UNL A   1      45.823  29.574  34.389  1.00  0.00    -0.206 F 
ATOM     72  C   UNL A   1      46.196  26.838  36.718  1.00  0.00     0.060 A 
BRANCH  72  73
ATOM     73  S   UNL A   1      47.496  25.943  37.593  1.00  0.00     0.124 S 
ATOM     74  O   UNL A   1      46.797  25.525  38.804  1.00  0.00    -0.237 OA
ATOM     75  O   UNL A   1      47.828  24.875  36.653  1.00  0.00    -0.237 OA
ATOM     76  O   UNL A   1      48.535  26.950  37.785  1.00  0.00    -0.744 OA
ENDBRANCH  72  73
ENDBRANCH  51  65
BRANCH  52  77
ATOM     77  C   UNL A   1      36.648  33.155  30.985  1.00  0.00     0.058 A 
ATOM     78  C   UNL A   1      36.924  34.112  29.997  1.00  0.00     0.135 A 
ATOM     79  C   UNL A   1      35.301  32.886  31.274  1.00  0.00     0.135 A 
ATOM     80  F   UNL A   1      38.196  34.411  29.691  1.00  0.00    -0.206 F 
ATOM     81  C   UNL A   1      35.907  34.774  29.319  1.00  0.00     0.059 A 
ATOM     82  C   UNL A   1      34.265  33.518  30.593  1.00  0.00     0.059 A 
ATOM     83  F   UNL A   1      34.983  31.969  32.202  1.00  0.00    -0.206 F 
ATOM     84  C   UNL A   1      34.579  34.463  29.617  1.00  0.00     0.060 A 
BRANCH  84  85
ATOM     85  S   UNL A   1      33.271  35.271  28.668  1.00  0.00     0.124 S 
ATOM     86  O   UNL A   1      32.597  34.128  28.063  1.00  0.00    -0.237 OA
ATOM     87  O   UNL A   1      32.529  35.972  29.712  1.00  0.00    -0.237 OA
ATOM     88  O   UNL A   1      34.007  36.132  27.747  1.00  0.00    -0.744 OA
ENDBRANCH  84  85
ENDBRANCH  52  77
BRANCH  64  89
ATOM     89  C   UNL A   1      39.963  33.954  37.078  1.00  0.00     0.058 A 
ATOM     90  C   UNL A   1      40.567  35.220  37.041  1.00  0.00     0.135 A 
ATOM     91  C   UNL A   1      39.153  33.648  38.186  1.00  0.00     0.135 A 
ATOM     92  F   UNL A   1      41.358  35.561  36.011  1.00  0.00    -0.206 F 
ATOM     93  C   UNL A   1      40.391  36.141  38.069  1.00  0.00     0.059 A 
ATOM     94  C   UNL A   1      38.938  34.565  39.210  1.00  0.00     0.059 A 
ATOM     95  F   UNL A   1      38.543  32.456  38.269  1.00  0.00    -0.206 F 
ATOM     96  C   UNL A   1      39.571  35.805  39.149  1.00  0.00     0.060 A 
BRANCH  96  97
ATOM     97  S   UNL A   1      39.321  37.024  40.456  1.00  0.00     0.124 S 
ATOM     98  O   UNL A   1      40.696  37.365  40.809  1.00  0.00    -0.237 OA
ATOM     99  O   UNL A   1      38.565  38.067  39.770  1.00  0.00    -0.237 OA
ATOM    100  O   UNL A   1      38.578  36.286  41.472  1.00  0.00    -0.744 OA
ENDBRANCH  96  97
ENDBRANCH  64  89
ENDBRANCH  38  39
ENDBRANCH  30  33
ENDBRANCH  28  29
ENDBRANCH  27  28
ENDBRANCH   1  27
TORSDOF 17
ENDMDL
MODEL 3
REMARK VINA RESULT:     -11.8      6.409      8.497
REMARK SMILES COc1cc(/C=C2\SC(=S)N(CC(=O)NCCCCNC(=O)c3ccc(-c4c5nc(c(-c6c(F)cc(S(=O)(=O)[O-])cc6F)c6ccc([nH]6)c(-c6c(F)cc(S(=O)(=O)[O-])cc6F)c6nc(c(-c7c(F)cc(S(=O)(=O)[O-])cc7F)c7ccc4[nH]7)C=C6)C=C5)cc3)C2=O)cc2c1OCO2
REMARK SMILES IDX 17 1 16 2 15 3 13 4 14 5 12 7 11 8 6 9 7 10 8 11 89 12 9 13
REMARK SMILES IDX 90 14 10 15 5 16 3 17 4 18 93 19 92 20 94 21 91 22 96 23
REMARK SMILES IDX 95 24 2 25 1 26 18 27 19 28 20 29 21 30 22 32 23 33 24 34
REMARK SMILES IDX 88 35 25 36 87 37 26 38 27 39 28 40 81 41 29 42 86 43 80 44
REMARK SMILES IDX 82 45 30 46 85 47 79 48 78 49 31 51 65 52 44 53 64 54 45 55
REMARK SMILES IDX 48 56 63 57 83 58 46 59 47 60 62 62 84 63 49 64 32 65 33 66
REMARK SMILES IDX 42 67 34 68 35 69 41 70 43 71 36 72 37 73 38 74 39 75 40 76
REMARK SMILES IDX 66 77 67 78 76 79 68 80 69 81 75 82 77 83 70 84 71 85 72 86
REMARK SMILES IDX 73 87 74 88 50 89 51 90 60 91 52 92 53 93 59 94 61 95 54 96
REMARK SMILES IDX 55 97 56 98 57 99 58 100
REMARK H PARENT 15 6 20 31 82 50 48 61
REMARK Flexibility Score: inf
ROOT
ATOM      1  C   UNL A   1      32.110  30.382  26.615  1.00  0.00     0.023 C 
ENDROOT
BRANCH   1   2
ATOM      2  C   UNL A   1      31.972  29.952  25.158  1.00  0.00     0.116 C 
BRANCH   2   3
ATOM      3  N   UNL A   1      30.637  30.167  24.645  1.00  0.00    -0.355 N 
ATOM      4  C   UNL A   1      30.074  29.772  23.469  1.00  0.00     0.240 C 
ATOM      5  O   UNL A   1      28.843  29.832  23.383  1.00  0.00    -0.273 OA
ATOM      6  H   UNL A   1      30.041  30.678  25.240  1.00  0.00     0.163 HD
BRANCH   4   7
ATOM      7  C   UNL A   1      30.895  29.100  22.361  1.00  0.00     0.227 C 
BRANCH   7   8
ATOM      8  N   UNL A   1      31.492  27.817  22.728  1.00  0.00    -0.283 N 
ATOM      9  C   UNL A   1      30.804  24.482  23.954  1.00  0.00     0.029 C 
ATOM     10  C   UNL A   1      31.406  25.599  23.523  1.00  0.00     0.081 C 
ATOM     11  S   UNL A   1      33.084  25.878  23.295  1.00  0.00    -0.054 SA
ATOM     12  C   UNL A   1      30.634  26.817  23.162  1.00  0.00     0.266 C 
ATOM     13  C   UNL A   1      32.839  27.560  22.849  1.00  0.00     0.148 C 
ATOM     14  O   UNL A   1      29.424  26.910  23.278  1.00  0.00    -0.268 OA
ATOM     15  S   UNL A   1      34.124  28.609  22.658  1.00  0.00    -0.052 S 
BRANCH   9  16
ATOM     16  C   UNL A   1      31.483  23.240  24.340  1.00  0.00    -0.017 A 
ATOM     17  C   UNL A   1      32.625  21.932  26.067  1.00  0.00     0.165 A 
ATOM     18  C   UNL A   1      31.980  23.105  25.652  1.00  0.00     0.058 A 
ATOM     19  C   UNL A   1      32.725  20.895  25.157  1.00  0.00     0.207 A 
ATOM     20  C   UNL A   1      32.250  21.034  23.871  1.00  0.00     0.170 A 
ATOM     21  O   UNL A   1      33.237  19.650  25.365  1.00  0.00    -0.450 OA
ATOM     22  C   UNL A   1      31.651  22.193  23.426  1.00  0.00     0.059 A 
ATOM     23  O   UNL A   1      32.415  19.910  23.121  1.00  0.00    -0.453 OA
ATOM     24  C   UNL A   1      32.956  19.012  24.105  1.00  0.00     0.468 C 
BRANCH  17  25
ATOM     25  O   UNL A   1      33.035  21.913  27.368  1.00  0.00    -0.493 OA
ATOM     26  C   UNL A   1      34.249  22.612  27.624  1.00  0.00     0.278 C 
ENDBRANCH  17  25
ENDBRANCH   9  16
ENDBRANCH   7   8
ENDBRANCH   4   7
ENDBRANCH   2   3
ENDBRANCH   1   2
BRANCH   1  27
ATOM     27  C   UNL A   1      31.796  31.859  26.869  1.00  0.00     0.023 C 
BRANCH  27  28
ATOM     28  C   UNL A   1      32.931  32.668  27.490  1.00  0.00     0.116 C 
BRANCH  28  29
ATOM     29  N   UNL A   1      32.580  34.060  27.726  1.00  0.00    -0.352 N 
ATOM     30  C   UNL A   1      33.099  34.932  28.656  1.00  0.00     0.251 C 
ATOM     31  H   UNL A   1      31.877  34.427  27.143  1.00  0.00     0.163 HD
ATOM     32  O   UNL A   1      32.595  36.040  28.809  1.00  0.00    -0.269 OA
BRANCH  30  33
ATOM     33  C   UNL A   1      34.243  34.508  29.491  1.00  0.00     0.039 A 
ATOM     34  C   UNL A   1      33.995  33.957  30.750  1.00  0.00     0.014 A 
ATOM     35  C   UNL A   1      35.552  34.619  29.014  1.00  0.00     0.014 A 
ATOM     36  C   UNL A   1      35.057  33.447  31.500  1.00  0.00     0.010 A 
ATOM     37  C   UNL A   1      36.597  34.039  29.727  1.00  0.00     0.010 A 
ATOM     38  C   UNL A   1      36.362  33.445  30.977  1.00  0.00    -0.014 A 
BRANCH  38  39
ATOM     39  C   UNL A   1      37.489  32.813  31.711  1.00  0.00     0.031 A 
ATOM     40  C   UNL A   1      38.193  31.617  31.134  1.00  0.00     0.074 A 
ATOM     41  C   UNL A   1      37.831  33.274  32.930  1.00  0.00     0.049 A 
ATOM     42  N   UNL A   1      39.163  30.903  31.646  1.00  0.00    -0.248 NA
ATOM     43  C   UNL A   1      37.726  31.143  29.822  1.00  0.00     0.031 C 
ATOM     44  C   UNL A   1      37.195  34.401  33.617  1.00  0.00     0.029 A 
ATOM     45  N   UNL A   1      38.794  32.851  33.811  1.00  0.00    -0.354 N 
ATOM     46  C   UNL A   1      39.410  29.887  30.729  1.00  0.00     0.074 A 
ATOM     47  C   UNL A   1      38.449  30.045  29.659  1.00  0.00     0.031 C 
ATOM     48  C   UNL A   1      37.809  34.604  34.793  1.00  0.00     0.029 A 
ATOM     49  C   UNL A   1      38.852  33.596  34.966  1.00  0.00     0.049 A 
ATOM     50  H   UNL A   1      39.388  32.087  33.633  1.00  0.00     0.167 HD
ATOM     51  C   UNL A   1      40.365  28.925  30.764  1.00  0.00     0.037 A 
ATOM     52  C   UNL A   1      39.652  33.481  36.043  1.00  0.00     0.037 A 
ATOM     53  C   UNL A   1      41.324  28.784  31.829  1.00  0.00     0.049 A 
ATOM     54  C   UNL A   1      40.688  32.390  36.075  1.00  0.00     0.074 A 
ATOM     55  C   UNL A   1      42.371  27.886  31.929  1.00  0.00     0.029 A 
ATOM     56  N   UNL A   1      41.342  29.549  32.987  1.00  0.00    -0.354 N 
ATOM     57  N   UNL A   1      40.961  31.486  35.165  1.00  0.00    -0.248 NA
ATOM     58  C   UNL A   1      41.526  32.306  37.278  1.00  0.00     0.031 C 
ATOM     59  C   UNL A   1      42.986  28.068  33.174  1.00  0.00     0.029 A 
ATOM     60  C   UNL A   1      42.361  29.121  33.823  1.00  0.00     0.049 A 
ATOM     61  H   UNL A   1      40.723  30.288  33.186  1.00  0.00     0.167 HD
ATOM     62  C   UNL A   1      42.021  30.743  35.672  1.00  0.00     0.074 A 
ATOM     63  C   UNL A   1      42.345  31.310  36.965  1.00  0.00     0.031 C 
ATOM     64  C   UNL A   1      42.671  29.691  35.113  1.00  0.00     0.037 A 
BRANCH  51  65
ATOM     65  C   UNL A   1      40.397  27.942  29.623  1.00  0.00     0.058 A 
ATOM     66  C   UNL A   1      39.502  26.860  29.548  1.00  0.00     0.135 A 
ATOM     67  C   UNL A   1      41.341  28.077  28.592  1.00  0.00     0.135 A 
ATOM     68  F   UNL A   1      38.583  26.675  30.509  1.00  0.00    -0.206 F 
ATOM     69  C   UNL A   1      39.582  25.917  28.529  1.00  0.00     0.059 A 
ATOM     70  C   UNL A   1      41.416  27.165  27.543  1.00  0.00     0.059 A 
ATOM     71  F   UNL A   1      42.217  29.094  28.605  1.00  0.00    -0.206 F 
ATOM     72  C   UNL A   1      40.549  26.074  27.535  1.00  0.00     0.060 A 
BRANCH  72  73
ATOM     73  S   UNL A   1      40.671  24.817  26.245  1.00  0.00     0.124 S 
ATOM     74  O   UNL A   1      41.672  23.917  26.809  1.00  0.00    -0.237 OA
ATOM     75  O   UNL A   1      39.309  24.294  26.188  1.00  0.00    -0.237 OA
ATOM     76  O   UNL A   1      41.098  25.573  25.071  1.00  0.00    -0.744 OA
ENDBRANCH  72  73
ENDBRANCH  51  65
BRANCH  52  77
ATOM     77  C   UNL A   1      39.533  34.459  37.157  1.00  0.00     0.058 A 
ATOM     78  C   UNL A   1      38.805  34.141  38.313  1.00  0.00     0.135 A 
ATOM     79  C   UNL A   1      40.181  35.704  37.115  1.00  0.00     0.135 A 
ATOM     80  F   UNL A   1      38.161  32.967  38.397  1.00  0.00    -0.206 F 
ATOM     81  C   UNL A   1      38.723  35.020  39.388  1.00  0.00     0.059 A 
ATOM     82  C   UNL A   1      40.133  36.590  38.187  1.00  0.00     0.059 A 
ATOM     83  F   UNL A   1      40.901  36.050  36.037  1.00  0.00    -0.206 F 
ATOM     84  C   UNL A   1      39.399  36.239  39.319  1.00  0.00     0.060 A 
BRANCH  84  85
ATOM     85  S   UNL A   1      39.352  37.333  40.756  1.00  0.00     0.124 S 
ATOM     86  O   UNL A   1      38.452  38.384  40.298  1.00  0.00    -0.237 OA
ATOM     87  O   UNL A   1      38.828  36.448  41.793  1.00  0.00    -0.237 OA
ATOM     88  O   UNL A   1      40.748  37.725  40.925  1.00  0.00    -0.744 OA
ENDBRANCH  84  85
ENDBRANCH  52  77
BRANCH  64  89
ATOM     89  C   UNL A   1      43.821  29.097  35.883  1.00  0.00     0.058 A 
ATOM     90  C   UNL A   1      43.654  27.990  36.730  1.00  0.00     0.135 A 
ATOM     91  C   UNL A   1      45.119  29.612  35.728  1.00  0.00     0.135 A 
ATOM     92  F   UNL A   1      42.434  27.463  36.921  1.00  0.00    -0.206 F 
ATOM     93  C   UNL A   1      44.729  27.426  37.410  1.00  0.00     0.059 A 
ATOM     94  C   UNL A   1      46.213  29.045  36.374  1.00  0.00     0.059 A 
ATOM     95  F   UNL A   1      45.339  30.664  34.923  1.00  0.00    -0.206 F 
ATOM     96  C   UNL A   1      46.006  27.959  37.223  1.00  0.00     0.060 A 
BRANCH  96  97
ATOM     97  S   UNL A   1      47.397  27.193  38.082  1.00  0.00     0.124 S 
ATOM     98  O   UNL A   1      46.817  26.915  39.393  1.00  0.00    -0.237 OA
ATOM     99  O   UNL A   1      47.673  26.025  37.251  1.00  0.00    -0.237 OA
ATOM    100  O   UNL A   1      48.425  28.229  38.057  1.00  0.00    -0.744 OA
ENDBRANCH  96  97
ENDBRANCH  64  89
ENDBRANCH  38  39
ENDBRANCH  30  33
ENDBRANCH  28  29
ENDBRANCH  27  28
ENDBRANCH   1  27
TORSDOF 17
ENDMDL
