MODEL 1
REMARK VINA RESULT:     -11.2      0.000      0.000
REMARK SMILES C[C@@H]1[C@@H](C(=O)NCCCCNC(=O)c2ccc(-c3c4nc(c(-c5c(F)cc(S(=O)(=O)[O-])cc5F)c5ccc([nH]5)c(-c5c(F)cc(S(=O)(=O)[O-])cc5F)c5nc(c(-c6c(F)cc(S(=O)(=O)[O-])cc6F)c6ccc3[nH]6)C=C5)C=C4)cc2)CCN1C(=O)N(C)Cc1ccsc1
REMARK SMILES IDX 8 1 7 2 6 3 4 4 5 5 3 7 1 8 2 9 82 10 80 11 81 12 83 13
REMARK SMILES IDX 84 14 85 15 86 16 87 17 88 18 89 19 92 20 90 21 91 22 9 23
REMARK SMILES IDX 10 24 11 25 12 26 13 28 14 29 15 30 79 31 16 32 78 33 17 34
REMARK SMILES IDX 18 35 19 36 72 37 20 38 77 39 71 40 73 41 21 42 76 43 70 44
REMARK SMILES IDX 69 45 22 47 56 48 35 49 55 50 36 51 39 52 54 53 74 54 37 55
REMARK SMILES IDX 38 56 53 58 75 59 40 60 23 61 24 62 33 63 25 64 26 65 32 66
REMARK SMILES IDX 34 67 27 68 28 69 29 70 30 71 31 72 57 73 58 74 67 75 59 76
REMARK SMILES IDX 60 77 66 78 68 79 61 80 62 81 63 82 64 83 65 84 41 85 42 86
REMARK SMILES IDX 51 87 43 88 44 89 50 90 52 91 45 92 46 93 47 94 48 95 49 96
REMARK H PARENT 6 6 11 27 73 46 39 57
REMARK Flexibility Score: inf
ROOT
ATOM      1  C   UNL A   1      36.335  23.281  25.820  1.00  0.00     0.023 C 
ENDROOT
BRANCH   1   2
ATOM      2  C   UNL A   1      35.578  22.025  26.226  1.00  0.00     0.116 C 
BRANCH   2   3
ATOM      3  N   UNL A   1      34.638  22.251  27.305  1.00  0.00    -0.356 N 
ATOM      4  C   UNL A   1      33.290  22.445  27.252  1.00  0.00     0.225 C 
ATOM      5  O   UNL A   1      32.702  22.630  28.317  1.00  0.00    -0.275 OA
ATOM      6  H   UNL A   1      35.030  22.267  28.208  1.00  0.00     0.163 HD
BRANCH   4   7
ATOM      7  C   UNL A   1      32.590  22.511  25.895  1.00  0.00     0.102 C 
ATOM      8  C   UNL A   1      32.699  23.793  23.720  1.00  0.00     0.032 C 
ATOM      9  C   UNL A   1      32.746  23.911  25.250  1.00  0.00     0.096 C 
ATOM     10  N   UNL A   1      31.604  24.677  25.768  1.00  0.00    -0.321 N 
ATOM     11  C   UNL A   1      31.072  22.373  25.984  1.00  0.00     0.037 C 
ATOM     12  C   UNL A   1      30.626  23.770  26.354  1.00  0.00     0.122 C 
BRANCH  10  13
ATOM     13  C   UNL A   1      31.348  26.010  25.943  1.00  0.00     0.320 C 
ATOM     14  O   UNL A   1      31.158  26.412  27.101  1.00  0.00    -0.248 OA
BRANCH  13  15
ATOM     15  N   UNL A   1      31.222  26.899  24.902  1.00  0.00    -0.323 N 
ATOM     16  C   UNL A   1      30.110  27.187  24.012  1.00  0.00     0.149 C 
BRANCH  15  17
ATOM     17  C   UNL A   1      32.433  27.663  24.592  1.00  0.00     0.157 C 
BRANCH  17  18
ATOM     18  C   UNL A   1      32.654  28.808  25.557  1.00  0.00    -0.018 A 
ATOM     19  C   UNL A   1      31.698  29.866  25.741  1.00  0.00     0.017 A 
ATOM     20  C   UNL A   1      33.775  29.041  26.339  1.00  0.00     0.070 A 
ATOM     21  C   UNL A   1      32.133  30.837  26.615  1.00  0.00     0.065 A 
ATOM     22  S   UNL A   1      33.680  30.487  27.245  1.00  0.00    -0.152 S 
ENDBRANCH  17  18
ENDBRANCH  15  17
ENDBRANCH  13  15
ENDBRANCH  10  13
ENDBRANCH   4   7
ENDBRANCH   2   3
ENDBRANCH   1   2
BRANCH   1  23
ATOM     23  C   UNL A   1      37.847  23.116  25.671  1.00  0.00     0.023 C 
BRANCH  23  24
ATOM     24  C   UNL A   1      38.698  24.035  26.540  1.00  0.00     0.116 C 
BRANCH  24  25
ATOM     25  N   UNL A   1      40.117  23.953  26.229  1.00  0.00    -0.352 N 
ATOM     26  C   UNL A   1      41.151  24.777  26.614  1.00  0.00     0.251 C 
ATOM     27  H   UNL A   1      40.377  23.194  25.658  1.00  0.00     0.163 HD
ATOM     28  O   UNL A   1      42.259  24.633  26.118  1.00  0.00    -0.269 OA
BRANCH  26  29
ATOM     29  C   UNL A   1      40.907  25.852  27.602  1.00  0.00     0.039 A 
ATOM     30  C   UNL A   1      39.855  25.711  28.511  1.00  0.00     0.014 A 
ATOM     31  C   UNL A   1      41.720  26.988  27.641  1.00  0.00     0.014 A 
ATOM     32  C   UNL A   1      39.667  26.675  29.506  1.00  0.00     0.010 A 
ATOM     33  C   UNL A   1      41.588  27.897  28.686  1.00  0.00     0.010 A 
ATOM     34  C   UNL A   1      40.556  27.756  29.626  1.00  0.00    -0.014 A 
BRANCH  34  35
ATOM     35  C   UNL A   1      40.420  28.757  30.717  1.00  0.00     0.031 A 
ATOM     36  C   UNL A   1      41.273  28.642  31.953  1.00  0.00     0.074 A 
ATOM     37  C   UNL A   1      39.487  29.726  30.628  1.00  0.00     0.049 A 
ATOM     38  N   UNL A   1      41.249  29.362  33.044  1.00  0.00    -0.248 NA
ATOM     39  C   UNL A   1      42.263  27.553  31.977  1.00  0.00     0.031 C 
ATOM     40  C   UNL A   1      38.566  29.915  29.505  1.00  0.00     0.029 A 
ATOM     41  N   UNL A   1      39.150  30.729  31.503  1.00  0.00    -0.354 N 
ATOM     42  C   UNL A   1      42.202  28.805  33.889  1.00  0.00     0.074 A 
ATOM     43  C   UNL A   1      42.744  27.650  33.207  1.00  0.00     0.031 C 
ATOM     44  C   UNL A   1      37.788  30.983  29.748  1.00  0.00     0.029 A 
ATOM     45  C   UNL A   1      38.125  31.531  31.058  1.00  0.00     0.049 A 
ATOM     46  H   UNL A   1      39.601  30.862  32.368  1.00  0.00     0.167 HD
ATOM     47  C   UNL A   1      42.610  29.230  35.108  1.00  0.00     0.037 A 
ATOM     48  C   UNL A   1      37.519  32.584  31.642  1.00  0.00     0.037 A 
ATOM     49  C   UNL A   1      42.084  30.396  35.769  1.00  0.00     0.049 A 
ATOM     50  C   UNL A   1      37.989  33.040  32.998  1.00  0.00     0.074 A 
ATOM     51  C   UNL A   1      42.465  30.941  36.983  1.00  0.00     0.029 A 
ATOM     52  N   UNL A   1      41.065  31.197  35.274  1.00  0.00    -0.354 N 
ATOM     53  N   UNL A   1      38.932  32.534  33.756  1.00  0.00    -0.248 NA
ATOM     54  C   UNL A   1      37.319  34.214  33.573  1.00  0.00     0.031 C 
ATOM     55  C   UNL A   1      41.647  32.045  37.242  1.00  0.00     0.029 A 
ATOM     56  C   UNL A   1      40.793  32.222  36.164  1.00  0.00     0.049 A 
ATOM     57  H   UNL A   1      40.604  31.056  34.417  1.00  0.00     0.167 HD
ATOM     58  C   UNL A   1      38.993  33.351  34.881  1.00  0.00     0.074 A 
ATOM     59  C   UNL A   1      37.996  34.386  34.700  1.00  0.00     0.031 C 
ATOM     60  C   UNL A   1      39.805  33.254  35.964  1.00  0.00     0.037 A 
BRANCH  47  61
ATOM     61  C   UNL A   1      43.680  28.430  35.801  1.00  0.00     0.058 A 
ATOM     62  C   UNL A   1      43.365  27.391  36.693  1.00  0.00     0.135 A 
ATOM     63  C   UNL A   1      45.038  28.691  35.558  1.00  0.00     0.135 A 
ATOM     64  F   UNL A   1      42.084  27.107  36.975  1.00  0.00    -0.206 F 
ATOM     65  C   UNL A   1      44.355  26.666  37.347  1.00  0.00     0.059 A 
ATOM     66  C   UNL A   1      46.047  27.957  36.176  1.00  0.00     0.059 A 
ATOM     67  F   UNL A   1      45.399  29.672  34.715  1.00  0.00    -0.206 F 
ATOM     68  C   UNL A   1      45.695  26.957  37.083  1.00  0.00     0.060 A 
BRANCH  68  69
ATOM     69  S   UNL A   1      46.967  26.010  37.944  1.00  0.00     0.124 S 
ATOM     70  O   UNL A   1      46.593  24.642  37.602  1.00  0.00    -0.237 OA
ATOM     71  O   UNL A   1      48.195  26.504  37.328  1.00  0.00    -0.237 OA
ATOM     72  O   UNL A   1      46.778  26.381  39.343  1.00  0.00    -0.744 OA
ENDBRANCH  68  69
ENDBRANCH  47  61
BRANCH  48  73
ATOM     73  C   UNL A   1      36.424  33.299  30.932  1.00  0.00     0.058 A 
ATOM     74  C   UNL A   1      35.090  33.166  31.346  1.00  0.00     0.135 A 
ATOM     75  C   UNL A   1      36.688  34.140  29.839  1.00  0.00     0.135 A 
ATOM     76  F   UNL A   1      34.786  32.369  32.381  1.00  0.00    -0.206 F 
ATOM     77  C   UNL A   1      34.054  33.827  30.694  1.00  0.00     0.059 A 
ATOM     78  C   UNL A   1      35.671  34.832  29.187  1.00  0.00     0.059 A 
ATOM     79  F   UNL A   1      37.948  34.315  29.414  1.00  0.00    -0.206 F 
ATOM     80  C   UNL A   1      34.356  34.662  29.617  1.00  0.00     0.060 A 
BRANCH  80  81
ATOM     81  S   UNL A   1      33.009  35.556  28.812  1.00  0.00     0.124 S 
ATOM     82  O   UNL A   1      33.741  36.536  28.018  1.00  0.00    -0.237 OA
ATOM     83  O   UNL A   1      32.342  34.497  28.063  1.00  0.00    -0.237 OA
ATOM     84  O   UNL A   1      32.247  36.096  29.934  1.00  0.00    -0.744 OA
ENDBRANCH  80  81
ENDBRANCH  48  73
BRANCH  60  85
ATOM     85  C   UNL A   1      39.691  34.323  37.016  1.00  0.00     0.058 A 
ATOM     86  C   UNL A   1      38.899  34.156  38.162  1.00  0.00     0.135 A 
ATOM     87  C   UNL A   1      40.428  35.513  36.896  1.00  0.00     0.135 A 
ATOM     88  F   UNL A   1      38.169  33.040  38.324  1.00  0.00    -0.206 F 
ATOM     89  C   UNL A   1      38.821  35.142  39.142  1.00  0.00     0.059 A 
ATOM     90  C   UNL A   1      40.390  36.498  37.877  1.00  0.00     0.059 A 
ATOM     91  F   UNL A   1      41.212  35.719  35.826  1.00  0.00    -0.206 F 
ATOM     92  C   UNL A   1      39.572  36.309  38.991  1.00  0.00     0.060 A 
BRANCH  92  93
ATOM     93  S   UNL A   1      39.487  37.567  40.283  1.00  0.00     0.124 S 
ATOM     94  O   UNL A   1      38.397  38.410  39.801  1.00  0.00    -0.237 OA
ATOM     95  O   UNL A   1      39.197  36.774  41.473  1.00  0.00    -0.237 OA
ATOM     96  O   UNL A   1      40.813  38.177  40.251  1.00  0.00    -0.744 OA
ENDBRANCH  92  93
ENDBRANCH  60  85
ENDBRANCH  34  35
ENDBRANCH  26  29
ENDBRANCH  24  25
ENDBRANCH  23  24
ENDBRANCH   1  23
TORSDOF 18
ENDMDL
MODEL 2
REMARK VINA RESULT:     -11.2      6.818     12.279
REMARK SMILES C[C@@H]1[C@@H](C(=O)NCCCCNC(=O)c2ccc(-c3c4nc(c(-c5c(F)cc(S(=O)(=O)[O-])cc5F)c5ccc([nH]5)c(-c5c(F)cc(S(=O)(=O)[O-])cc5F)c5nc(c(-c6c(F)cc(S(=O)(=O)[O-])cc6F)c6ccc3[nH]6)C=C5)C=C4)cc2)CCN1C(=O)N(C)Cc1ccsc1
REMARK SMILES IDX 8 1 7 2 6 3 4 4 5 5 3 7 1 8 2 9 82 10 80 11 81 12 83 13
REMARK SMILES IDX 84 14 85 15 86 16 87 17 88 18 89 19 92 20 90 21 91 22 9 23
REMARK SMILES IDX 10 24 11 25 12 26 13 28 14 29 15 30 79 31 16 32 78 33 17 34
REMARK SMILES IDX 18 35 19 36 72 37 20 38 77 39 71 40 73 41 21 42 76 43 70 44
REMARK SMILES IDX 69 45 22 47 56 48 35 49 55 50 36 51 39 52 54 53 74 54 37 55
REMARK SMILES IDX 38 56 53 58 75 59 40 60 23 61 24 62 33 63 25 64 26 65 32 66
REMARK SMILES IDX 34 67 27 68 28 69 29 70 30 71 31 72 57 73 58 74 67 75 59 76
REMARK SMILES IDX 60 77 66 78 68 79 61 80 62 81 63 82 64 83 65 84 41 85 42 86
REMARK SMILES IDX 51 87 43 88 44 89 50 90 52 91 45 92 46 93 47 94 48 95 49 96
REMARK H PARENT 6 6 11 27 73 46 39 57
REMARK Flexibility Score: inf
ROOT
ATOM      1  C   UNL A   1      32.583  29.771  27.242  1.00  0.00     0.023 C 
ENDROOT
BRANCH   1   2
ATOM      2  C   UNL A   1      32.032  30.132  25.870  1.00  0.00     0.116 C 
BRANCH   2   3
ATOM      3  N   UNL A   1      32.910  29.744  24.785  1.00  0.00    -0.356 N 
ATOM      4  C   UNL A   1      32.701  28.844  23.783  1.00  0.00     0.225 C 
ATOM      5  O   UNL A   1      33.613  28.675  22.973  1.00  0.00    -0.275 OA
ATOM      6  H   UNL A   1      33.784  30.197  24.768  1.00  0.00     0.163 HD
BRANCH   4   7
ATOM      7  C   UNL A   1      31.407  28.032  23.755  1.00  0.00     0.102 C 
ATOM      8  C   UNL A   1      30.175  26.303  25.126  1.00  0.00     0.032 C 
ATOM      9  C   UNL A   1      31.545  26.726  24.577  1.00  0.00     0.096 C 
ATOM     10  N   UNL A   1      32.067  25.746  23.613  1.00  0.00    -0.321 N 
ATOM     11  C   UNL A   1      31.052  27.496  22.370  1.00  0.00     0.037 C 
ATOM     12  C   UNL A   1      31.909  26.254  22.258  1.00  0.00     0.122 C 
BRANCH  10  13
ATOM     13  C   UNL A   1      32.773  24.579  23.725  1.00  0.00     0.320 C 
ATOM     14  O   UNL A   1      32.711  23.777  22.780  1.00  0.00    -0.248 OA
BRANCH  13  15
ATOM     15  N   UNL A   1      33.480  24.227  24.850  1.00  0.00    -0.323 N 
ATOM     16  C   UNL A   1      33.127  23.393  25.986  1.00  0.00     0.149 C 
BRANCH  15  17
ATOM     17  C   UNL A   1      34.810  24.833  24.959  1.00  0.00     0.157 C 
BRANCH  17  18
ATOM     18  C   UNL A   1      35.913  23.798  24.989  1.00  0.00    -0.018 A 
ATOM     19  C   UNL A   1      36.082  22.810  23.957  1.00  0.00     0.017 A 
ATOM     20  C   UNL A   1      36.857  23.606  25.987  1.00  0.00     0.070 A 
ATOM     21  C   UNL A   1      37.105  21.927  24.221  1.00  0.00     0.065 A 
ATOM     22  S   UNL A   1      37.892  22.279  25.694  1.00  0.00    -0.152 S 
ENDBRANCH  17  18
ENDBRANCH  15  17
ENDBRANCH  13  15
ENDBRANCH  10  13
ENDBRANCH   4   7
ENDBRANCH   2   3
ENDBRANCH   1   2
BRANCH   1  23
ATOM     23  C   UNL A   1      33.743  28.776  27.241  1.00  0.00     0.023 C 
BRANCH  23  24
ATOM     24  C   UNL A   1      35.122  29.373  27.501  1.00  0.00     0.116 C 
BRANCH  24  25
ATOM     25  N   UNL A   1      35.183  30.136  28.738  1.00  0.00    -0.352 N 
ATOM     26  C   UNL A   1      36.227  30.297  29.621  1.00  0.00     0.251 C 
ATOM     27  H   UNL A   1      34.354  30.610  28.979  1.00  0.00     0.163 HD
ATOM     28  O   UNL A   1      36.035  30.853  30.694  1.00  0.00    -0.269 OA
BRANCH  26  29
ATOM     29  C   UNL A   1      37.567  29.768  29.282  1.00  0.00     0.039 A 
ATOM     30  C   UNL A   1      37.983  29.782  27.949  1.00  0.00     0.014 A 
ATOM     31  C   UNL A   1      38.415  29.273  30.276  1.00  0.00     0.014 A 
ATOM     32  C   UNL A   1      39.278  29.368  27.624  1.00  0.00     0.010 A 
ATOM     33  C   UNL A   1      39.731  28.949  29.964  1.00  0.00     0.010 A 
ATOM     34  C   UNL A   1      40.177  28.986  28.634  1.00  0.00    -0.014 A 
BRANCH  34  35
ATOM     35  C   UNL A   1      41.581  28.607  28.323  1.00  0.00     0.031 A 
ATOM     36  C   UNL A   1      42.655  29.663  28.300  1.00  0.00     0.074 A 
ATOM     37  C   UNL A   1      41.878  27.333  27.996  1.00  0.00     0.049 A 
ATOM     38  N   UNL A   1      43.918  29.551  27.975  1.00  0.00    -0.248 NA
ATOM     39  C   UNL A   1      42.250  31.031  28.663  1.00  0.00     0.031 C 
ATOM     40  C   UNL A   1      40.918  26.229  27.934  1.00  0.00     0.029 A 
ATOM     41  N   UNL A   1      43.071  26.754  27.643  1.00  0.00    -0.354 N 
ATOM     42  C   UNL A   1      44.450  30.831  28.074  1.00  0.00     0.074 A 
ATOM     43  C   UNL A   1      43.361  31.713  28.431  1.00  0.00     0.031 C 
ATOM     44  C   UNL A   1      41.565  25.103  27.591  1.00  0.00     0.029 A 
ATOM     45  C   UNL A   1      42.974  25.409  27.369  1.00  0.00     0.049 A 
ATOM     46  H   UNL A   1      43.918  27.254  27.591  1.00  0.00     0.167 HD
ATOM     47  C   UNL A   1      45.733  31.233  27.910  1.00  0.00     0.037 A 
ATOM     48  C   UNL A   1      43.912  24.525  26.976  1.00  0.00     0.037 A 
ATOM     49  C   UNL A   1      46.817  30.344  27.580  1.00  0.00     0.049 A 
ATOM     50  C   UNL A   1      45.332  24.993  26.800  1.00  0.00     0.074 A 
ATOM     51  C   UNL A   1      48.161  30.642  27.441  1.00  0.00     0.029 A 
ATOM     52  N   UNL A   1      46.682  28.985  27.336  1.00  0.00    -0.354 N 
ATOM     53  N   UNL A   1      45.828  26.198  26.955  1.00  0.00    -0.248 NA
ATOM     54  C   UNL A   1      46.322  23.981  26.406  1.00  0.00     0.031 C 
ATOM     55  C   UNL A   1      48.832  29.472  27.071  1.00  0.00     0.029 A 
ATOM     56  C   UNL A   1      47.915  28.433  27.033  1.00  0.00     0.049 A 
ATOM     57  H   UNL A   1      45.834  28.487  27.373  1.00  0.00     0.167 HD
ATOM     58  C   UNL A   1      47.193  26.080  26.712  1.00  0.00     0.074 A 
ATOM     59  C   UNL A   1      47.444  24.687  26.408  1.00  0.00     0.031 C 
ATOM     60  C   UNL A   1      48.152  27.040  26.744  1.00  0.00     0.037 A 
BRANCH  47  61
ATOM     61  C   UNL A   1      46.032  32.696  28.090  1.00  0.00     0.058 A 
ATOM     62  C   UNL A   1      45.916  33.611  27.029  1.00  0.00     0.135 A 
ATOM     63  C   UNL A   1      46.420  33.198  29.343  1.00  0.00     0.135 A 
ATOM     64  F   UNL A   1      45.562  33.185  25.806  1.00  0.00    -0.206 F 
ATOM     65  C   UNL A   1      46.210  34.960  27.194  1.00  0.00     0.059 A 
ATOM     66  C   UNL A   1      46.689  34.550  29.539  1.00  0.00     0.059 A 
ATOM     67  F   UNL A   1      46.547  32.371  30.393  1.00  0.00    -0.206 F 
ATOM     68  C   UNL A   1      46.598  35.420  28.453  1.00  0.00     0.060 A 
BRANCH  68  69
ATOM     69  S   UNL A   1      46.982  37.173  28.648  1.00  0.00     0.124 S 
ATOM     70  O   UNL A   1      48.421  37.132  28.886  1.00  0.00    -0.237 OA
ATOM     71  O   UNL A   1      46.567  37.727  27.363  1.00  0.00    -0.237 OA
ATOM     72  O   UNL A   1      46.168  37.574  29.791  1.00  0.00    -0.744 OA
ENDBRANCH  68  69
ENDBRANCH  47  61
BRANCH  48  73
ATOM     73  C   UNL A   1      43.544  23.100  26.754  1.00  0.00     0.058 A 
ATOM     74  C   UNL A   1      43.535  22.551  25.463  1.00  0.00     0.135 A 
ATOM     75  C   UNL A   1      43.211  22.256  27.825  1.00  0.00     0.135 A 
ATOM     76  F   UNL A   1      43.838  23.320  24.406  1.00  0.00    -0.206 F 
ATOM     77  C   UNL A   1      43.192  21.221  25.238  1.00  0.00     0.059 A 
ATOM     78  C   UNL A   1      42.891  20.915  27.628  1.00  0.00     0.059 A 
ATOM     79  F   UNL A   1      43.222  22.726  29.081  1.00  0.00    -0.206 F 
ATOM     80  C   UNL A   1      42.876  20.410  26.328  1.00  0.00     0.060 A 
BRANCH  80  81
ATOM     81  S   UNL A   1      42.486  18.672  26.029  1.00  0.00     0.124 S 
ATOM     82  O   UNL A   1      43.371  18.361  24.912  1.00  0.00    -0.237 OA
ATOM     83  O   UNL A   1      42.829  18.057  27.306  1.00  0.00    -0.237 OA
ATOM     84  O   UNL A   1      41.060  18.697  25.716  1.00  0.00    -0.744 OA
ENDBRANCH  80  81
ENDBRANCH  48  73
BRANCH  60  85
ATOM     85  C   UNL A   1      49.572  26.611  26.495  1.00  0.00     0.058 A 
ATOM     86  C   UNL A   1      50.421  26.208  27.537  1.00  0.00     0.135 A 
ATOM     87  C   UNL A   1      50.073  26.556  25.183  1.00  0.00     0.135 A 
ATOM     88  F   UNL A   1      49.995  26.247  28.810  1.00  0.00    -0.206 F 
ATOM     89  C   UNL A   1      51.725  25.789  27.291  1.00  0.00     0.059 A 
ATOM     90  C   UNL A   1      51.362  26.111  24.911  1.00  0.00     0.059 A 
ATOM     91  F   UNL A   1      49.299  26.919  24.148  1.00  0.00    -0.206 F 
ATOM     92  C   UNL A   1      52.186  25.742  25.974  1.00  0.00     0.060 A 
BRANCH  92  93
ATOM     93  S   UNL A   1      53.869  25.167  25.664  1.00  0.00     0.124 S 
ATOM     94  O   UNL A   1      54.339  24.892  27.018  1.00  0.00    -0.237 OA
ATOM     95  O   UNL A   1      53.649  23.997  24.820  1.00  0.00    -0.237 OA
ATOM     96  O   UNL A   1      54.500  26.303  24.999  1.00  0.00    -0.744 OA
ENDBRANCH  92  93
ENDBRANCH  60  85
ENDBRANCH  34  35
ENDBRANCH  26  29
ENDBRANCH  24  25
ENDBRANCH  23  24
ENDBRANCH   1  23
TORSDOF 18
ENDMDL
MODEL 3
REMARK VINA RESULT:     -11.0      0.874      8.339
REMARK SMILES C[C@@H]1[C@@H](C(=O)NCCCCNC(=O)c2ccc(-c3c4nc(c(-c5c(F)cc(S(=O)(=O)[O-])cc5F)c5ccc([nH]5)c(-c5c(F)cc(S(=O)(=O)[O-])cc5F)c5nc(c(-c6c(F)cc(S(=O)(=O)[O-])cc6F)c6ccc3[nH]6)C=C5)C=C4)cc2)CCN1C(=O)N(C)Cc1ccsc1
REMARK SMILES IDX 8 1 7 2 6 3 4 4 5 5 3 7 1 8 2 9 82 10 80 11 81 12 83 13
REMARK SMILES IDX 84 14 85 15 86 16 87 17 88 18 89 19 92 20 90 21 91 22 9 23
REMARK SMILES IDX 10 24 11 25 12 26 13 28 14 29 15 30 79 31 16 32 78 33 17 34
REMARK SMILES IDX 18 35 19 36 72 37 20 38 77 39 71 40 73 41 21 42 76 43 70 44
REMARK SMILES IDX 69 45 22 47 56 48 35 49 55 50 36 51 39 52 54 53 74 54 37 55
REMARK SMILES IDX 38 56 53 58 75 59 40 60 23 61 24 62 33 63 25 64 26 65 32 66
REMARK SMILES IDX 34 67 27 68 28 69 29 70 30 71 31 72 57 73 58 74 67 75 59 76
REMARK SMILES IDX 60 77 66 78 68 79 61 80 62 81 63 82 64 83 65 84 41 85 42 86
REMARK SMILES IDX 51 87 43 88 44 89 50 90 52 91 45 92 46 93 47 94 48 95 49 96
REMARK H PARENT 6 6 11 27 73 46 39 57
REMARK Flexibility Score: inf
ROOT
ATOM      1  C   UNL A   1      36.006  23.528  25.919  1.00  0.00     0.023 C 
ENDROOT
BRANCH   1   2
ATOM      2  C   UNL A   1      35.233  22.480  25.131  1.00  0.00     0.116 C 
BRANCH   2   3
ATOM      3  N   UNL A   1      33.879  22.293  25.610  1.00  0.00    -0.356 N 
ATOM      4  C   UNL A   1      32.725  22.888  25.195  1.00  0.00     0.225 C 
ATOM      5  O   UNL A   1      31.684  22.569  25.771  1.00  0.00    -0.275 OA
ATOM      6  H   UNL A   1      33.777  21.641  26.341  1.00  0.00     0.163 HD
BRANCH   4   7
ATOM      7  C   UNL A   1      32.778  23.968  24.116  1.00  0.00     0.102 C 
ATOM      8  C   UNL A   1      33.833  26.224  23.683  1.00  0.00     0.032 C 
ATOM      9  C   UNL A   1      33.113  25.353  24.723  1.00  0.00     0.096 C 
ATOM     10  N   UNL A   1      31.804  25.916  25.085  1.00  0.00    -0.321 N 
ATOM     11  C   UNL A   1      31.429  24.234  23.452  1.00  0.00     0.037 C 
ATOM     12  C   UNL A   1      30.744  25.159  24.434  1.00  0.00     0.122 C 
BRANCH  10  13
ATOM     13  C   UNL A   1      31.385  26.861  25.982  1.00  0.00     0.320 C 
ATOM     14  O   UNL A   1      30.728  26.474  26.960  1.00  0.00    -0.248 OA
BRANCH  13  15
ATOM     15  N   UNL A   1      31.595  28.209  25.814  1.00  0.00    -0.323 N 
ATOM     16  C   UNL A   1      31.808  29.008  24.620  1.00  0.00     0.149 C 
BRANCH  15  17
ATOM     17  C   UNL A   1      31.668  28.982  27.057  1.00  0.00     0.157 C 
BRANCH  17  18
ATOM     18  C   UNL A   1      33.015  29.648  27.242  1.00  0.00    -0.018 A 
ATOM     19  C   UNL A   1      34.252  28.914  27.239  1.00  0.00     0.017 A 
ATOM     20  C   UNL A   1      33.261  30.990  27.487  1.00  0.00     0.070 A 
ATOM     21  C   UNL A   1      35.348  29.708  27.493  1.00  0.00     0.065 A 
ATOM     22  S   UNL A   1      34.916  31.344  27.717  1.00  0.00    -0.152 S 
ENDBRANCH  17  18
ENDBRANCH  15  17
ENDBRANCH  13  15
ENDBRANCH  10  13
ENDBRANCH   4   7
ENDBRANCH   2   3
ENDBRANCH   1   2
BRANCH   1  23
ATOM     23  C   UNL A   1      37.446  23.761  25.462  1.00  0.00     0.023 C 
BRANCH  23  24
ATOM     24  C   UNL A   1      38.418  24.202  26.551  1.00  0.00     0.116 C 
BRANCH  24  25
ATOM     25  N   UNL A   1      39.802  24.212  26.102  1.00  0.00    -0.352 N 
ATOM     26  C   UNL A   1      40.834  25.054  26.453  1.00  0.00     0.251 C 
ATOM     27  H   UNL A   1      40.036  23.510  25.452  1.00  0.00     0.163 HD
ATOM     28  O   UNL A   1      41.894  25.000  25.845  1.00  0.00    -0.269 OA
BRANCH  26  29
ATOM     29  C   UNL A   1      40.643  26.040  27.539  1.00  0.00     0.039 A 
ATOM     30  C   UNL A   1      39.679  25.791  28.519  1.00  0.00     0.014 A 
ATOM     31  C   UNL A   1      41.420  27.200  27.599  1.00  0.00     0.014 A 
ATOM     32  C   UNL A   1      39.548  26.668  29.599  1.00  0.00     0.010 A 
ATOM     33  C   UNL A   1      41.351  28.021  28.720  1.00  0.00     0.010 A 
ATOM     34  C   UNL A   1      40.410  27.770  29.730  1.00  0.00    -0.014 A 
BRANCH  34  35
ATOM     35  C   UNL A   1      40.338  28.679  30.904  1.00  0.00     0.031 A 
ATOM     36  C   UNL A   1      39.343  29.810  30.917  1.00  0.00     0.074 A 
ATOM     37  C   UNL A   1      41.207  28.531  31.924  1.00  0.00     0.049 A 
ATOM     38  N   UNL A   1      39.179  30.756  31.806  1.00  0.00    -0.248 NA
ATOM     39  C   UNL A   1      38.434  29.908  29.764  1.00  0.00     0.031 C 
ATOM     40  C   UNL A   1      42.249  27.505  32.008  1.00  0.00     0.029 A 
ATOM     41  N   UNL A   1      41.360  29.253  33.082  1.00  0.00    -0.354 N 
ATOM     42  C   UNL A   1      38.165  31.569  31.312  1.00  0.00     0.074 A 
ATOM     43  C   UNL A   1      37.794  31.040  30.018  1.00  0.00     0.031 C 
ATOM     44  C   UNL A   1      42.915  27.648  33.166  1.00  0.00     0.029 A 
ATOM     45  C   UNL A   1      42.377  28.796  33.888  1.00  0.00     0.049 A 
ATOM     46  H   UNL A   1      40.794  30.024  33.315  1.00  0.00     0.167 HD
ATOM     47  C   UNL A   1      37.577  32.642  31.893  1.00  0.00     0.037 A 
ATOM     48  C   UNL A   1      42.830  29.255  35.071  1.00  0.00     0.037 A 
ATOM     49  C   UNL A   1      37.933  33.147  33.193  1.00  0.00     0.049 A 
ATOM     50  C   UNL A   1      42.161  30.449  35.700  1.00  0.00     0.074 A 
ATOM     51  C   UNL A   1      37.364  34.196  33.893  1.00  0.00     0.029 A 
ATOM     52  N   UNL A   1      38.951  32.641  33.989  1.00  0.00    -0.354 N 
ATOM     53  N   UNL A   1      41.165  31.170  35.244  1.00  0.00    -0.248 NA
ATOM     54  C   UNL A   1      42.671  30.885  37.007  1.00  0.00     0.031 C 
ATOM     55  C   UNL A   1      38.066  34.353  35.093  1.00  0.00     0.029 A 
ATOM     56  C   UNL A   1      39.037  33.366  35.165  1.00  0.00     0.049 A 
ATOM     57  H   UNL A   1      39.527  31.880  33.751  1.00  0.00     0.167 HD
ATOM     58  C   UNL A   1      40.905  32.122  36.224  1.00  0.00     0.074 A 
ATOM     59  C   UNL A   1      41.845  31.880  37.300  1.00  0.00     0.031 C 
ATOM     60  C   UNL A   1      39.970  33.105  36.234  1.00  0.00     0.037 A 
BRANCH  47  61
ATOM     61  C   UNL A   1      36.483  33.335  31.126  1.00  0.00     0.058 A 
ATOM     62  C   UNL A   1      36.763  34.157  30.020  1.00  0.00     0.135 A 
ATOM     63  C   UNL A   1      35.137  33.163  31.485  1.00  0.00     0.135 A 
ATOM     64  F   UNL A   1      38.032  34.370  29.640  1.00  0.00    -0.206 F 
ATOM     65  C   UNL A   1      35.752  34.812  29.325  1.00  0.00     0.059 A 
ATOM     66  C   UNL A   1      34.107  33.783  30.784  1.00  0.00     0.059 A 
ATOM     67  F   UNL A   1      34.810  32.389  32.533  1.00  0.00    -0.206 F 
ATOM     68  C   UNL A   1      34.426  34.620  29.715  1.00  0.00     0.060 A 
BRANCH  68  69
ATOM     69  S   UNL A   1      33.128  35.481  28.805  1.00  0.00     0.124 S 
ATOM     70  O   UNL A   1      33.910  36.376  27.958  1.00  0.00    -0.237 OA
ATOM     71  O   UNL A   1      32.451  34.387  28.116  1.00  0.00    -0.237 OA
ATOM     72  O   UNL A   1      32.351  36.133  29.855  1.00  0.00    -0.744 OA
ENDBRANCH  68  69
ENDBRANCH  47  61
BRANCH  48  73
ATOM     73  C   UNL A   1      43.956  28.563  35.755  1.00  0.00     0.058 A 
ATOM     74  C   UNL A   1      43.715  27.522  36.664  1.00  0.00     0.135 A 
ATOM     75  C   UNL A   1      45.292  28.914  35.505  1.00  0.00     0.135 A 
ATOM     76  F   UNL A   1      42.456  27.153  36.943  1.00  0.00    -0.206 F 
ATOM     77  C   UNL A   1      44.756  26.864  37.313  1.00  0.00     0.059 A 
ATOM     78  C   UNL A   1      46.351  28.253  36.121  1.00  0.00     0.059 A 
ATOM     79  F   UNL A   1      45.577  29.892  34.631  1.00  0.00    -0.206 F 
ATOM     80  C   UNL A   1      46.071  27.235  37.032  1.00  0.00     0.060 A 
BRANCH  80  81
ATOM     81  S   UNL A   1      47.415  26.338  37.839  1.00  0.00     0.124 S 
ATOM     82  O   UNL A   1      46.804  25.033  38.063  1.00  0.00    -0.237 OA
ATOM     83  O   UNL A   1      48.466  26.385  36.828  1.00  0.00    -0.237 OA
ATOM     84  O   UNL A   1      47.673  27.128  39.039  1.00  0.00    -0.744 OA
ENDBRANCH  80  81
ENDBRANCH  48  73
BRANCH  60  85
ATOM     85  C   UNL A   1      39.876  33.962  37.467  1.00  0.00     0.058 A 
ATOM     86  C   UNL A   1      40.554  35.186  37.574  1.00  0.00     0.135 A 
ATOM     87  C   UNL A   1      39.052  33.573  38.536  1.00  0.00     0.135 A 
ATOM     88  F   UNL A   1      41.359  35.602  36.583  1.00  0.00    -0.206 F 
ATOM     89  C   UNL A   1      40.439  35.983  38.709  1.00  0.00     0.059 A 
ATOM     90  C   UNL A   1      38.898  34.368  39.667  1.00  0.00     0.059 A 
ATOM     91  F   UNL A   1      38.372  32.417  38.481  1.00  0.00    -0.206 F 
ATOM     92  C   UNL A   1      39.607  35.566  39.750  1.00  0.00     0.060 A 
BRANCH  92  93
ATOM     93  S   UNL A   1      39.441  36.624  41.204  1.00  0.00     0.124 S 
ATOM     94  O   UNL A   1      38.846  37.825  40.627  1.00  0.00    -0.237 OA
ATOM     95  O   UNL A   1      38.567  35.835  42.066  1.00  0.00    -0.237 OA
ATOM     96  O   UNL A   1      40.815  36.768  41.677  1.00  0.00    -0.744 OA
ENDBRANCH  92  93
ENDBRANCH  60  85
ENDBRANCH  34  35
ENDBRANCH  26  29
ENDBRANCH  24  25
ENDBRANCH  23  24
ENDBRANCH   1  23
TORSDOF 18
ENDMDL
