MODEL 1
REMARK VINA RESULT:     -11.3      0.000      0.000
REMARK SMILES CCCCCCNC(=O)Oc1cccc(-c2ccc([C@@H](C)C(=O)NCCCCNC(=O)c3ccc(-c4c5nc(c(-c6c(F)cc(S(=O)(=O)[O-])cc6F)c6ccc([nH]6)c(-c6c(F)cc(S(=O)(=O)[O-])cc6F)c6nc(c(-c7c(F)cc(S(=O)(=O)[O-])cc7F)c7ccc4[nH]7)C=C6)C=C5)cc3)cc2C)c1
REMARK SMILES IDX 20 1 21 2 19 3 16 4 17 5 99 6 18 7 98 8 100 9 15 10 11 11
REMARK SMILES IDX 12 12 101 13 13 14 14 15 10 16 8 17 7 18 9 20 6 21 5 22 4 23
REMARK SMILES IDX 3 24 2 25 1 26 22 27 23 28 24 29 25 31 26 32 27 33 28 34
REMARK SMILES IDX 29 35 30 36 31 38 32 39 33 40 97 41 34 42 96 43 35 44 36 45
REMARK SMILES IDX 37 46 90 47 38 48 95 49 89 50 91 51 39 52 94 53 88 54 87 55
REMARK SMILES IDX 40 57 74 58 53 59 73 60 54 61 57 62 72 63 92 64 55 65 56 66
REMARK SMILES IDX 71 68 93 69 58 70 41 71 42 72 51 73 43 74 44 75 50 76 52 77
REMARK SMILES IDX 45 78 46 79 47 80 48 81 49 82 75 83 76 84 85 85 77 86 78 87
REMARK SMILES IDX 84 88 86 89 79 90 80 91 81 92 82 93 83 94 59 95 60 96 69 97
REMARK SMILES IDX 61 98 62 99 68 100 70 101 63 102 64 103 65 104 66 105 67 106
REMARK H PARENT 7 19 24 30 29 37 91 56 57 67
REMARK Flexibility Score: inf
ROOT
ATOM      1  C   UNL A   1      34.832  33.136  28.984  1.00  0.00     0.105 C 
ATOM      2  C   UNL A   1      36.130  33.831  28.576  1.00  0.00     0.023 C 
ENDROOT
BRANCH   1   3
ATOM      3  C   UNL A   1      34.528  31.845  28.241  1.00  0.00    -0.036 A 
ATOM      4  C   UNL A   1      33.964  29.516  26.662  1.00  0.00    -0.015 A 
ATOM      5  C   UNL A   1      35.164  29.668  27.381  1.00  0.00     0.009 A 
ATOM      6  C   UNL A   1      32.995  30.531  26.819  1.00  0.00    -0.043 A 
ATOM      7  C   UNL A   1      35.411  30.772  28.201  1.00  0.00     0.005 A 
ATOM      8  C   UNL A   1      33.314  31.700  27.552  1.00  0.00     0.008 A 
ATOM      9  C   UNL A   1      31.584  30.448  26.293  1.00  0.00     0.045 C 
BRANCH   4  10
ATOM     10  C   UNL A   1      33.800  28.305  25.819  1.00  0.00    -0.014 A 
ATOM     11  C   UNL A   1      33.767  27.178  23.666  1.00  0.00     0.133 A 
ATOM     12  C   UNL A   1      33.472  25.958  24.267  1.00  0.00     0.047 A 
ATOM     13  C   UNL A   1      33.958  28.336  24.423  1.00  0.00     0.056 A 
ATOM     14  C   UNL A   1      33.360  25.895  25.649  1.00  0.00     0.004 A 
ATOM     15  C   UNL A   1      33.503  27.058  26.410  1.00  0.00     0.009 A 
BRANCH  11  16
ATOM     16  O   UNL A   1      33.681  27.210  22.262  1.00  0.00    -0.410 OA
BRANCH  16  17
ATOM     17  C   UNL A   1      32.875  26.310  21.583  1.00  0.00     0.412 C 
ATOM     18  N   UNL A   1      31.567  26.710  21.535  1.00  0.00    -0.321 N 
ATOM     19  H   UNL A   1      30.931  26.091  21.109  1.00  0.00     0.167 HD
ATOM     20  O   UNL A   1      33.241  25.262  21.071  1.00  0.00    -0.224 OA
BRANCH  18  21
ATOM     21  C   UNL A   1      31.023  27.953  22.045  1.00  0.00     0.119 C 
BRANCH  21  22
ATOM     22  C   UNL A   1      29.917  27.713  23.073  1.00  0.00     0.021 C 
BRANCH  22  23
ATOM     23  C   UNL A   1      28.770  28.730  23.031  1.00  0.00     0.002 C 
BRANCH  23  24
ATOM     24  C   UNL A   1      28.910  29.836  21.979  1.00  0.00    -0.000 C 
BRANCH  24  25
ATOM     25  C   UNL A   1      28.095  31.103  22.248  1.00  0.00    -0.003 C 
ATOM     26  C   UNL A   1      27.597  31.205  23.681  1.00  0.00     0.004 C 
ENDBRANCH  24  25
ENDBRANCH  23  24
ENDBRANCH  22  23
ENDBRANCH  21  22
ENDBRANCH  18  21
ENDBRANCH  16  17
ENDBRANCH  11  16
ENDBRANCH   4  10
ENDBRANCH   1   3
BRANCH   1  27
ATOM     27  C   UNL A   1      33.632  34.086  29.131  1.00  0.00     0.227 C 
ATOM     28  O   UNL A   1      32.834  34.209  28.192  1.00  0.00    -0.274 OA
ATOM     29  N   UNL A   1      33.353  34.797  30.257  1.00  0.00    -0.356 N 
ATOM     30  H   UNL A   1      32.504  35.293  30.219  1.00  0.00     0.163 HD
BRANCH  29  31
ATOM     31  C   UNL A   1      34.078  34.959  31.499  1.00  0.00     0.116 C 
BRANCH  31  32
ATOM     32  C   UNL A   1      34.804  33.676  31.910  1.00  0.00     0.023 C 
BRANCH  32  33
ATOM     33  C   UNL A   1      36.259  33.862  32.331  1.00  0.00     0.023 C 
BRANCH  33  34
ATOM     34  C   UNL A   1      37.114  32.604  32.266  1.00  0.00     0.116 C 
BRANCH  34  35
ATOM     35  N   UNL A   1      36.361  31.383  32.011  1.00  0.00    -0.352 N 
ATOM     36  C   UNL A   1      36.786  30.245  31.364  1.00  0.00     0.251 C 
ATOM     37  H   UNL A   1      35.434  31.371  32.344  1.00  0.00     0.163 HD
ATOM     38  O   UNL A   1      36.007  29.322  31.153  1.00  0.00    -0.269 OA
BRANCH  36  39
ATOM     39  C   UNL A   1      38.182  30.179  30.883  1.00  0.00     0.039 A 
ATOM     40  C   UNL A   1      39.171  29.695  31.742  1.00  0.00     0.014 A 
ATOM     41  C   UNL A   1      38.491  30.515  29.563  1.00  0.00     0.014 A 
ATOM     42  C   UNL A   1      40.458  29.473  31.248  1.00  0.00     0.010 A 
ATOM     43  C   UNL A   1      39.747  30.210  29.053  1.00  0.00     0.010 A 
ATOM     44  C   UNL A   1      40.745  29.686  29.889  1.00  0.00    -0.014 A 
BRANCH  44  45
ATOM     45  C   UNL A   1      42.079  29.359  29.324  1.00  0.00     0.031 A 
ATOM     46  C   UNL A   1      42.350  27.984  28.779  1.00  0.00     0.074 A 
ATOM     47  C   UNL A   1      43.062  30.281  29.362  1.00  0.00     0.049 A 
ATOM     48  N   UNL A   1      43.458  27.496  28.284  1.00  0.00    -0.248 NA
ATOM     49  C   UNL A   1      41.240  27.018  28.826  1.00  0.00     0.031 C 
ATOM     50  C   UNL A   1      42.941  31.627  29.929  1.00  0.00     0.029 A 
ATOM     51  N   UNL A   1      44.360  30.226  28.920  1.00  0.00    -0.354 N 
ATOM     52  C   UNL A   1      43.183  26.171  27.972  1.00  0.00     0.074 A 
ATOM     53  C   UNL A   1      41.824  25.911  28.394  1.00  0.00     0.031 C 
ATOM     54  C   UNL A   1      44.104  32.279  29.771  1.00  0.00     0.029 A 
ATOM     55  C   UNL A   1      45.064  31.390  29.124  1.00  0.00     0.049 A 
ATOM     56  H   UNL A   1      44.750  29.427  28.496  1.00  0.00     0.167 HD
ATOM     57  C   UNL A   1      43.979  25.259  27.363  1.00  0.00     0.037 A 
ATOM     58  C   UNL A   1      46.338  31.706  28.822  1.00  0.00     0.037 A 
ATOM     59  C   UNL A   1      45.321  25.534  26.921  1.00  0.00     0.049 A 
ATOM     60  C   UNL A   1      47.199  30.683  28.129  1.00  0.00     0.074 A 
ATOM     61  C   UNL A   1      46.188  24.702  26.236  1.00  0.00     0.029 A 
ATOM     62  N   UNL A   1      45.990  26.732  27.122  1.00  0.00    -0.354 N 
ATOM     63  N   UNL A   1      46.897  29.456  27.774  1.00  0.00    -0.248 NA
ATOM     64  C   UNL A   1      48.568  31.089  27.788  1.00  0.00     0.031 C 
ATOM     65  C   UNL A   1      47.399  25.383  26.060  1.00  0.00     0.029 A 
ATOM     66  C   UNL A   1      47.268  26.656  26.591  1.00  0.00     0.049 A 
ATOM     67  H   UNL A   1      45.614  27.521  27.574  1.00  0.00     0.167 HD
ATOM     68  C   UNL A   1      48.030  28.952  27.145  1.00  0.00     0.074 A 
ATOM     69  C   UNL A   1      49.017  30.014  27.156  1.00  0.00     0.031 C 
ATOM     70  C   UNL A   1      48.237  27.723  26.610  1.00  0.00     0.037 A 
BRANCH  57  71
ATOM     71  C   UNL A   1      43.412  23.885  27.131  1.00  0.00     0.058 A 
ATOM     72  C   UNL A   1      43.300  22.948  28.172  1.00  0.00     0.135 A 
ATOM     73  C   UNL A   1      42.952  23.506  25.860  1.00  0.00     0.135 A 
ATOM     74  F   UNL A   1      43.741  23.250  29.404  1.00  0.00    -0.206 F 
ATOM     75  C   UNL A   1      42.786  21.674  27.954  1.00  0.00     0.059 A 
ATOM     76  C   UNL A   1      42.405  22.247  25.625  1.00  0.00     0.059 A 
ATOM     77  F   UNL A   1      43.034  24.360  24.828  1.00  0.00    -0.206 F 
ATOM     78  C   UNL A   1      42.341  21.333  26.676  1.00  0.00     0.060 A 
BRANCH  78  79
ATOM     79  S   UNL A   1      41.673  19.677  26.411  1.00  0.00     0.124 S 
ATOM     80  O   UNL A   1      42.002  19.025  27.675  1.00  0.00    -0.237 OA
ATOM     81  O   UNL A   1      40.256  19.944  26.186  1.00  0.00    -0.237 OA
ATOM     82  O   UNL A   1      42.410  19.196  25.246  1.00  0.00    -0.744 OA
ENDBRANCH  78  79
ENDBRANCH  57  71
BRANCH  58  83
ATOM     83  C   UNL A   1      46.866  33.060  29.140  1.00  0.00     0.058 A 
ATOM     84  C   UNL A   1      47.395  33.347  30.407  1.00  0.00     0.135 A 
ATOM     85  C   UNL A   1      46.868  34.087  28.183  1.00  0.00     0.135 A 
ATOM     86  F   UNL A   1      47.411  32.401  31.357  1.00  0.00    -0.206 F 
ATOM     87  C   UNL A   1      47.891  34.608  30.722  1.00  0.00     0.059 A 
ATOM     88  C   UNL A   1      47.382  35.348  28.466  1.00  0.00     0.059 A 
ATOM     89  F   UNL A   1      46.389  33.858  26.950  1.00  0.00    -0.206 F 
ATOM     90  C   UNL A   1      47.882  35.603  29.743  1.00  0.00     0.060 A 
BRANCH  90  91
ATOM     91  S   UNL A   1      48.571  37.223  30.147  1.00  0.00     0.124 S 
ATOM     92  O   UNL A   1      49.397  37.492  28.976  1.00  0.00    -0.237 OA
ATOM     93  O   UNL A   1      47.370  38.042  30.283  1.00  0.00    -0.237 OA
ATOM     94  O   UNL A   1      49.297  36.977  31.389  1.00  0.00    -0.744 OA
ENDBRANCH  90  91
ENDBRANCH  58  83
BRANCH  70  95
ATOM     95  C   UNL A   1      49.572  27.470  25.966  1.00  0.00     0.058 A 
ATOM     96  C   UNL A   1      49.748  27.549  24.575  1.00  0.00     0.135 A 
ATOM     97  C   UNL A   1      50.698  27.178  26.754  1.00  0.00     0.135 A 
ATOM     98  F   UNL A   1      48.704  27.821  23.777  1.00  0.00    -0.206 F 
ATOM     99  C   UNL A   1      50.987  27.319  23.986  1.00  0.00     0.059 A 
ATOM    100  C   UNL A   1      51.951  26.973  26.188  1.00  0.00     0.059 A 
ATOM    101  F   UNL A   1      50.587  27.102  28.089  1.00  0.00    -0.206 F 
ATOM    102  C   UNL A   1      52.082  27.029  24.802  1.00  0.00     0.060 A 
BRANCH 102 103
ATOM    103  S   UNL A   1      53.688  26.749  24.026  1.00  0.00     0.124 S 
ATOM    104  O   UNL A   1      53.475  27.316  22.698  1.00  0.00    -0.237 OA
ATOM    105  O   UNL A   1      54.592  27.494  24.896  1.00  0.00    -0.237 OA
ATOM    106  O   UNL A   1      53.838  25.298  24.071  1.00  0.00    -0.744 OA
ENDBRANCH 102 103
ENDBRANCH  70  95
ENDBRANCH  44  45
ENDBRANCH  36  39
ENDBRANCH  34  35
ENDBRANCH  33  34
ENDBRANCH  32  33
ENDBRANCH  31  32
ENDBRANCH  29  31
ENDBRANCH   1  27
TORSDOF 23
ENDMDL
MODEL 2
REMARK VINA RESULT:     -10.7      4.101     11.482
REMARK SMILES CCCCCCNC(=O)Oc1cccc(-c2ccc([C@@H](C)C(=O)NCCCCNC(=O)c3ccc(-c4c5nc(c(-c6c(F)cc(S(=O)(=O)[O-])cc6F)c6ccc([nH]6)c(-c6c(F)cc(S(=O)(=O)[O-])cc6F)c6nc(c(-c7c(F)cc(S(=O)(=O)[O-])cc7F)c7ccc4[nH]7)C=C6)C=C5)cc3)cc2C)c1
REMARK SMILES IDX 20 1 21 2 19 3 16 4 17 5 99 6 18 7 98 8 100 9 15 10 11 11
REMARK SMILES IDX 12 12 101 13 13 14 14 15 10 16 8 17 7 18 9 20 6 21 5 22 4 23
REMARK SMILES IDX 3 24 2 25 1 26 22 27 23 28 24 29 25 31 26 32 27 33 28 34
REMARK SMILES IDX 29 35 30 36 31 38 32 39 33 40 97 41 34 42 96 43 35 44 36 45
REMARK SMILES IDX 37 46 90 47 38 48 95 49 89 50 91 51 39 52 94 53 88 54 87 55
REMARK SMILES IDX 40 57 74 58 53 59 73 60 54 61 57 62 72 63 92 64 55 65 56 66
REMARK SMILES IDX 71 68 93 69 58 70 41 71 42 72 51 73 43 74 44 75 50 76 52 77
REMARK SMILES IDX 45 78 46 79 47 80 48 81 49 82 75 83 76 84 85 85 77 86 78 87
REMARK SMILES IDX 84 88 86 89 79 90 80 91 81 92 82 93 83 94 59 95 60 96 69 97
REMARK SMILES IDX 61 98 62 99 68 100 70 101 63 102 64 103 65 104 66 105 67 106
REMARK H PARENT 7 19 24 30 29 37 91 56 57 67
REMARK Flexibility Score: inf
ROOT
ATOM      1  C   UNL A   1      34.942  34.162  32.727  1.00  0.00     0.105 C 
ATOM      2  C   UNL A   1      33.802  33.254  33.186  1.00  0.00     0.023 C 
ENDROOT
BRANCH   1   3
ATOM      3  C   UNL A   1      36.240  34.016  33.506  1.00  0.00    -0.036 A 
ATOM      4  C   UNL A   1      38.641  33.541  35.002  1.00  0.00    -0.015 A 
ATOM      5  C   UNL A   1      38.656  33.841  33.628  1.00  0.00     0.009 A 
ATOM      6  C   UNL A   1      37.385  33.567  35.647  1.00  0.00    -0.043 A 
ATOM      7  C   UNL A   1      37.492  34.137  32.914  1.00  0.00     0.005 A 
ATOM      8  C   UNL A   1      36.206  33.744  34.882  1.00  0.00     0.008 A 
ATOM      9  C   UNL A   1      37.193  33.469  37.139  1.00  0.00     0.045 C 
BRANCH   4  10
ATOM     10  C   UNL A   1      39.934  33.241  35.668  1.00  0.00    -0.014 A 
ATOM     11  C   UNL A   1      41.613  31.691  36.495  1.00  0.00     0.133 A 
ATOM     12  C   UNL A   1      42.410  32.738  36.949  1.00  0.00     0.047 A 
ATOM     13  C   UNL A   1      40.404  31.928  35.837  1.00  0.00     0.056 A 
ATOM     14  C   UNL A   1      41.988  34.045  36.748  1.00  0.00     0.004 A 
ATOM     15  C   UNL A   1      40.757  34.289  36.134  1.00  0.00     0.009 A 
BRANCH  11  16
ATOM     16  O   UNL A   1      42.005  30.401  36.895  1.00  0.00    -0.410 OA
BRANCH  16  17
ATOM     17  C   UNL A   1      41.642  29.289  36.151  1.00  0.00     0.412 C 
ATOM     18  N   UNL A   1      42.557  28.987  35.180  1.00  0.00    -0.321 N 
ATOM     19  H   UNL A   1      42.336  28.237  34.581  1.00  0.00     0.167 HD
ATOM     20  O   UNL A   1      40.628  28.623  36.301  1.00  0.00    -0.224 OA
BRANCH  18  21
ATOM     21  C   UNL A   1      43.821  29.657  34.942  1.00  0.00     0.119 C 
BRANCH  21  22
ATOM     22  C   UNL A   1      44.935  29.108  35.834  1.00  0.00     0.021 C 
BRANCH  22  23
ATOM     23  C   UNL A   1      46.250  28.807  35.105  1.00  0.00     0.002 C 
BRANCH  23  24
ATOM     24  C   UNL A   1      47.258  29.961  35.063  1.00  0.00    -0.000 C 
BRANCH  24  25
ATOM     25  C   UNL A   1      48.725  29.555  35.218  1.00  0.00    -0.003 C 
ATOM     26  C   UNL A   1      49.502  29.598  33.911  1.00  0.00     0.004 C 
ENDBRANCH  24  25
ENDBRANCH  23  24
ENDBRANCH  22  23
ENDBRANCH  21  22
ENDBRANCH  18  21
ENDBRANCH  16  17
ENDBRANCH  11  16
ENDBRANCH   4  10
ENDBRANCH   1   3
BRANCH   1  27
ATOM     27  C   UNL A   1      34.517  35.615  32.462  1.00  0.00     0.227 C 
ATOM     28  O   UNL A   1      34.822  36.498  33.275  1.00  0.00    -0.274 OA
ATOM     29  N   UNL A   1      33.839  36.024  31.355  1.00  0.00    -0.356 N 
ATOM     30  H   UNL A   1      33.717  36.999  31.295  1.00  0.00     0.163 HD
BRANCH  29  31
ATOM     31  C   UNL A   1      33.265  35.287  30.250  1.00  0.00     0.116 C 
BRANCH  31  32
ATOM     32  C   UNL A   1      34.264  35.096  29.107  1.00  0.00     0.023 C 
BRANCH  32  33
ATOM     33  C   UNL A   1      35.229  33.926  29.279  1.00  0.00     0.023 C 
BRANCH  33  34
ATOM     34  C   UNL A   1      35.409  33.052  28.045  1.00  0.00     0.116 C 
BRANCH  34  35
ATOM     35  N   UNL A   1      34.368  32.048  27.869  1.00  0.00    -0.352 N 
ATOM     36  C   UNL A   1      34.502  30.678  27.874  1.00  0.00     0.251 C 
ATOM     37  H   UNL A   1      33.456  32.392  27.730  1.00  0.00     0.163 HD
ATOM     38  O   UNL A   1      33.540  29.958  27.631  1.00  0.00    -0.269 OA
BRANCH  36  39
ATOM     39  C   UNL A   1      35.836  30.095  28.127  1.00  0.00     0.039 A 
ATOM     40  C   UNL A   1      36.773  30.074  27.091  1.00  0.00     0.014 A 
ATOM     41  C   UNL A   1      36.182  29.648  29.404  1.00  0.00     0.014 A 
ATOM     42  C   UNL A   1      38.084  29.679  27.361  1.00  0.00     0.010 A 
ATOM     43  C   UNL A   1      37.507  29.340  29.690  1.00  0.00     0.010 A 
ATOM     44  C   UNL A   1      38.472  29.351  28.672  1.00  0.00    -0.014 A 
BRANCH  44  45
ATOM     45  C   UNL A   1      39.885  29.027  28.997  1.00  0.00     0.031 A 
ATOM     46  C   UNL A   1      40.767  30.062  29.641  1.00  0.00     0.074 A 
ATOM     47  C   UNL A   1      40.388  27.824  28.655  1.00  0.00     0.049 A 
ATOM     48  N   UNL A   1      42.032  29.982  29.962  1.00  0.00    -0.248 NA
ATOM     49  C   UNL A   1      40.156  31.369  29.931  1.00  0.00     0.031 C 
ATOM     50  C   UNL A   1      39.650  26.762  27.963  1.00  0.00     0.029 A 
ATOM     51  N   UNL A   1      41.640  27.291  28.834  1.00  0.00    -0.354 N 
ATOM     52  C   UNL A   1      42.370  31.226  30.480  1.00  0.00     0.074 A 
ATOM     53  C   UNL A   1      41.196  32.063  30.370  1.00  0.00     0.031 C 
ATOM     54  C   UNL A   1      40.453  25.697  27.808  1.00  0.00     0.029 A 
ATOM     55  C   UNL A   1      41.769  26.008  28.356  1.00  0.00     0.049 A 
ATOM     56  H   UNL A   1      42.376  27.782  29.266  1.00  0.00     0.167 HD
ATOM     57  C   UNL A   1      43.544  31.628  31.025  1.00  0.00     0.037 A 
ATOM     58  C   UNL A   1      42.828  25.176  28.360  1.00  0.00     0.037 A 
ATOM     59  C   UNL A   1      44.699  30.781  31.157  1.00  0.00     0.049 A 
ATOM     60  C   UNL A   1      44.117  25.638  28.987  1.00  0.00     0.074 A 
ATOM     61  C   UNL A   1      45.914  31.069  31.752  1.00  0.00     0.029 A 
ATOM     62  N   UNL A   1      44.784  29.479  30.684  1.00  0.00    -0.354 N 
ATOM     63  N   UNL A   1      44.396  26.794  29.541  1.00  0.00    -0.248 NA
ATOM     64  C   UNL A   1      45.230  24.680  28.999  1.00  0.00     0.031 C 
ATOM     65  C   UNL A   1      46.749  29.956  31.603  1.00  0.00     0.029 A 
ATOM     66  C   UNL A   1      46.038  28.956  30.957  1.00  0.00     0.049 A 
ATOM     67  H   UNL A   1      44.060  28.997  30.223  1.00  0.00     0.167 HD
ATOM     68  C   UNL A   1      45.708  26.695  29.989  1.00  0.00     0.074 A 
ATOM     69  C   UNL A   1      46.160  25.359  29.655  1.00  0.00     0.031 C 
ATOM     70  C   UNL A   1      46.471  27.624  30.618  1.00  0.00     0.037 A 
BRANCH  57  71
ATOM     71  C   UNL A   1      43.627  33.044  31.530  1.00  0.00     0.058 A 
ATOM     72  C   UNL A   1      44.073  34.093  30.710  1.00  0.00     0.135 A 
ATOM     73  C   UNL A   1      43.236  33.360  32.841  1.00  0.00     0.135 A 
ATOM     74  F   UNL A   1      44.478  33.845  29.454  1.00  0.00    -0.206 F 
ATOM     75  C   UNL A   1      44.161  35.399  31.181  1.00  0.00     0.059 A 
ATOM     76  C   UNL A   1      43.286  34.665  33.324  1.00  0.00     0.059 A 
ATOM     77  F   UNL A   1      42.802  32.397  33.669  1.00  0.00    -0.206 F 
ATOM     78  C   UNL A   1      43.765  35.675  32.490  1.00  0.00     0.060 A 
BRANCH  78  79
ATOM     79  S   UNL A   1      43.882  37.376  33.084  1.00  0.00     0.124 S 
ATOM     80  O   UNL A   1      42.703  37.467  33.939  1.00  0.00    -0.237 OA
ATOM     81  O   UNL A   1      45.168  37.378  33.774  1.00  0.00    -0.237 OA
ATOM     82  O   UNL A   1      43.832  38.168  31.858  1.00  0.00    -0.744 OA
ENDBRANCH  78  79
ENDBRANCH  57  71
BRANCH  58  83
ATOM     83  C   UNL A   1      42.706  23.811  27.781  1.00  0.00     0.058 A 
ATOM     84  C   UNL A   1      42.465  22.699  28.602  1.00  0.00     0.135 A 
ATOM     85  C   UNL A   1      42.812  23.590  26.399  1.00  0.00     0.135 A 
ATOM     86  F   UNL A   1      42.362  22.857  29.930  1.00  0.00    -0.206 F 
ATOM     87  C   UNL A   1      42.351  21.416  28.078  1.00  0.00     0.059 A 
ATOM     88  C   UNL A   1      42.674  22.320  25.848  1.00  0.00     0.059 A 
ATOM     89  F   UNL A   1      43.024  24.623  25.568  1.00  0.00    -0.206 F 
ATOM     90  C   UNL A   1      42.455  21.236  26.698  1.00  0.00     0.060 A 
BRANCH  90  91
ATOM     91  S   UNL A   1      42.257  19.573  26.023  1.00  0.00     0.124 S 
ATOM     92  O   UNL A   1      43.133  19.621  24.859  1.00  0.00    -0.237 OA
ATOM     93  O   UNL A   1      42.714  18.737  27.131  1.00  0.00    -0.237 OA
ATOM     94  O   UNL A   1      40.828  19.494  25.737  1.00  0.00    -0.744 OA
ENDBRANCH  90  91
ENDBRANCH  58  83
BRANCH  70  95
ATOM     95  C   UNL A   1      47.865  27.218  31.011  1.00  0.00     0.058 A 
ATOM     96  C   UNL A   1      48.976  27.526  30.211  1.00  0.00     0.135 A 
ATOM     97  C   UNL A   1      48.094  26.542  32.221  1.00  0.00     0.135 A 
ATOM     98  F   UNL A   1      48.811  28.167  29.044  1.00  0.00    -0.206 F 
ATOM     99  C   UNL A   1      50.264  27.153  30.582  1.00  0.00     0.059 A 
ATOM    100  C   UNL A   1      49.376  26.185  32.626  1.00  0.00     0.059 A 
ATOM    101  F   UNL A   1      47.067  26.234  33.028  1.00  0.00    -0.206 F 
ATOM    102  C   UNL A   1      50.452  26.480  31.791  1.00  0.00     0.060 A 
BRANCH 102 103
ATOM    103  S   UNL A   1      52.130  26.016  32.270  1.00  0.00     0.124 S 
ATOM    104  O   UNL A   1      51.874  25.019  33.305  1.00  0.00    -0.237 OA
ATOM    105  O   UNL A   1      52.683  25.504  31.019  1.00  0.00    -0.237 OA
ATOM    106  O   UNL A   1      52.709  27.271  32.737  1.00  0.00    -0.744 OA
ENDBRANCH 102 103
ENDBRANCH  70  95
ENDBRANCH  44  45
ENDBRANCH  36  39
ENDBRANCH  34  35
ENDBRANCH  33  34
ENDBRANCH  32  33
ENDBRANCH  31  32
ENDBRANCH  29  31
ENDBRANCH   1  27
TORSDOF 23
ENDMDL
MODEL 3
REMARK VINA RESULT:     -10.7      1.059      2.136
REMARK SMILES CCCCCCNC(=O)Oc1cccc(-c2ccc([C@@H](C)C(=O)NCCCCNC(=O)c3ccc(-c4c5nc(c(-c6c(F)cc(S(=O)(=O)[O-])cc6F)c6ccc([nH]6)c(-c6c(F)cc(S(=O)(=O)[O-])cc6F)c6nc(c(-c7c(F)cc(S(=O)(=O)[O-])cc7F)c7ccc4[nH]7)C=C6)C=C5)cc3)cc2C)c1
REMARK SMILES IDX 20 1 21 2 19 3 16 4 17 5 99 6 18 7 98 8 100 9 15 10 11 11
REMARK SMILES IDX 12 12 101 13 13 14 14 15 10 16 8 17 7 18 9 20 6 21 5 22 4 23
REMARK SMILES IDX 3 24 2 25 1 26 22 27 23 28 24 29 25 31 26 32 27 33 28 34
REMARK SMILES IDX 29 35 30 36 31 38 32 39 33 40 97 41 34 42 96 43 35 44 36 45
REMARK SMILES IDX 37 46 90 47 38 48 95 49 89 50 91 51 39 52 94 53 88 54 87 55
REMARK SMILES IDX 40 57 74 58 53 59 73 60 54 61 57 62 72 63 92 64 55 65 56 66
REMARK SMILES IDX 71 68 93 69 58 70 41 71 42 72 51 73 43 74 44 75 50 76 52 77
REMARK SMILES IDX 45 78 46 79 47 80 48 81 49 82 75 83 76 84 85 85 77 86 78 87
REMARK SMILES IDX 84 88 86 89 79 90 80 91 81 92 82 93 83 94 59 95 60 96 69 97
REMARK SMILES IDX 61 98 62 99 68 100 70 101 63 102 64 103 65 104 66 105 67 106
REMARK H PARENT 7 19 24 30 29 37 91 56 57 67
REMARK Flexibility Score: inf
ROOT
ATOM      1  C   UNL A   1      34.770  33.475  28.836  1.00  0.00     0.105 C 
ATOM      2  C   UNL A   1      35.788  34.357  28.115  1.00  0.00     0.023 C 
ENDROOT
BRANCH   1   3
ATOM      3  C   UNL A   1      34.443  32.162  28.143  1.00  0.00    -0.036 A 
ATOM      4  C   UNL A   1      33.838  29.786  26.652  1.00  0.00    -0.015 A 
ATOM      5  C   UNL A   1      35.045  29.947  27.358  1.00  0.00     0.009 A 
ATOM      6  C   UNL A   1      32.884  30.820  26.778  1.00  0.00    -0.043 A 
ATOM      7  C   UNL A   1      35.312  31.076  28.136  1.00  0.00     0.005 A 
ATOM      8  C   UNL A   1      33.223  32.009  27.467  1.00  0.00     0.008 A 
ATOM      9  C   UNL A   1      31.469  30.737  26.264  1.00  0.00     0.045 C 
BRANCH   4  10
ATOM     10  C   UNL A   1      33.653  28.548  25.854  1.00  0.00    -0.014 A 
ATOM     11  C   UNL A   1      33.297  27.384  23.750  1.00  0.00     0.133 A 
ATOM     12  C   UNL A   1      33.301  26.148  24.390  1.00  0.00     0.047 A 
ATOM     13  C   UNL A   1      33.497  28.572  24.458  1.00  0.00     0.056 A 
ATOM     14  C   UNL A   1      33.502  26.098  25.763  1.00  0.00     0.004 A 
ATOM     15  C   UNL A   1      33.655  27.285  26.485  1.00  0.00     0.009 A 
BRANCH  11  16
ATOM     16  O   UNL A   1      32.904  27.378  22.400  1.00  0.00    -0.410 OA
BRANCH  16  17
ATOM     17  C   UNL A   1      31.648  26.919  22.031  1.00  0.00     0.412 C 
ATOM     18  N   UNL A   1      31.706  25.955  21.062  1.00  0.00    -0.321 N 
ATOM     19  H   UNL A   1      30.846  25.622  20.718  1.00  0.00     0.167 HD
ATOM     20  O   UNL A   1      30.581  27.304  22.486  1.00  0.00    -0.224 OA
BRANCH  18  21
ATOM     21  C   UNL A   1      32.904  25.373  20.490  1.00  0.00     0.119 C 
BRANCH  21  22
ATOM     22  C   UNL A   1      32.987  23.868  20.746  1.00  0.00     0.021 C 
BRANCH  22  23
ATOM     23  C   UNL A   1      33.324  23.480  22.191  1.00  0.00     0.002 C 
BRANCH  23  24
ATOM     24  C   UNL A   1      32.537  22.292  22.753  1.00  0.00    -0.000 C 
BRANCH  24  25
ATOM     25  C   UNL A   1      31.731  22.580  24.022  1.00  0.00    -0.003 C 
ATOM     26  C   UNL A   1      30.716  23.699  23.847  1.00  0.00     0.004 C 
ENDBRANCH  24  25
ENDBRANCH  23  24
ENDBRANCH  22  23
ENDBRANCH  21  22
ENDBRANCH  18  21
ENDBRANCH  16  17
ENDBRANCH  11  16
ENDBRANCH   4  10
ENDBRANCH   1   3
BRANCH   1  27
ATOM     27  C   UNL A   1      33.545  34.237  29.368  1.00  0.00     0.227 C 
ATOM     28  O   UNL A   1      32.530  34.326  28.664  1.00  0.00    -0.274 OA
ATOM     29  N   UNL A   1      33.478  34.813  30.599  1.00  0.00    -0.356 N 
ATOM     30  H   UNL A   1      32.596  35.190  30.819  1.00  0.00     0.163 HD
BRANCH  29  31
ATOM     31  C   UNL A   1      34.466  34.972  31.644  1.00  0.00     0.116 C 
BRANCH  31  32
ATOM     32  C   UNL A   1      35.070  33.632  32.071  1.00  0.00     0.023 C 
BRANCH  32  33
ATOM     33  C   UNL A   1      36.522  33.696  32.537  1.00  0.00     0.023 C 
BRANCH  33  34
ATOM     34  C   UNL A   1      37.271  32.371  32.496  1.00  0.00     0.116 C 
BRANCH  34  35
ATOM     35  N   UNL A   1      36.451  31.234  32.098  1.00  0.00    -0.352 N 
ATOM     36  C   UNL A   1      36.805  30.176  31.292  1.00  0.00     0.251 C 
ATOM     37  H   UNL A   1      35.531  31.222  32.449  1.00  0.00     0.163 HD
ATOM     38  O   UNL A   1      35.975  29.328  30.979  1.00  0.00    -0.269 OA
BRANCH  36  39
ATOM     39  C   UNL A   1      38.186  30.107  30.772  1.00  0.00     0.039 A 
ATOM     40  C   UNL A   1      39.198  29.618  31.601  1.00  0.00     0.014 A 
ATOM     41  C   UNL A   1      38.459  30.447  29.445  1.00  0.00     0.014 A 
ATOM     42  C   UNL A   1      40.470  29.394  31.070  1.00  0.00     0.010 A 
ATOM     43  C   UNL A   1      39.700  30.141  28.898  1.00  0.00     0.010 A 
ATOM     44  C   UNL A   1      40.719  29.612  29.704  1.00  0.00    -0.014 A 
BRANCH  44  45
ATOM     45  C   UNL A   1      42.035  29.283  29.100  1.00  0.00     0.031 A 
ATOM     46  C   UNL A   1      42.303  27.895  28.585  1.00  0.00     0.074 A 
ATOM     47  C   UNL A   1      43.008  30.216  29.076  1.00  0.00     0.049 A 
ATOM     48  N   UNL A   1      43.399  27.406  28.064  1.00  0.00    -0.248 NA
ATOM     49  C   UNL A   1      41.207  26.919  28.701  1.00  0.00     0.031 C 
ATOM     50  C   UNL A   1      42.891  31.577  29.608  1.00  0.00     0.029 A 
ATOM     51  N   UNL A   1      44.290  30.162  28.588  1.00  0.00    -0.354 N 
ATOM     52  C   UNL A   1      43.128  26.069  27.801  1.00  0.00     0.074 A 
ATOM     53  C   UNL A   1      41.789  25.806  28.280  1.00  0.00     0.031 C 
ATOM     54  C   UNL A   1      44.040  32.236  29.389  1.00  0.00     0.029 A 
ATOM     55  C   UNL A   1      44.987  31.340  28.733  1.00  0.00     0.049 A 
ATOM     56  H   UNL A   1      44.674  29.356  28.174  1.00  0.00     0.167 HD
ATOM     57  C   UNL A   1      43.913  25.148  27.190  1.00  0.00     0.037 A 
ATOM     58  C   UNL A   1      46.245  31.661  28.375  1.00  0.00     0.037 A 
ATOM     59  C   UNL A   1      45.234  25.425  26.691  1.00  0.00     0.049 A 
ATOM     60  C   UNL A   1      47.092  30.627  27.682  1.00  0.00     0.074 A 
ATOM     61  C   UNL A   1      46.086  24.583  26.000  1.00  0.00     0.029 A 
ATOM     62  N   UNL A   1      45.896  26.636  26.833  1.00  0.00    -0.354 N 
ATOM     63  N   UNL A   1      46.793  29.388  27.373  1.00  0.00    -0.248 NA
ATOM     64  C   UNL A   1      48.444  31.039  27.279  1.00  0.00     0.031 C 
ATOM     65  C   UNL A   1      47.281  25.272  25.759  1.00  0.00     0.029 A 
ATOM     66  C   UNL A   1      47.155  26.559  26.258  1.00  0.00     0.049 A 
ATOM     67  H   UNL A   1      45.527  27.434  27.276  1.00  0.00     0.167 HD
ATOM     68  C   UNL A   1      47.908  28.878  26.718  1.00  0.00     0.074 A 
ATOM     69  C   UNL A   1      48.882  29.951  26.662  1.00  0.00     0.031 C 
ATOM     70  C   UNL A   1      48.111  27.637  26.211  1.00  0.00     0.037 A 
BRANCH  57  71
ATOM     71  C   UNL A   1      43.354  23.762  27.018  1.00  0.00     0.058 A 
ATOM     72  C   UNL A   1      42.939  23.285  25.764  1.00  0.00     0.135 A 
ATOM     73  C   UNL A   1      43.253  22.890  28.114  1.00  0.00     0.135 A 
ATOM     74  F   UNL A   1      42.996  24.082  24.684  1.00  0.00    -0.206 F 
ATOM     75  C   UNL A   1      42.413  22.007  25.608  1.00  0.00     0.059 A 
ATOM     76  C   UNL A   1      42.757  21.596  27.976  1.00  0.00     0.059 A 
ATOM     77  F   UNL A   1      43.634  23.293  29.337  1.00  0.00    -0.206 F 
ATOM     78  C   UNL A   1      42.325  21.170  26.721  1.00  0.00     0.060 A 
BRANCH  78  79
ATOM     79  S   UNL A   1      41.642  19.514  26.500  1.00  0.00     0.124 S 
ATOM     80  O   UNL A   1      40.227  19.808  26.293  1.00  0.00    -0.237 OA
ATOM     81  O   UNL A   1      42.367  19.030  25.330  1.00  0.00    -0.237 OA
ATOM     82  O   UNL A   1      41.966  18.842  27.756  1.00  0.00    -0.744 OA
ENDBRANCH  78  79
ENDBRANCH  57  71
BRANCH  58  83
ATOM     83  C   UNL A   1      46.768  33.029  28.635  1.00  0.00     0.058 A 
ATOM     84  C   UNL A   1      47.328  33.362  29.877  1.00  0.00     0.135 A 
ATOM     85  C   UNL A   1      46.733  34.025  27.646  1.00  0.00     0.135 A 
ATOM     86  F   UNL A   1      47.380  32.448  30.857  1.00  0.00    -0.206 F 
ATOM     87  C   UNL A   1      47.819  34.638  30.137  1.00  0.00     0.059 A 
ATOM     88  C   UNL A   1      47.242  35.299  27.873  1.00  0.00     0.059 A 
ATOM     89  F   UNL A   1      46.223  33.751  26.435  1.00  0.00    -0.206 F 
ATOM     90  C   UNL A   1      47.774  35.600  29.127  1.00  0.00     0.060 A 
BRANCH  90  91
ATOM     91  S   UNL A   1      48.457  37.238  29.460  1.00  0.00     0.124 S 
ATOM     92  O   UNL A   1      48.628  37.197  30.907  1.00  0.00    -0.237 OA
ATOM     93  O   UNL A   1      49.687  37.223  28.672  1.00  0.00    -0.237 OA
ATOM     94  O   UNL A   1      47.420  38.141  28.971  1.00  0.00    -0.744 OA
ENDBRANCH  90  91
ENDBRANCH  58  83
BRANCH  70  95
ATOM     95  C   UNL A   1      49.425  27.379  25.526  1.00  0.00     0.058 A 
ATOM     96  C   UNL A   1      49.556  27.451  24.130  1.00  0.00     0.135 A 
ATOM     97  C   UNL A   1      50.575  27.092  26.280  1.00  0.00     0.135 A 
ATOM     98  F   UNL A   1      48.487  27.718  23.364  1.00  0.00    -0.206 F 
ATOM     99  C   UNL A   1      50.775  27.217  23.503  1.00  0.00     0.059 A 
ATOM    100  C   UNL A   1      51.810  26.883  25.675  1.00  0.00     0.059 A 
ATOM    101  F   UNL A   1      50.506  27.024  27.618  1.00  0.00    -0.206 F 
ATOM    102  C   UNL A   1      51.896  26.932  24.285  1.00  0.00     0.060 A 
BRANCH 102 103
ATOM    103  S   UNL A   1      53.476  26.647  23.460  1.00  0.00     0.124 S 
ATOM    104  O   UNL A   1      53.043  26.265  22.120  1.00  0.00    -0.237 OA
ATOM    105  O   UNL A   1      54.127  27.949  23.569  1.00  0.00    -0.237 OA
ATOM    106  O   UNL A   1      54.085  25.581  24.250  1.00  0.00    -0.744 OA
ENDBRANCH 102 103
ENDBRANCH  70  95
ENDBRANCH  44  45
ENDBRANCH  36  39
ENDBRANCH  34  35
ENDBRANCH  33  34
ENDBRANCH  32  33
ENDBRANCH  31  32
ENDBRANCH  29  31
ENDBRANCH   1  27
TORSDOF 23
ENDMDL
