MODEL 1
REMARK VINA RESULT:     -11.8      0.000      0.000
REMARK SMILES CC(C)[C@H](NC(=O)CCC1=c2ccccc2=NC1)C(=O)NCCCCNC(=O)c1ccc(-c2c3nc(c(-c4c(F)cc(S(=O)(=O)[O-])cc4F)c4ccc([nH]4)c(-c4c(F)cc(S(=O)(=O)[O-])cc4F)c4nc(c(-c5c(F)cc(S(=O)(=O)[O-])cc5F)c5ccc2[nH]5)C=C4)C=C3)cc1
REMARK SMILES IDX 23 1 22 2 21 3 19 4 20 5 4 7 2 8 1 9 3 10 5 11 6 12 7 14
REMARK SMILES IDX 8 15 9 16 10 17 11 18 18 19 12 20 16 21 17 22 13 23 15 24
REMARK SMILES IDX 14 25 24 26 25 27 26 28 27 29 28 31 29 32 30 33 94 34 31 35
REMARK SMILES IDX 93 36 32 37 33 38 34 39 87 40 35 41 92 42 86 43 88 44 36 45
REMARK SMILES IDX 91 46 85 47 84 48 37 50 71 51 50 52 70 53 51 54 54 55 69 56
REMARK SMILES IDX 89 57 52 58 53 59 68 61 90 62 55 63 38 64 39 65 48 66 40 67
REMARK SMILES IDX 41 68 47 69 49 70 42 71 43 72 44 73 45 74 46 75 72 76 73 77
REMARK SMILES IDX 82 78 74 79 75 80 81 81 83 82 76 83 77 84 78 85 79 86 80 87
REMARK SMILES IDX 56 88 57 89 66 90 58 91 59 92 65 93 67 94 60 95 61 96 62 97
REMARK SMILES IDX 63 98 64 99
REMARK H PARENT 21 6 5 13 26 30 88 49 54 60
REMARK Flexibility Score: inf
ROOT
ATOM      1  C   UNL A   1      37.481  21.708  25.387  1.00  0.00     0.023 C 
ENDROOT
BRANCH   1   2
ATOM      2  C   UNL A   1      36.109  21.066  25.235  1.00  0.00     0.116 C 
BRANCH   2   3
ATOM      3  N   UNL A   1      35.243  21.305  26.359  1.00  0.00    -0.354 N 
ATOM      4  C   UNL A   1      33.910  21.181  26.508  1.00  0.00     0.242 C 
ATOM      5  O   UNL A   1      33.479  21.356  27.654  1.00  0.00    -0.273 OA
ATOM      6  H   UNL A   1      35.711  21.617  27.168  1.00  0.00     0.163 HD
BRANCH   4   7
ATOM      7  C   UNL A   1      32.957  20.765  25.366  1.00  0.00     0.173 C 
BRANCH   7   8
ATOM      8  C   UNL A   1      33.123  19.297  24.873  1.00  0.00     0.015 C 
ATOM      9  C   UNL A   1      32.701  18.177  25.825  1.00  0.00     0.010 C 
ATOM     10  C   UNL A   1      32.468  19.071  23.505  1.00  0.00     0.010 C 
ENDBRANCH   7   8
BRANCH   7  11
ATOM     11  N   UNL A   1      32.794  21.765  24.311  1.00  0.00    -0.344 N 
ATOM     12  C   UNL A   1      31.836  22.741  24.247  1.00  0.00     0.220 C 
ATOM     13  H   UNL A   1      33.439  21.731  23.569  1.00  0.00     0.164 HD
ATOM     14  O   UNL A   1      31.592  23.246  23.150  1.00  0.00    -0.275 OA
BRANCH  12  15
ATOM     15  C   UNL A   1      31.145  23.226  25.511  1.00  0.00     0.104 C 
BRANCH  15  16
ATOM     16  C   UNL A   1      31.796  24.435  26.185  1.00  0.00     0.043 C 
BRANCH  16  17
ATOM     17  C   UNL A   1      31.452  25.778  25.618  1.00  0.00    -0.039 C 
ATOM     18  C   UNL A   1      32.126  26.916  25.773  1.00  0.00     0.001 A 
ATOM     19  C   UNL A   1      30.177  26.033  24.860  1.00  0.00     0.174 C 
ATOM     20  C   UNL A   1      33.305  27.303  26.475  1.00  0.00     0.010 A 
ATOM     21  C   UNL A   1      31.324  27.886  25.011  1.00  0.00     0.065 A 
ATOM     22  N   UNL A   1      30.234  27.463  24.452  1.00  0.00    -0.280 NA
ATOM     23  C   UNL A   1      33.691  28.589  26.425  1.00  0.00     0.001 A 
ATOM     24  C   UNL A   1      31.847  29.269  24.950  1.00  0.00     0.028 A 
ATOM     25  C   UNL A   1      32.963  29.569  25.637  1.00  0.00     0.002 A 
ENDBRANCH  16  17
ENDBRANCH  15  16
ENDBRANCH  12  15
ENDBRANCH   7  11
ENDBRANCH   4   7
ENDBRANCH   2   3
ENDBRANCH   1   2
BRANCH   1  26
ATOM     26  C   UNL A   1      37.534  23.233  25.341  1.00  0.00     0.023 C 
BRANCH  26  27
ATOM     27  C   UNL A   1      38.430  23.934  26.350  1.00  0.00     0.116 C 
BRANCH  27  28
ATOM     28  N   UNL A   1      39.857  23.740  26.153  1.00  0.00    -0.352 N 
ATOM     29  C   UNL A   1      40.875  24.482  26.713  1.00  0.00     0.251 C 
ATOM     30  H   UNL A   1      40.123  23.003  25.557  1.00  0.00     0.163 HD
ATOM     31  O   UNL A   1      42.052  24.208  26.506  1.00  0.00    -0.269 OA
BRANCH  29  32
ATOM     32  C   UNL A   1      40.495  25.663  27.512  1.00  0.00     0.039 A 
ATOM     33  C   UNL A   1      41.202  26.860  27.366  1.00  0.00     0.014 A 
ATOM     34  C   UNL A   1      39.572  25.493  28.545  1.00  0.00     0.014 A 
ATOM     35  C   UNL A   1      41.102  27.828  28.359  1.00  0.00     0.010 A 
ATOM     36  C   UNL A   1      39.424  26.498  29.501  1.00  0.00     0.010 A 
ATOM     37  C   UNL A   1      40.230  27.646  29.448  1.00  0.00    -0.014 A 
BRANCH  37  38
ATOM     38  C   UNL A   1      40.192  28.649  30.542  1.00  0.00     0.031 A 
ATOM     39  C   UNL A   1      41.182  28.589  31.678  1.00  0.00     0.074 A 
ATOM     40  C   UNL A   1      39.281  29.637  30.491  1.00  0.00     0.049 A 
ATOM     41  N   UNL A   1      41.262  29.345  32.742  1.00  0.00    -0.248 NA
ATOM     42  C   UNL A   1      42.213  27.539  31.613  1.00  0.00     0.031 C 
ATOM     43  C   UNL A   1      38.286  29.810  29.431  1.00  0.00     0.029 A 
ATOM     44  N   UNL A   1      39.052  30.692  31.337  1.00  0.00    -0.354 N 
ATOM     45  C   UNL A   1      42.327  28.850  33.487  1.00  0.00     0.074 A 
ATOM     46  C   UNL A   1      42.857  27.717  32.759  1.00  0.00     0.031 C 
ATOM     47  C   UNL A   1      37.584  30.928  29.666  1.00  0.00     0.029 A 
ATOM     48  C   UNL A   1      38.034  31.515  30.924  1.00  0.00     0.049 A 
ATOM     49  H   UNL A   1      39.569  30.844  32.162  1.00  0.00     0.167 HD
ATOM     50  C   UNL A   1      42.816  29.302  34.666  1.00  0.00     0.037 A 
ATOM     51  C   UNL A   1      37.505  32.609  31.502  1.00  0.00     0.037 A 
ATOM     52  C   UNL A   1      42.302  30.450  35.368  1.00  0.00     0.049 A 
ATOM     53  C   UNL A   1      38.051  33.078  32.817  1.00  0.00     0.074 A 
ATOM     54  C   UNL A   1      42.740  30.999  36.562  1.00  0.00     0.029 A 
ATOM     55  N   UNL A   1      41.241  31.233  34.937  1.00  0.00    -0.354 N 
ATOM     56  N   UNL A   1      39.038  32.577  33.521  1.00  0.00    -0.248 NA
ATOM     57  C   UNL A   1      37.405  34.248  33.423  1.00  0.00     0.031 C 
ATOM     58  C   UNL A   1      41.925  32.096  36.865  1.00  0.00     0.029 A 
ATOM     59  C   UNL A   1      41.001  32.251  35.845  1.00  0.00     0.049 A 
ATOM     60  H   UNL A   1      40.732  31.086  34.106  1.00  0.00     0.167 HD
ATOM     61  C   UNL A   1      39.130  33.371  34.658  1.00  0.00     0.074 A 
ATOM     62  C   UNL A   1      38.114  34.397  34.535  1.00  0.00     0.031 C 
ATOM     63  C   UNL A   1      39.975  33.254  35.711  1.00  0.00     0.037 A 
BRANCH  50  64
ATOM     64  C   UNL A   1      43.961  28.549  35.288  1.00  0.00     0.058 A 
ATOM     65  C   UNL A   1      43.747  27.495  36.189  1.00  0.00     0.135 A 
ATOM     66  C   UNL A   1      45.287  28.850  34.935  1.00  0.00     0.135 A 
ATOM     67  F   UNL A   1      42.501  27.176  36.573  1.00  0.00    -0.206 F 
ATOM     68  C   UNL A   1      44.808  26.776  36.732  1.00  0.00     0.059 A 
ATOM     69  C   UNL A   1      46.363  28.132  35.451  1.00  0.00     0.059 A 
ATOM     70  F   UNL A   1      45.547  29.850  34.077  1.00  0.00    -0.206 F 
ATOM     71  C   UNL A   1      46.114  27.102  36.357  1.00  0.00     0.060 A 
BRANCH  71  72
ATOM     72  S   UNL A   1      47.479  26.156  37.064  1.00  0.00     0.124 S 
ATOM     73  O   UNL A   1      47.375  24.901  36.327  1.00  0.00    -0.237 OA
ATOM     74  O   UNL A   1      48.635  26.985  36.743  1.00  0.00    -0.237 OA
ATOM     75  O   UNL A   1      47.141  26.080  38.483  1.00  0.00    -0.744 OA
ENDBRANCH  71  72
ENDBRANCH  50  64
BRANCH  51  76
ATOM     76  C   UNL A   1      36.389  33.317  30.826  1.00  0.00     0.058 A 
ATOM     77  C   UNL A   1      35.086  33.252  31.335  1.00  0.00     0.135 A 
ATOM     78  C   UNL A   1      36.620  34.129  29.704  1.00  0.00     0.135 A 
ATOM     79  F   UNL A   1      34.818  32.485  32.402  1.00  0.00    -0.206 F 
ATOM     80  C   UNL A   1      34.047  33.978  30.761  1.00  0.00     0.059 A 
ATOM     81  C   UNL A   1      35.603  34.880  29.127  1.00  0.00     0.059 A 
ATOM     82  F   UNL A   1      37.857  34.233  29.193  1.00  0.00    -0.206 F 
ATOM     83  C   UNL A   1      34.318  34.797  29.663  1.00  0.00     0.060 A 
BRANCH  83  84
ATOM     84  S   UNL A   1      32.984  35.808  28.984  1.00  0.00     0.124 S 
ATOM     85  O   UNL A   1      33.730  36.893  28.358  1.00  0.00    -0.237 OA
ATOM     86  O   UNL A   1      32.326  34.877  28.074  1.00  0.00    -0.237 OA
ATOM     87  O   UNL A   1      32.208  36.172  30.165  1.00  0.00    -0.744 OA
ENDBRANCH  83  84
ENDBRANCH  51  76
BRANCH  63  88
ATOM     88  C   UNL A   1      39.832  34.260  36.814  1.00  0.00     0.058 A 
ATOM     89  C   UNL A   1      40.414  35.533  36.718  1.00  0.00     0.135 A 
ATOM     90  C   UNL A   1      39.071  33.967  37.957  1.00  0.00     0.135 A 
ATOM     91  F   UNL A   1      41.158  35.856  35.648  1.00  0.00    -0.206 F 
ATOM     92  C   UNL A   1      40.261  36.478  37.726  1.00  0.00     0.059 A 
ATOM     93  C   UNL A   1      38.889  34.904  38.968  1.00  0.00     0.059 A 
ATOM     94  F   UNL A   1      38.488  32.766  38.091  1.00  0.00    -0.206 F 
ATOM     95  C   UNL A   1      39.496  36.154  38.849  1.00  0.00     0.060 A 
BRANCH  95  96
ATOM     96  S   UNL A   1      39.280  37.399  40.137  1.00  0.00     0.124 S 
ATOM     97  O   UNL A   1      38.842  36.582  41.265  1.00  0.00    -0.237 OA
ATOM     98  O   UNL A   1      40.619  37.970  40.250  1.00  0.00    -0.237 OA
ATOM     99  O   UNL A   1      38.270  38.293  39.579  1.00  0.00    -0.744 OA
ENDBRANCH  95  96
ENDBRANCH  63  88
ENDBRANCH  37  38
ENDBRANCH  29  32
ENDBRANCH  27  28
ENDBRANCH  26  27
ENDBRANCH   1  26
TORSDOF 19
ENDMDL
MODEL 2
REMARK VINA RESULT:     -11.7      2.905      3.943
REMARK SMILES CC(C)[C@H](NC(=O)CCC1=c2ccccc2=NC1)C(=O)NCCCCNC(=O)c1ccc(-c2c3nc(c(-c4c(F)cc(S(=O)(=O)[O-])cc4F)c4ccc([nH]4)c(-c4c(F)cc(S(=O)(=O)[O-])cc4F)c4nc(c(-c5c(F)cc(S(=O)(=O)[O-])cc5F)c5ccc2[nH]5)C=C4)C=C3)cc1
REMARK SMILES IDX 23 1 22 2 21 3 19 4 20 5 4 7 2 8 1 9 3 10 5 11 6 12 7 14
REMARK SMILES IDX 8 15 9 16 10 17 11 18 18 19 12 20 16 21 17 22 13 23 15 24
REMARK SMILES IDX 14 25 24 26 25 27 26 28 27 29 28 31 29 32 30 33 94 34 31 35
REMARK SMILES IDX 93 36 32 37 33 38 34 39 87 40 35 41 92 42 86 43 88 44 36 45
REMARK SMILES IDX 91 46 85 47 84 48 37 50 71 51 50 52 70 53 51 54 54 55 69 56
REMARK SMILES IDX 89 57 52 58 53 59 68 61 90 62 55 63 38 64 39 65 48 66 40 67
REMARK SMILES IDX 41 68 47 69 49 70 42 71 43 72 44 73 45 74 46 75 72 76 73 77
REMARK SMILES IDX 82 78 74 79 75 80 81 81 83 82 76 83 77 84 78 85 79 86 80 87
REMARK SMILES IDX 56 88 57 89 66 90 58 91 59 92 65 93 67 94 60 95 61 96 62 97
REMARK SMILES IDX 63 98 64 99
REMARK H PARENT 21 6 5 13 26 30 88 49 54 60
REMARK Flexibility Score: inf
ROOT
ATOM      1  C   UNL A   1      35.068  23.453  26.475  1.00  0.00     0.023 C 
ENDROOT
BRANCH   1   2
ATOM      2  C   UNL A   1      33.828  24.242  26.074  1.00  0.00     0.116 C 
BRANCH   2   3
ATOM      3  N   UNL A   1      32.781  23.415  25.535  1.00  0.00    -0.354 N 
ATOM      4  C   UNL A   1      31.809  23.670  24.637  1.00  0.00     0.242 C 
ATOM      5  O   UNL A   1      31.128  22.696  24.293  1.00  0.00    -0.273 OA
ATOM      6  H   UNL A   1      32.773  22.494  25.885  1.00  0.00     0.163 HD
BRANCH   4   7
ATOM      7  C   UNL A   1      31.582  25.054  23.992  1.00  0.00     0.173 C 
BRANCH   7   8
ATOM      8  C   UNL A   1      30.529  25.949  24.708  1.00  0.00     0.015 C 
ATOM      9  C   UNL A   1      29.218  26.231  23.970  1.00  0.00     0.010 C 
ATOM     10  C   UNL A   1      30.214  25.450  26.123  1.00  0.00     0.010 C 
ENDBRANCH   7   8
BRANCH   7  11
ATOM     11  N   UNL A   1      31.503  25.042  22.531  1.00  0.00    -0.344 N 
ATOM     12  C   UNL A   1      32.220  25.822  21.665  1.00  0.00     0.220 C 
ATOM     13  H   UNL A   1      30.867  24.408  22.130  1.00  0.00     0.164 HD
ATOM     14  O   UNL A   1      31.787  25.973  20.521  1.00  0.00    -0.275 OA
BRANCH  12  15
ATOM     15  C   UNL A   1      33.547  26.428  22.092  1.00  0.00     0.104 C 
BRANCH  15  16
ATOM     16  C   UNL A   1      33.564  27.955  22.187  1.00  0.00     0.043 C 
BRANCH  16  17
ATOM     17  C   UNL A   1      32.689  28.566  23.238  1.00  0.00    -0.039 C 
ATOM     18  C   UNL A   1      32.897  28.582  24.553  1.00  0.00     0.001 A 
ATOM     19  C   UNL A   1      31.347  29.168  22.921  1.00  0.00     0.174 C 
ATOM     20  C   UNL A   1      33.906  28.069  25.421  1.00  0.00     0.010 A 
ATOM     21  C   UNL A   1      31.722  29.300  25.069  1.00  0.00     0.065 A 
ATOM     22  N   UNL A   1      30.823  29.681  24.216  1.00  0.00    -0.280 NA
ATOM     23  C   UNL A   1      33.773  28.260  26.744  1.00  0.00     0.001 A 
ATOM     24  C   UNL A   1      31.679  29.527  26.530  1.00  0.00     0.028 A 
ATOM     25  C   UNL A   1      32.659  29.014  27.294  1.00  0.00     0.002 A 
ENDBRANCH  16  17
ENDBRANCH  15  16
ENDBRANCH  12  15
ENDBRANCH   7  11
ENDBRANCH   4   7
ENDBRANCH   2   3
ENDBRANCH   1   2
BRANCH   1  26
ATOM     26  C   UNL A   1      35.894  22.851  25.341  1.00  0.00     0.023 C 
BRANCH  26  27
ATOM     27  C   UNL A   1      37.247  23.481  25.048  1.00  0.00     0.116 C 
BRANCH  27  28
ATOM     28  N   UNL A   1      38.397  22.635  25.319  1.00  0.00    -0.352 N 
ATOM     29  C   UNL A   1      39.459  22.928  26.148  1.00  0.00     0.251 C 
ATOM     30  H   UNL A   1      38.421  21.764  24.862  1.00  0.00     0.163 HD
ATOM     31  O   UNL A   1      40.364  22.123  26.334  1.00  0.00    -0.269 OA
BRANCH  29  32
ATOM     32  C   UNL A   1      39.502  24.276  26.747  1.00  0.00     0.039 A 
ATOM     33  C   UNL A   1      40.255  25.285  26.142  1.00  0.00     0.014 A 
ATOM     34  C   UNL A   1      38.954  24.451  28.019  1.00  0.00     0.014 A 
ATOM     35  C   UNL A   1      40.600  26.409  26.885  1.00  0.00     0.010 A 
ATOM     36  C   UNL A   1      39.244  25.614  28.734  1.00  0.00     0.010 A 
ATOM     37  C   UNL A   1      40.117  26.573  28.196  1.00  0.00    -0.014 A 
BRANCH  37  38
ATOM     38  C   UNL A   1      40.556  27.737  29.006  1.00  0.00     0.031 A 
ATOM     39  C   UNL A   1      41.943  27.787  29.594  1.00  0.00     0.074 A 
ATOM     40  C   UNL A   1      39.708  28.766  29.184  1.00  0.00     0.049 A 
ATOM     41  N   UNL A   1      42.477  28.695  30.370  1.00  0.00    -0.248 NA
ATOM     42  C   UNL A   1      42.848  26.671  29.272  1.00  0.00     0.031 C 
ATOM     43  C   UNL A   1      38.348  28.838  28.647  1.00  0.00     0.029 A 
ATOM     44  N   UNL A   1      39.867  29.954  29.849  1.00  0.00    -0.354 N 
ATOM     45  C   UNL A   1      43.764  28.251  30.655  1.00  0.00     0.074 A 
ATOM     46  C   UNL A   1      43.929  26.982  29.977  1.00  0.00     0.031 C 
ATOM     47  C   UNL A   1      37.813  30.025  28.965  1.00  0.00     0.029 A 
ATOM     48  C   UNL A   1      38.765  30.771  29.782  1.00  0.00     0.049 A 
ATOM     49  H   UNL A   1      40.691  30.198  30.329  1.00  0.00     0.167 HD
ATOM     50  C   UNL A   1      44.718  28.849  31.407  1.00  0.00     0.037 A 
ATOM     51  C   UNL A   1      38.536  31.977  30.332  1.00  0.00     0.037 A 
ATOM     52  C   UNL A   1      44.556  30.127  32.052  1.00  0.00     0.049 A 
ATOM     53  C   UNL A   1      39.600  32.610  31.178  1.00  0.00     0.074 A 
ATOM     54  C   UNL A   1      45.469  30.826  32.823  1.00  0.00     0.029 A 
ATOM     55  N   UNL A   1      43.408  30.904  31.994  1.00  0.00    -0.354 N 
ATOM     56  N   UNL A   1      40.799  32.158  31.461  1.00  0.00    -0.248 NA
ATOM     57  C   UNL A   1      39.277  33.904  31.791  1.00  0.00     0.031 C 
ATOM     58  C   UNL A   1      44.863  32.011  33.254  1.00  0.00     0.029 A 
ATOM     59  C   UNL A   1      43.584  32.067  32.725  1.00  0.00     0.049 A 
ATOM     60  H   UNL A   1      42.588  30.663  31.505  1.00  0.00     0.167 HD
ATOM     61  C   UNL A   1      41.374  33.114  32.290  1.00  0.00     0.074 A 
ATOM     62  C   UNL A   1      40.401  34.176  32.443  1.00  0.00     0.031 C 
ATOM     63  C   UNL A   1      42.597  33.106  32.876  1.00  0.00     0.037 A 
BRANCH  50  64
ATOM     64  C   UNL A   1      46.024  28.125  31.593  1.00  0.00     0.058 A 
ATOM     65  C   UNL A   1      46.193  27.153  32.591  1.00  0.00     0.135 A 
ATOM     66  C   UNL A   1      47.102  28.367  30.726  1.00  0.00     0.135 A 
ATOM     67  F   UNL A   1      45.201  26.893  33.457  1.00  0.00    -0.206 F 
ATOM     68  C   UNL A   1      47.390  26.459  32.734  1.00  0.00     0.059 A 
ATOM     69  C   UNL A   1      48.303  27.672  30.838  1.00  0.00     0.059 A 
ATOM     70  F   UNL A   1      46.993  29.288  29.754  1.00  0.00    -0.206 F 
ATOM     71  C   UNL A   1      48.441  26.726  31.852  1.00  0.00     0.060 A 
BRANCH  71  72
ATOM     72  S   UNL A   1      49.986  25.811  32.046  1.00  0.00     0.124 S 
ATOM     73  O   UNL A   1      50.971  26.884  31.959  1.00  0.00    -0.237 OA
ATOM     74  O   UNL A   1      49.827  25.203  33.363  1.00  0.00    -0.237 OA
ATOM     75  O   UNL A   1      49.973  24.879  30.924  1.00  0.00    -0.744 OA
ENDBRANCH  71  72
ENDBRANCH  50  64
BRANCH  51  76
ATOM     76  C   UNL A   1      37.233  32.646  30.094  1.00  0.00     0.058 A 
ATOM     77  C   UNL A   1      36.123  32.362  30.900  1.00  0.00     0.135 A 
ATOM     78  C   UNL A   1      37.094  33.633  29.105  1.00  0.00     0.135 A 
ATOM     79  F   UNL A   1      36.208  31.423  31.853  1.00  0.00    -0.206 F 
ATOM     80  C   UNL A   1      34.919  33.042  30.742  1.00  0.00     0.059 A 
ATOM     81  C   UNL A   1      35.909  34.341  28.943  1.00  0.00     0.059 A 
ATOM     82  F   UNL A   1      38.137  33.949  28.320  1.00  0.00    -0.206 F 
ATOM     83  C   UNL A   1      34.826  34.037  29.767  1.00  0.00     0.060 A 
BRANCH  83  84
ATOM     84  S   UNL A   1      33.291  34.980  29.633  1.00  0.00     0.124 S 
ATOM     85  O   UNL A   1      32.838  35.000  31.019  1.00  0.00    -0.237 OA
ATOM     86  O   UNL A   1      33.759  36.253  29.096  1.00  0.00    -0.237 OA
ATOM     87  O   UNL A   1      32.487  34.179  28.715  1.00  0.00    -0.744 OA
ENDBRANCH  83  84
ENDBRANCH  51  76
BRANCH  63  88
ATOM     88  C   UNL A   1      42.945  34.282  33.740  1.00  0.00     0.058 A 
ATOM     89  C   UNL A   1      42.768  34.240  35.131  1.00  0.00     0.135 A 
ATOM     90  C   UNL A   1      43.501  35.442  33.180  1.00  0.00     0.135 A 
ATOM     91  F   UNL A   1      42.232  33.155  35.712  1.00  0.00    -0.206 F 
ATOM     92  C   UNL A   1      43.115  35.318  35.939  1.00  0.00     0.059 A 
ATOM     93  C   UNL A   1      43.873  36.524  33.970  1.00  0.00     0.059 A 
ATOM     94  F   UNL A   1      43.697  35.526  31.855  1.00  0.00    -0.206 F 
ATOM     95  C   UNL A   1      43.667  36.457  35.348  1.00  0.00     0.060 A 
BRANCH  95  96
ATOM     96  S   UNL A   1      44.140  37.838  36.409  1.00  0.00     0.124 S 
ATOM     97  O   UNL A   1      45.510  37.478  36.765  1.00  0.00    -0.237 OA
ATOM     98  O   UNL A   1      43.997  38.983  35.517  1.00  0.00    -0.237 OA
ATOM     99  O   UNL A   1      43.171  37.776  37.500  1.00  0.00    -0.744 OA
ENDBRANCH  95  96
ENDBRANCH  63  88
ENDBRANCH  37  38
ENDBRANCH  29  32
ENDBRANCH  27  28
ENDBRANCH  26  27
ENDBRANCH   1  26
TORSDOF 19
ENDMDL
MODEL 3
REMARK VINA RESULT:     -11.7      6.285     11.925
REMARK SMILES CC(C)[C@H](NC(=O)CCC1=c2ccccc2=NC1)C(=O)NCCCCNC(=O)c1ccc(-c2c3nc(c(-c4c(F)cc(S(=O)(=O)[O-])cc4F)c4ccc([nH]4)c(-c4c(F)cc(S(=O)(=O)[O-])cc4F)c4nc(c(-c5c(F)cc(S(=O)(=O)[O-])cc5F)c5ccc2[nH]5)C=C4)C=C3)cc1
REMARK SMILES IDX 23 1 22 2 21 3 19 4 20 5 4 7 2 8 1 9 3 10 5 11 6 12 7 14
REMARK SMILES IDX 8 15 9 16 10 17 11 18 18 19 12 20 16 21 17 22 13 23 15 24
REMARK SMILES IDX 14 25 24 26 25 27 26 28 27 29 28 31 29 32 30 33 94 34 31 35
REMARK SMILES IDX 93 36 32 37 33 38 34 39 87 40 35 41 92 42 86 43 88 44 36 45
REMARK SMILES IDX 91 46 85 47 84 48 37 50 71 51 50 52 70 53 51 54 54 55 69 56
REMARK SMILES IDX 89 57 52 58 53 59 68 61 90 62 55 63 38 64 39 65 48 66 40 67
REMARK SMILES IDX 41 68 47 69 49 70 42 71 43 72 44 73 45 74 46 75 72 76 73 77
REMARK SMILES IDX 82 78 74 79 75 80 81 81 83 82 76 83 77 84 78 85 79 86 80 87
REMARK SMILES IDX 56 88 57 89 66 90 58 91 59 92 65 93 67 94 60 95 61 96 62 97
REMARK SMILES IDX 63 98 64 99
REMARK H PARENT 21 6 5 13 26 30 88 49 54 60
REMARK Flexibility Score: inf
ROOT
ATOM      1  C   UNL A   1      32.310  30.161  26.969  1.00  0.00     0.023 C 
ENDROOT
BRANCH   1   2
ATOM      2  C   UNL A   1      31.731  30.214  25.562  1.00  0.00     0.116 C 
BRANCH   2   3
ATOM      3  N   UNL A   1      32.595  29.627  24.571  1.00  0.00    -0.354 N 
ATOM      4  C   UNL A   1      32.436  28.564  23.758  1.00  0.00     0.242 C 
ATOM      5  O   UNL A   1      33.333  28.388  22.925  1.00  0.00    -0.273 OA
ATOM      6  H   UNL A   1      33.460  30.087  24.468  1.00  0.00     0.163 HD
BRANCH   4   7
ATOM      7  C   UNL A   1      31.191  27.653  23.776  1.00  0.00     0.173 C 
BRANCH   7   8
ATOM      8  C   UNL A   1      30.051  28.076  22.802  1.00  0.00     0.015 C 
ATOM      9  C   UNL A   1      28.611  27.977  23.311  1.00  0.00     0.010 C 
ATOM     10  C   UNL A   1      30.284  29.472  22.213  1.00  0.00     0.010 C 
ENDBRANCH   7   8
BRANCH   7  11
ATOM     11  N   UNL A   1      30.753  27.241  25.109  1.00  0.00    -0.344 N 
ATOM     12  C   UNL A   1      31.218  26.175  25.833  1.00  0.00     0.220 C 
ATOM     13  H   UNL A   1      30.050  27.786  25.530  1.00  0.00     0.164 HD
ATOM     14  O   UNL A   1      30.512  25.736  26.742  1.00  0.00    -0.275 OA
BRANCH  12  15
ATOM     15  C   UNL A   1      32.596  25.599  25.555  1.00  0.00     0.104 C 
BRANCH  15  16
ATOM     16  C   UNL A   1      32.604  24.233  24.868  1.00  0.00     0.043 C 
BRANCH  16  17
ATOM     17  C   UNL A   1      33.589  23.231  25.387  1.00  0.00    -0.039 C 
ATOM     18  C   UNL A   1      34.759  22.895  24.847  1.00  0.00     0.001 A 
ATOM     19  C   UNL A   1      33.306  22.363  26.583  1.00  0.00     0.174 C 
ATOM     20  C   UNL A   1      35.477  23.279  23.676  1.00  0.00     0.010 A 
ATOM     21  C   UNL A   1      35.275  21.876  25.773  1.00  0.00     0.065 A 
ATOM     22  N   UNL A   1      34.531  21.543  26.781  1.00  0.00    -0.280 NA
ATOM     23  C   UNL A   1      36.660  22.694  23.426  1.00  0.00     0.001 A 
ATOM     24  C   UNL A   1      36.613  21.324  25.465  1.00  0.00     0.028 A 
ATOM     25  C   UNL A   1      37.236  21.725  24.343  1.00  0.00     0.002 A 
ENDBRANCH  16  17
ENDBRANCH  15  16
ENDBRANCH  12  15
ENDBRANCH   7  11
ENDBRANCH   4   7
ENDBRANCH   2   3
ENDBRANCH   1   2
BRANCH   1  26
ATOM     26  C   UNL A   1      33.480  29.205  27.194  1.00  0.00     0.023 C 
BRANCH  26  27
ATOM     27  C   UNL A   1      34.829  29.818  27.535  1.00  0.00     0.116 C 
BRANCH  27  28
ATOM     28  N   UNL A   1      34.885  30.530  28.801  1.00  0.00    -0.352 N 
ATOM     29  C   UNL A   1      35.973  30.632  29.641  1.00  0.00     0.251 C 
ATOM     30  H   UNL A   1      34.061  30.986  29.087  1.00  0.00     0.163 HD
ATOM     31  O   UNL A   1      35.922  31.292  30.674  1.00  0.00    -0.269 OA
BRANCH  29  32
ATOM     32  C   UNL A   1      37.179  29.858  29.290  1.00  0.00     0.039 A 
ATOM     33  C   UNL A   1      37.900  29.198  30.288  1.00  0.00     0.014 A 
ATOM     34  C   UNL A   1      37.686  29.978  27.995  1.00  0.00     0.014 A 
ATOM     35  C   UNL A   1      39.207  28.802  30.028  1.00  0.00     0.010 A 
ATOM     36  C   UNL A   1      38.974  29.515  27.719  1.00  0.00     0.010 A 
ATOM     37  C   UNL A   1      39.765  28.978  28.748  1.00  0.00    -0.014 A 
BRANCH  37  38
ATOM     38  C   UNL A   1      41.186  28.625  28.504  1.00  0.00     0.031 A 
ATOM     39  C   UNL A   1      42.276  29.652  28.677  1.00  0.00     0.074 A 
ATOM     40  C   UNL A   1      41.495  27.362  28.157  1.00  0.00     0.049 A 
ATOM     41  N   UNL A   1      43.560  29.537  28.456  1.00  0.00    -0.248 NA
ATOM     42  C   UNL A   1      41.871  30.984  29.157  1.00  0.00     0.031 C 
ATOM     43  C   UNL A   1      40.528  26.278  27.980  1.00  0.00     0.029 A 
ATOM     44  N   UNL A   1      42.708  26.772  27.909  1.00  0.00    -0.354 N 
ATOM     45  C   UNL A   1      44.113  30.781  28.738  1.00  0.00     0.074 A 
ATOM     46  C   UNL A   1      43.022  31.645  29.136  1.00  0.00     0.031 C 
ATOM     47  C   UNL A   1      41.186  25.145  27.695  1.00  0.00     0.029 A 
ATOM     48  C   UNL A   1      42.614  25.436  27.606  1.00  0.00     0.049 A 
ATOM     49  H   UNL A   1      43.563  27.259  27.943  1.00  0.00     0.167 HD
ATOM     50  C   UNL A   1      45.410  31.164  28.675  1.00  0.00     0.037 A 
ATOM     51  C   UNL A   1      43.566  24.546  27.273  1.00  0.00     0.037 A 
ATOM     52  C   UNL A   1      46.495  30.288  28.309  1.00  0.00     0.049 A 
ATOM     53  C   UNL A   1      44.994  24.999  27.190  1.00  0.00     0.074 A 
ATOM     54  C   UNL A   1      47.847  30.576  28.230  1.00  0.00     0.029 A 
ATOM     55  N   UNL A   1      46.353  28.951  27.968  1.00  0.00    -0.354 N 
ATOM     56  N   UNL A   1      45.492  26.188  27.430  1.00  0.00    -0.248 NA
ATOM     57  C   UNL A   1      45.984  23.997  26.776  1.00  0.00     0.031 C 
ATOM     58  C   UNL A   1      48.518  29.421  27.814  1.00  0.00     0.029 A 
ATOM     59  C   UNL A   1      47.589  28.404  27.666  1.00  0.00     0.049 A 
ATOM     60  H   UNL A   1      45.498  28.462  27.943  1.00  0.00     0.167 HD
ATOM     61  C   UNL A   1      46.857  26.078  27.193  1.00  0.00     0.074 A 
ATOM     62  C   UNL A   1      47.107  24.703  26.814  1.00  0.00     0.031 C 
ATOM     63  C   UNL A   1      47.814  27.035  27.276  1.00  0.00     0.037 A 
BRANCH  50  64
ATOM     64  C   UNL A   1      45.738  32.597  28.993  1.00  0.00     0.058 A 
ATOM     65  C   UNL A   1      45.682  33.601  28.015  1.00  0.00     0.135 A 
ATOM     66  C   UNL A   1      46.056  32.980  30.307  1.00  0.00     0.135 A 
ATOM     67  F   UNL A   1      45.399  33.289  26.741  1.00  0.00    -0.206 F 
ATOM     68  C   UNL A   1      45.948  34.932  28.323  1.00  0.00     0.059 A 
ATOM     69  C   UNL A   1      46.308  34.308  30.642  1.00  0.00     0.059 A 
ATOM     70  F   UNL A   1      46.124  32.058  31.281  1.00  0.00    -0.206 F 
ATOM     71  C   UNL A   1      46.261  35.276  29.641  1.00  0.00     0.060 A 
BRANCH  71  72
ATOM     72  S   UNL A   1      46.596  37.008  30.026  1.00  0.00     0.124 S 
ATOM     73  O   UNL A   1      45.284  37.611  29.818  1.00  0.00    -0.237 OA
ATOM     74  O   UNL A   1      47.049  36.939  31.411  1.00  0.00    -0.237 OA
ATOM     75  O   UNL A   1      47.620  37.381  29.054  1.00  0.00    -0.744 OA
ENDBRANCH  71  72
ENDBRANCH  50  64
BRANCH  51  76
ATOM     76  C   UNL A   1      43.179  23.142  26.989  1.00  0.00     0.058 A 
ATOM     77  C   UNL A   1      43.170  22.651  25.677  1.00  0.00     0.135 A 
ATOM     78  C   UNL A   1      42.881  22.247  28.030  1.00  0.00     0.135 A 
ATOM     79  F   UNL A   1      43.442  23.472  24.651  1.00  0.00    -0.206 F 
ATOM     80  C   UNL A   1      42.890  21.316  25.404  1.00  0.00     0.059 A 
ATOM     81  C   UNL A   1      42.620  20.904  27.784  1.00  0.00     0.059 A 
ATOM     82  F   UNL A   1      42.894  22.670  29.304  1.00  0.00    -0.206 F 
ATOM     83  C   UNL A   1      42.626  20.448  26.466  1.00  0.00     0.060 A 
BRANCH  83  84
ATOM     84  S   UNL A   1      42.358  18.698  26.110  1.00  0.00     0.124 S 
ATOM     85  O   UNL A   1      40.952  18.690  25.725  1.00  0.00    -0.237 OA
ATOM     86  O   UNL A   1      43.316  18.452  25.037  1.00  0.00    -0.237 OA
ATOM     87  O   UNL A   1      42.671  18.049  27.379  1.00  0.00    -0.744 OA
ENDBRANCH  83  84
ENDBRANCH  51  76
BRANCH  63  88
ATOM     88  C   UNL A   1      49.218  26.623  26.946  1.00  0.00     0.058 A 
ATOM     89  C   UNL A   1      50.088  26.145  27.938  1.00  0.00     0.135 A 
ATOM     90  C   UNL A   1      49.685  26.665  25.623  1.00  0.00     0.135 A 
ATOM     91  F   UNL A   1      49.690  26.094  29.219  1.00  0.00    -0.206 F 
ATOM     92  C   UNL A   1      51.382  25.737  27.631  1.00  0.00     0.059 A 
ATOM     93  C   UNL A   1      50.968  26.244  25.291  1.00  0.00     0.059 A 
ATOM     94  F   UNL A   1      48.887  27.108  24.639  1.00  0.00    -0.206 F 
ATOM     95  C   UNL A   1      51.813  25.791  26.304  1.00  0.00     0.060 A 
BRANCH  95  96
ATOM     96  S   UNL A   1      53.484  25.231  25.915  1.00  0.00     0.124 S 
ATOM     97  O   UNL A   1      53.903  26.222  24.929  1.00  0.00    -0.237 OA
ATOM     98  O   UNL A   1      54.150  25.304  27.211  1.00  0.00    -0.237 OA
ATOM     99  O   UNL A   1      53.278  23.880  25.399  1.00  0.00    -0.744 OA
ENDBRANCH  95  96
ENDBRANCH  63  88
ENDBRANCH  37  38
ENDBRANCH  29  32
ENDBRANCH  27  28
ENDBRANCH  26  27
ENDBRANCH   1  26
TORSDOF 19
ENDMDL
