MODEL 1
REMARK VINA RESULT:     -10.4      0.000      0.000
REMARK SMILES CN(C[C@@H]1CCC[N@H+]1C)C(=O)c1csc(/C=C/C(=O)NCCCCNC(=O)c2ccc(-c3c4nc(c(-c5c(F)cc(S(=O)(=O)[O-])cc5F)c5ccc([nH]5)c(-c5c(F)cc(S(=O)(=O)[O-])cc5F)c5nc(c(-c6c(F)cc(S(=O)(=O)[O-])cc6F)c6ccc3[nH]6)C=C5)C=C4)cc2)c1
REMARK SMILES IDX 21 1 20 2 18 3 19 4 17 6 16 7 15 8 12 9 13 10 94 11 14 12
REMARK SMILES IDX 10 13 11 14 2 15 1 16 3 17 4 18 5 19 8 20 6 21 7 22 9 23
REMARK SMILES IDX 22 25 23 26 24 27 25 28 26 29 27 31 28 32 29 33 93 34 30 35
REMARK SMILES IDX 92 36 31 37 32 38 33 39 86 40 34 41 91 42 85 43 87 44 35 45
REMARK SMILES IDX 90 46 84 47 83 48 36 50 70 51 49 52 69 53 50 54 53 55 68 56
REMARK SMILES IDX 88 57 51 58 52 59 67 61 89 62 54 63 37 64 38 65 47 66 39 67
REMARK SMILES IDX 40 68 46 69 48 70 41 71 42 72 43 73 44 74 45 75 71 76 72 77
REMARK SMILES IDX 81 78 73 79 74 80 80 81 82 82 75 83 76 84 77 85 78 86 79 87
REMARK SMILES IDX 55 88 56 89 65 90 57 91 58 92 64 93 66 94 59 95 60 96 61 97
REMARK SMILES IDX 62 98 63 99
REMARK H PARENT 20 5 8 24 25 30 87 49 53 60
REMARK Flexibility Score: inf
ROOT
ATOM      1  C   UNL A   1      33.830  21.456  27.405  1.00  0.00     0.116 C 
ENDROOT
BRANCH   1   2
ATOM      2  N   UNL A   1      33.246  20.373  26.633  1.00  0.00    -0.353 N 
ATOM      3  C   UNL A   1      32.494  20.420  25.501  1.00  0.00     0.244 C 
ATOM      4  O   UNL A   1      32.143  19.386  24.941  1.00  0.00    -0.270 OA
ATOM      5  H   UNL A   1      33.422  19.470  26.982  1.00  0.00     0.163 HD
BRANCH   3   6
ATOM      6  C   UNL A   1      32.195  21.723  24.872  1.00  0.00     0.072 C 
ATOM      7  C   UNL A   1      31.367  22.640  25.397  1.00  0.00     0.024 C 
BRANCH   7   8
ATOM      8  C   UNL A   1      31.180  23.918  24.796  1.00  0.00     0.028 A 
ATOM      9  C   UNL A   1      31.249  26.259  24.434  1.00  0.00     0.051 A 
ATOM     10  C   UNL A   1      30.882  25.767  23.199  1.00  0.00     0.079 A 
ATOM     11  C   UNL A   1      31.442  25.163  25.348  1.00  0.00     0.033 A 
ATOM     12  S   UNL A   1      30.568  24.096  23.201  1.00  0.00    -0.144 S 
BRANCH   9  13
ATOM     13  C   UNL A   1      31.609  27.649  24.710  1.00  0.00     0.254 C 
ATOM     14  O   UNL A   1      30.736  28.514  24.658  1.00  0.00    -0.269 OA
BRANCH  13  15
ATOM     15  N   UNL A   1      32.934  27.976  25.024  1.00  0.00    -0.336 N 
ATOM     16  C   UNL A   1      33.879  27.964  23.919  1.00  0.00     0.147 C 
BRANCH  15  17
ATOM     17  C   UNL A   1      33.510  28.066  26.374  1.00  0.00     0.184 C 
BRANCH  17  18
ATOM     18  C   UNL A   1      34.162  29.416  26.732  1.00  0.00     0.203 C 
ATOM     19  C   UNL A   1      35.394  29.335  27.629  1.00  0.00     0.073 C 
ATOM     20  N   UNL A   1      33.361  30.358  27.538  1.00  0.00    -0.333 N 
ATOM     21  C   UNL A   1      35.653  30.798  27.965  1.00  0.00     0.068 C 
ATOM     22  C   UNL A   1      34.284  31.466  27.835  1.00  0.00     0.262 C 
ATOM     23  C   UNL A   1      32.141  30.818  26.894  1.00  0.00     0.333 C 
ATOM     24  H   UNL A   1      33.008  29.900  28.378  1.00  0.00     0.348 HD
ENDBRANCH  17  18
ENDBRANCH  15  17
ENDBRANCH  13  15
ENDBRANCH   9  13
ENDBRANCH   7   8
ENDBRANCH   3   6
ENDBRANCH   1   2
BRANCH   1  25
ATOM     25  C   UNL A   1      35.168  21.892  26.812  1.00  0.00     0.023 C 
BRANCH  25  26
ATOM     26  C   UNL A   1      35.225  23.364  26.397  1.00  0.00     0.023 C 
BRANCH  26  27
ATOM     27  C   UNL A   1      36.602  23.847  25.965  1.00  0.00     0.116 C 
BRANCH  27  28
ATOM     28  N   UNL A   1      37.610  22.795  25.958  1.00  0.00    -0.352 N 
ATOM     29  C   UNL A   1      38.932  22.908  26.329  1.00  0.00     0.251 C 
ATOM     30  H   UNL A   1      37.314  21.907  25.653  1.00  0.00     0.163 HD
ATOM     31  O   UNL A   1      39.710  21.978  26.195  1.00  0.00    -0.269 OA
BRANCH  29  32
ATOM     32  C   UNL A   1      39.385  24.214  26.848  1.00  0.00     0.039 A 
ATOM     33  C   UNL A   1      39.319  24.455  28.222  1.00  0.00     0.014 A 
ATOM     34  C   UNL A   1      39.986  25.130  25.984  1.00  0.00     0.014 A 
ATOM     35  C   UNL A   1      39.933  25.594  28.745  1.00  0.00     0.010 A 
ATOM     36  C   UNL A   1      40.651  26.228  26.514  1.00  0.00     0.010 A 
ATOM     37  C   UNL A   1      40.639  26.464  27.900  1.00  0.00    -0.014 A 
BRANCH  37  38
ATOM     38  C   UNL A   1      41.379  27.638  28.422  1.00  0.00     0.031 A 
ATOM     39  C   UNL A   1      40.609  28.792  28.996  1.00  0.00     0.074 A 
ATOM     40  C   UNL A   1      42.715  27.712  28.275  1.00  0.00     0.049 A 
ATOM     41  N   UNL A   1      41.029  29.985  29.325  1.00  0.00    -0.248 NA
ATOM     42  C   UNL A   1      39.164  28.585  29.191  1.00  0.00     0.031 C 
ATOM     43  C   UNL A   1      43.566  26.671  27.695  1.00  0.00     0.029 A 
ATOM     44  N   UNL A   1      43.591  28.725  28.575  1.00  0.00    -0.354 N 
ATOM     45  C   UNL A   1      39.898  30.681  29.734  1.00  0.00     0.074 A 
ATOM     46  C   UNL A   1      38.770  29.789  29.575  1.00  0.00     0.031 C 
ATOM     47  C   UNL A   1      44.839  27.098  27.685  1.00  0.00     0.029 A 
ATOM     48  C   UNL A   1      44.891  28.457  28.216  1.00  0.00     0.049 A 
ATOM     49  H   UNL A   1      43.315  29.566  29.007  1.00  0.00     0.167 HD
ATOM     50  C   UNL A   1      39.813  31.944  30.214  1.00  0.00     0.037 A 
ATOM     51  C   UNL A   1      45.994  29.226  28.289  1.00  0.00     0.037 A 
ATOM     52  C   UNL A   1      40.945  32.811  30.399  1.00  0.00     0.049 A 
ATOM     53  C   UNL A   1      45.881  30.617  28.852  1.00  0.00     0.074 A 
ATOM     54  C   UNL A   1      40.973  34.095  30.912  1.00  0.00     0.029 A 
ATOM     55  N   UNL A   1      42.255  32.474  30.088  1.00  0.00    -0.354 N 
ATOM     56  N   UNL A   1      44.809  31.253  29.260  1.00  0.00    -0.248 NA
ATOM     57  C   UNL A   1      47.122  31.394  28.968  1.00  0.00     0.031 C 
ATOM     58  C   UNL A   1      42.298  34.544  30.891  1.00  0.00     0.029 A 
ATOM     59  C   UNL A   1      43.099  33.526  30.399  1.00  0.00     0.049 A 
ATOM     60  H   UNL A   1      42.541  31.615  29.702  1.00  0.00     0.167 HD
ATOM     61  C   UNL A   1      45.250  32.492  29.709  1.00  0.00     0.074 A 
ATOM     62  C   UNL A   1      46.687  32.517  29.524  1.00  0.00     0.031 C 
ATOM     63  C   UNL A   1      44.531  33.518  30.230  1.00  0.00     0.037 A 
BRANCH  50  64
ATOM     64  C   UNL A   1      38.445  32.451  30.570  1.00  0.00     0.058 A 
ATOM     65  C   UNL A   1      37.702  33.246  29.682  1.00  0.00     0.135 A 
ATOM     66  C   UNL A   1      37.869  32.144  31.813  1.00  0.00     0.135 A 
ATOM     67  F   UNL A   1      38.214  33.584  28.488  1.00  0.00    -0.206 F 
ATOM     68  C   UNL A   1      36.454  33.752  30.029  1.00  0.00     0.059 A 
ATOM     69  C   UNL A   1      36.610  32.616  32.171  1.00  0.00     0.059 A 
ATOM     70  F   UNL A   1      38.537  31.389  32.699  1.00  0.00    -0.206 F 
ATOM     71  C   UNL A   1      35.920  33.438  31.279  1.00  0.00     0.060 A 
BRANCH  71  72
ATOM     72  S   UNL A   1      34.308  34.116  31.726  1.00  0.00     0.124 S 
ATOM     73  O   UNL A   1      34.688  35.388  32.332  1.00  0.00    -0.237 OA
ATOM     74  O   UNL A   1      33.634  34.207  30.433  1.00  0.00    -0.237 OA
ATOM     75  O   UNL A   1      33.764  33.121  32.643  1.00  0.00    -0.744 OA
ENDBRANCH  71  72
ENDBRANCH  50  64
BRANCH  51  76
ATOM     76  C   UNL A   1      47.303  28.689  27.833  1.00  0.00     0.058 A 
ATOM     77  C   UNL A   1      48.193  28.098  28.742  1.00  0.00     0.135 A 
ATOM     78  C   UNL A   1      47.679  28.731  26.482  1.00  0.00     0.135 A 
ATOM     79  F   UNL A   1      47.879  28.041  30.045  1.00  0.00    -0.206 F 
ATOM     80  C   UNL A   1      49.414  27.576  28.331  1.00  0.00     0.059 A 
ATOM     81  C   UNL A   1      48.888  28.197  26.043  1.00  0.00     0.059 A 
ATOM     82  F   UNL A   1      46.854  29.269  25.571  1.00  0.00    -0.206 F 
ATOM     83  C   UNL A   1      49.752  27.628  26.978  1.00  0.00     0.060 A 
BRANCH  83  84
ATOM     84  S   UNL A   1      51.314  26.893  26.445  1.00  0.00     0.124 S 
ATOM     85  O   UNL A   1      51.706  27.788  25.363  1.00  0.00    -0.237 OA
ATOM     86  O   UNL A   1      52.121  26.967  27.659  1.00  0.00    -0.237 OA
ATOM     87  O   UNL A   1      50.927  25.544  26.042  1.00  0.00    -0.744 OA
ENDBRANCH  83  84
ENDBRANCH  51  76
BRANCH  63  88
ATOM     88  C   UNL A   1      45.283  34.734  30.685  1.00  0.00     0.058 A 
ATOM     89  C   UNL A   1      45.870  34.803  31.957  1.00  0.00     0.135 A 
ATOM     90  C   UNL A   1      45.487  35.807  29.803  1.00  0.00     0.135 A 
ATOM     91  F   UNL A   1      45.697  33.804  32.837  1.00  0.00    -0.206 F 
ATOM     92  C   UNL A   1      46.634  35.900  32.341  1.00  0.00     0.059 A 
ATOM     93  C   UNL A   1      46.263  36.905  30.160  1.00  0.00     0.059 A 
ATOM     94  F   UNL A   1      44.950  35.783  28.573  1.00  0.00    -0.206 F 
ATOM     95  C   UNL A   1      46.830  36.943  31.434  1.00  0.00     0.060 A 
BRANCH  95  96
ATOM     96  S   UNL A   1      47.876  38.332  31.920  1.00  0.00     0.124 S 
ATOM     97  O   UNL A   1      48.291  37.933  33.261  1.00  0.00    -0.237 OA
ATOM     98  O   UNL A   1      48.921  38.310  30.900  1.00  0.00    -0.237 OA
ATOM     99  O   UNL A   1      46.973  39.476  31.856  1.00  0.00    -0.744 OA
ENDBRANCH  95  96
ENDBRANCH  63  88
ENDBRANCH  37  38
ENDBRANCH  29  32
ENDBRANCH  27  28
ENDBRANCH  26  27
ENDBRANCH  25  26
ENDBRANCH   1  25
TORSDOF 19
ENDMDL
MODEL 2
REMARK VINA RESULT:     -10.3      3.309      9.143
REMARK SMILES CN(C[C@@H]1CCC[N@H+]1C)C(=O)c1csc(/C=C/C(=O)NCCCCNC(=O)c2ccc(-c3c4nc(c(-c5c(F)cc(S(=O)(=O)[O-])cc5F)c5ccc([nH]5)c(-c5c(F)cc(S(=O)(=O)[O-])cc5F)c5nc(c(-c6c(F)cc(S(=O)(=O)[O-])cc6F)c6ccc3[nH]6)C=C5)C=C4)cc2)c1
REMARK SMILES IDX 21 1 20 2 18 3 19 4 17 6 16 7 15 8 12 9 13 10 94 11 14 12
REMARK SMILES IDX 10 13 11 14 2 15 1 16 3 17 4 18 5 19 8 20 6 21 7 22 9 23
REMARK SMILES IDX 22 25 23 26 24 27 25 28 26 29 27 31 28 32 29 33 93 34 30 35
REMARK SMILES IDX 92 36 31 37 32 38 33 39 86 40 34 41 91 42 85 43 87 44 35 45
REMARK SMILES IDX 90 46 84 47 83 48 36 50 70 51 49 52 69 53 50 54 53 55 68 56
REMARK SMILES IDX 88 57 51 58 52 59 67 61 89 62 54 63 37 64 38 65 47 66 39 67
REMARK SMILES IDX 40 68 46 69 48 70 41 71 42 72 43 73 44 74 45 75 71 76 72 77
REMARK SMILES IDX 81 78 73 79 74 80 80 81 82 82 75 83 76 84 77 85 78 86 79 87
REMARK SMILES IDX 55 88 56 89 65 90 57 91 58 92 64 93 66 94 59 95 60 96 61 97
REMARK SMILES IDX 62 98 63 99
REMARK H PARENT 20 5 8 24 25 30 87 49 53 60
REMARK Flexibility Score: inf
ROOT
ATOM      1  C   UNL A   1      36.283  33.531  28.223  1.00  0.00     0.116 C 
ENDROOT
BRANCH   1   2
ATOM      2  N   UNL A   1      34.974  34.133  28.407  1.00  0.00    -0.353 N 
ATOM      3  C   UNL A   1      33.748  33.673  28.041  1.00  0.00     0.244 C 
ATOM      4  O   UNL A   1      32.733  34.292  28.347  1.00  0.00    -0.270 OA
ATOM      5  H   UNL A   1      34.976  35.003  28.866  1.00  0.00     0.163 HD
BRANCH   3   6
ATOM      6  C   UNL A   1      33.624  32.362  27.374  1.00  0.00     0.072 C 
ATOM      7  C   UNL A   1      33.697  31.183  28.012  1.00  0.00     0.024 C 
BRANCH   7   8
ATOM      8  C   UNL A   1      33.483  29.946  27.338  1.00  0.00     0.028 A 
ATOM      9  C   UNL A   1      32.394  28.120  26.292  1.00  0.00     0.051 A 
ATOM     10  C   UNL A   1      33.710  27.950  25.916  1.00  0.00     0.079 A 
ATOM     11  C   UNL A   1      32.277  29.304  27.102  1.00  0.00     0.033 A 
ATOM     12  S   UNL A   1      34.779  29.028  26.683  1.00  0.00    -0.144 S 
BRANCH   9  13
ATOM     13  C   UNL A   1      31.265  27.356  25.763  1.00  0.00     0.254 C 
ATOM     14  O   UNL A   1      30.671  26.577  26.507  1.00  0.00    -0.269 OA
BRANCH  13  15
ATOM     15  N   UNL A   1      30.880  27.516  24.427  1.00  0.00    -0.336 N 
ATOM     16  C   UNL A   1      30.714  26.295  23.654  1.00  0.00     0.147 C 
BRANCH  15  17
ATOM     17  C   UNL A   1      30.889  28.773  23.664  1.00  0.00     0.184 C 
BRANCH  17  18
ATOM     18  C   UNL A   1      29.547  29.530  23.613  1.00  0.00     0.203 C 
ATOM     19  C   UNL A   1      28.764  29.395  22.309  1.00  0.00     0.073 C 
ATOM     20  N   UNL A   1      29.601  31.003  23.688  1.00  0.00    -0.333 N 
ATOM     21  C   UNL A   1      27.640  30.406  22.494  1.00  0.00     0.068 C 
ATOM     22  C   UNL A   1      28.210  31.435  23.470  1.00  0.00     0.262 C 
ATOM     23  C   UNL A   1      30.148  31.524  24.931  1.00  0.00     0.333 C 
ATOM     24  H   UNL A   1      30.245  31.374  22.990  1.00  0.00     0.348 HD
ENDBRANCH  17  18
ENDBRANCH  15  17
ENDBRANCH  13  15
ENDBRANCH   9  13
ENDBRANCH   7   8
ENDBRANCH   3   6
ENDBRANCH   1   2
BRANCH   1  25
ATOM     25  C   UNL A   1      37.211  33.871  29.388  1.00  0.00     0.023 C 
BRANCH  25  26
ATOM     26  C   UNL A   1      36.536  33.848  30.761  1.00  0.00     0.023 C 
BRANCH  26  27
ATOM     27  C   UNL A   1      36.836  32.610  31.593  1.00  0.00     0.116 C 
BRANCH  27  28
ATOM     28  N   UNL A   1      36.013  31.461  31.241  1.00  0.00    -0.352 N 
ATOM     29  C   UNL A   1      36.424  30.307  30.610  1.00  0.00     0.251 C 
ATOM     30  H   UNL A   1      35.059  31.515  31.478  1.00  0.00     0.163 HD
ATOM     31  O   UNL A   1      35.626  29.444  30.282  1.00  0.00    -0.269 OA
BRANCH  29  32
ATOM     32  C   UNL A   1      37.861  30.175  30.300  1.00  0.00     0.039 A 
ATOM     33  C   UNL A   1      38.746  29.831  31.324  1.00  0.00     0.014 A 
ATOM     34  C   UNL A   1      38.293  30.267  28.975  1.00  0.00     0.014 A 
ATOM     35  C   UNL A   1      40.064  29.500  31.005  1.00  0.00     0.010 A 
ATOM     36  C   UNL A   1      39.586  29.876  28.654  1.00  0.00     0.010 A 
ATOM     37  C   UNL A   1      40.479  29.479  29.664  1.00  0.00    -0.014 A 
BRANCH  37  38
ATOM     38  C   UNL A   1      41.843  29.051  29.272  1.00  0.00     0.031 A 
ATOM     39  C   UNL A   1      42.940  30.074  29.200  1.00  0.00     0.074 A 
ATOM     40  C   UNL A   1      42.064  27.783  28.874  1.00  0.00     0.049 A 
ATOM     41  N   UNL A   1      44.142  29.965  28.699  1.00  0.00    -0.248 NA
ATOM     42  C   UNL A   1      42.625  31.411  29.731  1.00  0.00     0.031 C 
ATOM     43  C   UNL A   1      41.067  26.710  28.863  1.00  0.00     0.029 A 
ATOM     44  N   UNL A   1      43.194  27.188  28.374  1.00  0.00    -0.354 N 
ATOM     45  C   UNL A   1      44.715  31.225  28.824  1.00  0.00     0.074 A 
ATOM     46  C   UNL A   1      43.716  32.090  29.412  1.00  0.00     0.031 C 
ATOM     47  C   UNL A   1      41.631  25.591  28.382  1.00  0.00     0.029 A 
ATOM     48  C   UNL A   1      43.015  25.874  28.012  1.00  0.00     0.049 A 
ATOM     49  H   UNL A   1      44.055  27.658  28.282  1.00  0.00     0.167 HD
ATOM     50  C   UNL A   1      45.968  31.618  28.492  1.00  0.00     0.037 A 
ATOM     51  C   UNL A   1      43.862  25.004  27.430  1.00  0.00     0.037 A 
ATOM     52  C   UNL A   1      46.964  30.741  27.939  1.00  0.00     0.049 A 
ATOM     53  C   UNL A   1      45.259  25.454  27.096  1.00  0.00     0.074 A 
ATOM     54  C   UNL A   1      48.275  31.029  27.602  1.00  0.00     0.029 A 
ATOM     55  N   UNL A   1      46.762  29.399  27.653  1.00  0.00    -0.354 N 
ATOM     56  N   UNL A   1      45.797  26.642  27.245  1.00  0.00    -0.248 NA
ATOM     57  C   UNL A   1      46.165  24.451  26.521  1.00  0.00     0.031 C 
ATOM     58  C   UNL A   1      48.859  29.866  27.091  1.00  0.00     0.029 A 
ATOM     59  C   UNL A   1      47.924  28.844  27.145  1.00  0.00     0.049 A 
ATOM     60  H   UNL A   1      45.917  28.913  27.791  1.00  0.00     0.167 HD
ATOM     61  C   UNL A   1      47.111  26.521  26.810  1.00  0.00     0.074 A 
ATOM     62  C   UNL A   1      47.289  25.145  26.393  1.00  0.00     0.031 C 
ATOM     63  C   UNL A   1      48.084  27.464  26.760  1.00  0.00     0.037 A 
BRANCH  50  64
ATOM     64  C   UNL A   1      46.319  33.059  28.727  1.00  0.00     0.058 A 
ATOM     65  C   UNL A   1      46.858  33.494  29.948  1.00  0.00     0.135 A 
ATOM     66  C   UNL A   1      46.112  34.019  27.723  1.00  0.00     0.135 A 
ATOM     67  F   UNL A   1      47.058  32.620  30.947  1.00  0.00    -0.206 F 
ATOM     68  C   UNL A   1      47.142  34.835  30.181  1.00  0.00     0.059 A 
ATOM     69  C   UNL A   1      46.414  35.362  27.924  1.00  0.00     0.059 A 
ATOM     70  F   UNL A   1      45.598  33.657  26.537  1.00  0.00    -0.206 F 
ATOM     71  C   UNL A   1      46.909  35.763  29.165  1.00  0.00     0.060 A 
BRANCH  71  72
ATOM     72  S   UNL A   1      47.263  37.503  29.486  1.00  0.00     0.124 S 
ATOM     73  O   UNL A   1      47.548  37.481  30.917  1.00  0.00    -0.237 OA
ATOM     74  O   UNL A   1      48.408  37.758  28.617  1.00  0.00    -0.237 OA
ATOM     75  O   UNL A   1      46.027  38.177  29.102  1.00  0.00    -0.744 OA
ENDBRANCH  71  72
ENDBRANCH  50  64
BRANCH  51  76
ATOM     76  C   UNL A   1      43.418  23.615  27.145  1.00  0.00     0.058 A 
ATOM     77  C   UNL A   1      43.044  23.232  25.849  1.00  0.00     0.135 A 
ATOM     78  C   UNL A   1      43.384  22.637  28.152  1.00  0.00     0.135 A 
ATOM     79  F   UNL A   1      43.054  24.133  24.855  1.00  0.00    -0.206 F 
ATOM     80  C   UNL A   1      42.641  21.932  25.561  1.00  0.00     0.059 A 
ATOM     81  C   UNL A   1      43.005  21.325  27.884  1.00  0.00     0.059 A 
ATOM     82  F   UNL A   1      43.751  22.950  29.404  1.00  0.00    -0.206 F 
ATOM     83  C   UNL A   1      42.627  20.985  26.586  1.00  0.00     0.060 A 
BRANCH  83  84
ATOM     84  S   UNL A   1      42.161  19.285  26.189  1.00  0.00     0.124 S 
ATOM     85  O   UNL A   1      40.715  19.403  26.043  1.00  0.00    -0.237 OA
ATOM     86  O   UNL A   1      42.909  19.038  24.960  1.00  0.00    -0.237 OA
ATOM     87  O   UNL A   1      42.621  18.532  27.353  1.00  0.00    -0.744 OA
ENDBRANCH  83  84
ENDBRANCH  51  76
BRANCH  63  88
ATOM     88  C   UNL A   1      49.443  27.037  26.288  1.00  0.00     0.058 A 
ATOM     89  C   UNL A   1      50.329  26.345  27.126  1.00  0.00     0.135 A 
ATOM     90  C   UNL A   1      49.825  27.251  24.954  1.00  0.00     0.135 A 
ATOM     91  F   UNL A   1      50.012  26.122  28.411  1.00  0.00    -0.206 F 
ATOM     92  C   UNL A   1      51.554  25.881  26.656  1.00  0.00     0.059 A 
ATOM     93  C   UNL A   1      51.036  26.779  24.459  1.00  0.00     0.059 A 
ATOM     94  F   UNL A   1      49.007  27.903  24.113  1.00  0.00    -0.206 F 
ATOM     95  C   UNL A   1      51.896  26.098  25.320  1.00  0.00     0.060 A 
BRANCH  95  96
ATOM     96  S   UNL A   1      53.459  25.435  24.704  1.00  0.00     0.124 S 
ATOM     97  O   UNL A   1      53.412  24.064  25.201  1.00  0.00    -0.237 OA
ATOM     98  O   UNL A   1      53.319  25.592  23.260  1.00  0.00    -0.237 OA
ATOM     99  O   UNL A   1      54.460  26.296  25.326  1.00  0.00    -0.744 OA
ENDBRANCH  95  96
ENDBRANCH  63  88
ENDBRANCH  37  38
ENDBRANCH  29  32
ENDBRANCH  27  28
ENDBRANCH  26  27
ENDBRANCH  25  26
ENDBRANCH   1  25
TORSDOF 19
ENDMDL
MODEL 3
REMARK VINA RESULT:     -10.1      3.071      9.754
REMARK SMILES CN(C[C@@H]1CCC[N@H+]1C)C(=O)c1csc(/C=C/C(=O)NCCCCNC(=O)c2ccc(-c3c4nc(c(-c5c(F)cc(S(=O)(=O)[O-])cc5F)c5ccc([nH]5)c(-c5c(F)cc(S(=O)(=O)[O-])cc5F)c5nc(c(-c6c(F)cc(S(=O)(=O)[O-])cc6F)c6ccc3[nH]6)C=C5)C=C4)cc2)c1
REMARK SMILES IDX 21 1 20 2 18 3 19 4 17 6 16 7 15 8 12 9 13 10 94 11 14 12
REMARK SMILES IDX 10 13 11 14 2 15 1 16 3 17 4 18 5 19 8 20 6 21 7 22 9 23
REMARK SMILES IDX 22 25 23 26 24 27 25 28 26 29 27 31 28 32 29 33 93 34 30 35
REMARK SMILES IDX 92 36 31 37 32 38 33 39 86 40 34 41 91 42 85 43 87 44 35 45
REMARK SMILES IDX 90 46 84 47 83 48 36 50 70 51 49 52 69 53 50 54 53 55 68 56
REMARK SMILES IDX 88 57 51 58 52 59 67 61 89 62 54 63 37 64 38 65 47 66 39 67
REMARK SMILES IDX 40 68 46 69 48 70 41 71 42 72 43 73 44 74 45 75 71 76 72 77
REMARK SMILES IDX 81 78 73 79 74 80 80 81 82 82 75 83 76 84 77 85 78 86 79 87
REMARK SMILES IDX 55 88 56 89 65 90 57 91 58 92 64 93 66 94 59 95 60 96 61 97
REMARK SMILES IDX 62 98 63 99
REMARK H PARENT 20 5 8 24 25 30 87 49 53 60
REMARK Flexibility Score: inf
ROOT
ATOM      1  C   UNL A   1      34.750  34.128  31.983  1.00  0.00     0.116 C 
ENDROOT
BRANCH   1   2
ATOM      2  N   UNL A   1      34.610  34.918  30.773  1.00  0.00    -0.353 N 
ATOM      3  C   UNL A   1      34.409  34.516  29.490  1.00  0.00     0.244 C 
ATOM      4  O   UNL A   1      34.241  35.341  28.596  1.00  0.00    -0.270 OA
ATOM      5  H   UNL A   1      34.668  35.892  30.902  1.00  0.00     0.163 HD
BRANCH   3   6
ATOM      6  C   UNL A   1      34.273  33.078  29.184  1.00  0.00     0.072 C 
ATOM      7  C   UNL A   1      33.942  32.592  27.977  1.00  0.00     0.024 C 
BRANCH   7   8
ATOM      8  C   UNL A   1      33.911  31.193  27.711  1.00  0.00     0.028 A 
ATOM      9  C   UNL A   1      33.156  29.058  27.014  1.00  0.00     0.051 A 
ATOM     10  C   UNL A   1      34.511  28.867  27.175  1.00  0.00     0.079 A 
ATOM     11  C   UNL A   1      32.826  30.428  27.308  1.00  0.00     0.033 A 
ATOM     12  S   UNL A   1      35.308  30.205  27.860  1.00  0.00    -0.144 S 
BRANCH   9  13
ATOM     13  C   UNL A   1      32.237  28.089  26.418  1.00  0.00     0.254 C 
ATOM     14  O   UNL A   1      31.534  27.399  27.156  1.00  0.00    -0.269 OA
BRANCH  13  15
ATOM     15  N   UNL A   1      32.171  27.955  25.026  1.00  0.00    -0.336 N 
ATOM     16  C   UNL A   1      30.965  28.456  24.387  1.00  0.00     0.147 C 
BRANCH  15  17
ATOM     17  C   UNL A   1      33.058  27.133  24.189  1.00  0.00     0.184 C 
BRANCH  17  18
ATOM     18  C   UNL A   1      33.183  25.654  24.605  1.00  0.00     0.203 C 
ATOM     19  C   UNL A   1      34.359  25.325  25.521  1.00  0.00     0.073 C 
ATOM     20  N   UNL A   1      33.453  24.673  23.535  1.00  0.00    -0.333 N 
ATOM     21  C   UNL A   1      34.329  23.802  25.560  1.00  0.00     0.068 C 
ATOM     22  C   UNL A   1      33.662  23.401  24.245  1.00  0.00     0.262 C 
ATOM     23  C   UNL A   1      32.408  24.576  22.528  1.00  0.00     0.333 C 
ATOM     24  H   UNL A   1      34.264  24.958  22.985  1.00  0.00     0.348 HD
ENDBRANCH  17  18
ENDBRANCH  15  17
ENDBRANCH  13  15
ENDBRANCH   9  13
ENDBRANCH   7   8
ENDBRANCH   3   6
ENDBRANCH   1   2
BRANCH   1  25
ATOM     25  C   UNL A   1      36.085  34.409  32.671  1.00  0.00     0.023 C 
BRANCH  25  26
ATOM     26  C   UNL A   1      37.283  33.698  32.039  1.00  0.00     0.023 C 
BRANCH  26  27
ATOM     27  C   UNL A   1      37.705  32.418  32.745  1.00  0.00     0.116 C 
BRANCH  27  28
ATOM     28  N   UNL A   1      36.861  31.275  32.426  1.00  0.00    -0.352 N 
ATOM     29  C   UNL A   1      37.174  30.217  31.601  1.00  0.00     0.251 C 
ATOM     30  H   UNL A   1      35.971  31.256  32.845  1.00  0.00     0.163 HD
ATOM     31  O   UNL A   1      36.352  29.356  31.333  1.00  0.00    -0.269 OA
BRANCH  29  32
ATOM     32  C   UNL A   1      38.527  30.189  31.010  1.00  0.00     0.039 A 
ATOM     33  C   UNL A   1      39.583  29.674  31.763  1.00  0.00     0.014 A 
ATOM     34  C   UNL A   1      38.705  30.555  29.674  1.00  0.00     0.014 A 
ATOM     35  C   UNL A   1      40.815  29.451  31.147  1.00  0.00     0.010 A 
ATOM     36  C   UNL A   1      39.911  30.272  29.049  1.00  0.00     0.010 A 
ATOM     37  C   UNL A   1      40.973  29.708  29.776  1.00  0.00    -0.014 A 
BRANCH  37  38
ATOM     38  C   UNL A   1      42.236  29.405  29.061  1.00  0.00     0.031 A 
ATOM     39  C   UNL A   1      42.470  28.015  28.544  1.00  0.00     0.074 A 
ATOM     40  C   UNL A   1      43.205  30.336  28.981  1.00  0.00     0.049 A 
ATOM     41  N   UNL A   1      43.565  27.481  28.071  1.00  0.00    -0.248 NA
ATOM     42  C   UNL A   1      41.324  27.091  28.605  1.00  0.00     0.031 C 
ATOM     43  C   UNL A   1      43.108  31.709  29.481  1.00  0.00     0.029 A 
ATOM     44  N   UNL A   1      44.477  30.260  28.472  1.00  0.00    -0.354 N 
ATOM     45  C   UNL A   1      43.251  26.153  27.808  1.00  0.00     0.074 A 
ATOM     46  C   UNL A   1      41.876  25.954  28.211  1.00  0.00     0.031 C 
ATOM     47  C   UNL A   1      44.270  32.344  29.253  1.00  0.00     0.029 A 
ATOM     48  C   UNL A   1      45.207  31.414  28.629  1.00  0.00     0.049 A 
ATOM     49  H   UNL A   1      44.835  29.452  28.036  1.00  0.00     0.167 HD
ATOM     50  C   UNL A   1      44.036  25.193  27.264  1.00  0.00     0.037 A 
ATOM     51  C   UNL A   1      46.490  31.685  28.324  1.00  0.00     0.037 A 
ATOM     52  C   UNL A   1      45.392  25.410  26.837  1.00  0.00     0.049 A 
ATOM     53  C   UNL A   1      47.336  30.612  27.695  1.00  0.00     0.074 A 
ATOM     54  C   UNL A   1      46.262  24.515  26.241  1.00  0.00     0.029 A 
ATOM     55  N   UNL A   1      46.070  26.615  26.950  1.00  0.00    -0.354 N 
ATOM     56  N   UNL A   1      47.018  29.367  27.426  1.00  0.00    -0.248 NA
ATOM     57  C   UNL A   1      48.710  30.975  27.323  1.00  0.00     0.031 C 
ATOM     58  C   UNL A   1      47.475  25.173  26.013  1.00  0.00     0.029 A 
ATOM     59  C   UNL A   1      47.348  26.488  26.433  1.00  0.00     0.049 A 
ATOM     60  H   UNL A   1      45.698  27.439  27.340  1.00  0.00     0.167 HD
ATOM     61  C   UNL A   1      48.141  28.808  26.828  1.00  0.00     0.074 A 
ATOM     62  C   UNL A   1      49.147  29.849  26.772  1.00  0.00     0.031 C 
ATOM     63  C   UNL A   1      48.324  27.547  26.365  1.00  0.00     0.037 A 
BRANCH  50  64
ATOM     64  C   UNL A   1      43.435  23.826  27.105  1.00  0.00     0.058 A 
ATOM     65  C   UNL A   1      42.958  23.374  25.864  1.00  0.00     0.135 A 
ATOM     66  C   UNL A   1      43.331  22.956  28.203  1.00  0.00     0.135 A 
ATOM     67  F   UNL A   1      43.017  24.173  24.786  1.00  0.00    -0.206 F 
ATOM     68  C   UNL A   1      42.362  22.125  25.724  1.00  0.00     0.059 A 
ATOM     69  C   UNL A   1      42.763  21.692  28.081  1.00  0.00     0.059 A 
ATOM     70  F   UNL A   1      43.770  23.339  29.411  1.00  0.00    -0.206 F 
ATOM     71  C   UNL A   1      42.262  21.295  26.841  1.00  0.00     0.060 A 
BRANCH  71  72
ATOM     72  S   UNL A   1      41.468  19.685  26.652  1.00  0.00     0.124 S 
ATOM     73  O   UNL A   1      40.058  20.042  26.776  1.00  0.00    -0.237 OA
ATOM     74  O   UNL A   1      41.902  19.273  25.320  1.00  0.00    -0.237 OA
ATOM     75  O   UNL A   1      42.018  18.905  27.755  1.00  0.00    -0.744 OA
ENDBRANCH  71  72
ENDBRANCH  50  64
BRANCH  51  76
ATOM     76  C   UNL A   1      47.046  33.038  28.593  1.00  0.00     0.058 A 
ATOM     77  C   UNL A   1      47.001  34.041  27.614  1.00  0.00     0.135 A 
ATOM     78  C   UNL A   1      47.608  33.362  29.838  1.00  0.00     0.135 A 
ATOM     79  F   UNL A   1      46.479  33.775  26.407  1.00  0.00    -0.206 F 
ATOM     80  C   UNL A   1      47.501  35.316  27.854  1.00  0.00     0.059 A 
ATOM     81  C   UNL A   1      48.096  34.637  30.108  1.00  0.00     0.059 A 
ATOM     82  F   UNL A   1      47.657  32.442  30.813  1.00  0.00    -0.206 F 
ATOM     83  C   UNL A   1      48.046  35.605  29.106  1.00  0.00     0.060 A 
BRANCH  83  84
ATOM     84  S   UNL A   1      48.637  37.281  29.428  1.00  0.00     0.124 S 
ATOM     85  O   UNL A   1      49.090  37.173  30.810  1.00  0.00    -0.237 OA
ATOM     86  O   UNL A   1      49.685  37.438  28.423  1.00  0.00    -0.237 OA
ATOM     87  O   UNL A   1      47.449  38.102  29.213  1.00  0.00    -0.744 OA
ENDBRANCH  83  84
ENDBRANCH  51  76
BRANCH  63  88
ATOM     88  C   UNL A   1      49.636  27.229  25.711  1.00  0.00     0.058 A 
ATOM     89  C   UNL A   1      49.823  27.373  24.329  1.00  0.00     0.135 A 
ATOM     90  C   UNL A   1      50.742  26.857  26.493  1.00  0.00     0.135 A 
ATOM     91  F   UNL A   1      48.795  27.720  23.539  1.00  0.00    -0.206 F 
ATOM     92  C   UNL A   1      51.065  27.155  23.741  1.00  0.00     0.059 A 
ATOM     93  C   UNL A   1      51.996  26.653  25.929  1.00  0.00     0.059 A 
ATOM     94  F   UNL A   1      50.612  26.713  27.821  1.00  0.00    -0.206 F 
ATOM     95  C   UNL A   1      52.147  26.801  24.550  1.00  0.00     0.060 A 
BRANCH  95  96
ATOM     96  S   UNL A   1      53.769  26.584  23.786  1.00  0.00     0.124 S 
ATOM     97  O   UNL A   1      54.306  27.939  23.848  1.00  0.00    -0.237 OA
ATOM     98  O   UNL A   1      54.403  25.609  24.668  1.00  0.00    -0.237 OA
ATOM     99  O   UNL A   1      53.450  26.094  22.449  1.00  0.00    -0.744 OA
ENDBRANCH  95  96
ENDBRANCH  63  88
ENDBRANCH  37  38
ENDBRANCH  29  32
ENDBRANCH  27  28
ENDBRANCH  26  27
ENDBRANCH  25  26
ENDBRANCH   1  25
TORSDOF 19
ENDMDL
