MODEL 1
REMARK VINA RESULT:     -12.2      0.000      0.000
REMARK SMILES CC(C)[N@H+](C)Cc1cc2c(cc1Cl)C=C(C(=O)NCCCCNC(=O)c1ccc(-c3c4nc(c(-c5c(F)cc(S(=O)(=O)[O-])cc5F)c5ccc([nH]5)c(-c5c(F)cc(S(=O)(=O)[O-])cc5F)c5nc(c(-c6c(F)cc(S(=O)(=O)[O-])cc6F)c6ccc3[nH]6)C=C5)C=C4)cc1)[C@@H](C(F)(F)F)O2
REMARK SMILES IDX 20 1 19 2 18 3 16 4 17 5 15 7 7 8 8 9 12 10 9 11 11 12 13 13
REMARK SMILES IDX 10 14 97 15 14 16 92 17 6 18 4 19 5 20 2 22 1 23 3 24 93 25
REMARK SMILES IDX 94 26 95 27 96 28 21 29 22 30 23 31 24 32 25 34 26 35 27 36
REMARK SMILES IDX 91 37 28 38 90 39 29 40 30 41 31 42 84 43 32 44 89 45 83 46
REMARK SMILES IDX 85 47 33 48 88 49 82 50 81 51 34 53 68 54 47 55 67 56 48 57
REMARK SMILES IDX 51 58 66 59 86 60 49 61 50 62 65 64 87 65 52 66 35 67 36 68
REMARK SMILES IDX 45 69 37 70 38 71 44 72 46 73 39 74 40 75 41 76 42 77 43 78
REMARK SMILES IDX 69 79 70 80 79 81 71 82 72 83 78 84 80 85 73 86 74 87 75 88
REMARK SMILES IDX 76 89 77 90 53 91 54 92 63 93 55 94 56 95 62 96 64 97 57 98
REMARK SMILES IDX 58 99 59 100 60 101 61 102
REMARK H PARENT 18 6 4 21 23 33 85 52 51 63
REMARK Flexibility Score: inf
ROOT
ATOM      1  C   UNL A   1      37.461  22.091  25.796  1.00  0.00     0.023 C 
ENDROOT
BRANCH   1   2
ATOM      2  C   UNL A   1      37.006  21.748  24.381  1.00  0.00     0.116 C 
BRANCH   2   3
ATOM      3  N   UNL A   1      35.801  20.943  24.367  1.00  0.00    -0.352 N 
ATOM      4  C   UNL A   1      34.492  21.146  24.646  1.00  0.00     0.251 C 
ATOM      5  O   UNL A   1      33.756  20.165  24.512  1.00  0.00    -0.270 OA
ATOM      6  H   UNL A   1      35.978  20.017  24.084  1.00  0.00     0.163 HD
BRANCH   4   7
ATOM      7  C   UNL A   1      33.910  22.445  25.098  1.00  0.00     0.067 C 
ATOM      8  C   UNL A   1      32.868  27.390  25.469  1.00  0.00     0.029 A 
ATOM      9  C   UNL A   1      32.466  26.235  26.168  1.00  0.00     0.058 A 
ATOM     10  C   UNL A   1      33.687  27.219  24.339  1.00  0.00     0.050 A 
ATOM     11  C   UNL A   1      32.917  24.969  25.791  1.00  0.00     0.128 A 
ATOM     12  C   UNL A   1      34.170  25.952  23.993  1.00  0.00     0.033 A 
ATOM     13  Cl  UNL A   1      34.108  28.510  23.267  1.00  0.00    -0.084 Cl
ATOM     14  C   UNL A   1      33.790  24.824  24.722  1.00  0.00     0.019 A 
ATOM     15  O   UNL A   1      32.414  23.915  26.491  1.00  0.00    -0.475 OA
ATOM     16  C   UNL A   1      34.261  23.503  24.346  1.00  0.00     0.025 C 
ATOM     17  C   UNL A   1      33.050  22.615  26.321  1.00  0.00     0.314 C 
BRANCH   8  18
ATOM     18  C   UNL A   1      32.304  28.721  25.928  1.00  0.00     0.300 C 
BRANCH  18  19
ATOM     19  N   UNL A   1      32.928  29.281  27.130  1.00  0.00    -0.332 N 
ATOM     20  C   UNL A   1      34.337  28.908  27.220  1.00  0.00     0.333 C 
ATOM     21  H   UNL A   1      32.410  28.833  27.885  1.00  0.00     0.348 HD
BRANCH  19  22
ATOM     22  C   UNL A   1      32.692  30.702  27.436  1.00  0.00     0.177 C 
ATOM     23  C   UNL A   1      33.947  31.576  27.531  1.00  0.00     0.075 C 
ATOM     24  C   UNL A   1      31.683  31.341  26.475  1.00  0.00     0.075 C 
ENDBRANCH  19  22
ENDBRANCH  18  19
ENDBRANCH   8  18
BRANCH  17  25
ATOM     25  C   UNL A   1      33.781  22.286  27.635  1.00  0.00     0.429 C 
ATOM     26  F   UNL A   1      32.914  22.355  28.679  1.00  0.00    -0.167 F 
ATOM     27  F   UNL A   1      34.306  21.042  27.656  1.00  0.00    -0.167 F 
ATOM     28  F   UNL A   1      34.788  23.151  27.893  1.00  0.00    -0.167 F 
ENDBRANCH  17  25
ENDBRANCH   4   7
ENDBRANCH   2   3
ENDBRANCH   1   2
BRANCH   1  29
ATOM     29  C   UNL A   1      37.447  23.586  26.124  1.00  0.00     0.023 C 
BRANCH  29  30
ATOM     30  C   UNL A   1      38.709  24.120  26.796  1.00  0.00     0.116 C 
BRANCH  30  31
ATOM     31  N   UNL A   1      39.705  24.651  25.874  1.00  0.00    -0.352 N 
ATOM     32  C   UNL A   1      40.650  25.623  26.137  1.00  0.00     0.251 C 
ATOM     33  H   UNL A   1      39.704  24.276  24.964  1.00  0.00     0.163 HD
ATOM     34  O   UNL A   1      41.391  26.039  25.252  1.00  0.00    -0.269 OA
BRANCH  32  35
ATOM     35  C   UNL A   1      40.700  26.189  27.499  1.00  0.00     0.039 A 
ATOM     36  C   UNL A   1      39.617  26.011  28.358  1.00  0.00     0.014 A 
ATOM     37  C   UNL A   1      41.765  27.020  27.852  1.00  0.00     0.014 A 
ATOM     38  C   UNL A   1      39.507  26.818  29.482  1.00  0.00     0.010 A 
ATOM     39  C   UNL A   1      41.691  27.764  29.033  1.00  0.00     0.010 A 
ATOM     40  C   UNL A   1      40.531  27.720  29.822  1.00  0.00    -0.014 A 
BRANCH  40  41
ATOM     41  C   UNL A   1      40.330  28.627  30.983  1.00  0.00     0.031 A 
ATOM     42  C   UNL A   1      41.268  28.590  32.163  1.00  0.00     0.074 A 
ATOM     43  C   UNL A   1      39.359  29.559  30.920  1.00  0.00     0.049 A 
ATOM     44  N   UNL A   1      41.292  29.365  33.217  1.00  0.00    -0.248 NA
ATOM     45  C   UNL A   1      42.310  27.550  32.166  1.00  0.00     0.031 C 
ATOM     46  C   UNL A   1      38.399  29.698  29.822  1.00  0.00     0.029 A 
ATOM     47  N   UNL A   1      39.048  30.594  31.764  1.00  0.00    -0.354 N 
ATOM     48  C   UNL A   1      42.333  28.901  34.013  1.00  0.00     0.074 A 
ATOM     49  C   UNL A   1      42.900  27.755  33.336  1.00  0.00     0.031 C 
ATOM     50  C   UNL A   1      37.661  30.799  30.019  1.00  0.00     0.029 A 
ATOM     51  C   UNL A   1      38.050  31.410  31.286  1.00  0.00     0.049 A 
ATOM     52  H   UNL A   1      39.495  30.737  32.629  1.00  0.00     0.167 HD
ATOM     53  C   UNL A   1      42.785  29.394  35.191  1.00  0.00     0.037 A 
ATOM     54  C   UNL A   1      37.506  32.525  31.808  1.00  0.00     0.037 A 
ATOM     55  C   UNL A   1      42.240  30.555  35.842  1.00  0.00     0.049 A 
ATOM     56  C   UNL A   1      38.004  33.033  33.129  1.00  0.00     0.074 A 
ATOM     57  C   UNL A   1      42.647  31.148  37.025  1.00  0.00     0.029 A 
ATOM     58  N   UNL A   1      41.177  31.307  35.364  1.00  0.00    -0.354 N 
ATOM     59  N   UNL A   1      38.990  32.578  33.865  1.00  0.00    -0.248 NA
ATOM     60  C   UNL A   1      37.306  34.191  33.704  1.00  0.00     0.031 C 
ATOM     61  C   UNL A   1      41.806  32.235  37.281  1.00  0.00     0.029 A 
ATOM     62  C   UNL A   1      40.898  32.343  36.239  1.00  0.00     0.049 A 
ATOM     63  H   UNL A   1      40.691  31.130  34.526  1.00  0.00     0.167 HD
ATOM     64  C   UNL A   1      39.028  33.390  34.991  1.00  0.00     0.074 A 
ATOM     65  C   UNL A   1      37.983  34.381  34.828  1.00  0.00     0.031 C 
ATOM     66  C   UNL A   1      39.849  33.315  36.066  1.00  0.00     0.037 A 
BRANCH  53  67
ATOM     67  C   UNL A   1      43.927  28.682  35.860  1.00  0.00     0.058 A 
ATOM     68  C   UNL A   1      43.713  27.591  36.718  1.00  0.00     0.135 A 
ATOM     69  C   UNL A   1      45.256  29.053  35.593  1.00  0.00     0.135 A 
ATOM     70  F   UNL A   1      42.463  27.204  37.019  1.00  0.00    -0.206 F 
ATOM     71  C   UNL A   1      44.774  26.904  37.300  1.00  0.00     0.059 A 
ATOM     72  C   UNL A   1      46.333  28.367  36.148  1.00  0.00     0.059 A 
ATOM     73  F   UNL A   1      45.517  30.088  34.779  1.00  0.00    -0.206 F 
ATOM     74  C   UNL A   1      46.081  27.300  37.009  1.00  0.00     0.060 A 
BRANCH  74  75
ATOM     75  S   UNL A   1      47.445  26.391  37.768  1.00  0.00     0.124 S 
ATOM     76  O   UNL A   1      47.404  25.134  37.026  1.00  0.00    -0.237 OA
ATOM     77  O   UNL A   1      48.588  27.254  37.490  1.00  0.00    -0.237 OA
ATOM     78  O   UNL A   1      47.056  26.303  39.172  1.00  0.00    -0.744 OA
ENDBRANCH  74  75
ENDBRANCH  53  67
BRANCH  54  79
ATOM     79  C   UNL A   1      36.428  33.230  31.068  1.00  0.00     0.058 A 
ATOM     80  C   UNL A   1      35.096  33.163  31.499  1.00  0.00     0.135 A 
ATOM     81  C   UNL A   1      36.716  34.024  29.947  1.00  0.00     0.135 A 
ATOM     82  F   UNL A   1      34.773  32.412  32.563  1.00  0.00    -0.206 F 
ATOM     83  C   UNL A   1      34.085  33.861  30.847  1.00  0.00     0.059 A 
ATOM     84  C   UNL A   1      35.727  34.750  29.292  1.00  0.00     0.059 A 
ATOM     85  F   UNL A   1      37.979  34.131  29.506  1.00  0.00    -0.206 F 
ATOM     86  C   UNL A   1      34.413  34.657  29.747  1.00  0.00     0.060 A 
BRANCH  86  87
ATOM     87  S   UNL A   1      33.106  35.615  28.951  1.00  0.00     0.124 S 
ATOM     88  O   UNL A   1      33.877  36.600  28.203  1.00  0.00    -0.237 OA
ATOM     89  O   UNL A   1      32.423  34.600  28.155  1.00  0.00    -0.237 OA
ATOM     90  O   UNL A   1      32.338  36.136  30.079  1.00  0.00    -0.744 OA
ENDBRANCH  86  87
ENDBRANCH  54  79
BRANCH  66  91
ATOM     91  C   UNL A   1      39.647  34.318  37.164  1.00  0.00     0.058 A 
ATOM     92  C   UNL A   1      38.816  34.034  38.258  1.00  0.00     0.135 A 
ATOM     93  C   UNL A   1      40.360  35.526  37.171  1.00  0.00     0.135 A 
ATOM     94  F   UNL A   1      38.108  32.894  38.292  1.00  0.00    -0.206 F 
ATOM     95  C   UNL A   1      38.701  34.916  39.327  1.00  0.00     0.059 A 
ATOM     96  C   UNL A   1      40.274  36.415  38.238  1.00  0.00     0.059 A 
ATOM     97  F   UNL A   1      41.172  35.839  36.148  1.00  0.00    -0.206 F 
ATOM     98  C   UNL A   1      39.441  36.100  39.311  1.00  0.00     0.060 A 
BRANCH  98  99
ATOM     99  S   UNL A   1      39.336  37.199  40.740  1.00  0.00     0.124 S 
ATOM    100  O   UNL A   1      40.721  37.640  40.875  1.00  0.00    -0.237 OA
ATOM    101  O   UNL A   1      38.390  38.212  40.285  1.00  0.00    -0.237 OA
ATOM    102  O   UNL A   1      38.847  36.327  41.805  1.00  0.00    -0.744 OA
ENDBRANCH  98  99
ENDBRANCH  66  91
ENDBRANCH  40  41
ENDBRANCH  32  35
ENDBRANCH  30  31
ENDBRANCH  29  30
ENDBRANCH   1  29
TORSDOF 18
ENDMDL
MODEL 2
REMARK VINA RESULT:     -12.0      1.569      2.285
REMARK SMILES CC(C)[N@H+](C)Cc1cc2c(cc1Cl)C=C(C(=O)NCCCCNC(=O)c1ccc(-c3c4nc(c(-c5c(F)cc(S(=O)(=O)[O-])cc5F)c5ccc([nH]5)c(-c5c(F)cc(S(=O)(=O)[O-])cc5F)c5nc(c(-c6c(F)cc(S(=O)(=O)[O-])cc6F)c6ccc3[nH]6)C=C5)C=C4)cc1)[C@@H](C(F)(F)F)O2
REMARK SMILES IDX 20 1 19 2 18 3 16 4 17 5 15 7 7 8 8 9 12 10 9 11 11 12 13 13
REMARK SMILES IDX 10 14 97 15 14 16 92 17 6 18 4 19 5 20 2 22 1 23 3 24 93 25
REMARK SMILES IDX 94 26 95 27 96 28 21 29 22 30 23 31 24 32 25 34 26 35 27 36
REMARK SMILES IDX 91 37 28 38 90 39 29 40 30 41 31 42 84 43 32 44 89 45 83 46
REMARK SMILES IDX 85 47 33 48 88 49 82 50 81 51 34 53 68 54 47 55 67 56 48 57
REMARK SMILES IDX 51 58 66 59 86 60 49 61 50 62 65 64 87 65 52 66 35 67 36 68
REMARK SMILES IDX 45 69 37 70 38 71 44 72 46 73 39 74 40 75 41 76 42 77 43 78
REMARK SMILES IDX 69 79 70 80 79 81 71 82 72 83 78 84 80 85 73 86 74 87 75 88
REMARK SMILES IDX 76 89 77 90 53 91 54 92 63 93 55 94 56 95 62 96 64 97 57 98
REMARK SMILES IDX 58 99 59 100 60 101 61 102
REMARK H PARENT 18 6 4 21 23 33 85 52 51 63
REMARK Flexibility Score: inf
ROOT
ATOM      1  C   UNL A   1      37.177  22.359  25.610  1.00  0.00     0.023 C 
ENDROOT
BRANCH   1   2
ATOM      2  C   UNL A   1      36.711  21.052  24.978  1.00  0.00     0.116 C 
BRANCH   2   3
ATOM      3  N   UNL A   1      35.363  20.695  25.374  1.00  0.00    -0.352 N 
ATOM      4  C   UNL A   1      34.155  21.306  25.374  1.00  0.00     0.251 C 
ATOM      5  O   UNL A   1      33.216  20.640  25.818  1.00  0.00    -0.270 OA
ATOM      6  H   UNL A   1      35.313  19.780  25.733  1.00  0.00     0.163 HD
BRANCH   4   7
ATOM      7  C   UNL A   1      33.905  22.696  24.889  1.00  0.00     0.067 C 
ATOM      8  C   UNL A   1      32.744  27.627  24.775  1.00  0.00     0.029 A 
ATOM      9  C   UNL A   1      33.109  26.670  23.808  1.00  0.00     0.058 A 
ATOM     10  C   UNL A   1      32.755  27.231  26.124  1.00  0.00     0.050 A 
ATOM     11  C   UNL A   1      33.409  25.356  24.170  1.00  0.00     0.128 A 
ATOM     12  C   UNL A   1      33.015  25.901  26.475  1.00  0.00     0.033 A 
ATOM     13  Cl  UNL A   1      32.520  28.330  27.439  1.00  0.00    -0.084 Cl
ATOM     14  C   UNL A   1      33.338  24.959  25.498  1.00  0.00     0.019 A 
ATOM     15  O   UNL A   1      33.816  24.530  23.166  1.00  0.00    -0.475 OA
ATOM     16  C   UNL A   1      33.642  23.587  25.861  1.00  0.00     0.025 C 
ATOM     17  C   UNL A   1      33.878  23.100  23.440  1.00  0.00     0.314 C 
BRANCH   8  18
ATOM     18  C   UNL A   1      32.465  29.039  24.296  1.00  0.00     0.300 C 
BRANCH  18  19
ATOM     19  N   UNL A   1      31.090  29.504  24.497  1.00  0.00    -0.332 N 
ATOM     20  C   UNL A   1      31.056  30.754  25.251  1.00  0.00     0.333 C 
ATOM     21  H   UNL A   1      30.677  28.758  25.057  1.00  0.00     0.348 HD
BRANCH  19  22
ATOM     22  C   UNL A   1      30.185  29.512  23.335  1.00  0.00     0.177 C 
ATOM     23  C   UNL A   1      29.600  28.152  22.942  1.00  0.00     0.075 C 
ATOM     24  C   UNL A   1      29.057  30.540  23.488  1.00  0.00     0.075 C 
ENDBRANCH  19  22
ENDBRANCH  18  19
ENDBRANCH   8  18
BRANCH  17  25
ATOM     25  C   UNL A   1      32.749  22.430  22.637  1.00  0.00     0.429 C 
ATOM     26  F   UNL A   1      32.904  22.686  21.311  1.00  0.00    -0.167 F 
ATOM     27  F   UNL A   1      32.727  21.086  22.766  1.00  0.00    -0.167 F 
ATOM     28  F   UNL A   1      31.526  22.887  22.992  1.00  0.00    -0.167 F 
ENDBRANCH  17  25
ENDBRANCH   4   7
ENDBRANCH   2   3
ENDBRANCH   1   2
BRANCH   1  29
ATOM     29  C   UNL A   1      38.600  22.321  26.173  1.00  0.00     0.023 C 
BRANCH  29  30
ATOM     30  C   UNL A   1      39.190  23.677  26.552  1.00  0.00     0.116 C 
BRANCH  30  31
ATOM     31  N   UNL A   1      40.569  23.874  26.126  1.00  0.00    -0.352 N 
ATOM     32  C   UNL A   1      41.412  24.908  26.484  1.00  0.00     0.251 C 
ATOM     33  H   UNL A   1      40.941  23.197  25.517  1.00  0.00     0.163 HD
ATOM     34  O   UNL A   1      42.536  25.003  26.000  1.00  0.00    -0.269 OA
BRANCH  32  35
ATOM     35  C   UNL A   1      40.898  25.928  27.418  1.00  0.00     0.039 A 
ATOM     36  C   UNL A   1      41.410  27.223  27.374  1.00  0.00     0.014 A 
ATOM     37  C   UNL A   1      40.015  25.541  28.429  1.00  0.00     0.014 A 
ATOM     38  C   UNL A   1      41.196  28.071  28.451  1.00  0.00     0.010 A 
ATOM     39  C   UNL A   1      39.729  26.433  29.467  1.00  0.00     0.010 A 
ATOM     40  C   UNL A   1      40.373  27.680  29.521  1.00  0.00    -0.014 A 
BRANCH  40  41
ATOM     41  C   UNL A   1      40.244  28.584  30.695  1.00  0.00     0.031 A 
ATOM     42  C   UNL A   1      41.241  28.531  31.824  1.00  0.00     0.074 A 
ATOM     43  C   UNL A   1      39.282  29.529  30.685  1.00  0.00     0.049 A 
ATOM     44  N   UNL A   1      41.329  29.302  32.878  1.00  0.00    -0.248 NA
ATOM     45  C   UNL A   1      42.269  27.478  31.769  1.00  0.00     0.031 C 
ATOM     46  C   UNL A   1      38.268  29.683  29.639  1.00  0.00     0.029 A 
ATOM     47  N   UNL A   1      39.028  30.563  31.548  1.00  0.00    -0.354 N 
ATOM     48  C   UNL A   1      42.405  28.821  33.617  1.00  0.00     0.074 A 
ATOM     49  C   UNL A   1      42.922  27.672  32.907  1.00  0.00     0.031 C 
ATOM     50  C   UNL A   1      37.555  30.792  29.879  1.00  0.00     0.029 A 
ATOM     51  C   UNL A   1      38.016  31.393  31.126  1.00  0.00     0.049 A 
ATOM     52  H   UNL A   1      39.521  30.698  32.389  1.00  0.00     0.167 HD
ATOM     53  C   UNL A   1      42.923  29.304  34.771  1.00  0.00     0.037 A 
ATOM     54  C   UNL A   1      37.514  32.513  31.679  1.00  0.00     0.037 A 
ATOM     55  C   UNL A   1      42.427  30.470  35.455  1.00  0.00     0.049 A 
ATOM     56  C   UNL A   1      38.086  33.009  32.974  1.00  0.00     0.074 A 
ATOM     57  C   UNL A   1      42.902  31.053  36.617  1.00  0.00     0.029 A 
ATOM     58  N   UNL A   1      41.349  31.236  35.035  1.00  0.00    -0.354 N 
ATOM     59  N   UNL A   1      39.103  32.539  33.656  1.00  0.00    -0.248 NA
ATOM     60  C   UNL A   1      37.433  34.173  33.588  1.00  0.00     0.031 C 
ATOM     61  C   UNL A   1      42.089  32.149  36.920  1.00  0.00     0.029 A 
ATOM     62  C   UNL A   1      41.130  32.272  35.927  1.00  0.00     0.049 A 
ATOM     63  H   UNL A   1      40.818  31.068  34.223  1.00  0.00     0.167 HD
ATOM     64  C   UNL A   1      39.210  33.346  34.781  1.00  0.00     0.074 A 
ATOM     65  C   UNL A   1      38.170  34.350  34.677  1.00  0.00     0.031 C 
ATOM     66  C   UNL A   1      40.084  33.257  35.812  1.00  0.00     0.037 A 
BRANCH  53  67
ATOM     67  C   UNL A   1      44.090  28.576  35.378  1.00  0.00     0.058 A 
ATOM     68  C   UNL A   1      43.908  27.539  36.306  1.00  0.00     0.135 A 
ATOM     69  C   UNL A   1      45.404  28.875  34.980  1.00  0.00     0.135 A 
ATOM     70  F   UNL A   1      42.674  27.222  36.732  1.00  0.00    -0.206 F 
ATOM     71  C   UNL A   1      44.987  26.835  36.832  1.00  0.00     0.059 A 
ATOM     72  C   UNL A   1      46.498  28.171  35.478  1.00  0.00     0.059 A 
ATOM     73  F   UNL A   1      45.634  29.857  34.095  1.00  0.00    -0.206 F 
ATOM     74  C   UNL A   1      46.279  27.158  36.411  1.00  0.00     0.060 A 
BRANCH  74  75
ATOM     75  S   UNL A   1      47.666  26.228  37.099  1.00  0.00     0.124 S 
ATOM     76  O   UNL A   1      47.763  26.801  38.439  1.00  0.00    -0.237 OA
ATOM     77  O   UNL A   1      47.184  24.853  37.031  1.00  0.00    -0.237 OA
ATOM     78  O   UNL A   1      48.770  26.549  36.200  1.00  0.00    -0.744 OA
ENDBRANCH  74  75
ENDBRANCH  53  67
BRANCH  54  79
ATOM     79  C   UNL A   1      36.408  33.233  30.998  1.00  0.00     0.058 A 
ATOM     80  C   UNL A   1      35.117  33.252  31.545  1.00  0.00     0.135 A 
ATOM     81  C   UNL A   1      36.631  33.957  29.817  1.00  0.00     0.135 A 
ATOM     82  F   UNL A   1      34.855  32.570  32.671  1.00  0.00    -0.206 F 
ATOM     83  C   UNL A   1      34.085  33.967  30.947  1.00  0.00     0.059 A 
ATOM     84  C   UNL A   1      35.621  34.699  29.213  1.00  0.00     0.059 A 
ATOM     85  F   UNL A   1      37.853  33.981  29.264  1.00  0.00    -0.206 F 
ATOM     86  C   UNL A   1      34.350  34.693  29.783  1.00  0.00     0.060 A 
BRANCH  86  87
ATOM     87  S   UNL A   1      33.022  35.674  29.053  1.00  0.00     0.124 S 
ATOM     88  O   UNL A   1      32.470  34.742  28.078  1.00  0.00    -0.237 OA
ATOM     89  O   UNL A   1      32.180  35.962  30.210  1.00  0.00    -0.237 OA
ATOM     90  O   UNL A   1      33.725  36.828  28.498  1.00  0.00    -0.744 OA
ENDBRANCH  86  87
ENDBRANCH  54  79
BRANCH  66  91
ATOM     91  C   UNL A   1      39.952  34.257  36.922  1.00  0.00     0.058 A 
ATOM     92  C   UNL A   1      40.561  35.518  36.837  1.00  0.00     0.135 A 
ATOM     93  C   UNL A   1      39.135  33.991  38.032  1.00  0.00     0.135 A 
ATOM     94  F   UNL A   1      41.358  35.814  35.798  1.00  0.00    -0.206 F 
ATOM     95  C   UNL A   1      40.363  36.485  37.816  1.00  0.00     0.059 A 
ATOM     96  C   UNL A   1      38.908  34.951  39.014  1.00  0.00     0.059 A 
ATOM     97  F   UNL A   1      38.527  32.801  38.155  1.00  0.00    -0.206 F 
ATOM     98  C   UNL A   1      39.528  36.195  38.896  1.00  0.00     0.060 A 
BRANCH  98  99
ATOM     99  S   UNL A   1      39.222  37.488  40.118  1.00  0.00     0.124 S 
ATOM    100  O   UNL A   1      38.842  36.704  41.289  1.00  0.00    -0.237 OA
ATOM    101  O   UNL A   1      40.517  38.155  40.196  1.00  0.00    -0.237 OA
ATOM    102  O   UNL A   1      38.152  38.279  39.517  1.00  0.00    -0.744 OA
ENDBRANCH  98  99
ENDBRANCH  66  91
ENDBRANCH  40  41
ENDBRANCH  32  35
ENDBRANCH  30  31
ENDBRANCH  29  30
ENDBRANCH   1  29
TORSDOF 18
ENDMDL
MODEL 3
REMARK VINA RESULT:     -12.0      1.150      2.068
REMARK SMILES CC(C)[N@H+](C)Cc1cc2c(cc1Cl)C=C(C(=O)NCCCCNC(=O)c1ccc(-c3c4nc(c(-c5c(F)cc(S(=O)(=O)[O-])cc5F)c5ccc([nH]5)c(-c5c(F)cc(S(=O)(=O)[O-])cc5F)c5nc(c(-c6c(F)cc(S(=O)(=O)[O-])cc6F)c6ccc3[nH]6)C=C5)C=C4)cc1)[C@@H](C(F)(F)F)O2
REMARK SMILES IDX 20 1 19 2 18 3 16 4 17 5 15 7 7 8 8 9 12 10 9 11 11 12 13 13
REMARK SMILES IDX 10 14 97 15 14 16 92 17 6 18 4 19 5 20 2 22 1 23 3 24 93 25
REMARK SMILES IDX 94 26 95 27 96 28 21 29 22 30 23 31 24 32 25 34 26 35 27 36
REMARK SMILES IDX 91 37 28 38 90 39 29 40 30 41 31 42 84 43 32 44 89 45 83 46
REMARK SMILES IDX 85 47 33 48 88 49 82 50 81 51 34 53 68 54 47 55 67 56 48 57
REMARK SMILES IDX 51 58 66 59 86 60 49 61 50 62 65 64 87 65 52 66 35 67 36 68
REMARK SMILES IDX 45 69 37 70 38 71 44 72 46 73 39 74 40 75 41 76 42 77 43 78
REMARK SMILES IDX 69 79 70 80 79 81 71 82 72 83 78 84 80 85 73 86 74 87 75 88
REMARK SMILES IDX 76 89 77 90 53 91 54 92 63 93 55 94 56 95 62 96 64 97 57 98
REMARK SMILES IDX 58 99 59 100 60 101 61 102
REMARK H PARENT 18 6 4 21 23 33 85 52 51 63
REMARK Flexibility Score: inf
ROOT
ATOM      1  C   UNL A   1      37.609  21.962  25.897  1.00  0.00     0.023 C 
ENDROOT
BRANCH   1   2
ATOM      2  C   UNL A   1      37.020  21.471  24.578  1.00  0.00     0.116 C 
BRANCH   2   3
ATOM      3  N   UNL A   1      36.075  20.388  24.763  1.00  0.00    -0.352 N 
ATOM      4  C   UNL A   1      34.731  20.280  24.891  1.00  0.00     0.251 C 
ATOM      5  O   UNL A   1      34.297  19.135  25.044  1.00  0.00    -0.270 OA
ATOM      6  H   UNL A   1      36.520  19.511  24.806  1.00  0.00     0.163 HD
BRANCH   4   7
ATOM      7  C   UNL A   1      33.780  21.431  24.863  1.00  0.00     0.067 C 
ATOM      8  C   UNL A   1      31.271  25.576  23.381  1.00  0.00     0.029 A 
ATOM      9  C   UNL A   1      31.244  24.755  24.524  1.00  0.00     0.058 A 
ATOM     10  C   UNL A   1      32.101  25.187  22.315  1.00  0.00     0.050 A 
ATOM     11  C   UNL A   1      32.061  23.628  24.624  1.00  0.00     0.128 A 
ATOM     12  C   UNL A   1      32.950  24.080  22.439  1.00  0.00     0.033 A 
ATOM     13  Cl  UNL A   1      32.105  25.975  20.775  1.00  0.00    -0.084 Cl
ATOM     14  C   UNL A   1      32.935  23.301  23.596  1.00  0.00     0.019 A 
ATOM     15  O   UNL A   1      31.907  22.866  25.742  1.00  0.00    -0.475 OA
ATOM     16  C   UNL A   1      33.788  22.132  23.716  1.00  0.00     0.025 C 
ATOM     17  C   UNL A   1      32.911  21.847  26.019  1.00  0.00     0.314 C 
BRANCH   8  18
ATOM     18  C   UNL A   1      30.326  26.762  23.344  1.00  0.00     0.300 C 
BRANCH  18  19
ATOM     19  N   UNL A   1      30.972  28.075  23.436  1.00  0.00    -0.332 N 
ATOM     20  C   UNL A   1      29.986  29.151  23.476  1.00  0.00     0.333 C 
ATOM     21  H   UNL A   1      31.499  28.130  22.564  1.00  0.00     0.348 HD
BRANCH  19  22
ATOM     22  C   UNL A   1      32.050  28.250  24.424  1.00  0.00     0.177 C 
ATOM     23  C   UNL A   1      33.097  29.315  24.080  1.00  0.00     0.075 C 
ATOM     24  C   UNL A   1      31.506  28.490  25.837  1.00  0.00     0.075 C 
ENDBRANCH  19  22
ENDBRANCH  18  19
ENDBRANCH   8  18
BRANCH  17  25
ATOM     25  C   UNL A   1      33.709  22.311  27.250  1.00  0.00     0.429 C 
ATOM     26  F   UNL A   1      32.870  22.518  28.298  1.00  0.00    -0.167 F 
ATOM     27  F   UNL A   1      34.624  21.409  27.665  1.00  0.00    -0.167 F 
ATOM     28  F   UNL A   1      34.365  23.473  27.027  1.00  0.00    -0.167 F 
ENDBRANCH  17  25
ENDBRANCH   4   7
ENDBRANCH   2   3
ENDBRANCH   1   2
BRANCH   1  29
ATOM     29  C   UNL A   1      37.450  23.464  26.144  1.00  0.00     0.023 C 
BRANCH  29  30
ATOM     30  C   UNL A   1      38.645  24.148  26.803  1.00  0.00     0.116 C 
BRANCH  30  31
ATOM     31  N   UNL A   1      39.630  24.676  25.868  1.00  0.00    -0.352 N 
ATOM     32  C   UNL A   1      40.591  25.634  26.122  1.00  0.00     0.251 C 
ATOM     33  H   UNL A   1      39.608  24.309  24.955  1.00  0.00     0.163 HD
ATOM     34  O   UNL A   1      41.321  26.049  25.227  1.00  0.00    -0.269 OA
BRANCH  32  35
ATOM     35  C   UNL A   1      40.672  26.187  27.488  1.00  0.00     0.039 A 
ATOM     36  C   UNL A   1      39.581  26.066  28.346  1.00  0.00     0.014 A 
ATOM     37  C   UNL A   1      41.783  26.953  27.847  1.00  0.00     0.014 A 
ATOM     38  C   UNL A   1      39.516  26.870  29.475  1.00  0.00     0.010 A 
ATOM     39  C   UNL A   1      41.751  27.693  29.033  1.00  0.00     0.010 A 
ATOM     40  C   UNL A   1      40.589  27.710  29.821  1.00  0.00    -0.014 A 
BRANCH  40  41
ATOM     41  C   UNL A   1      40.440  28.619  30.988  1.00  0.00     0.031 A 
ATOM     42  C   UNL A   1      41.410  28.561  32.141  1.00  0.00     0.074 A 
ATOM     43  C   UNL A   1      39.488  29.572  30.953  1.00  0.00     0.049 A 
ATOM     44  N   UNL A   1      41.480  29.334  33.195  1.00  0.00    -0.248 NA
ATOM     45  C   UNL A   1      42.430  27.499  32.114  1.00  0.00     0.031 C 
ATOM     46  C   UNL A   1      38.500  29.732  29.882  1.00  0.00     0.029 A 
ATOM     47  N   UNL A   1      39.222  30.611  31.806  1.00  0.00    -0.354 N 
ATOM     48  C   UNL A   1      42.533  28.847  33.961  1.00  0.00     0.074 A 
ATOM     49  C   UNL A   1      43.057  27.691  33.267  1.00  0.00     0.031 C 
ATOM     50  C   UNL A   1      37.791  30.848  30.101  1.00  0.00     0.029 A 
ATOM     51  C   UNL A   1      38.228  31.449  31.358  1.00  0.00     0.049 A 
ATOM     52  H   UNL A   1      39.696  30.744  32.658  1.00  0.00     0.167 HD
ATOM     53  C   UNL A   1      43.028  29.329  35.126  1.00  0.00     0.037 A 
ATOM     54  C   UNL A   1      37.722  32.574  31.895  1.00  0.00     0.037 A 
ATOM     55  C   UNL A   1      42.525  30.500  35.794  1.00  0.00     0.049 A 
ATOM     56  C   UNL A   1      38.268  33.069  33.203  1.00  0.00     0.074 A 
ATOM     57  C   UNL A   1      42.978  31.083  36.965  1.00  0.00     0.029 A 
ATOM     58  N   UNL A   1      41.465  31.275  35.346  1.00  0.00    -0.354 N 
ATOM     59  N   UNL A   1      39.264  32.593  33.910  1.00  0.00    -0.248 NA
ATOM     60  C   UNL A   1      37.610  34.241  33.797  1.00  0.00     0.031 C 
ATOM     61  C   UNL A   1      42.167  32.187  37.246  1.00  0.00     0.029 A 
ATOM     62  C   UNL A   1      41.233  32.315  36.230  1.00  0.00     0.049 A 
ATOM     63  H   UNL A   1      40.952  31.109  34.522  1.00  0.00     0.167 HD
ATOM     64  C   UNL A   1      39.351  33.403  35.035  1.00  0.00     0.074 A 
ATOM     65  C   UNL A   1      38.322  34.415  34.903  1.00  0.00     0.031 C 
ATOM     66  C   UNL A   1      40.199  33.309  36.086  1.00  0.00     0.037 A 
BRANCH  53  67
ATOM     67  C   UNL A   1      44.173  28.592  35.762  1.00  0.00     0.058 A 
ATOM     68  C   UNL A   1      45.507  28.931  35.491  1.00  0.00     0.135 A 
ATOM     69  C   UNL A   1      43.934  27.576  36.703  1.00  0.00     0.135 A 
ATOM     70  F   UNL A   1      45.792  29.885  34.589  1.00  0.00    -0.206 F 
ATOM     71  C   UNL A   1      46.566  28.279  36.116  1.00  0.00     0.059 A 
ATOM     72  C   UNL A   1      44.977  26.923  37.356  1.00  0.00     0.059 A 
ATOM     73  F   UNL A   1      42.677  27.212  37.000  1.00  0.00    -0.206 F 
ATOM     74  C   UNL A   1      46.291  27.275  37.047  1.00  0.00     0.060 A 
BRANCH  74  75
ATOM     75  S   UNL A   1      47.677  26.446  37.854  1.00  0.00     0.124 S 
ATOM     76  O   UNL A   1      48.169  27.498  38.739  1.00  0.00    -0.237 OA
ATOM     77  O   UNL A   1      47.026  25.318  38.512  1.00  0.00    -0.237 OA
ATOM     78  O   UNL A   1      48.559  26.098  36.745  1.00  0.00    -0.744 OA
ENDBRANCH  74  75
ENDBRANCH  53  67
BRANCH  54  79
ATOM     79  C   UNL A   1      36.639  33.302  31.186  1.00  0.00     0.058 A 
ATOM     80  C   UNL A   1      36.907  34.034  30.021  1.00  0.00     0.135 A 
ATOM     81  C   UNL A   1      35.309  33.239  31.631  1.00  0.00     0.135 A 
ATOM     82  F   UNL A   1      38.164  34.127  29.561  1.00  0.00    -0.206 F 
ATOM     83  C   UNL A   1      35.893  34.677  29.317  1.00  0.00     0.059 A 
ATOM     84  C   UNL A   1      34.276  33.853  30.931  1.00  0.00     0.059 A 
ATOM     85  F   UNL A   1      35.002  32.539  32.733  1.00  0.00    -0.206 F 
ATOM     86  C   UNL A   1      34.579  34.574  29.778  1.00  0.00     0.060 A 
BRANCH  86  87
ATOM     87  S   UNL A   1      33.261  35.352  28.820  1.00  0.00     0.124 S 
ATOM     88  O   UNL A   1      34.009  36.313  28.019  1.00  0.00    -0.237 OA
ATOM     89  O   UNL A   1      32.698  34.217  28.096  1.00  0.00    -0.237 OA
ATOM     90  O   UNL A   1      32.393  35.923  29.847  1.00  0.00    -0.744 OA
ENDBRANCH  86  87
ENDBRANCH  54  79
BRANCH  66  91
ATOM     91  C   UNL A   1      40.049  34.314  37.191  1.00  0.00     0.058 A 
ATOM     92  C   UNL A   1      40.717  35.546  37.143  1.00  0.00     0.135 A 
ATOM     93  C   UNL A   1      39.160  34.084  38.252  1.00  0.00     0.135 A 
ATOM     94  F   UNL A   1      41.583  35.807  36.151  1.00  0.00    -0.206 F 
ATOM     95  C   UNL A   1      40.507  36.521  38.112  1.00  0.00     0.059 A 
ATOM     96  C   UNL A   1      38.921  35.053  39.222  1.00  0.00     0.059 A 
ATOM     97  F   UNL A   1      38.494  32.922  38.338  1.00  0.00    -0.206 F 
ATOM     98  C   UNL A   1      39.601  36.268  39.143  1.00  0.00     0.060 A 
BRANCH  98  99
ATOM     99  S   UNL A   1      39.284  37.572  40.350  1.00  0.00     0.124 S 
ATOM    100  O   UNL A   1      40.577  38.247  40.401  1.00  0.00    -0.237 OA
ATOM    101  O   UNL A   1      38.202  38.323  39.721  1.00  0.00    -0.237 OA
ATOM    102  O   UNL A   1      38.910  36.838  41.555  1.00  0.00    -0.744 OA
ENDBRANCH  98  99
ENDBRANCH  66  91
ENDBRANCH  40  41
ENDBRANCH  32  35
ENDBRANCH  30  31
ENDBRANCH  29  30
ENDBRANCH   1  29
TORSDOF 18
ENDMDL
