MODEL 1
REMARK VINA RESULT:     -12.2      0.000      0.000
REMARK SMILES Cc1cc(C)c2c(c1)C=C(C(=O)NCCCCNC(=O)c1ccc(-c3c4nc(c(-c5c(F)cc(S(=O)(=O)[O-])cc5F)c5ccc([nH]5)c(-c5c(F)cc(S(=O)(=O)[O-])cc5F)c5nc(c(-c6c(F)cc(S(=O)(=O)[O-])cc6F)c6ccc3[nH]6)C=C5)C=C4)cc1)[C@@H](C(F)(F)F)O2
REMARK SMILES IDX 16 1 15 2 14 3 13 4 11 5 12 6 10 8 1 9 2 10 3 11 8 12 4 13
REMARK SMILES IDX 7 14 5 15 6 16 9 17 92 18 87 19 88 20 89 21 90 22 91 23
REMARK SMILES IDX 17 24 18 25 19 26 20 28 21 29 22 30 86 31 23 32 85 33 24 34
REMARK SMILES IDX 25 35 26 36 79 37 27 38 84 39 78 40 80 41 28 42 83 43 77 44
REMARK SMILES IDX 76 45 29 47 63 48 42 49 62 50 43 51 46 52 61 53 81 54 44 55
REMARK SMILES IDX 45 56 60 58 82 59 47 60 30 61 31 62 40 63 32 64 33 65 39 66
REMARK SMILES IDX 41 67 34 68 35 69 36 70 37 71 38 72 64 73 65 74 74 75 66 76
REMARK SMILES IDX 67 77 73 78 75 79 68 80 69 81 70 82 71 83 72 84 48 85 49 86
REMARK SMILES IDX 58 87 50 88 51 89 57 90 59 91 52 92 53 93 54 94 55 95 56 96
REMARK H PARENT 13 7 18 27 80 46 46 57
REMARK Flexibility Score: inf
ROOT
ATOM      1  C   UNL A   1      32.550  27.942  26.232  1.00  0.00     0.023 C 
ENDROOT
BRANCH   1   2
ATOM      2  C   UNL A   1      32.691  28.566  24.841  1.00  0.00     0.023 C 
BRANCH   2   3
ATOM      3  C   UNL A   1      31.699  28.029  23.813  1.00  0.00     0.116 C 
BRANCH   3   4
ATOM      4  N   UNL A   1      32.368  27.406  22.686  1.00  0.00    -0.352 N 
ATOM      5  C   UNL A   1      33.042  26.257  22.449  1.00  0.00     0.251 C 
ATOM      6  O   UNL A   1      33.467  26.125  21.296  1.00  0.00    -0.270 OA
ATOM      7  H   UNL A   1      32.317  27.969  21.879  1.00  0.00     0.163 HD
BRANCH   5   8
ATOM      8  C   UNL A   1      33.295  25.180  23.452  1.00  0.00     0.067 C 
ATOM      9  C   UNL A   1      37.434  20.785  24.813  1.00  0.00     0.044 C 
ATOM     10  C   UNL A   1      36.234  21.663  25.011  1.00  0.00    -0.050 A 
ATOM     11  C   UNL A   1      35.393  21.456  26.114  1.00  0.00     0.010 A 
ATOM     12  C   UNL A   1      35.934  22.686  24.102  1.00  0.00     0.015 A 
ATOM     13  C   UNL A   1      34.266  22.260  26.321  1.00  0.00    -0.008 A 
ATOM     14  C   UNL A   1      34.806  23.491  24.290  1.00  0.00     0.018 A 
ATOM     15  C   UNL A   1      33.370  22.027  27.503  1.00  0.00     0.048 C 
ATOM     16  C   UNL A   1      33.978  23.270  25.393  1.00  0.00     0.130 A 
ATOM     17  C   UNL A   1      34.497  24.579  23.371  1.00  0.00     0.025 C 
ATOM     18  O   UNL A   1      32.884  24.055  25.637  1.00  0.00    -0.475 OA
ATOM     19  C   UNL A   1      32.301  24.718  24.480  1.00  0.00     0.314 C 
BRANCH  19  20
ATOM     20  C   UNL A   1      31.199  23.824  23.883  1.00  0.00     0.429 C 
ATOM     21  F   UNL A   1      30.622  23.072  24.856  1.00  0.00    -0.167 F 
ATOM     22  F   UNL A   1      30.202  24.539  23.311  1.00  0.00    -0.167 F 
ATOM     23  F   UNL A   1      31.664  22.973  22.941  1.00  0.00    -0.167 F 
ENDBRANCH  19  20
ENDBRANCH   5   8
ENDBRANCH   3   4
ENDBRANCH   2   3
ENDBRANCH   1   2
BRANCH   1  24
ATOM     24  C   UNL A   1      33.595  28.380  27.260  1.00  0.00     0.116 C 
BRANCH  24  25
ATOM     25  N   UNL A   1      33.477  29.776  27.660  1.00  0.00    -0.352 N 
ATOM     26  C   UNL A   1      34.449  30.585  28.197  1.00  0.00     0.251 C 
ATOM     27  H   UNL A   1      32.593  30.190  27.529  1.00  0.00     0.163 HD
ATOM     28  O   UNL A   1      34.181  31.726  28.560  1.00  0.00    -0.269 OA
BRANCH  26  29
ATOM     29  C   UNL A   1      35.808  30.039  28.372  1.00  0.00     0.039 A 
ATOM     30  C   UNL A   1      36.686  30.061  27.287  1.00  0.00     0.014 A 
ATOM     31  C   UNL A   1      36.226  29.577  29.623  1.00  0.00     0.014 A 
ATOM     32  C   UNL A   1      38.016  29.686  27.477  1.00  0.00     0.010 A 
ATOM     33  C   UNL A   1      37.565  29.257  29.822  1.00  0.00     0.010 A 
ATOM     34  C   UNL A   1      38.472  29.317  28.753  1.00  0.00    -0.014 A 
BRANCH  34  35
ATOM     35  C   UNL A   1      39.899  28.994  28.993  1.00  0.00     0.031 A 
ATOM     36  C   UNL A   1      40.812  30.032  29.577  1.00  0.00     0.074 A 
ATOM     37  C   UNL A   1      40.378  27.787  28.632  1.00  0.00     0.049 A 
ATOM     38  N   UNL A   1      42.101  29.972  29.788  1.00  0.00    -0.248 NA
ATOM     39  C   UNL A   1      40.199  31.317  29.951  1.00  0.00     0.031 C 
ATOM     40  C   UNL A   1      39.593  26.711  28.022  1.00  0.00     0.029 A 
ATOM     41  N   UNL A   1      41.643  27.264  28.720  1.00  0.00    -0.354 N 
ATOM     42  C   UNL A   1      42.455  31.208  30.310  1.00  0.00     0.074 A 
ATOM     43  C   UNL A   1      41.255  32.017  30.338  1.00  0.00     0.031 C 
ATOM     44  C   UNL A   1      40.388  25.649  27.817  1.00  0.00     0.029 A 
ATOM     45  C   UNL A   1      41.744  25.977  28.249  1.00  0.00     0.049 A 
ATOM     46  H   UNL A   1      42.408  27.766  29.085  1.00  0.00     0.167 HD
ATOM     47  C   UNL A   1      43.666  31.625  30.748  1.00  0.00     0.037 A 
ATOM     48  C   UNL A   1      42.808  25.156  28.175  1.00  0.00     0.037 A 
ATOM     49  C   UNL A   1      44.851  30.809  30.741  1.00  0.00     0.049 A 
ATOM     50  C   UNL A   1      44.143  25.640  28.669  1.00  0.00     0.074 A 
ATOM     51  C   UNL A   1      46.120  31.126  31.193  1.00  0.00     0.029 A 
ATOM     52  N   UNL A   1      44.910  29.506  30.266  1.00  0.00    -0.354 N 
ATOM     53  N   UNL A   1      44.456  26.806  29.181  1.00  0.00    -0.248 NA
ATOM     54  C   UNL A   1      45.268  24.701  28.574  1.00  0.00     0.031 C 
ATOM     55  C   UNL A   1      46.951  30.023  30.969  1.00  0.00     0.029 A 
ATOM     56  C   UNL A   1      46.194  29.008  30.408  1.00  0.00     0.049 A 
ATOM     57  H   UNL A   1      44.151  29.010  29.883  1.00  0.00     0.167 HD
ATOM     58  C   UNL A   1      45.810  26.735  29.487  1.00  0.00     0.074 A 
ATOM     59  C   UNL A   1      46.255  25.408  29.111  1.00  0.00     0.031 C 
ATOM     60  C   UNL A   1      46.614  27.683  30.029  1.00  0.00     0.037 A 
BRANCH  47  61
ATOM     61  C   UNL A   1      43.761  33.023  31.286  1.00  0.00     0.058 A 
ATOM     62  C   UNL A   1      44.002  34.115  30.437  1.00  0.00     0.135 A 
ATOM     63  C   UNL A   1      43.596  33.279  32.656  1.00  0.00     0.135 A 
ATOM     64  F   UNL A   1      44.187  33.921  29.122  1.00  0.00    -0.206 F 
ATOM     65  C   UNL A   1      44.100  35.412  30.931  1.00  0.00     0.059 A 
ATOM     66  C   UNL A   1      43.668  34.572  33.170  1.00  0.00     0.059 A 
ATOM     67  F   UNL A   1      43.368  32.270  33.510  1.00  0.00    -0.206 F 
ATOM     68  C   UNL A   1      43.935  35.629  32.300  1.00  0.00     0.060 A 
BRANCH  68  69
ATOM     69  S   UNL A   1      44.067  37.317  32.926  1.00  0.00     0.124 S 
ATOM     70  O   UNL A   1      43.987  38.091  31.690  1.00  0.00    -0.237 OA
ATOM     71  O   UNL A   1      42.910  37.416  33.810  1.00  0.00    -0.237 OA
ATOM     72  O   UNL A   1      45.365  37.332  33.593  1.00  0.00    -0.744 OA
ENDBRANCH  68  69
ENDBRANCH  47  61
BRANCH  48  73
ATOM     73  C   UNL A   1      42.643  23.777  27.649  1.00  0.00     0.058 A 
ATOM     74  C   UNL A   1      42.496  22.691  28.524  1.00  0.00     0.135 A 
ATOM     75  C   UNL A   1      42.598  23.519  26.271  1.00  0.00     0.135 A 
ATOM     76  F   UNL A   1      42.538  22.890  29.850  1.00  0.00    -0.206 F 
ATOM     77  C   UNL A   1      42.315  21.395  28.053  1.00  0.00     0.059 A 
ATOM     78  C   UNL A   1      42.400  22.234  25.775  1.00  0.00     0.059 A 
ATOM     79  F   UNL A   1      42.720  24.528  25.394  1.00  0.00    -0.206 F 
ATOM     80  C   UNL A   1      42.264  21.177  26.675  1.00  0.00     0.060 A 
BRANCH  80  81
ATOM     81  S   UNL A   1      41.961  19.500  26.076  1.00  0.00     0.124 S 
ATOM     82  O   UNL A   1      42.385  18.699  27.219  1.00  0.00    -0.237 OA
ATOM     83  O   UNL A   1      40.526  19.524  25.810  1.00  0.00    -0.237 OA
ATOM     84  O   UNL A   1      42.809  19.410  24.891  1.00  0.00    -0.744 OA
ENDBRANCH  80  81
ENDBRANCH  48  73
BRANCH  60  85
ATOM     85  C   UNL A   1      48.050  27.317  30.264  1.00  0.00     0.058 A 
ATOM     86  C   UNL A   1      49.048  27.640  29.333  1.00  0.00     0.135 A 
ATOM     87  C   UNL A   1      48.439  26.696  31.461  1.00  0.00     0.135 A 
ATOM     88  F   UNL A   1      48.723  28.228  28.171  1.00  0.00    -0.206 F 
ATOM     89  C   UNL A   1      50.386  27.349  29.576  1.00  0.00     0.059 A 
ATOM     90  C   UNL A   1      49.774  26.413  31.734  1.00  0.00     0.059 A 
ATOM     91  F   UNL A   1      47.520  26.375  32.387  1.00  0.00    -0.206 F 
ATOM     92  C   UNL A   1      50.740  26.737  30.781  1.00  0.00     0.060 A 
BRANCH  92  93
ATOM     93  S   UNL A   1      52.484  26.406  31.104  1.00  0.00     0.124 S 
ATOM     94  O   UNL A   1      52.879  27.604  31.838  1.00  0.00    -0.237 OA
ATOM     95  O   UNL A   1      52.431  25.174  31.885  1.00  0.00    -0.237 OA
ATOM     96  O   UNL A   1      53.057  26.269  29.769  1.00  0.00    -0.744 OA
ENDBRANCH  92  93
ENDBRANCH  60  85
ENDBRANCH  34  35
ENDBRANCH  26  29
ENDBRANCH  24  25
ENDBRANCH   1  24
TORSDOF 15
ENDMDL
MODEL 2
REMARK VINA RESULT:     -12.0      1.611      2.442
REMARK SMILES Cc1cc(C)c2c(c1)C=C(C(=O)NCCCCNC(=O)c1ccc(-c3c4nc(c(-c5c(F)cc(S(=O)(=O)[O-])cc5F)c5ccc([nH]5)c(-c5c(F)cc(S(=O)(=O)[O-])cc5F)c5nc(c(-c6c(F)cc(S(=O)(=O)[O-])cc6F)c6ccc3[nH]6)C=C5)C=C4)cc1)[C@@H](C(F)(F)F)O2
REMARK SMILES IDX 16 1 15 2 14 3 13 4 11 5 12 6 10 8 1 9 2 10 3 11 8 12 4 13
REMARK SMILES IDX 7 14 5 15 6 16 9 17 92 18 87 19 88 20 89 21 90 22 91 23
REMARK SMILES IDX 17 24 18 25 19 26 20 28 21 29 22 30 86 31 23 32 85 33 24 34
REMARK SMILES IDX 25 35 26 36 79 37 27 38 84 39 78 40 80 41 28 42 83 43 77 44
REMARK SMILES IDX 76 45 29 47 63 48 42 49 62 50 43 51 46 52 61 53 81 54 44 55
REMARK SMILES IDX 45 56 60 58 82 59 47 60 30 61 31 62 40 63 32 64 33 65 39 66
REMARK SMILES IDX 41 67 34 68 35 69 36 70 37 71 38 72 64 73 65 74 74 75 66 76
REMARK SMILES IDX 67 77 73 78 75 79 68 80 69 81 70 82 71 83 72 84 48 85 49 86
REMARK SMILES IDX 58 87 50 88 51 89 57 90 59 91 52 92 53 93 54 94 55 95 56 96
REMARK H PARENT 13 7 18 27 80 46 46 57
REMARK Flexibility Score: inf
ROOT
ATOM      1  C   UNL A   1      32.935  28.360  25.915  1.00  0.00     0.023 C 
ENDROOT
BRANCH   1   2
ATOM      2  C   UNL A   1      32.614  29.619  25.104  1.00  0.00     0.023 C 
BRANCH   2   3
ATOM      3  C   UNL A   1      31.128  29.959  25.042  1.00  0.00     0.116 C 
BRANCH   3   4
ATOM      4  N   UNL A   1      30.597  29.830  23.697  1.00  0.00    -0.352 N 
ATOM      5  C   UNL A   1      30.414  28.835  22.798  1.00  0.00     0.251 C 
ATOM      6  O   UNL A   1      29.910  29.183  21.724  1.00  0.00    -0.270 OA
ATOM      7  H   UNL A   1      30.286  30.696  23.347  1.00  0.00     0.163 HD
BRANCH   5   8
ATOM      8  C   UNL A   1      30.770  27.401  23.011  1.00  0.00     0.067 C 
ATOM      9  C   UNL A   1      30.174  22.899  27.216  1.00  0.00     0.044 C 
ATOM     10  C   UNL A   1      30.520  23.521  25.896  1.00  0.00    -0.050 A 
ATOM     11  C   UNL A   1      31.158  22.753  24.909  1.00  0.00     0.010 A 
ATOM     12  C   UNL A   1      30.224  24.864  25.633  1.00  0.00     0.015 A 
ATOM     13  C   UNL A   1      31.494  23.309  23.669  1.00  0.00    -0.008 A 
ATOM     14  C   UNL A   1      30.562  25.437  24.403  1.00  0.00     0.018 A 
ATOM     15  C   UNL A   1      32.180  22.479  22.622  1.00  0.00     0.048 C 
ATOM     16  C   UNL A   1      31.198  24.658  23.433  1.00  0.00     0.130 A 
ATOM     17  C   UNL A   1      30.233  26.825  24.103  1.00  0.00     0.025 C 
ATOM     18  O   UNL A   1      31.516  25.166  22.202  1.00  0.00    -0.475 OA
ATOM     19  C   UNL A   1      31.693  26.608  22.131  1.00  0.00     0.314 C 
BRANCH  19  20
ATOM     20  C   UNL A   1      33.177  26.950  22.363  1.00  0.00     0.429 C 
ATOM     21  F   UNL A   1      33.968  26.178  21.575  1.00  0.00    -0.167 F 
ATOM     22  F   UNL A   1      33.468  28.236  22.055  1.00  0.00    -0.167 F 
ATOM     23  F   UNL A   1      33.568  26.753  23.642  1.00  0.00    -0.167 F 
ENDBRANCH  19  20
ENDBRANCH   5   8
ENDBRANCH   3   4
ENDBRANCH   2   3
ENDBRANCH   1   2
BRANCH   1  24
ATOM     24  C   UNL A   1      33.659  28.597  27.241  1.00  0.00     0.116 C 
BRANCH  24  25
ATOM     25  N   UNL A   1      33.541  29.961  27.738  1.00  0.00    -0.352 N 
ATOM     26  C   UNL A   1      34.511  30.726  28.344  1.00  0.00     0.251 C 
ATOM     27  H   UNL A   1      32.661  30.388  27.627  1.00  0.00     0.163 HD
ATOM     28  O   UNL A   1      34.243  31.839  28.784  1.00  0.00    -0.269 OA
BRANCH  26  29
ATOM     29  C   UNL A   1      35.865  30.161  28.496  1.00  0.00     0.039 A 
ATOM     30  C   UNL A   1      36.729  30.183  27.400  1.00  0.00     0.014 A 
ATOM     31  C   UNL A   1      36.293  29.682  29.737  1.00  0.00     0.014 A 
ATOM     32  C   UNL A   1      38.057  29.790  27.568  1.00  0.00     0.010 A 
ATOM     33  C   UNL A   1      37.631  29.344  29.915  1.00  0.00     0.010 A 
ATOM     34  C   UNL A   1      38.525  29.403  28.835  1.00  0.00    -0.014 A 
BRANCH  34  35
ATOM     35  C   UNL A   1      39.950  29.060  29.052  1.00  0.00     0.031 A 
ATOM     36  C   UNL A   1      40.888  30.088  29.617  1.00  0.00     0.074 A 
ATOM     37  C   UNL A   1      40.406  27.846  28.688  1.00  0.00     0.049 A 
ATOM     38  N   UNL A   1      42.179  30.009  29.807  1.00  0.00    -0.248 NA
ATOM     39  C   UNL A   1      40.300  31.383  29.995  1.00  0.00     0.031 C 
ATOM     40  C   UNL A   1      39.596  26.779  28.096  1.00  0.00     0.029 A 
ATOM     41  N   UNL A   1      41.665  27.305  28.757  1.00  0.00    -0.354 N 
ATOM     42  C   UNL A   1      42.559  31.243  30.317  1.00  0.00     0.074 A 
ATOM     43  C   UNL A   1      41.372  32.069  30.362  1.00  0.00     0.031 C 
ATOM     44  C   UNL A   1      40.372  25.704  27.882  1.00  0.00     0.029 A 
ATOM     45  C   UNL A   1      41.739  26.015  28.290  1.00  0.00     0.049 A 
ATOM     46  H   UNL A   1      42.443  27.797  29.108  1.00  0.00     0.167 HD
ATOM     47  C   UNL A   1      43.783  31.644  30.734  1.00  0.00     0.037 A 
ATOM     48  C   UNL A   1      42.790  25.177  28.203  1.00  0.00     0.037 A 
ATOM     49  C   UNL A   1      44.956  30.811  30.711  1.00  0.00     0.049 A 
ATOM     50  C   UNL A   1      44.140  25.645  28.672  1.00  0.00     0.074 A 
ATOM     51  C   UNL A   1      46.236  31.112  31.141  1.00  0.00     0.029 A 
ATOM     52  N   UNL A   1      44.989  29.506  30.240  1.00  0.00    -0.354 N 
ATOM     53  N   UNL A   1      44.478  26.808  29.174  1.00  0.00    -0.248 NA
ATOM     54  C   UNL A   1      45.250  24.689  28.562  1.00  0.00     0.031 C 
ATOM     55  C   UNL A   1      47.049  29.996  30.908  1.00  0.00     0.029 A 
ATOM     56  C   UNL A   1      46.267  28.990  30.363  1.00  0.00     0.049 A 
ATOM     57  H   UNL A   1      44.216  29.019  29.872  1.00  0.00     0.167 HD
ATOM     58  C   UNL A   1      45.835  26.719  29.458  1.00  0.00     0.074 A 
ATOM     59  C   UNL A   1      46.255  25.384  29.080  1.00  0.00     0.031 C 
ATOM     60  C   UNL A   1      46.662  27.657  29.982  1.00  0.00     0.037 A 
BRANCH  47  61
ATOM     61  C   UNL A   1      43.907  33.043  31.265  1.00  0.00     0.058 A 
ATOM     62  C   UNL A   1      44.169  34.125  30.410  1.00  0.00     0.135 A 
ATOM     63  C   UNL A   1      43.748  33.309  32.633  1.00  0.00     0.135 A 
ATOM     64  F   UNL A   1      44.349  33.921  29.096  1.00  0.00    -0.206 F 
ATOM     65  C   UNL A   1      44.294  35.422  30.897  1.00  0.00     0.059 A 
ATOM     66  C   UNL A   1      43.848  34.603  33.140  1.00  0.00     0.059 A 
ATOM     67  F   UNL A   1      43.502  32.309  33.493  1.00  0.00    -0.206 F 
ATOM     68  C   UNL A   1      44.135  35.650  32.265  1.00  0.00     0.060 A 
BRANCH  68  69
ATOM     69  S   UNL A   1      44.302  37.338  32.882  1.00  0.00     0.124 S 
ATOM     70  O   UNL A   1      45.585  37.267  33.573  1.00  0.00    -0.237 OA
ATOM     71  O   UNL A   1      44.288  38.125  31.652  1.00  0.00    -0.237 OA
ATOM     72  O   UNL A   1      43.134  37.503  33.741  1.00  0.00    -0.744 OA
ENDBRANCH  68  69
ENDBRANCH  47  61
BRANCH  48  73
ATOM     73  C   UNL A   1      42.597  23.800  27.684  1.00  0.00     0.058 A 
ATOM     74  C   UNL A   1      42.610  23.547  26.305  1.00  0.00     0.135 A 
ATOM     75  C   UNL A   1      42.428  22.707  28.549  1.00  0.00     0.135 A 
ATOM     76  F   UNL A   1      42.764  24.561  25.440  1.00  0.00    -0.206 F 
ATOM     77  C   UNL A   1      42.457  22.261  25.798  1.00  0.00     0.059 A 
ATOM     78  C   UNL A   1      42.291  21.410  28.067  1.00  0.00     0.059 A 
ATOM     79  F   UNL A   1      42.423  22.897  29.878  1.00  0.00    -0.206 F 
ATOM     80  C   UNL A   1      42.302  21.196  26.688  1.00  0.00     0.060 A 
BRANCH  80  81
ATOM     81  S   UNL A   1      42.172  19.524  26.021  1.00  0.00     0.124 S 
ATOM     82  O   UNL A   1      43.074  19.593  24.877  1.00  0.00    -0.237 OA
ATOM     83  O   UNL A   1      42.626  18.709  27.144  1.00  0.00    -0.237 OA
ATOM     84  O   UNL A   1      40.753  19.401  25.701  1.00  0.00    -0.744 OA
ENDBRANCH  80  81
ENDBRANCH  48  73
BRANCH  60  85
ATOM     85  C   UNL A   1      48.096  27.272  30.196  1.00  0.00     0.058 A 
ATOM     86  C   UNL A   1      49.072  27.517  29.218  1.00  0.00     0.135 A 
ATOM     87  C   UNL A   1      48.509  26.710  31.414  1.00  0.00     0.135 A 
ATOM     88  F   UNL A   1      48.724  28.046  28.035  1.00  0.00    -0.206 F 
ATOM     89  C   UNL A   1      50.410  27.209  29.438  1.00  0.00     0.059 A 
ATOM     90  C   UNL A   1      49.845  26.412  31.663  1.00  0.00     0.059 A 
ATOM     91  F   UNL A   1      47.613  26.464  32.384  1.00  0.00    -0.206 F 
ATOM     92  C   UNL A   1      50.788  26.659  30.665  1.00  0.00     0.060 A 
BRANCH  92  93
ATOM     93  S   UNL A   1      52.534  26.306  30.955  1.00  0.00     0.124 S 
ATOM     94  O   UNL A   1      52.957  27.496  31.685  1.00  0.00    -0.237 OA
ATOM     95  O   UNL A   1      52.480  25.072  31.733  1.00  0.00    -0.237 OA
ATOM     96  O   UNL A   1      53.080  26.166  29.608  1.00  0.00    -0.744 OA
ENDBRANCH  92  93
ENDBRANCH  60  85
ENDBRANCH  34  35
ENDBRANCH  26  29
ENDBRANCH  24  25
ENDBRANCH   1  24
TORSDOF 15
ENDMDL
MODEL 3
REMARK VINA RESULT:     -11.9      2.900      9.199
REMARK SMILES Cc1cc(C)c2c(c1)C=C(C(=O)NCCCCNC(=O)c1ccc(-c3c4nc(c(-c5c(F)cc(S(=O)(=O)[O-])cc5F)c5ccc([nH]5)c(-c5c(F)cc(S(=O)(=O)[O-])cc5F)c5nc(c(-c6c(F)cc(S(=O)(=O)[O-])cc6F)c6ccc3[nH]6)C=C5)C=C4)cc1)[C@@H](C(F)(F)F)O2
REMARK SMILES IDX 16 1 15 2 14 3 13 4 11 5 12 6 10 8 1 9 2 10 3 11 8 12 4 13
REMARK SMILES IDX 7 14 5 15 6 16 9 17 92 18 87 19 88 20 89 21 90 22 91 23
REMARK SMILES IDX 17 24 18 25 19 26 20 28 21 29 22 30 86 31 23 32 85 33 24 34
REMARK SMILES IDX 25 35 26 36 79 37 27 38 84 39 78 40 80 41 28 42 83 43 77 44
REMARK SMILES IDX 76 45 29 47 63 48 42 49 62 50 43 51 46 52 61 53 81 54 44 55
REMARK SMILES IDX 45 56 60 58 82 59 47 60 30 61 31 62 40 63 32 64 33 65 39 66
REMARK SMILES IDX 41 67 34 68 35 69 36 70 37 71 38 72 64 73 65 74 74 75 66 76
REMARK SMILES IDX 67 77 73 78 75 79 68 80 69 81 70 82 71 83 72 84 48 85 49 86
REMARK SMILES IDX 58 87 50 88 51 89 57 90 59 91 52 92 53 93 54 94 55 95 56 96
REMARK H PARENT 13 7 18 27 80 46 46 57
REMARK Flexibility Score: inf
ROOT
ATOM      1  C   UNL A   1      35.584  23.149  26.267  1.00  0.00     0.023 C 
ENDROOT
BRANCH   1   2
ATOM      2  C   UNL A   1      35.041  21.898  25.571  1.00  0.00     0.023 C 
BRANCH   2   3
ATOM      3  C   UNL A   1      33.687  22.098  24.895  1.00  0.00     0.116 C 
BRANCH   3   4
ATOM      4  N   UNL A   1      33.827  22.478  23.502  1.00  0.00    -0.352 N 
ATOM      5  C   UNL A   1      33.596  23.580  22.750  1.00  0.00     0.251 C 
ATOM      6  O   UNL A   1      33.863  23.462  21.549  1.00  0.00    -0.270 OA
ATOM      7  H   UNL A   1      34.185  21.738  22.959  1.00  0.00     0.163 HD
BRANCH   5   8
ATOM      8  C   UNL A   1      33.061  24.877  23.259  1.00  0.00     0.067 C 
ATOM      9  C   UNL A   1      34.348  29.286  27.408  1.00  0.00     0.044 C 
ATOM     10  C   UNL A   1      33.633  28.629  26.265  1.00  0.00    -0.050 A 
ATOM     11  C   UNL A   1      32.499  29.240  25.709  1.00  0.00     0.010 A 
ATOM     12  C   UNL A   1      34.076  27.407  25.745  1.00  0.00     0.015 A 
ATOM     13  C   UNL A   1      31.811  28.649  24.643  1.00  0.00    -0.008 A 
ATOM     14  C   UNL A   1      33.395  26.798  24.686  1.00  0.00     0.018 A 
ATOM     15  C   UNL A   1      30.596  29.310  24.059  1.00  0.00     0.048 C 
ATOM     16  C   UNL A   1      32.266  27.420  24.146  1.00  0.00     0.130 A 
ATOM     17  C   UNL A   1      33.861  25.541  24.114  1.00  0.00     0.025 C 
ATOM     18  O   UNL A   1      31.588  26.880  23.087  1.00  0.00    -0.475 OA
ATOM     19  C   UNL A   1      31.711  25.440  22.915  1.00  0.00     0.314 C 
BRANCH  19  20
ATOM     20  C   UNL A   1      30.565  24.739  23.668  1.00  0.00     0.429 C 
ATOM     21  F   UNL A   1      30.135  23.656  22.969  1.00  0.00    -0.167 F 
ATOM     22  F   UNL A   1      30.944  24.283  24.885  1.00  0.00    -0.167 F 
ATOM     23  F   UNL A   1      29.495  25.541  23.864  1.00  0.00    -0.167 F 
ENDBRANCH  19  20
ENDBRANCH   5   8
ENDBRANCH   3   4
ENDBRANCH   2   3
ENDBRANCH   1   2
BRANCH   1  24
ATOM     24  C   UNL A   1      36.835  23.763  25.639  1.00  0.00     0.116 C 
BRANCH  24  25
ATOM     25  N   UNL A   1      38.000  22.888  25.673  1.00  0.00    -0.352 N 
ATOM     26  C   UNL A   1      39.233  23.145  26.222  1.00  0.00     0.251 C 
ATOM     27  H   UNL A   1      37.889  22.004  25.252  1.00  0.00     0.163 HD
ATOM     28  O   UNL A   1      40.148  22.337  26.107  1.00  0.00    -0.269 OA
BRANCH  26  29
ATOM     29  C   UNL A   1      39.447  24.431  26.912  1.00  0.00     0.039 A 
ATOM     30  C   UNL A   1      38.987  24.577  28.222  1.00  0.00     0.014 A 
ATOM     31  C   UNL A   1      40.161  25.456  26.285  1.00  0.00     0.014 A 
ATOM     32  C   UNL A   1      39.312  25.730  28.936  1.00  0.00     0.010 A 
ATOM     33  C   UNL A   1      40.529  26.580  27.017  1.00  0.00     0.010 A 
ATOM     34  C   UNL A   1      40.115  26.722  28.351  1.00  0.00    -0.014 A 
BRANCH  34  35
ATOM     35  C   UNL A   1      40.538  27.917  29.119  1.00  0.00     0.031 A 
ATOM     36  C   UNL A   1      41.894  27.950  29.762  1.00  0.00     0.074 A 
ATOM     37  C   UNL A   1      39.679  28.942  29.284  1.00  0.00     0.049 A 
ATOM     38  N   UNL A   1      42.417  28.864  30.536  1.00  0.00    -0.248 NA
ATOM     39  C   UNL A   1      42.769  26.791  29.521  1.00  0.00     0.031 C 
ATOM     40  C   UNL A   1      38.321  29.006  28.736  1.00  0.00     0.029 A 
ATOM     41  N   UNL A   1      39.817  30.125  29.963  1.00  0.00    -0.354 N 
ATOM     42  C   UNL A   1      43.675  28.389  30.882  1.00  0.00     0.074 A 
ATOM     43  C   UNL A   1      43.819  27.084  30.274  1.00  0.00     0.031 C 
ATOM     44  C   UNL A   1      37.764  30.179  29.079  1.00  0.00     0.029 A 
ATOM     45  C   UNL A   1      38.708  30.935  29.896  1.00  0.00     0.049 A 
ATOM     46  H   UNL A   1      40.635  30.371  30.454  1.00  0.00     0.167 HD
ATOM     47  C   UNL A   1      44.634  28.996  31.621  1.00  0.00     0.037 A 
ATOM     48  C   UNL A   1      38.482  32.150  30.430  1.00  0.00     0.037 A 
ATOM     49  C   UNL A   1      44.496  30.304  32.203  1.00  0.00     0.049 A 
ATOM     50  C   UNL A   1      39.561  32.804  31.247  1.00  0.00     0.074 A 
ATOM     51  C   UNL A   1      45.421  31.022  32.941  1.00  0.00     0.029 A 
ATOM     52  N   UNL A   1      43.361  31.097  32.104  1.00  0.00    -0.354 N 
ATOM     53  N   UNL A   1      40.755  32.351  31.545  1.00  0.00    -0.248 NA
ATOM     54  C   UNL A   1      39.265  34.132  31.799  1.00  0.00     0.031 C 
ATOM     55  C   UNL A   1      44.836  32.239  33.308  1.00  0.00     0.029 A 
ATOM     56  C   UNL A   1      43.560  32.294  32.772  1.00  0.00     0.049 A 
ATOM     57  H   UNL A   1      42.537  30.846  31.628  1.00  0.00     0.167 HD
ATOM     58  C   UNL A   1      41.360  33.345  32.305  1.00  0.00     0.074 A 
ATOM     59  C   UNL A   1      40.403  34.429  32.413  1.00  0.00     0.031 C 
ATOM     60  C   UNL A   1      42.594  33.360  32.864  1.00  0.00     0.037 A 
BRANCH  47  61
ATOM     61  C   UNL A   1      45.922  28.252  31.824  1.00  0.00     0.058 A 
ATOM     62  C   UNL A   1      46.104  27.400  32.924  1.00  0.00     0.135 A 
ATOM     63  C   UNL A   1      46.976  28.378  30.907  1.00  0.00     0.135 A 
ATOM     64  F   UNL A   1      45.134  27.262  33.841  1.00  0.00    -0.206 F 
ATOM     65  C   UNL A   1      47.299  26.716  33.123  1.00  0.00     0.059 A 
ATOM     66  C   UNL A   1      48.173  27.685  31.074  1.00  0.00     0.059 A 
ATOM     67  F   UNL A   1      46.854  29.183  29.841  1.00  0.00    -0.206 F 
ATOM     68  C   UNL A   1      48.329  26.867  32.193  1.00  0.00     0.060 A 
BRANCH  68  69
ATOM     69  S   UNL A   1      49.873  25.974  32.466  1.00  0.00     0.124 S 
ATOM     70  O   UNL A   1      50.558  26.859  33.403  1.00  0.00    -0.237 OA
ATOM     71  O   UNL A   1      49.409  24.705  33.018  1.00  0.00    -0.237 OA
ATOM     72  O   UNL A   1      50.461  25.896  31.132  1.00  0.00    -0.744 OA
ENDBRANCH  68  69
ENDBRANCH  47  61
BRANCH  48  73
ATOM     73  C   UNL A   1      37.192  32.840  30.177  1.00  0.00     0.058 A 
ATOM     74  C   UNL A   1      36.135  32.740  31.094  1.00  0.00     0.135 A 
ATOM     75  C   UNL A   1      36.997  33.636  29.038  1.00  0.00     0.135 A 
ATOM     76  F   UNL A   1      36.274  31.985  32.194  1.00  0.00    -0.206 F 
ATOM     77  C   UNL A   1      34.928  33.398  30.889  1.00  0.00     0.059 A 
ATOM     78  C   UNL A   1      35.805  34.318  28.820  1.00  0.00     0.059 A 
ATOM     79  F   UNL A   1      37.984  33.774  28.138  1.00  0.00    -0.206 F 
ATOM     80  C   UNL A   1      34.773  34.191  29.750  1.00  0.00     0.060 A 
BRANCH  80  81
ATOM     81  S   UNL A   1      33.226  35.094  29.529  1.00  0.00     0.124 S 
ATOM     82  O   UNL A   1      33.711  36.428  29.191  1.00  0.00    -0.237 OA
ATOM     83  O   UNL A   1      32.589  34.352  28.446  1.00  0.00    -0.237 OA
ATOM     84  O   UNL A   1      32.577  34.969  30.831  1.00  0.00    -0.744 OA
ENDBRANCH  80  81
ENDBRANCH  48  73
BRANCH  60  85
ATOM     85  C   UNL A   1      42.991  34.589  33.628  1.00  0.00     0.058 A 
ATOM     86  C   UNL A   1      42.809  34.677  35.016  1.00  0.00     0.135 A 
ATOM     87  C   UNL A   1      43.617  35.662  32.975  1.00  0.00     0.135 A 
ATOM     88  F   UNL A   1      42.209  33.678  35.683  1.00  0.00    -0.206 F 
ATOM     89  C   UNL A   1      43.226  35.794  35.732  1.00  0.00     0.059 A 
ATOM     90  C   UNL A   1      44.060  36.781  33.673  1.00  0.00     0.059 A 
ATOM     91  F   UNL A   1      43.821  35.621  31.648  1.00  0.00    -0.206 F 
ATOM     92  C   UNL A   1      43.853  36.841  35.051  1.00  0.00     0.060 A 
BRANCH  92  93
ATOM     93  S   UNL A   1      44.430  38.266  35.998  1.00  0.00     0.124 S 
ATOM     94  O   UNL A   1      45.873  38.051  36.000  1.00  0.00    -0.237 OA
ATOM     95  O   UNL A   1      43.958  39.389  35.194  1.00  0.00    -0.237 OA
ATOM     96  O   UNL A   1      43.768  38.106  37.289  1.00  0.00    -0.744 OA
ENDBRANCH  92  93
ENDBRANCH  60  85
ENDBRANCH  34  35
ENDBRANCH  26  29
ENDBRANCH  24  25
ENDBRANCH   1  24
TORSDOF 15
ENDMDL
