MODEL 1
REMARK VINA RESULT:     -10.9      0.000      0.000
REMARK SMILES COc1ccc(Br)cc1S(=O)(=O)N(C)CC(=O)NCCCCNC(=O)c1ccc(-c2c3nc(c(-c4c(F)cc(S(=O)(=O)[O-])cc4F)c4ccc([nH]4)c(-c4c(F)cc(S(=O)(=O)[O-])cc4F)c4nc(c(-c5c(F)cc(S(=O)(=O)[O-])cc5F)c5ccc2[nH]5)C=C4)C=C3)cc1
REMARK SMILES IDX 20 1 19 2 18 3 16 4 17 5 15 7 13 8 14 9 10 10 11 11 12 12
REMARK SMILES IDX 9 13 3 14 4 15 5 16 8 17 6 18 7 19 2 20 1 21 21 22 22 23
REMARK SMILES IDX 23 24 24 25 25 27 26 28 27 29 91 30 28 31 90 32 29 33 30 34
REMARK SMILES IDX 31 35 84 36 32 37 89 38 83 39 85 40 33 41 88 42 82 43 81 44
REMARK SMILES IDX 34 46 68 47 47 48 67 49 48 50 51 51 66 52 86 53 49 54 50 55
REMARK SMILES IDX 65 57 87 58 52 59 35 60 36 61 45 62 37 63 38 64 44 65 46 66
REMARK SMILES IDX 39 67 40 68 41 69 42 70 43 71 69 72 70 73 79 74 71 75 72 76
REMARK SMILES IDX 78 77 80 78 73 79 74 80 75 81 76 82 77 83 53 84 54 85 63 86
REMARK SMILES IDX 55 87 56 88 62 89 64 90 57 91 58 92 59 93 60 94 61 95
REMARK H PARENT 18 6 23 26 85 45 51 56
REMARK Flexibility Score: inf
ROOT
ATOM      1  C   UNL A   1      39.706  22.056  26.434  1.00  0.00     0.023 C 
ENDROOT
BRANCH   1   2
ATOM      2  C   UNL A   1      38.449  22.926  26.369  1.00  0.00     0.116 C 
BRANCH   2   3
ATOM      3  N   UNL A   1      38.024  23.195  25.010  1.00  0.00    -0.355 N 
ATOM      4  C   UNL A   1      36.869  22.871  24.352  1.00  0.00     0.235 C 
ATOM      5  O   UNL A   1      36.727  23.313  23.208  1.00  0.00    -0.274 OA
ATOM      6  H   UNL A   1      38.677  23.695  24.468  1.00  0.00     0.163 HD
BRANCH   4   7
ATOM      7  C   UNL A   1      35.767  22.040  25.013  1.00  0.00     0.202 C 
BRANCH   7   8
ATOM      8  N   UNL A   1      34.467  22.713  25.372  1.00  0.00    -0.191 NA
ATOM      9  C   UNL A   1      34.663  23.834  26.288  1.00  0.00     0.125 C 
BRANCH   8  10
ATOM     10  S   UNL A   1      33.201  21.602  25.607  1.00  0.00     0.247 S 
ATOM     11  O   UNL A   1      31.972  22.385  25.656  1.00  0.00    -0.207 OA
ATOM     12  O   UNL A   1      33.592  20.785  26.730  1.00  0.00    -0.207 OA
BRANCH  10  13
ATOM     13  C   UNL A   1      32.914  20.458  24.272  1.00  0.00     0.125 A 
ATOM     14  C   UNL A   1      32.280  20.680  23.049  1.00  0.00     0.138 A 
ATOM     15  C   UNL A   1      32.072  19.585  22.186  1.00  0.00     0.049 A 
ATOM     16  C   UNL A   1      32.463  18.290  22.537  1.00  0.00     0.019 A 
ATOM     17  C   UNL A   1      33.331  19.145  24.604  1.00  0.00     0.041 A 
ATOM     18  C   UNL A   1      33.102  18.077  23.746  1.00  0.00     0.019 A 
ATOM     19  Br  UNL A   1      33.653  16.337  24.228  1.00  0.00    -0.051 Br
BRANCH  14  20
ATOM     20  O   UNL A   1      31.923  21.933  22.646  1.00  0.00    -0.495 OA
ATOM     21  C   UNL A   1      33.000  22.728  22.133  1.00  0.00     0.278 C 
ENDBRANCH  14  20
ENDBRANCH  10  13
ENDBRANCH   8  10
ENDBRANCH   7   8
ENDBRANCH   4   7
ENDBRANCH   2   3
ENDBRANCH   1   2
BRANCH   1  22
ATOM     22  C   UNL A   1      40.643  22.342  27.602  1.00  0.00     0.023 C 
BRANCH  22  23
ATOM     23  C   UNL A   1      41.859  23.177  27.232  1.00  0.00     0.116 C 
BRANCH  23  24
ATOM     24  N   UNL A   1      41.615  24.115  26.141  1.00  0.00    -0.352 N 
ATOM     25  C   UNL A   1      41.340  25.462  26.233  1.00  0.00     0.251 C 
ATOM     26  H   UNL A   1      41.651  23.741  25.230  1.00  0.00     0.163 HD
ATOM     27  O   UNL A   1      41.077  26.119  25.233  1.00  0.00    -0.269 OA
BRANCH  25  28
ATOM     28  C   UNL A   1      41.316  26.080  27.575  1.00  0.00     0.039 A 
ATOM     29  C   UNL A   1      42.388  26.881  27.974  1.00  0.00     0.014 A 
ATOM     30  C   UNL A   1      40.182  25.956  28.379  1.00  0.00     0.014 A 
ATOM     31  C   UNL A   1      42.281  27.638  29.142  1.00  0.00     0.010 A 
ATOM     32  C   UNL A   1      40.046  26.767  29.497  1.00  0.00     0.010 A 
ATOM     33  C   UNL A   1      41.089  27.624  29.883  1.00  0.00    -0.014 A 
BRANCH  33  34
ATOM     34  C   UNL A   1      40.890  28.490  31.073  1.00  0.00     0.031 A 
ATOM     35  C   UNL A   1      39.816  29.541  31.045  1.00  0.00     0.074 A 
ATOM     36  C   UNL A   1      41.738  28.411  32.117  1.00  0.00     0.049 A 
ATOM     37  N   UNL A   1      39.603  30.529  31.875  1.00  0.00    -0.248 NA
ATOM     38  C   UNL A   1      38.886  29.501  29.905  1.00  0.00     0.031 C 
ATOM     39  C   UNL A   1      42.849  27.464  32.243  1.00  0.00     0.029 A 
ATOM     40  N   UNL A   1      41.810  29.157  33.266  1.00  0.00    -0.354 N 
ATOM     41  C   UNL A   1      38.546  31.251  31.335  1.00  0.00     0.074 A 
ATOM     42  C   UNL A   1      38.183  30.608  30.091  1.00  0.00     0.031 C 
ATOM     43  C   UNL A   1      43.478  27.675  33.411  1.00  0.00     0.029 A 
ATOM     44  C   UNL A   1      42.844  28.796  34.098  1.00  0.00     0.049 A 
ATOM     45  H   UNL A   1      41.179  29.884  33.477  1.00  0.00     0.167 HD
ATOM     46  C   UNL A   1      37.924  32.343  31.839  1.00  0.00     0.037 A 
ATOM     47  C   UNL A   1      43.240  29.319  35.275  1.00  0.00     0.037 A 
ATOM     48  C   UNL A   1      38.250  32.942  33.103  1.00  0.00     0.049 A 
ATOM     49  C   UNL A   1      42.493  30.492  35.845  1.00  0.00     0.074 A 
ATOM     50  C   UNL A   1      37.650  34.022  33.727  1.00  0.00     0.029 A 
ATOM     51  N   UNL A   1      39.254  32.495  33.951  1.00  0.00    -0.354 N 
ATOM     52  N   UNL A   1      41.485  31.154  35.329  1.00  0.00    -0.248 NA
ATOM     53  C   UNL A   1      42.935  30.992  37.155  1.00  0.00     0.031 C 
ATOM     54  C   UNL A   1      38.297  34.233  34.950  1.00  0.00     0.029 A 
ATOM     55  C   UNL A   1      39.283  33.270  35.096  1.00  0.00     0.049 A 
ATOM     56  H   UNL A   1      39.856  31.739  33.764  1.00  0.00     0.167 HD
ATOM     57  C   UNL A   1      41.155  32.130  36.262  1.00  0.00     0.074 A 
ATOM     58  C   UNL A   1      42.068  31.971  37.377  1.00  0.00     0.031 C 
ATOM     59  C   UNL A   1      40.184  33.073  36.203  1.00  0.00     0.037 A 
BRANCH  46  60
ATOM     60  C   UNL A   1      36.823  32.945  31.015  1.00  0.00     0.058 A 
ATOM     61  C   UNL A   1      37.099  33.754  29.902  1.00  0.00     0.135 A 
ATOM     62  C   UNL A   1      35.477  32.717  31.344  1.00  0.00     0.135 A 
ATOM     63  F   UNL A   1      38.369  34.018  29.558  1.00  0.00    -0.206 F 
ATOM     64  C   UNL A   1      36.080  34.350  29.167  1.00  0.00     0.059 A 
ATOM     65  C   UNL A   1      34.441  33.283  30.608  1.00  0.00     0.059 A 
ATOM     66  F   UNL A   1      35.160  31.952  32.401  1.00  0.00    -0.206 F 
ATOM     67  C   UNL A   1      34.754  34.115  29.533  1.00  0.00     0.060 A 
BRANCH  67  68
ATOM     68  S   UNL A   1      33.438  34.912  28.589  1.00  0.00     0.124 S 
ATOM     69  O   UNL A   1      34.176  35.968  27.901  1.00  0.00    -0.237 OA
ATOM     70  O   UNL A   1      32.951  33.826  27.743  1.00  0.00    -0.237 OA
ATOM     71  O   UNL A   1      32.509  35.363  29.620  1.00  0.00    -0.744 OA
ENDBRANCH  67  68
ENDBRANCH  46  60
BRANCH  47  72
ATOM     72  C   UNL A   1      44.381  28.715  36.011  1.00  0.00     0.058 A 
ATOM     73  C   UNL A   1      45.680  29.219  35.847  1.00  0.00     0.135 A 
ATOM     74  C   UNL A   1      44.200  27.641  36.893  1.00  0.00     0.135 A 
ATOM     75  F   UNL A   1      45.900  30.244  35.010  1.00  0.00    -0.206 F 
ATOM     76  C   UNL A   1      46.764  28.670  36.520  1.00  0.00     0.059 A 
ATOM     77  C   UNL A   1      45.268  27.085  37.593  1.00  0.00     0.059 A 
ATOM     78  F   UNL A   1      42.974  27.135  37.096  1.00  0.00    -0.206 F 
ATOM     79  C   UNL A   1      46.549  27.600  37.392  1.00  0.00     0.060 A 
BRANCH  79  80
ATOM     80  S   UNL A   1      47.957  26.922  38.299  1.00  0.00     0.124 S 
ATOM     81  O   UNL A   1      47.962  27.754  39.496  1.00  0.00    -0.237 OA
ATOM     82  O   UNL A   1      47.560  25.530  38.490  1.00  0.00    -0.237 OA
ATOM     83  O   UNL A   1      49.072  27.126  37.380  1.00  0.00    -0.744 OA
ENDBRANCH  79  80
ENDBRANCH  47  72
BRANCH  59  84
ATOM     84  C   UNL A   1      40.022  33.976  37.390  1.00  0.00     0.058 A 
ATOM     85  C   UNL A   1      40.716  35.191  37.487  1.00  0.00     0.135 A 
ATOM     86  C   UNL A   1      39.103  33.656  38.400  1.00  0.00     0.135 A 
ATOM     87  F   UNL A   1      41.611  35.534  36.546  1.00  0.00    -0.206 F 
ATOM     88  C   UNL A   1      40.505  36.060  38.551  1.00  0.00     0.059 A 
ATOM     89  C   UNL A   1      38.865  34.518  39.465  1.00  0.00     0.059 A 
ATOM     90  F   UNL A   1      38.411  32.507  38.346  1.00  0.00    -0.206 F 
ATOM     91  C   UNL A   1      39.575  35.717  39.534  1.00  0.00     0.060 A 
BRANCH  91  92
ATOM     92  S   UNL A   1      39.259  36.881  40.878  1.00  0.00     0.124 S 
ATOM     93  O   UNL A   1      40.612  37.303  41.223  1.00  0.00    -0.237 OA
ATOM     94  O   UNL A   1      38.424  37.889  40.234  1.00  0.00    -0.237 OA
ATOM     95  O   UNL A   1      38.580  36.063  41.879  1.00  0.00    -0.744 OA
ENDBRANCH  91  92
ENDBRANCH  59  84
ENDBRANCH  33  34
ENDBRANCH  25  28
ENDBRANCH  23  24
ENDBRANCH  22  23
ENDBRANCH   1  22
TORSDOF 18
ENDMDL
MODEL 2
REMARK VINA RESULT:     -10.9      3.499      9.326
REMARK SMILES COc1ccc(Br)cc1S(=O)(=O)N(C)CC(=O)NCCCCNC(=O)c1ccc(-c2c3nc(c(-c4c(F)cc(S(=O)(=O)[O-])cc4F)c4ccc([nH]4)c(-c4c(F)cc(S(=O)(=O)[O-])cc4F)c4nc(c(-c5c(F)cc(S(=O)(=O)[O-])cc5F)c5ccc2[nH]5)C=C4)C=C3)cc1
REMARK SMILES IDX 20 1 19 2 18 3 16 4 17 5 15 7 13 8 14 9 10 10 11 11 12 12
REMARK SMILES IDX 9 13 3 14 4 15 5 16 8 17 6 18 7 19 2 20 1 21 21 22 22 23
REMARK SMILES IDX 23 24 24 25 25 27 26 28 27 29 91 30 28 31 90 32 29 33 30 34
REMARK SMILES IDX 31 35 84 36 32 37 89 38 83 39 85 40 33 41 88 42 82 43 81 44
REMARK SMILES IDX 34 46 68 47 47 48 67 49 48 50 51 51 66 52 86 53 49 54 50 55
REMARK SMILES IDX 65 57 87 58 52 59 35 60 36 61 45 62 37 63 38 64 44 65 46 66
REMARK SMILES IDX 39 67 40 68 41 69 42 70 43 71 69 72 70 73 79 74 71 75 72 76
REMARK SMILES IDX 78 77 80 78 73 79 74 80 75 81 76 82 77 83 53 84 54 85 63 86
REMARK SMILES IDX 55 87 56 88 62 89 64 90 57 91 58 92 59 93 60 94 61 95
REMARK H PARENT 18 6 23 26 85 45 51 56
REMARK Flexibility Score: inf
ROOT
ATOM      1  C   UNL A   1      35.233  22.289  24.300  1.00  0.00     0.023 C 
ENDROOT
BRANCH   1   2
ATOM      2  C   UNL A   1      33.887  22.679  23.686  1.00  0.00     0.116 C 
BRANCH   2   3
ATOM      3  N   UNL A   1      33.808  24.089  23.362  1.00  0.00    -0.355 N 
ATOM      4  C   UNL A   1      33.742  25.192  24.170  1.00  0.00     0.235 C 
ATOM      5  O   UNL A   1      33.778  26.298  23.622  1.00  0.00    -0.274 OA
ATOM      6  H   UNL A   1      33.800  24.288  22.398  1.00  0.00     0.163 HD
BRANCH   4   7
ATOM      7  C   UNL A   1      33.677  25.075  25.694  1.00  0.00     0.202 C 
BRANCH   7   8
ATOM      8  N   UNL A   1      32.378  24.659  26.336  1.00  0.00    -0.191 NA
ATOM      9  C   UNL A   1      32.362  23.237  26.671  1.00  0.00     0.125 C 
BRANCH   8  10
ATOM     10  S   UNL A   1      31.029  25.405  25.620  1.00  0.00     0.247 S 
ATOM     11  O   UNL A   1      29.950  25.327  26.598  1.00  0.00    -0.207 OA
ATOM     12  O   UNL A   1      30.882  24.798  24.320  1.00  0.00    -0.207 OA
BRANCH  10  13
ATOM     13  C   UNL A   1      31.182  27.152  25.308  1.00  0.00     0.125 A 
ATOM     14  C   UNL A   1      31.800  28.131  26.088  1.00  0.00     0.138 A 
ATOM     15  C   UNL A   1      31.700  29.478  25.686  1.00  0.00     0.049 A 
ATOM     16  C   UNL A   1      30.983  29.853  24.547  1.00  0.00     0.019 A 
ATOM     17  C   UNL A   1      30.481  27.543  24.140  1.00  0.00     0.041 A 
ATOM     18  C   UNL A   1      30.382  28.878  23.771  1.00  0.00     0.019 A 
ATOM     19  Br  UNL A   1      29.424  29.365  22.219  1.00  0.00    -0.051 Br
BRANCH  14  20
ATOM     20  O   UNL A   1      32.548  27.807  27.181  1.00  0.00    -0.495 OA
ATOM     21  C   UNL A   1      33.615  28.720  27.471  1.00  0.00     0.278 C 
ENDBRANCH  14  20
ENDBRANCH  10  13
ENDBRANCH   8  10
ENDBRANCH   7   8
ENDBRANCH   4   7
ENDBRANCH   2   3
ENDBRANCH   1   2
BRANCH   1  22
ATOM     22  C   UNL A   1      36.416  23.166  23.904  1.00  0.00     0.023 C 
BRANCH  22  23
ATOM     23  C   UNL A   1      37.286  23.600  25.074  1.00  0.00     0.116 C 
BRANCH  23  24
ATOM     24  N   UNL A   1      38.437  22.732  25.300  1.00  0.00    -0.352 N 
ATOM     25  C   UNL A   1      39.561  23.003  26.050  1.00  0.00     0.251 C 
ATOM     26  H   UNL A   1      38.408  21.849  24.866  1.00  0.00     0.163 HD
ATOM     27  O   UNL A   1      40.493  22.209  26.092  1.00  0.00    -0.269 OA
BRANCH  25  28
ATOM     28  C   UNL A   1      39.635  24.299  26.756  1.00  0.00     0.039 A 
ATOM     29  C   UNL A   1      39.060  24.416  28.024  1.00  0.00     0.014 A 
ATOM     30  C   UNL A   1      40.373  25.350  26.209  1.00  0.00     0.014 A 
ATOM     31  C   UNL A   1      39.307  25.560  28.786  1.00  0.00     0.010 A 
ATOM     32  C   UNL A   1      40.680  26.450  26.997  1.00  0.00     0.010 A 
ATOM     33  C   UNL A   1      40.161  26.561  28.297  1.00  0.00    -0.014 A 
BRANCH  33  34
ATOM     34  C   UNL A   1      40.536  27.744  29.111  1.00  0.00     0.031 A 
ATOM     35  C   UNL A   1      41.817  27.719  29.897  1.00  0.00     0.074 A 
ATOM     36  C   UNL A   1      39.682  28.780  29.234  1.00  0.00     0.049 A 
ATOM     37  N   UNL A   1      42.237  28.541  30.822  1.00  0.00    -0.248 NA
ATOM     38  C   UNL A   1      42.725  26.590  29.638  1.00  0.00     0.031 C 
ATOM     39  C   UNL A   1      38.388  28.902  28.558  1.00  0.00     0.029 A 
ATOM     40  N   UNL A   1      39.768  29.920  29.991  1.00  0.00    -0.354 N 
ATOM     41  C   UNL A   1      43.433  28.007  31.285  1.00  0.00     0.074 A 
ATOM     42  C   UNL A   1      43.654  26.774  30.563  1.00  0.00     0.031 C 
ATOM     43  C   UNL A   1      37.811  30.061  28.918  1.00  0.00     0.029 A 
ATOM     44  C   UNL A   1      38.672  30.744  29.877  1.00  0.00     0.049 A 
ATOM     45  H   UNL A   1      40.542  30.132  30.562  1.00  0.00     0.167 HD
ATOM     46  C   UNL A   1      44.277  28.508  32.218  1.00  0.00     0.037 A 
ATOM     47  C   UNL A   1      38.391  31.911  30.489  1.00  0.00     0.037 A 
ATOM     48  C   UNL A   1      44.080  29.763  32.889  1.00  0.00     0.049 A 
ATOM     49  C   UNL A   1      39.374  32.479  31.475  1.00  0.00     0.074 A 
ATOM     50  C   UNL A   1      44.899  30.383  33.816  1.00  0.00     0.029 A 
ATOM     51  N   UNL A   1      42.994  30.603  32.687  1.00  0.00    -0.354 N 
ATOM     52  N   UNL A   1      40.509  31.968  31.890  1.00  0.00    -0.248 NA
ATOM     53  C   UNL A   1      39.042  33.778  32.075  1.00  0.00     0.031 C 
ATOM     54  C   UNL A   1      44.304  31.597  34.180  1.00  0.00     0.029 A 
ATOM     55  C   UNL A   1      43.128  31.741  33.462  1.00  0.00     0.049 A 
ATOM     56  H   UNL A   1      42.242  30.416  32.081  1.00  0.00     0.167 HD
ATOM     57  C   UNL A   1      41.039  32.896  32.779  1.00  0.00     0.074 A 
ATOM     58  C   UNL A   1      40.103  34.001  32.840  1.00  0.00     0.031 C 
ATOM     59  C   UNL A   1      42.195  32.839  33.482  1.00  0.00     0.037 A 
BRANCH  46  60
ATOM     60  C   UNL A   1      45.491  27.691  32.550  1.00  0.00     0.058 A 
ATOM     61  C   UNL A   1      46.650  27.746  31.760  1.00  0.00     0.135 A 
ATOM     62  C   UNL A   1      45.497  26.840  33.666  1.00  0.00     0.135 A 
ATOM     63  F   UNL A   1      46.688  28.530  30.671  1.00  0.00    -0.206 F 
ATOM     64  C   UNL A   1      47.759  26.955  32.040  1.00  0.00     0.059 A 
ATOM     65  C   UNL A   1      46.604  26.057  33.980  1.00  0.00     0.059 A 
ATOM     66  F   UNL A   1      44.413  26.749  34.454  1.00  0.00    -0.206 F 
ATOM     67  C   UNL A   1      47.723  26.107  33.148  1.00  0.00     0.060 A 
BRANCH  67  68
ATOM     68  S   UNL A   1      49.156  25.065  33.490  1.00  0.00     0.124 S 
ATOM     69  O   UNL A   1      49.778  24.987  32.172  1.00  0.00    -0.237 OA
ATOM     70  O   UNL A   1      49.884  25.843  34.488  1.00  0.00    -0.237 OA
ATOM     71  O   UNL A   1      48.562  23.824  33.980  1.00  0.00    -0.744 OA
ENDBRANCH  67  68
ENDBRANCH  46  60
BRANCH  47  72
ATOM     72  C   UNL A   1      37.138  32.639  30.162  1.00  0.00     0.058 A 
ATOM     73  C   UNL A   1      37.118  33.598  29.138  1.00  0.00     0.135 A 
ATOM     74  C   UNL A   1      35.942  32.390  30.850  1.00  0.00     0.135 A 
ATOM     75  F   UNL A   1      38.241  33.871  28.456  1.00  0.00    -0.206 F 
ATOM     76  C   UNL A   1      35.961  34.296  28.815  1.00  0.00     0.059 A 
ATOM     77  C   UNL A   1      34.764  33.063  30.534  1.00  0.00     0.059 A 
ATOM     78  F   UNL A   1      35.906  31.470  31.826  1.00  0.00    -0.206 F 
ATOM     79  C   UNL A   1      34.787  34.022  29.520  1.00  0.00     0.060 A 
BRANCH  79  80
ATOM     80  S   UNL A   1      33.275  34.901  29.064  1.00  0.00     0.124 S 
ATOM     81  O   UNL A   1      32.740  34.038  28.018  1.00  0.00    -0.237 OA
ATOM     82  O   UNL A   1      32.534  34.915  30.322  1.00  0.00    -0.237 OA
ATOM     83  O   UNL A   1      33.769  36.202  28.623  1.00  0.00    -0.744 OA
ENDBRANCH  79  80
ENDBRANCH  47  72
BRANCH  59  84
ATOM     84  C   UNL A   1      42.543  34.019  34.341  1.00  0.00     0.058 A 
ATOM     85  C   UNL A   1      42.253  34.038  35.713  1.00  0.00     0.135 A 
ATOM     86  C   UNL A   1      43.243  35.106  33.796  1.00  0.00     0.135 A 
ATOM     87  F   UNL A   1      41.579  33.022  36.275  1.00  0.00    -0.206 F 
ATOM     88  C   UNL A   1      42.646  35.100  36.520  1.00  0.00     0.059 A 
ATOM     89  C   UNL A   1      43.659  36.172  34.588  1.00  0.00     0.059 A 
ATOM     90  F   UNL A   1      43.548  35.128  32.490  1.00  0.00    -0.206 F 
ATOM     91  C   UNL A   1      43.351  36.161  35.949  1.00  0.00     0.060 A 
BRANCH  91  92
ATOM     92  S   UNL A   1      43.915  37.506  37.014  1.00  0.00     0.124 S 
ATOM     93  O   UNL A   1      45.192  36.986  37.491  1.00  0.00    -0.237 OA
ATOM     94  O   UNL A   1      43.994  38.631  36.088  1.00  0.00    -0.237 OA
ATOM     95  O   UNL A   1      42.860  37.605  38.019  1.00  0.00    -0.744 OA
ENDBRANCH  91  92
ENDBRANCH  59  84
ENDBRANCH  33  34
ENDBRANCH  25  28
ENDBRANCH  23  24
ENDBRANCH  22  23
ENDBRANCH   1  22
TORSDOF 18
ENDMDL
MODEL 3
REMARK VINA RESULT:     -10.8      1.607      2.370
REMARK SMILES COc1ccc(Br)cc1S(=O)(=O)N(C)CC(=O)NCCCCNC(=O)c1ccc(-c2c3nc(c(-c4c(F)cc(S(=O)(=O)[O-])cc4F)c4ccc([nH]4)c(-c4c(F)cc(S(=O)(=O)[O-])cc4F)c4nc(c(-c5c(F)cc(S(=O)(=O)[O-])cc5F)c5ccc2[nH]5)C=C4)C=C3)cc1
REMARK SMILES IDX 20 1 19 2 18 3 16 4 17 5 15 7 13 8 14 9 10 10 11 11 12 12
REMARK SMILES IDX 9 13 3 14 4 15 5 16 8 17 6 18 7 19 2 20 1 21 21 22 22 23
REMARK SMILES IDX 23 24 24 25 25 27 26 28 27 29 91 30 28 31 90 32 29 33 30 34
REMARK SMILES IDX 31 35 84 36 32 37 89 38 83 39 85 40 33 41 88 42 82 43 81 44
REMARK SMILES IDX 34 46 68 47 47 48 67 49 48 50 51 51 66 52 86 53 49 54 50 55
REMARK SMILES IDX 65 57 87 58 52 59 35 60 36 61 45 62 37 63 38 64 44 65 46 66
REMARK SMILES IDX 39 67 40 68 41 69 42 70 43 71 69 72 70 73 79 74 71 75 72 76
REMARK SMILES IDX 78 77 80 78 73 79 74 80 75 81 76 82 77 83 53 84 54 85 63 86
REMARK SMILES IDX 55 87 56 88 62 89 64 90 57 91 58 92 59 93 60 94 61 95
REMARK H PARENT 18 6 23 26 85 45 51 56
REMARK Flexibility Score: inf
ROOT
ATOM      1  C   UNL A   1      39.516  22.064  26.132  1.00  0.00     0.023 C 
ENDROOT
BRANCH   1   2
ATOM      2  C   UNL A   1      38.227  22.882  26.016  1.00  0.00     0.116 C 
BRANCH   2   3
ATOM      3  N   UNL A   1      37.787  23.041  24.644  1.00  0.00    -0.355 N 
ATOM      4  C   UNL A   1      36.653  22.610  24.012  1.00  0.00     0.235 C 
ATOM      5  O   UNL A   1      36.485  22.971  22.843  1.00  0.00    -0.274 OA
ATOM      6  H   UNL A   1      38.409  23.544  24.071  1.00  0.00     0.163 HD
BRANCH   4   7
ATOM      7  C   UNL A   1      35.602  21.758  24.727  1.00  0.00     0.202 C 
BRANCH   7   8
ATOM      8  N   UNL A   1      34.511  22.451  25.503  1.00  0.00    -0.191 NA
ATOM      9  C   UNL A   1      34.343  21.883  26.839  1.00  0.00     0.125 C 
BRANCH   8  10
ATOM     10  S   UNL A   1      33.164  22.830  24.538  1.00  0.00     0.247 S 
ATOM     11  O   UNL A   1      32.020  22.896  25.439  1.00  0.00    -0.207 OA
ATOM     12  O   UNL A   1      33.181  21.889  23.444  1.00  0.00    -0.207 OA
BRANCH  10  13
ATOM     13  C   UNL A   1      33.185  24.438  23.773  1.00  0.00     0.125 A 
ATOM     14  C   UNL A   1      33.311  25.692  24.372  1.00  0.00     0.138 A 
ATOM     15  C   UNL A   1      33.191  26.842  23.566  1.00  0.00     0.049 A 
ATOM     16  C   UNL A   1      32.928  26.755  22.196  1.00  0.00     0.019 A 
ATOM     17  C   UNL A   1      32.946  24.362  22.378  1.00  0.00     0.041 A 
ATOM     18  C   UNL A   1      32.815  25.508  21.604  1.00  0.00     0.019 A 
ATOM     19  Br  UNL A   1      32.479  25.371  19.752  1.00  0.00    -0.051 Br
BRANCH  14  20
ATOM     20  O   UNL A   1      33.612  25.825  25.695  1.00  0.00    -0.495 OA
ATOM     21  C   UNL A   1      33.785  27.177  26.140  1.00  0.00     0.278 C 
ENDBRANCH  14  20
ENDBRANCH  10  13
ENDBRANCH   8  10
ENDBRANCH   7   8
ENDBRANCH   4   7
ENDBRANCH   2   3
ENDBRANCH   1   2
BRANCH   1  22
ATOM     22  C   UNL A   1      40.361  22.343  27.370  1.00  0.00     0.023 C 
BRANCH  22  23
ATOM     23  C   UNL A   1      41.624  23.143  27.092  1.00  0.00     0.116 C 
BRANCH  23  24
ATOM     24  N   UNL A   1      41.480  24.107  26.005  1.00  0.00    -0.352 N 
ATOM     25  C   UNL A   1      41.292  25.467  26.106  1.00  0.00     0.251 C 
ATOM     26  H   UNL A   1      41.522  23.741  25.092  1.00  0.00     0.163 HD
ATOM     27  O   UNL A   1      41.107  26.151  25.106  1.00  0.00    -0.269 OA
BRANCH  25  28
ATOM     28  C   UNL A   1      41.264  26.072  27.454  1.00  0.00     0.039 A 
ATOM     29  C   UNL A   1      42.323  26.890  27.854  1.00  0.00     0.014 A 
ATOM     30  C   UNL A   1      40.137  25.917  28.263  1.00  0.00     0.014 A 
ATOM     31  C   UNL A   1      42.208  27.633  29.031  1.00  0.00     0.010 A 
ATOM     32  C   UNL A   1      39.993  26.714  29.391  1.00  0.00     0.010 A 
ATOM     33  C   UNL A   1      41.021  27.589  29.779  1.00  0.00    -0.014 A 
BRANCH  33  34
ATOM     34  C   UNL A   1      40.813  28.438  30.978  1.00  0.00     0.031 A 
ATOM     35  C   UNL A   1      39.739  29.490  30.956  1.00  0.00     0.074 A 
ATOM     36  C   UNL A   1      41.652  28.344  32.029  1.00  0.00     0.049 A 
ATOM     37  N   UNL A   1      39.519  30.467  31.797  1.00  0.00    -0.248 NA
ATOM     38  C   UNL A   1      38.819  29.466  29.808  1.00  0.00     0.031 C 
ATOM     39  C   UNL A   1      42.761  27.396  32.151  1.00  0.00     0.029 A 
ATOM     40  N   UNL A   1      41.714  29.076  33.188  1.00  0.00    -0.354 N 
ATOM     41  C   UNL A   1      38.467  31.196  31.258  1.00  0.00     0.074 A 
ATOM     42  C   UNL A   1      38.115  30.570  30.003  1.00  0.00     0.031 C 
ATOM     43  C   UNL A   1      43.381  27.591  33.327  1.00  0.00     0.029 A 
ATOM     44  C   UNL A   1      42.741  28.702  34.023  1.00  0.00     0.049 A 
ATOM     45  H   UNL A   1      41.082  29.800  33.403  1.00  0.00     0.167 HD
ATOM     46  C   UNL A   1      37.841  32.282  31.771  1.00  0.00     0.037 A 
ATOM     47  C   UNL A   1      43.128  29.210  35.210  1.00  0.00     0.037 A 
ATOM     48  C   UNL A   1      38.157  32.864  33.046  1.00  0.00     0.049 A 
ATOM     49  C   UNL A   1      42.377  30.376  35.790  1.00  0.00     0.074 A 
ATOM     50  C   UNL A   1      37.553  33.935  33.679  1.00  0.00     0.029 A 
ATOM     51  N   UNL A   1      39.154  32.405  33.896  1.00  0.00    -0.354 N 
ATOM     52  N   UNL A   1      41.373  31.045  35.275  1.00  0.00    -0.248 NA
ATOM     53  C   UNL A   1      42.809  30.857  37.110  1.00  0.00     0.031 C 
ATOM     54  C   UNL A   1      38.190  34.130  34.911  1.00  0.00     0.029 A 
ATOM     55  C   UNL A   1      39.174  33.165  35.052  1.00  0.00     0.049 A 
ATOM     56  H   UNL A   1      39.757  31.652  33.704  1.00  0.00     0.167 HD
ATOM     57  C   UNL A   1      41.036  32.008  36.218  1.00  0.00     0.074 A 
ATOM     58  C   UNL A   1      41.940  31.834  37.338  1.00  0.00     0.031 C 
ATOM     59  C   UNL A   1      40.066  32.952  36.164  1.00  0.00     0.037 A 
BRANCH  46  60
ATOM     60  C   UNL A   1      36.748  32.895  30.947  1.00  0.00     0.058 A 
ATOM     61  C   UNL A   1      37.028  33.817  29.926  1.00  0.00     0.135 A 
ATOM     62  C   UNL A   1      35.404  32.564  31.182  1.00  0.00     0.135 A 
ATOM     63  F   UNL A   1      38.295  34.181  29.675  1.00  0.00    -0.206 F 
ATOM     64  C   UNL A   1      36.012  34.420  29.193  1.00  0.00     0.059 A 
ATOM     65  C   UNL A   1      34.372  33.137  30.445  1.00  0.00     0.059 A 
ATOM     66  F   UNL A   1      35.082  31.689  32.149  1.00  0.00    -0.206 F 
ATOM     67  C   UNL A   1      34.686  34.080  29.466  1.00  0.00     0.060 A 
BRANCH  67  68
ATOM     68  S   UNL A   1      33.372  34.887  28.528  1.00  0.00     0.124 S 
ATOM     69  O   UNL A   1      32.551  35.442  29.599  1.00  0.00    -0.237 OA
ATOM     70  O   UNL A   1      34.107  35.860  27.724  1.00  0.00    -0.237 OA
ATOM     71  O   UNL A   1      32.770  33.789  27.778  1.00  0.00    -0.744 OA
ENDBRANCH  67  68
ENDBRANCH  46  60
BRANCH  47  72
ATOM     72  C   UNL A   1      44.263  28.595  35.948  1.00  0.00     0.058 A 
ATOM     73  C   UNL A   1      45.574  29.050  35.742  1.00  0.00     0.135 A 
ATOM     74  C   UNL A   1      44.064  27.561  36.872  1.00  0.00     0.135 A 
ATOM     75  F   UNL A   1      45.811  30.035  34.863  1.00  0.00    -0.206 F 
ATOM     76  C   UNL A   1      46.653  28.490  36.415  1.00  0.00     0.059 A 
ATOM     77  C   UNL A   1      45.127  26.996  37.574  1.00  0.00     0.059 A 
ATOM     78  F   UNL A   1      42.826  27.105  37.116  1.00  0.00    -0.206 F 
ATOM     79  C   UNL A   1      46.420  27.461  37.330  1.00  0.00     0.060 A 
BRANCH  79  80
ATOM     80  S   UNL A   1      47.822  26.769  38.236  1.00  0.00     0.124 S 
ATOM     81  O   UNL A   1      48.910  26.971  37.288  1.00  0.00    -0.237 OA
ATOM     82  O   UNL A   1      47.856  27.602  39.435  1.00  0.00    -0.237 OA
ATOM     83  O   UNL A   1      47.421  25.383  38.457  1.00  0.00    -0.744 OA
ENDBRANCH  79  80
ENDBRANCH  47  72
BRANCH  59  84
ATOM     84  C   UNL A   1      39.895  33.839  37.361  1.00  0.00     0.058 A 
ATOM     85  C   UNL A   1      40.474  35.115  37.417  1.00  0.00     0.135 A 
ATOM     86  C   UNL A   1      39.076  33.436  38.427  1.00  0.00     0.135 A 
ATOM     87  F   UNL A   1      41.269  35.540  36.422  1.00  0.00    -0.206 F 
ATOM     88  C   UNL A   1      40.249  35.964  38.495  1.00  0.00     0.059 A 
ATOM     89  C   UNL A   1      38.826  34.275  39.508  1.00  0.00     0.059 A 
ATOM     90  F   UNL A   1      38.496  32.226  38.414  1.00  0.00    -0.206 F 
ATOM     91  C   UNL A   1      39.421  35.537  39.535  1.00  0.00     0.060 A 
BRANCH  91  92
ATOM     92  S   UNL A   1      39.081  36.669  40.900  1.00  0.00     0.124 S 
ATOM     93  O   UNL A   1      38.055  35.939  41.637  1.00  0.00    -0.237 OA
ATOM     94  O   UNL A   1      40.381  36.771  41.556  1.00  0.00    -0.237 OA
ATOM     95  O   UNL A   1      38.630  37.883  40.227  1.00  0.00    -0.744 OA
ENDBRANCH  91  92
ENDBRANCH  59  84
ENDBRANCH  33  34
ENDBRANCH  25  28
ENDBRANCH  23  24
ENDBRANCH  22  23
ENDBRANCH   1  22
TORSDOF 18
ENDMDL
