MODEL 1
REMARK VINA RESULT:      -9.9      0.000      0.000
REMARK SMILES CCC[C@@H](C)[C@@](C#N)(CC)C(=O)NCCCCNC(=O)c1ccc(-c2c3nc(c(-c4c(F)cc(S(=O)(=O)[O-])cc4F)c4ccc([nH]4)c(-c4c(F)cc(S(=O)(=O)[O-])cc4F)c4nc(c(-c5c(F)cc(S(=O)(=O)[O-])cc5F)c5ccc2[nH]5)C=C4)C=C3)cc1
REMARK SMILES IDX 15 1 14 2 13 3 11 4 12 5 6 7 4 8 5 9 3 10 2 11 1 12 7 13
REMARK SMILES IDX 8 14 9 15 10 16 16 17 17 18 18 19 19 20 20 22 21 23 22 24
REMARK SMILES IDX 86 25 23 26 85 27 24 28 25 29 26 30 79 31 27 32 84 33 78 34
REMARK SMILES IDX 80 35 28 36 83 37 77 38 76 39 29 41 63 42 42 43 62 44 43 45
REMARK SMILES IDX 46 46 61 47 81 48 44 49 45 50 60 52 82 53 47 54 30 55 31 56
REMARK SMILES IDX 40 57 32 58 33 59 39 60 41 61 34 62 35 63 36 64 37 65 38 66
REMARK SMILES IDX 64 67 65 68 74 69 66 70 67 71 73 72 75 73 68 74 69 75 70 76
REMARK SMILES IDX 71 77 72 78 48 79 49 80 58 81 50 82 51 83 57 84 59 85 52 86
REMARK SMILES IDX 53 87 54 88 55 89 56 90
REMARK H PARENT 13 6 18 21 80 40 46 51
REMARK Flexibility Score: inf
ROOT
ATOM      1  C   UNL A   1      34.876  29.441  27.186  1.00  0.00     0.023 C 
ENDROOT
BRANCH   1   2
ATOM      2  C   UNL A   1      33.768  29.005  26.232  1.00  0.00     0.116 C 
BRANCH   2   3
ATOM      3  N   UNL A   1      34.201  29.106  24.848  1.00  0.00    -0.355 N 
ATOM      4  C   UNL A   1      33.934  28.335  23.755  1.00  0.00     0.240 C 
ATOM      5  O   UNL A   1      34.503  28.666  22.712  1.00  0.00    -0.273 OA
ATOM      6  H   UNL A   1      34.794  29.870  24.667  1.00  0.00     0.163 HD
BRANCH   4   7
ATOM      7  C   UNL A   1      32.994  27.111  23.828  1.00  0.00     0.138 C 
BRANCH   7   8
ATOM      8  C   UNL A   1      33.314  26.142  25.054  1.00  0.00     0.016 C 
ATOM      9  C   UNL A   1      34.488  25.181  24.798  1.00  0.00     0.010 C 
BRANCH   8  10
ATOM     10  C   UNL A   1      32.075  25.377  25.604  1.00  0.00     0.005 C 
BRANCH  10  11
ATOM     11  C   UNL A   1      32.044  23.859  25.352  1.00  0.00    -0.003 C 
ATOM     12  C   UNL A   1      31.137  23.431  24.206  1.00  0.00     0.004 C 
ENDBRANCH  10  11
ENDBRANCH   8  10
ENDBRANCH   7   8
BRANCH   7  13
ATOM     13  C   UNL A   1      33.246  26.328  22.549  1.00  0.00     0.079 C 
ATOM     14  N   UNL A   1      33.454  25.679  21.489  1.00  0.00    -0.197 NA
ENDBRANCH   7  13
BRANCH   7  15
ATOM     15  C   UNL A   1      31.483  27.519  23.844  1.00  0.00     0.029 C 
ATOM     16  C   UNL A   1      30.629  27.109  22.647  1.00  0.00     0.006 C 
ENDBRANCH   7  15
ENDBRANCH   4   7
ENDBRANCH   2   3
ENDBRANCH   1   2
BRANCH   1  17
ATOM     17  C   UNL A   1      34.633  30.804  27.831  1.00  0.00     0.023 C 
BRANCH  17  18
ATOM     18  C   UNL A   1      35.792  31.324  28.673  1.00  0.00     0.116 C 
BRANCH  18  19
ATOM     19  N   UNL A   1      35.658  30.981  30.080  1.00  0.00    -0.352 N 
ATOM     20  C   UNL A   1      36.581  30.401  30.917  1.00  0.00     0.251 C 
ATOM     21  H   UNL A   1      34.788  31.193  30.489  1.00  0.00     0.163 HD
ATOM     22  O   UNL A   1      36.249  30.034  32.035  1.00  0.00    -0.269 OA
BRANCH  20  23
ATOM     23  C   UNL A   1      37.964  30.197  30.436  1.00  0.00     0.039 A 
ATOM     24  C   UNL A   1      38.928  29.756  31.343  1.00  0.00     0.014 A 
ATOM     25  C   UNL A   1      38.296  30.410  29.095  1.00  0.00     0.014 A 
ATOM     26  C   UNL A   1      40.215  29.469  30.888  1.00  0.00     0.010 A 
ATOM     27  C   UNL A   1      39.555  30.045  28.629  1.00  0.00     0.010 A 
ATOM     28  C   UNL A   1      40.527  29.572  29.521  1.00  0.00    -0.014 A 
BRANCH  28  29
ATOM     29  C   UNL A   1      41.863  29.163  29.019  1.00  0.00     0.031 A 
ATOM     30  C   UNL A   1      42.989  30.156  28.941  1.00  0.00     0.074 A 
ATOM     31  C   UNL A   1      42.045  27.896  28.592  1.00  0.00     0.049 A 
ATOM     32  N   UNL A   1      44.220  29.975  28.540  1.00  0.00    -0.248 NA
ATOM     33  C   UNL A   1      42.689  31.539  29.346  1.00  0.00     0.031 C 
ATOM     34  C   UNL A   1      41.009  26.861  28.556  1.00  0.00     0.029 A 
ATOM     35  N   UNL A   1      43.161  27.263  28.110  1.00  0.00    -0.354 N 
ATOM     36  C   UNL A   1      44.839  31.216  28.637  1.00  0.00     0.074 A 
ATOM     37  C   UNL A   1      43.832  32.154  29.078  1.00  0.00     0.031 C 
ATOM     38  C   UNL A   1      41.547  25.715  28.113  1.00  0.00     0.029 A 
ATOM     39  C   UNL A   1      42.953  25.939  27.797  1.00  0.00     0.049 A 
ATOM     40  H   UNL A   1      44.029  27.713  27.997  1.00  0.00     0.167 HD
ATOM     41  C   UNL A   1      46.134  31.536  28.405  1.00  0.00     0.037 A 
ATOM     42  C   UNL A   1      43.800  25.011  27.311  1.00  0.00     0.037 A 
ATOM     43  C   UNL A   1      47.133  30.589  27.979  1.00  0.00     0.049 A 
ATOM     44  C   UNL A   1      45.234  25.391  27.064  1.00  0.00     0.074 A 
ATOM     45  C   UNL A   1      48.486  30.799  27.777  1.00  0.00     0.029 A 
ATOM     46  N   UNL A   1      46.888  29.256  27.682  1.00  0.00    -0.354 N 
ATOM     47  N   UNL A   1      45.823  26.550  27.244  1.00  0.00    -0.248 NA
ATOM     48  C   UNL A   1      46.123  24.335  26.561  1.00  0.00     0.031 C 
ATOM     49  C   UNL A   1      49.048  29.608  27.306  1.00  0.00     0.029 A 
ATOM     50  C   UNL A   1      48.058  28.639  27.270  1.00  0.00     0.049 A 
ATOM     51  H   UNL A   1      46.012  28.815  27.752  1.00  0.00     0.167 HD
ATOM     52  C   UNL A   1      47.155  26.358  26.894  1.00  0.00     0.074 A 
ATOM     53  C   UNL A   1      47.289  24.966  26.514  1.00  0.00     0.031 C 
ATOM     54  C   UNL A   1      48.175  27.252  26.890  1.00  0.00     0.037 A 
BRANCH  41  55
ATOM     55  C   UNL A   1      46.547  32.970  28.610  1.00  0.00     0.058 A 
ATOM     56  C   UNL A   1      46.992  33.440  29.856  1.00  0.00     0.135 A 
ATOM     57  C   UNL A   1      46.536  33.876  27.536  1.00  0.00     0.135 A 
ATOM     58  F   UNL A   1      47.010  32.622  30.921  1.00  0.00    -0.206 F 
ATOM     59  C   UNL A   1      47.381  34.763  30.039  1.00  0.00     0.059 A 
ATOM     60  C   UNL A   1      46.950  35.196  27.690  1.00  0.00     0.059 A 
ATOM     61  F   UNL A   1      46.121  33.482  26.323  1.00  0.00    -0.206 F 
ATOM     62  C   UNL A   1      47.357  35.634  28.949  1.00  0.00     0.060 A 
BRANCH  62  63
ATOM     63  S   UNL A   1      47.873  37.345  29.204  1.00  0.00     0.124 S 
ATOM     64  O   UNL A   1      47.106  38.036  28.172  1.00  0.00    -0.237 OA
ATOM     65  O   UNL A   1      47.455  37.595  30.579  1.00  0.00    -0.237 OA
ATOM     66  O   UNL A   1      49.315  37.302  28.989  1.00  0.00    -0.744 OA
ENDBRANCH  62  63
ENDBRANCH  41  55
BRANCH  42  67
ATOM     67  C   UNL A   1      43.315  23.629  27.052  1.00  0.00     0.058 A 
ATOM     68  C   UNL A   1      43.119  22.721  28.102  1.00  0.00     0.135 A 
ATOM     69  C   UNL A   1      43.017  23.195  25.751  1.00  0.00     0.135 A 
ATOM     70  F   UNL A   1      43.394  23.085  29.364  1.00  0.00    -0.206 F 
ATOM     71  C   UNL A   1      42.660  21.428  27.873  1.00  0.00     0.059 A 
ATOM     72  C   UNL A   1      42.530  21.917  25.498  1.00  0.00     0.059 A 
ATOM     73  F   UNL A   1      43.169  24.031  24.711  1.00  0.00    -0.206 F 
ATOM     74  C   UNL A   1      42.365  21.036  26.567  1.00  0.00     0.060 A 
BRANCH  74  75
ATOM     75  S   UNL A   1      41.719  19.374  26.285  1.00  0.00     0.124 S 
ATOM     76  O   UNL A   1      42.068  18.707  27.535  1.00  0.00    -0.237 OA
ATOM     77  O   UNL A   1      40.297  19.630  26.073  1.00  0.00    -0.237 OA
ATOM     78  O   UNL A   1      42.450  18.924  25.104  1.00  0.00    -0.744 OA
ENDBRANCH  74  75
ENDBRANCH  42  67
BRANCH  54  79
ATOM     79  C   UNL A   1      49.532  26.747  26.481  1.00  0.00     0.058 A 
ATOM     80  C   UNL A   1      50.386  26.101  27.389  1.00  0.00     0.135 A 
ATOM     81  C   UNL A   1      49.968  26.878  25.152  1.00  0.00     0.135 A 
ATOM     82  F   UNL A   1      50.021  25.955  28.673  1.00  0.00    -0.206 F 
ATOM     83  C   UNL A   1      51.638  25.632  27.002  1.00  0.00     0.059 A 
ATOM     84  C   UNL A   1      51.202  26.388  24.736  1.00  0.00     0.059 A 
ATOM     85  F   UNL A   1      49.187  27.477  24.239  1.00  0.00    -0.206 F 
ATOM     86  C   UNL A   1      52.036  25.779  25.673  1.00  0.00     0.060 A 
BRANCH  86  87
ATOM     87  S   UNL A   1      53.653  25.148  25.180  1.00  0.00     0.124 S 
ATOM     88  O   UNL A   1      54.534  25.822  26.128  1.00  0.00    -0.237 OA
ATOM     89  O   UNL A   1      53.498  23.709  25.371  1.00  0.00    -0.237 OA
ATOM     90  O   UNL A   1      53.779  25.579  23.791  1.00  0.00    -0.744 OA
ENDBRANCH  86  87
ENDBRANCH  54  79
ENDBRANCH  28  29
ENDBRANCH  20  23
ENDBRANCH  18  19
ENDBRANCH  17  18
ENDBRANCH   1  17
TORSDOF 19
ENDMDL
MODEL 2
REMARK VINA RESULT:      -9.9      6.465      8.841
REMARK SMILES CCC[C@@H](C)[C@@](C#N)(CC)C(=O)NCCCCNC(=O)c1ccc(-c2c3nc(c(-c4c(F)cc(S(=O)(=O)[O-])cc4F)c4ccc([nH]4)c(-c4c(F)cc(S(=O)(=O)[O-])cc4F)c4nc(c(-c5c(F)cc(S(=O)(=O)[O-])cc5F)c5ccc2[nH]5)C=C4)C=C3)cc1
REMARK SMILES IDX 15 1 14 2 13 3 11 4 12 5 6 7 4 8 5 9 3 10 2 11 1 12 7 13
REMARK SMILES IDX 8 14 9 15 10 16 16 17 17 18 18 19 19 20 20 22 21 23 22 24
REMARK SMILES IDX 86 25 23 26 85 27 24 28 25 29 26 30 79 31 27 32 84 33 78 34
REMARK SMILES IDX 80 35 28 36 83 37 77 38 76 39 29 41 63 42 42 43 62 44 43 45
REMARK SMILES IDX 46 46 61 47 81 48 44 49 45 50 60 52 82 53 47 54 30 55 31 56
REMARK SMILES IDX 40 57 32 58 33 59 39 60 41 61 34 62 35 63 36 64 37 65 38 66
REMARK SMILES IDX 64 67 65 68 74 69 66 70 67 71 73 72 75 73 68 74 69 75 70 76
REMARK SMILES IDX 71 77 72 78 48 79 49 80 58 81 50 82 51 83 57 84 59 85 52 86
REMARK SMILES IDX 53 87 54 88 55 89 56 90
REMARK H PARENT 13 6 18 21 80 40 46 51
REMARK Flexibility Score: inf
ROOT
ATOM      1  C   UNL A   1      31.963  30.579  26.697  1.00  0.00     0.023 C 
ENDROOT
BRANCH   1   2
ATOM      2  C   UNL A   1      31.442  30.018  25.377  1.00  0.00     0.116 C 
BRANCH   2   3
ATOM      3  N   UNL A   1      32.491  29.314  24.658  1.00  0.00    -0.355 N 
ATOM      4  C   UNL A   1      32.540  28.062  24.119  1.00  0.00     0.240 C 
ATOM      5  O   UNL A   1      33.615  27.741  23.604  1.00  0.00    -0.273 OA
ATOM      6  H   UNL A   1      33.316  29.838  24.538  1.00  0.00     0.163 HD
BRANCH   4   7
ATOM      7  C   UNL A   1      31.332  27.102  24.172  1.00  0.00     0.138 C 
BRANCH   7   8
ATOM      8  C   UNL A   1      29.966  27.781  23.704  1.00  0.00     0.016 C 
ATOM      9  C   UNL A   1      28.738  26.863  23.839  1.00  0.00     0.010 C 
BRANCH   8  10
ATOM     10  C   UNL A   1      30.026  28.430  22.290  1.00  0.00     0.005 C 
BRANCH  10  11
ATOM     11  C   UNL A   1      29.589  29.902  22.197  1.00  0.00    -0.003 C 
ATOM     12  C   UNL A   1      28.099  30.101  21.958  1.00  0.00     0.004 C 
ENDBRANCH  10  11
ENDBRANCH   8  10
ENDBRANCH   7   8
BRANCH   7  13
ATOM     13  C   UNL A   1      31.177  26.722  25.636  1.00  0.00     0.079 C 
ATOM     14  N   UNL A   1      31.048  26.407  26.850  1.00  0.00    -0.197 NA
ENDBRANCH   7  13
BRANCH   7  15
ATOM     15  C   UNL A   1      31.582  25.784  23.365  1.00  0.00     0.029 C 
ATOM     16  C   UNL A   1      30.894  24.513  23.858  1.00  0.00     0.006 C 
ENDBRANCH   7  15
ENDBRANCH   4   7
ENDBRANCH   2   3
ENDBRANCH   1   2
BRANCH   1  17
ATOM     17  C   UNL A   1      31.711  32.075  26.872  1.00  0.00     0.023 C 
BRANCH  17  18
ATOM     18  C   UNL A   1      32.892  32.856  27.437  1.00  0.00     0.116 C 
BRANCH  18  19
ATOM     19  N   UNL A   1      32.539  34.219  27.800  1.00  0.00    -0.352 N 
ATOM     20  C   UNL A   1      33.053  35.005  28.803  1.00  0.00     0.251 C 
ATOM     21  H   UNL A   1      31.835  34.636  27.253  1.00  0.00     0.163 HD
ATOM     22  O   UNL A   1      32.529  36.076  29.072  1.00  0.00    -0.269 OA
BRANCH  20  23
ATOM     23  C   UNL A   1      34.222  34.523  29.570  1.00  0.00     0.039 A 
ATOM     24  C   UNL A   1      34.010  33.975  30.835  1.00  0.00     0.014 A 
ATOM     25  C   UNL A   1      35.509  34.586  29.031  1.00  0.00     0.014 A 
ATOM     26  C   UNL A   1      35.087  33.430  31.535  1.00  0.00     0.010 A 
ATOM     27  C   UNL A   1      36.566  33.969  29.693  1.00  0.00     0.010 A 
ATOM     28  C   UNL A   1      36.366  33.386  30.952  1.00  0.00    -0.014 A 
BRANCH  28  29
ATOM     29  C   UNL A   1      37.490  32.710  31.647  1.00  0.00     0.031 A 
ATOM     30  C   UNL A   1      37.987  33.219  32.972  1.00  0.00     0.074 A 
ATOM     31  C   UNL A   1      38.088  31.656  31.057  1.00  0.00     0.049 A 
ATOM     32  N   UNL A   1      38.948  32.751  33.725  1.00  0.00    -0.248 NA
ATOM     33  C   UNL A   1      37.338  34.425  33.512  1.00  0.00     0.031 C 
ATOM     34  C   UNL A   1      37.738  31.113  29.742  1.00  0.00     0.029 A 
ATOM     35  N   UNL A   1      39.114  30.851  31.483  1.00  0.00    -0.354 N 
ATOM     36  C   UNL A   1      39.022  33.603  34.821  1.00  0.00     0.074 A 
ATOM     37  C   UNL A   1      38.051  34.651  34.605  1.00  0.00     0.031 C 
ATOM     38  C   UNL A   1      38.509  30.045  29.486  1.00  0.00     0.029 A 
ATOM     39  C   UNL A   1      39.434  29.848  30.597  1.00  0.00     0.049 A 
ATOM     40  H   UNL A   1      39.579  30.980  32.341  1.00  0.00     0.167 HD
ATOM     41  C   UNL A   1      39.810  33.504  35.918  1.00  0.00     0.037 A 
ATOM     42  C   UNL A   1      40.366  28.879  30.672  1.00  0.00     0.037 A 
ATOM     43  C   UNL A   1      40.766  32.446  36.130  1.00  0.00     0.049 A 
ATOM     44  C   UNL A   1      41.228  28.789  31.902  1.00  0.00     0.074 A 
ATOM     45  C   UNL A   1      41.567  32.220  37.235  1.00  0.00     0.029 A 
ATOM     46  N   UNL A   1      41.055  31.442  35.215  1.00  0.00    -0.354 N 
ATOM     47  N   UNL A   1      41.225  29.554  32.967  1.00  0.00    -0.248 NA
ATOM     48  C   UNL A   1      42.210  27.698  31.945  1.00  0.00     0.031 C 
ATOM     49  C   UNL A   1      42.380  31.113  36.967  1.00  0.00     0.029 A 
ATOM     50  C   UNL A   1      42.043  30.612  35.719  1.00  0.00     0.049 A 
ATOM     51  H   UNL A   1      40.622  31.337  34.338  1.00  0.00     0.167 HD
ATOM     52  C   UNL A   1      42.190  29.025  33.818  1.00  0.00     0.074 A 
ATOM     53  C   UNL A   1      42.740  27.862  33.150  1.00  0.00     0.031 C 
ATOM     54  C   UNL A   1      42.584  29.460  35.040  1.00  0.00     0.037 A 
BRANCH  41  55
ATOM     55  C   UNL A   1      39.671  34.566  36.977  1.00  0.00     0.058 A 
ATOM     56  C   UNL A   1      38.862  34.378  38.109  1.00  0.00     0.135 A 
ATOM     57  C   UNL A   1      40.387  35.771  36.878  1.00  0.00     0.135 A 
ATOM     58  F   UNL A   1      38.145  33.253  38.250  1.00  0.00    -0.206 F 
ATOM     59  C   UNL A   1      38.743  35.358  39.089  1.00  0.00     0.059 A 
ATOM     60  C   UNL A   1      40.306  36.752  37.862  1.00  0.00     0.059 A 
ATOM     61  F   UNL A   1      41.175  36.004  35.817  1.00  0.00    -0.206 F 
ATOM     62  C   UNL A   1      39.470  36.542  38.957  1.00  0.00     0.060 A 
BRANCH  62  63
ATOM     63  S   UNL A   1      39.309  37.799  40.243  1.00  0.00     0.124 S 
ATOM     64  O   UNL A   1      38.076  38.469  39.842  1.00  0.00    -0.237 OA
ATOM     65  O   UNL A   1      39.227  36.994  41.457  1.00  0.00    -0.237 OA
ATOM     66  O   UNL A   1      40.526  38.591  40.101  1.00  0.00    -0.744 OA
ENDBRANCH  62  63
ENDBRANCH  41  55
BRANCH  42  67
ATOM     67  C   UNL A   1      40.513  27.905  29.557  1.00  0.00     0.058 A 
ATOM     68  C   UNL A   1      41.473  28.093  28.553  1.00  0.00     0.135 A 
ATOM     69  C   UNL A   1      39.712  26.755  29.488  1.00  0.00     0.135 A 
ATOM     70  F   UNL A   1      42.260  29.179  28.571  1.00  0.00    -0.206 F 
ATOM     71  C   UNL A   1      41.624  27.185  27.508  1.00  0.00     0.059 A 
ATOM     72  C   UNL A   1      39.862  25.817  28.470  1.00  0.00     0.059 A 
ATOM     73  F   UNL A   1      38.791  26.517  30.435  1.00  0.00    -0.206 F 
ATOM     74  C   UNL A   1      40.815  26.048  27.479  1.00  0.00     0.060 A 
BRANCH  74  75
ATOM     75  S   UNL A   1      41.055  24.848  26.150  1.00  0.00     0.124 S 
ATOM     76  O   UNL A   1      39.700  24.344  25.961  1.00  0.00    -0.237 OA
ATOM     77  O   UNL A   1      41.582  25.684  25.075  1.00  0.00    -0.237 OA
ATOM     78  O   UNL A   1      42.008  23.901  26.721  1.00  0.00    -0.744 OA
ENDBRANCH  74  75
ENDBRANCH  42  67
BRANCH  54  79
ATOM     79  C   UNL A   1      43.647  28.663  35.746  1.00  0.00     0.058 A 
ATOM     80  C   UNL A   1      45.012  28.957  35.598  1.00  0.00     0.135 A 
ATOM     81  C   UNL A   1      43.293  27.616  36.613  1.00  0.00     0.135 A 
ATOM     82  F   UNL A   1      45.407  29.943  34.778  1.00  0.00    -0.206 F 
ATOM     83  C   UNL A   1      45.990  28.218  36.259  1.00  0.00     0.059 A 
ATOM     84  C   UNL A   1      44.252  26.886  37.308  1.00  0.00     0.059 A 
ATOM     85  F   UNL A   1      42.001  27.300  36.800  1.00  0.00    -0.206 F 
ATOM     86  C   UNL A   1      45.599  27.186  37.112  1.00  0.00     0.060 A 
BRANCH  86  87
ATOM     87  S   UNL A   1      46.877  26.250  37.978  1.00  0.00     0.124 S 
ATOM     88  O   UNL A   1      48.067  26.592  37.205  1.00  0.00    -0.237 OA
ATOM     89  O   UNL A   1      46.813  26.808  39.325  1.00  0.00    -0.237 OA
ATOM     90  O   UNL A   1      46.427  24.866  37.858  1.00  0.00    -0.744 OA
ENDBRANCH  86  87
ENDBRANCH  54  79
ENDBRANCH  28  29
ENDBRANCH  20  23
ENDBRANCH  18  19
ENDBRANCH  17  18
ENDBRANCH   1  17
TORSDOF 19
ENDMDL
MODEL 3
REMARK VINA RESULT:      -9.8      6.788     12.201
REMARK SMILES CCC[C@@H](C)[C@@](C#N)(CC)C(=O)NCCCCNC(=O)c1ccc(-c2c3nc(c(-c4c(F)cc(S(=O)(=O)[O-])cc4F)c4ccc([nH]4)c(-c4c(F)cc(S(=O)(=O)[O-])cc4F)c4nc(c(-c5c(F)cc(S(=O)(=O)[O-])cc5F)c5ccc2[nH]5)C=C4)C=C3)cc1
REMARK SMILES IDX 15 1 14 2 13 3 11 4 12 5 6 7 4 8 5 9 3 10 2 11 1 12 7 13
REMARK SMILES IDX 8 14 9 15 10 16 16 17 17 18 18 19 19 20 20 22 21 23 22 24
REMARK SMILES IDX 86 25 23 26 85 27 24 28 25 29 26 30 79 31 27 32 84 33 78 34
REMARK SMILES IDX 80 35 28 36 83 37 77 38 76 39 29 41 63 42 42 43 62 44 43 45
REMARK SMILES IDX 46 46 61 47 81 48 44 49 45 50 60 52 82 53 47 54 30 55 31 56
REMARK SMILES IDX 40 57 32 58 33 59 39 60 41 61 34 62 35 63 36 64 37 65 38 66
REMARK SMILES IDX 64 67 65 68 74 69 66 70 67 71 73 72 75 73 68 74 69 75 70 76
REMARK SMILES IDX 71 77 72 78 48 79 49 80 58 81 50 82 51 83 57 84 59 85 52 86
REMARK SMILES IDX 53 87 54 88 55 89 56 90
REMARK H PARENT 13 6 18 21 80 40 46 51
REMARK Flexibility Score: inf
ROOT
ATOM      1  C   UNL A   1      37.221  23.274  25.622  1.00  0.00     0.023 C 
ENDROOT
BRANCH   1   2
ATOM      2  C   UNL A   1      36.208  22.179  25.303  1.00  0.00     0.116 C 
BRANCH   2   3
ATOM      3  N   UNL A   1      35.360  21.902  26.451  1.00  0.00    -0.355 N 
ATOM      4  C   UNL A   1      34.072  22.249  26.732  1.00  0.00     0.240 C 
ATOM      5  O   UNL A   1      33.647  21.891  27.834  1.00  0.00    -0.273 OA
ATOM      6  H   UNL A   1      35.796  21.366  27.151  1.00  0.00     0.163 HD
BRANCH   4   7
ATOM      7  C   UNL A   1      33.208  23.059  25.741  1.00  0.00     0.138 C 
BRANCH   7   8
ATOM      8  C   UNL A   1      33.934  24.373  25.200  1.00  0.00     0.016 C 
ATOM      9  C   UNL A   1      33.596  25.644  25.999  1.00  0.00     0.010 C 
BRANCH   8  10
ATOM     10  C   UNL A   1      33.765  24.613  23.671  1.00  0.00     0.005 C 
BRANCH  10  11
ATOM     11  C   UNL A   1      32.747  25.692  23.258  1.00  0.00    -0.003 C 
ATOM     12  C   UNL A   1      32.102  25.459  21.900  1.00  0.00     0.004 C 
ENDBRANCH  10  11
ENDBRANCH   8  10
ENDBRANCH   7   8
BRANCH   7  13
ATOM     13  C   UNL A   1      31.988  23.504  26.532  1.00  0.00     0.079 C 
ATOM     14  N   UNL A   1      30.977  23.872  27.189  1.00  0.00    -0.197 NA
ENDBRANCH   7  13
BRANCH   7  15
ATOM     15  C   UNL A   1      32.704  22.191  24.541  1.00  0.00     0.029 C 
ATOM     16  C   UNL A   1      32.376  20.725  24.819  1.00  0.00     0.006 C 
ENDBRANCH   7  15
ENDBRANCH   4   7
ENDBRANCH   2   3
ENDBRANCH   1   2
BRANCH   1  17
ATOM     17  C   UNL A   1      38.607  22.744  25.984  1.00  0.00     0.023 C 
BRANCH  17  18
ATOM     18  C   UNL A   1      39.497  23.741  26.717  1.00  0.00     0.116 C 
BRANCH  18  19
ATOM     19  N   UNL A   1      40.616  24.194  25.905  1.00  0.00    -0.352 N 
ATOM     20  C   UNL A   1      41.437  25.279  26.097  1.00  0.00     0.251 C 
ATOM     21  H   UNL A   1      40.812  23.649  25.109  1.00  0.00     0.163 HD
ATOM     22  O   UNL A   1      42.232  25.607  25.228  1.00  0.00    -0.269 OA
BRANCH  20  23
ATOM     23  C   UNL A   1      41.321  26.059  27.347  1.00  0.00     0.039 A 
ATOM     24  C   UNL A   1      42.319  26.986  27.650  1.00  0.00     0.014 A 
ATOM     25  C   UNL A   1      40.223  25.896  28.196  1.00  0.00     0.014 A 
ATOM     26  C   UNL A   1      42.181  27.797  28.777  1.00  0.00     0.010 A 
ATOM     27  C   UNL A   1      40.048  26.761  29.271  1.00  0.00     0.010 A 
ATOM     28  C   UNL A   1      41.025  27.719  29.573  1.00  0.00    -0.014 A 
BRANCH  28  29
ATOM     29  C   UNL A   1      40.825  28.656  30.708  1.00  0.00     0.031 A 
ATOM     30  C   UNL A   1      41.667  28.544  31.949  1.00  0.00     0.074 A 
ATOM     31  C   UNL A   1      39.850  29.584  30.630  1.00  0.00     0.049 A 
ATOM     32  N   UNL A   1      41.639  29.278  33.031  1.00  0.00    -0.248 NA
ATOM     33  C   UNL A   1      42.653  27.451  31.993  1.00  0.00     0.031 C 
ATOM     34  C   UNL A   1      38.926  29.745  29.505  1.00  0.00     0.029 A 
ATOM     35  N   UNL A   1      39.474  30.567  31.510  1.00  0.00    -0.354 N 
ATOM     36  C   UNL A   1      42.595  28.736  33.883  1.00  0.00     0.074 A 
ATOM     37  C   UNL A   1      43.143  27.576  33.217  1.00  0.00     0.031 C 
ATOM     38  C   UNL A   1      38.116  30.786  29.746  1.00  0.00     0.029 A 
ATOM     39  C   UNL A   1      38.434  31.345  31.056  1.00  0.00     0.049 A 
ATOM     40  H   UNL A   1      39.907  30.702  32.383  1.00  0.00     0.167 HD
ATOM     41  C   UNL A   1      42.997  29.183  35.097  1.00  0.00     0.037 A 
ATOM     42  C   UNL A   1      37.807  32.389  31.631  1.00  0.00     0.037 A 
ATOM     43  C   UNL A   1      42.453  30.350  35.745  1.00  0.00     0.049 A 
ATOM     44  C   UNL A   1      38.273  32.868  32.978  1.00  0.00     0.074 A 
ATOM     45  C   UNL A   1      42.834  30.922  36.946  1.00  0.00     0.029 A 
ATOM     46  N   UNL A   1      41.408  31.118  35.251  1.00  0.00    -0.354 N 
ATOM     47  N   UNL A   1      39.238  32.395  33.732  1.00  0.00    -0.248 NA
ATOM     48  C   UNL A   1      37.575  34.027  33.548  1.00  0.00     0.031 C 
ATOM     49  C   UNL A   1      41.984  32.002  37.205  1.00  0.00     0.029 A 
ATOM     50  C   UNL A   1      41.112  32.141  36.137  1.00  0.00     0.049 A 
ATOM     51  H   UNL A   1      40.944  30.958  34.398  1.00  0.00     0.167 HD
ATOM     52  C   UNL A   1      39.276  33.212  34.857  1.00  0.00     0.074 A 
ATOM     53  C   UNL A   1      38.252  34.221  34.673  1.00  0.00     0.031 C 
ATOM     54  C   UNL A   1      40.086  33.136  35.943  1.00  0.00     0.037 A 
BRANCH  41  55
ATOM     55  C   UNL A   1      44.078  28.409  35.803  1.00  0.00     0.058 A 
ATOM     56  C   UNL A   1      43.780  27.328  36.649  1.00  0.00     0.135 A 
ATOM     57  C   UNL A   1      45.432  28.726  35.602  1.00  0.00     0.135 A 
ATOM     58  F   UNL A   1      42.503  26.989  36.890  1.00  0.00    -0.206 F 
ATOM     59  C   UNL A   1      44.782  26.610  37.294  1.00  0.00     0.059 A 
ATOM     60  C   UNL A   1      46.451  28.002  36.213  1.00  0.00     0.059 A 
ATOM     61  F   UNL A   1      45.775  29.750  34.805  1.00  0.00    -0.206 F 
ATOM     62  C   UNL A   1      46.115  26.954  37.069  1.00  0.00     0.060 A 
BRANCH  62  63
ATOM     63  S   UNL A   1      47.402  26.006  37.908  1.00  0.00     0.124 S 
ATOM     64  O   UNL A   1      48.214  27.069  38.490  1.00  0.00    -0.237 OA
ATOM     65  O   UNL A   1      46.632  25.206  38.855  1.00  0.00    -0.237 OA
ATOM     66  O   UNL A   1      48.032  25.256  36.827  1.00  0.00    -0.744 OA
ENDBRANCH  62  63
ENDBRANCH  41  55
BRANCH  42  67
ATOM     67  C   UNL A   1      36.690  33.066  30.919  1.00  0.00     0.058 A 
ATOM     68  C   UNL A   1      35.354  32.815  31.264  1.00  0.00     0.135 A 
ATOM     69  C   UNL A   1      36.936  33.994  29.896  1.00  0.00     0.135 A 
ATOM     70  F   UNL A   1      35.066  31.932  32.232  1.00  0.00    -0.206 F 
ATOM     71  C   UNL A   1      34.300  33.446  30.610  1.00  0.00     0.059 A 
ATOM     72  C   UNL A   1      35.901  34.660  29.245  1.00  0.00     0.059 A 
ATOM     73  F   UNL A   1      38.197  34.285  29.539  1.00  0.00    -0.206 F 
ATOM     74  C   UNL A   1      34.585  34.370  29.604  1.00  0.00     0.060 A 
BRANCH  74  75
ATOM     75  S   UNL A   1      33.213  35.224  28.798  1.00  0.00     0.124 S 
ATOM     76  O   UNL A   1      33.915  36.224  28.003  1.00  0.00    -0.237 OA
ATOM     77  O   UNL A   1      32.577  34.144  28.050  1.00  0.00    -0.237 OA
ATOM     78  O   UNL A   1      32.435  35.742  29.920  1.00  0.00    -0.744 OA
ENDBRANCH  74  75
ENDBRANCH  42  67
BRANCH  54  79
ATOM     79  C   UNL A   1      39.912  34.185  37.007  1.00  0.00     0.058 A 
ATOM     80  C   UNL A   1      40.476  35.465  36.884  1.00  0.00     0.135 A 
ATOM     81  C   UNL A   1      39.139  33.917  38.149  1.00  0.00     0.135 A 
ATOM     82  F   UNL A   1      41.229  35.772  35.816  1.00  0.00    -0.206 F 
ATOM     83  C   UNL A   1      40.306  36.431  37.871  1.00  0.00     0.059 A 
ATOM     84  C   UNL A   1      38.929  34.879  39.132  1.00  0.00     0.059 A 
ATOM     85  F   UNL A   1      38.567  32.713  38.313  1.00  0.00    -0.206 F 
ATOM     86  C   UNL A   1      39.530  36.129  38.991  1.00  0.00     0.060 A 
BRANCH  86  87
ATOM     87  S   UNL A   1      39.301  37.399  40.252  1.00  0.00     0.124 S 
ATOM     88  O   UNL A   1      40.668  37.880  40.437  1.00  0.00    -0.237 OA
ATOM     89  O   UNL A   1      38.386  38.328  39.598  1.00  0.00    -0.237 OA
ATOM     90  O   UNL A   1      38.738  36.663  41.380  1.00  0.00    -0.744 OA
ENDBRANCH  86  87
ENDBRANCH  54  79
ENDBRANCH  28  29
ENDBRANCH  20  23
ENDBRANCH  18  19
ENDBRANCH  17  18
ENDBRANCH   1  17
TORSDOF 19
ENDMDL
