MODEL 1
REMARK VINA RESULT:     -12.4      0.000      0.000
REMARK SMILES CCC[N@@H+]1CC2(CCN(c3nccnc3C)CC2)C[C@H]1C(=O)NCCCCNC(=O)c1ccc(-c2c3nc(c(-c4c(F)cc(S(=O)(=O)[O-])cc4F)c4ccc([nH]4)c(-c4c(F)cc(S(=O)(=O)[O-])cc4F)c4nc(c(-c5c(F)cc(S(=O)(=O)[O-])cc5F)c5ccc2[nH]5)C=C4)C=C3)cc1
REMARK SMILES IDX 26 1 25 2 24 3 23 4 21 5 22 6 20 8 4 9 5 10 6 12 19 13 7 14
REMARK SMILES IDX 18 15 8 16 17 17 9 18 3 19 2 20 1 21 10 22 11 23 15 24 12 25
REMARK SMILES IDX 14 26 16 27 13 28 27 29 28 30 29 31 30 33 31 34 32 35 96 36
REMARK SMILES IDX 33 37 95 38 34 39 35 40 36 41 89 42 37 43 94 44 88 45 90 46
REMARK SMILES IDX 38 47 93 48 87 49 86 50 39 52 73 53 52 54 72 55 53 56 56 57
REMARK SMILES IDX 71 58 91 59 54 60 55 61 70 63 92 64 57 65 40 66 41 67 50 68
REMARK SMILES IDX 42 69 43 70 49 71 51 72 44 73 45 74 46 75 47 76 48 77 74 78
REMARK SMILES IDX 75 79 84 80 76 81 77 82 83 83 85 84 78 85 79 86 80 87 81 88
REMARK SMILES IDX 82 89 58 90 59 91 68 92 60 93 61 94 67 95 69 96 62 97 63 98
REMARK SMILES IDX 64 99 65 100 66 101
REMARK H PARENT 23 7 4 11 28 32 90 51 56 62
REMARK Flexibility Score: inf
ROOT
ATOM      1  C   UNL A   1      39.722  22.474  26.847  1.00  0.00     0.023 C 
ENDROOT
BRANCH   1   2
ATOM      2  C   UNL A   1      38.510  23.300  26.415  1.00  0.00     0.023 C 
BRANCH   2   3
ATOM      3  C   UNL A   1      37.421  22.495  25.702  1.00  0.00     0.116 C 
BRANCH   3   4
ATOM      4  N   UNL A   1      36.268  22.211  26.523  1.00  0.00    -0.351 N 
ATOM      5  C   UNL A   1      34.939  22.165  26.241  1.00  0.00     0.278 C 
ATOM      6  O   UNL A   1      34.218  21.740  27.157  1.00  0.00    -0.268 OA
ATOM      7  H   UNL A   1      36.486  22.013  27.462  1.00  0.00     0.163 HD
BRANCH   5   8
ATOM      8  C   UNL A   1      34.279  22.587  24.900  1.00  0.00     0.274 C 
ATOM      9  N   UNL A   1      32.904  22.040  24.751  1.00  0.00    -0.324 N 
ATOM     10  C   UNL A   1      31.990  23.185  24.814  1.00  0.00     0.270 C 
ATOM     11  H   UNL A   1      32.620  21.398  25.491  1.00  0.00     0.348 HD
ATOM     12  C   UNL A   1      32.739  24.439  24.334  1.00  0.00     0.029 C 
ATOM     13  C   UNL A   1      34.228  24.064  24.522  1.00  0.00     0.088 C 
ATOM     14  C   UNL A   1      32.452  25.725  25.155  1.00  0.00     0.034 C 
ATOM     15  C   UNL A   1      32.352  24.737  22.853  1.00  0.00     0.034 C 
ATOM     16  C   UNL A   1      31.020  26.205  25.014  1.00  0.00     0.119 C 
ATOM     17  C   UNL A   1      30.917  25.306  22.720  1.00  0.00     0.119 C 
ATOM     18  N   UNL A   1      30.818  26.454  23.600  1.00  0.00    -0.355 N 
BRANCH   9  19
ATOM     19  C   UNL A   1      32.852  21.231  23.517  1.00  0.00     0.262 C 
BRANCH  19  20
ATOM     20  C   UNL A   1      32.423  19.765  23.663  1.00  0.00     0.058 C 
ATOM     21  C   UNL A   1      33.237  18.995  24.694  1.00  0.00     0.010 C 
ENDBRANCH  19  20
ENDBRANCH   9  19
BRANCH  18  22
ATOM     22  C   UNL A   1      29.939  27.478  23.302  1.00  0.00     0.150 A 
ATOM     23  N   UNL A   1      28.613  27.273  23.465  1.00  0.00    -0.236 NA
ATOM     24  C   UNL A   1      30.430  28.731  22.867  1.00  0.00     0.080 A 
ATOM     25  C   UNL A   1      27.817  28.344  23.239  1.00  0.00     0.133 A 
ATOM     26  N   UNL A   1      29.617  29.794  22.624  1.00  0.00    -0.256 NA
ATOM     27  C   UNL A   1      31.901  28.951  22.657  1.00  0.00     0.071 C 
ATOM     28  C   UNL A   1      28.304  29.573  22.830  1.00  0.00     0.131 A 
ENDBRANCH  18  22
ENDBRANCH   5   8
ENDBRANCH   3   4
ENDBRANCH   2   3
ENDBRANCH   1   2
BRANCH   1  29
ATOM     29  C   UNL A   1      41.029  23.250  27.000  1.00  0.00     0.116 C 
BRANCH  29  30
ATOM     30  N   UNL A   1      41.314  24.179  25.917  1.00  0.00    -0.352 N 
ATOM     31  C   UNL A   1      41.508  25.547  25.991  1.00  0.00     0.251 C 
ATOM     32  H   UNL A   1      41.377  23.785  25.018  1.00  0.00     0.163 HD
ATOM     33  O   UNL A   1      41.693  26.197  24.978  1.00  0.00    -0.269 OA
BRANCH  31  34
ATOM     34  C   UNL A   1      41.429  26.216  27.313  1.00  0.00     0.039 A 
ATOM     35  C   UNL A   1      42.429  27.128  27.662  1.00  0.00     0.014 A 
ATOM     36  C   UNL A   1      40.344  26.005  28.168  1.00  0.00     0.014 A 
ATOM     37  C   UNL A   1      42.287  27.898  28.820  1.00  0.00     0.010 A 
ATOM     38  C   UNL A   1      40.167  26.825  29.280  1.00  0.00     0.010 A 
ATOM     39  C   UNL A   1      41.129  27.790  29.611  1.00  0.00    -0.014 A 
BRANCH  39  40
ATOM     40  C   UNL A   1      40.900  28.718  30.752  1.00  0.00     0.031 A 
ATOM     41  C   UNL A   1      41.719  28.611  32.009  1.00  0.00     0.074 A 
ATOM     42  C   UNL A   1      39.904  29.625  30.674  1.00  0.00     0.049 A 
ATOM     43  N   UNL A   1      41.664  29.342  33.092  1.00  0.00    -0.248 NA
ATOM     44  C   UNL A   1      42.709  27.524  32.069  1.00  0.00     0.031 C 
ATOM     45  C   UNL A   1      38.979  29.771  29.547  1.00  0.00     0.029 A 
ATOM     46  N   UNL A   1      39.502  30.596  31.557  1.00  0.00    -0.354 N 
ATOM     47  C   UNL A   1      42.602  28.802  33.965  1.00  0.00     0.074 A 
ATOM     48  C   UNL A   1      43.171  27.646  33.306  1.00  0.00     0.031 C 
ATOM     49  C   UNL A   1      38.143  30.793  29.792  1.00  0.00     0.029 A 
ATOM     50  C   UNL A   1      38.455  31.362  31.099  1.00  0.00     0.049 A 
ATOM     51  H   UNL A   1      39.923  30.731  32.436  1.00  0.00     0.167 HD
ATOM     52  C   UNL A   1      42.976  29.244  35.189  1.00  0.00     0.037 A 
ATOM     53  C   UNL A   1      37.824  32.410  31.662  1.00  0.00     0.037 A 
ATOM     54  C   UNL A   1      42.428  30.413  35.829  1.00  0.00     0.049 A 
ATOM     55  C   UNL A   1      38.289  32.912  33.002  1.00  0.00     0.074 A 
ATOM     56  C   UNL A   1      42.797  30.989  37.032  1.00  0.00     0.029 A 
ATOM     57  N   UNL A   1      41.393  31.182  35.319  1.00  0.00    -0.354 N 
ATOM     58  N   UNL A   1      39.244  32.445  33.769  1.00  0.00    -0.248 NA
ATOM     59  C   UNL A   1      37.600  34.091  33.543  1.00  0.00     0.031 C 
ATOM     60  C   UNL A   1      41.961  32.087  37.267  1.00  0.00     0.029 A 
ATOM     61  C   UNL A   1      41.098  32.218  36.191  1.00  0.00     0.049 A 
ATOM     62  H   UNL A   1      40.935  31.018  34.463  1.00  0.00     0.167 HD
ATOM     63  C   UNL A   1      39.282  33.282  34.879  1.00  0.00     0.074 A 
ATOM     64  C   UNL A   1      38.269  34.298  34.670  1.00  0.00     0.031 C 
ATOM     65  C   UNL A   1      40.080  33.215  35.973  1.00  0.00     0.037 A 
BRANCH  52  66
ATOM     66  C   UNL A   1      44.043  28.468  35.912  1.00  0.00     0.058 A 
ATOM     67  C   UNL A   1      43.722  27.403  36.770  1.00  0.00     0.135 A 
ATOM     68  C   UNL A   1      45.401  28.769  35.723  1.00  0.00     0.135 A 
ATOM     69  F   UNL A   1      42.438  27.083  36.998  1.00  0.00    -0.206 F 
ATOM     70  C   UNL A   1      44.707  26.685  37.439  1.00  0.00     0.059 A 
ATOM     71  C   UNL A   1      46.405  28.046  36.362  1.00  0.00     0.059 A 
ATOM     72  F   UNL A   1      45.765  29.776  34.914  1.00  0.00    -0.206 F 
ATOM     73  C   UNL A   1      46.046  27.016  37.230  1.00  0.00     0.060 A 
BRANCH  73  74
ATOM     74  S   UNL A   1      47.313  26.072  38.104  1.00  0.00     0.124 S 
ATOM     75  O   UNL A   1      48.518  26.462  37.379  1.00  0.00    -0.237 OA
ATOM     76  O   UNL A   1      47.201  26.582  39.467  1.00  0.00    -0.237 OA
ATOM     77  O   UNL A   1      46.891  24.687  37.921  1.00  0.00    -0.744 OA
ENDBRANCH  73  74
ENDBRANCH  52  66
BRANCH  53  78
ATOM     78  C   UNL A   1      36.713  33.084  30.939  1.00  0.00     0.058 A 
ATOM     79  C   UNL A   1      35.383  32.930  31.358  1.00  0.00     0.135 A 
ATOM     80  C   UNL A   1      36.958  33.906  29.828  1.00  0.00     0.135 A 
ATOM     81  F   UNL A   1      35.098  32.150  32.411  1.00  0.00    -0.206 F 
ATOM     82  C   UNL A   1      34.332  33.553  30.691  1.00  0.00     0.059 A 
ATOM     83  C   UNL A   1      35.927  34.558  29.160  1.00  0.00     0.059 A 
ATOM     84  F   UNL A   1      38.216  34.101  29.401  1.00  0.00    -0.206 F 
ATOM     85  C   UNL A   1      34.614  34.367  29.593  1.00  0.00     0.060 A 
BRANCH  85  86
ATOM     86  S   UNL A   1      33.250  35.215  28.767  1.00  0.00     0.124 S 
ATOM     87  O   UNL A   1      32.640  34.126  28.014  1.00  0.00    -0.237 OA
ATOM     88  O   UNL A   1      32.476  35.723  29.896  1.00  0.00    -0.237 OA
ATOM     89  O   UNL A   1      33.926  36.236  27.972  1.00  0.00    -0.744 OA
ENDBRANCH  85  86
ENDBRANCH  53  78
BRANCH  65  90
ATOM     90  C   UNL A   1      39.893  34.276  37.022  1.00  0.00     0.058 A 
ATOM     91  C   UNL A   1      39.079  34.062  38.145  1.00  0.00     0.135 A 
ATOM     92  C   UNL A   1      40.550  35.512  36.912  1.00  0.00     0.135 A 
ATOM     93  F   UNL A   1      38.425  32.899  38.294  1.00  0.00    -0.206 F 
ATOM     94  C   UNL A   1      38.894  35.050  39.106  1.00  0.00     0.059 A 
ATOM     95  C   UNL A   1      40.399  36.505  37.875  1.00  0.00     0.059 A 
ATOM     96  F   UNL A   1      41.350  35.763  35.863  1.00  0.00    -0.206 F 
ATOM     97  C   UNL A   1      39.555  36.271  38.960  1.00  0.00     0.060 A 
BRANCH  97  98
ATOM     98  S   UNL A   1      39.313  37.546  40.215  1.00  0.00     0.124 S 
ATOM     99  O   UNL A   1      38.265  38.359  39.607  1.00  0.00    -0.237 OA
ATOM    100  O   UNL A   1      38.912  36.766  41.382  1.00  0.00    -0.237 OA
ATOM    101  O   UNL A   1      40.624  38.178  40.312  1.00  0.00    -0.744 OA
ENDBRANCH  97  98
ENDBRANCH  65  90
ENDBRANCH  39  40
ENDBRANCH  31  34
ENDBRANCH  29  30
ENDBRANCH   1  29
TORSDOF 17
ENDMDL
MODEL 2
REMARK VINA RESULT:     -12.4      3.269      9.789
REMARK SMILES CCC[N@@H+]1CC2(CCN(c3nccnc3C)CC2)C[C@H]1C(=O)NCCCCNC(=O)c1ccc(-c2c3nc(c(-c4c(F)cc(S(=O)(=O)[O-])cc4F)c4ccc([nH]4)c(-c4c(F)cc(S(=O)(=O)[O-])cc4F)c4nc(c(-c5c(F)cc(S(=O)(=O)[O-])cc5F)c5ccc2[nH]5)C=C4)C=C3)cc1
REMARK SMILES IDX 26 1 25 2 24 3 23 4 21 5 22 6 20 8 4 9 5 10 6 12 19 13 7 14
REMARK SMILES IDX 18 15 8 16 17 17 9 18 3 19 2 20 1 21 10 22 11 23 15 24 12 25
REMARK SMILES IDX 14 26 16 27 13 28 27 29 28 30 29 31 30 33 31 34 32 35 96 36
REMARK SMILES IDX 33 37 95 38 34 39 35 40 36 41 89 42 37 43 94 44 88 45 90 46
REMARK SMILES IDX 38 47 93 48 87 49 86 50 39 52 73 53 52 54 72 55 53 56 56 57
REMARK SMILES IDX 71 58 91 59 54 60 55 61 70 63 92 64 57 65 40 66 41 67 50 68
REMARK SMILES IDX 42 69 43 70 49 71 51 72 44 73 45 74 46 75 47 76 48 77 74 78
REMARK SMILES IDX 75 79 84 80 76 81 77 82 83 83 85 84 78 85 79 86 80 87 81 88
REMARK SMILES IDX 82 89 58 90 59 91 68 92 60 93 61 94 67 95 69 96 62 97 63 98
REMARK SMILES IDX 64 99 65 100 66 101
REMARK H PARENT 23 7 4 11 28 32 90 51 56 62
REMARK Flexibility Score: inf
ROOT
ATOM      1  C   UNL A   1      32.721  28.251  25.099  1.00  0.00     0.023 C 
ENDROOT
BRANCH   1   2
ATOM      2  C   UNL A   1      32.670  28.696  23.638  1.00  0.00     0.023 C 
BRANCH   2   3
ATOM      3  C   UNL A   1      31.616  27.972  22.795  1.00  0.00     0.116 C 
BRANCH   3   4
ATOM      4  N   UNL A   1      32.167  27.058  21.825  1.00  0.00    -0.351 N 
ATOM      5  C   UNL A   1      32.664  25.798  21.940  1.00  0.00     0.278 C 
ATOM      6  O   UNL A   1      32.926  25.231  20.868  1.00  0.00    -0.268 OA
ATOM      7  H   UNL A   1      32.186  27.413  20.907  1.00  0.00     0.163 HD
BRANCH   5   8
ATOM      8  C   UNL A   1      32.918  25.039  23.271  1.00  0.00     0.274 C 
ATOM      9  N   UNL A   1      32.581  23.594  23.170  1.00  0.00    -0.324 N 
ATOM     10  C   UNL A   1      33.848  22.862  23.265  1.00  0.00     0.270 C 
ATOM     11  H   UNL A   1      32.149  23.320  22.288  1.00  0.00     0.348 HD
ATOM     12  C   UNL A   1      34.847  23.711  24.068  1.00  0.00     0.029 C 
ATOM     13  C   UNL A   1      34.282  25.145  23.946  1.00  0.00     0.088 C 
ATOM     14  C   UNL A   1      36.298  23.709  23.514  1.00  0.00     0.034 C 
ATOM     15  C   UNL A   1      34.910  23.186  25.535  1.00  0.00     0.034 C 
ATOM     16  C   UNL A   1      36.965  22.350  23.617  1.00  0.00     0.119 C 
ATOM     17  C   UNL A   1      35.665  21.837  25.649  1.00  0.00     0.119 C 
ATOM     18  N   UNL A   1      36.964  22.009  25.026  1.00  0.00    -0.355 N 
BRANCH   9  19
ATOM     19  C   UNL A   1      31.566  23.276  24.195  1.00  0.00     0.262 C 
BRANCH  19  20
ATOM     20  C   UNL A   1      31.319  24.331  25.281  1.00  0.00     0.058 C 
ATOM     21  C   UNL A   1      31.410  23.777  26.696  1.00  0.00     0.010 C 
ENDBRANCH  19  20
ENDBRANCH   9  19
BRANCH  18  22
ATOM     22  C   UNL A   1      38.038  21.250  25.449  1.00  0.00     0.150 A 
ATOM     23  N   UNL A   1      38.080  19.937  25.129  1.00  0.00    -0.236 NA
ATOM     24  C   UNL A   1      39.090  21.851  26.177  1.00  0.00     0.080 A 
ATOM     25  C   UNL A   1      39.200  19.274  25.499  1.00  0.00     0.133 A 
ATOM     26  N   UNL A   1      40.202  21.168  26.560  1.00  0.00    -0.256 NA
ATOM     27  C   UNL A   1      39.030  23.303  26.560  1.00  0.00     0.071 C 
ATOM     28  C   UNL A   1      40.235  19.872  26.195  1.00  0.00     0.131 A 
ENDBRANCH  18  22
ENDBRANCH   5   8
ENDBRANCH   3   4
ENDBRANCH   2   3
ENDBRANCH   1   2
BRANCH   1  29
ATOM     29  C   UNL A   1      33.873  28.824  25.924  1.00  0.00     0.116 C 
BRANCH  29  30
ATOM     30  N   UNL A   1      33.635  30.158  26.454  1.00  0.00    -0.352 N 
ATOM     31  C   UNL A   1      34.378  30.853  27.391  1.00  0.00     0.251 C 
ATOM     32  H   UNL A   1      32.845  30.626  26.101  1.00  0.00     0.163 HD
ATOM     33  O   UNL A   1      34.019  31.953  27.769  1.00  0.00    -0.269 OA
BRANCH  31  34
ATOM     34  C   UNL A   1      35.585  30.213  27.972  1.00  0.00     0.039 A 
ATOM     35  C   UNL A   1      36.783  30.268  27.253  1.00  0.00     0.014 A 
ATOM     36  C   UNL A   1      35.557  29.631  29.241  1.00  0.00     0.014 A 
ATOM     37  C   UNL A   1      37.967  29.829  27.850  1.00  0.00     0.010 A 
ATOM     38  C   UNL A   1      36.748  29.264  29.863  1.00  0.00     0.010 A 
ATOM     39  C   UNL A   1      37.969  29.373  29.180  1.00  0.00    -0.014 A 
BRANCH  39  40
ATOM     40  C   UNL A   1      39.247  29.056  29.873  1.00  0.00     0.031 A 
ATOM     41  C   UNL A   1      39.656  29.802  31.114  1.00  0.00     0.074 A 
ATOM     42  C   UNL A   1      40.072  28.130  29.343  1.00  0.00     0.049 A 
ATOM     43  N   UNL A   1      40.725  29.648  31.852  1.00  0.00    -0.248 NA
ATOM     44  C   UNL A   1      38.764  30.878  31.570  1.00  0.00     0.031 C 
ATOM     45  C   UNL A   1      39.835  27.400  28.095  1.00  0.00     0.029 A 
ATOM     46  N   UNL A   1      41.276  27.641  29.786  1.00  0.00    -0.354 N 
ATOM     47  C   UNL A   1      40.640  30.610  32.851  1.00  0.00     0.074 A 
ATOM     48  C   UNL A   1      39.443  31.380  32.592  1.00  0.00     0.031 C 
ATOM     49  C   UNL A   1      40.841  26.534  27.891  1.00  0.00     0.029 A 
ATOM     50  C   UNL A   1      41.805  26.660  28.979  1.00  0.00     0.049 A 
ATOM     51  H   UNL A   1      41.720  27.963  30.602  1.00  0.00     0.167 HD
ATOM     52  C   UNL A   1      41.467  30.815  33.905  1.00  0.00     0.037 A 
ATOM     53  C   UNL A   1      42.934  25.935  29.106  1.00  0.00     0.037 A 
ATOM     54  C   UNL A   1      42.641  30.027  34.177  1.00  0.00     0.049 A 
ATOM     55  C   UNL A   1      43.810  26.148  30.309  1.00  0.00     0.074 A 
ATOM     56  C   UNL A   1      43.498  30.103  35.261  1.00  0.00     0.029 A 
ATOM     57  N   UNL A   1      43.126  29.019  33.356  1.00  0.00    -0.354 N 
ATOM     58  N   UNL A   1      43.661  26.999  31.296  1.00  0.00    -0.248 NA
ATOM     59  C   UNL A   1      44.999  25.293  30.423  1.00  0.00     0.031 C 
ATOM     60  C   UNL A   1      44.521  29.166  35.079  1.00  0.00     0.029 A 
ATOM     61  C   UNL A   1      44.279  28.478  33.900  1.00  0.00     0.049 A 
ATOM     62  H   UNL A   1      42.711  28.731  32.511  1.00  0.00     0.167 HD
ATOM     63  C   UNL A   1      44.729  26.772  32.157  1.00  0.00     0.074 A 
ATOM     64  C   UNL A   1      45.502  25.687  31.585  1.00  0.00     0.031 C 
ATOM     65  C   UNL A   1      45.044  27.406  33.314  1.00  0.00     0.037 A 
BRANCH  52  66
ATOM     66  C   UNL A   1      41.118  31.928  34.855  1.00  0.00     0.058 A 
ATOM     67  C   UNL A   1      41.638  33.223  34.690  1.00  0.00     0.135 A 
ATOM     68  C   UNL A   1      40.233  31.711  35.922  1.00  0.00     0.135 A 
ATOM     69  F   UNL A   1      42.501  33.483  33.695  1.00  0.00    -0.206 F 
ATOM     70  C   UNL A   1      41.317  34.254  35.567  1.00  0.00     0.059 A 
ATOM     71  C   UNL A   1      39.876  32.734  36.796  1.00  0.00     0.059 A 
ATOM     72  F   UNL A   1      39.706  30.492  36.126  1.00  0.00    -0.206 F 
ATOM     73  C   UNL A   1      40.437  33.998  36.619  1.00  0.00     0.060 A 
BRANCH  73  74
ATOM     74  S   UNL A   1      40.028  35.347  37.747  1.00  0.00     0.124 S 
ATOM     75  O   UNL A   1      39.854  36.460  36.819  1.00  0.00    -0.237 OA
ATOM     76  O   UNL A   1      38.810  34.862  38.389  1.00  0.00    -0.237 OA
ATOM     77  O   UNL A   1      41.199  35.431  38.615  1.00  0.00    -0.744 OA
ENDBRANCH  73  74
ENDBRANCH  52  66
BRANCH  53  78
ATOM     78  C   UNL A   1      43.275  24.907  28.086  1.00  0.00     0.058 A 
ATOM     79  C   UNL A   1      43.973  25.254  26.919  1.00  0.00     0.135 A 
ATOM     80  C   UNL A   1      42.926  23.560  28.263  1.00  0.00     0.135 A 
ATOM     81  F   UNL A   1      44.324  26.531  26.703  1.00  0.00    -0.206 F 
ATOM     82  C   UNL A   1      44.299  24.305  25.955  1.00  0.00     0.059 A 
ATOM     83  C   UNL A   1      43.260  22.589  27.325  1.00  0.00     0.059 A 
ATOM     84  F   UNL A   1      42.274  23.175  29.372  1.00  0.00    -0.206 F 
ATOM     85  C   UNL A   1      43.939  22.974  26.168  1.00  0.00     0.060 A 
BRANCH  85  86
ATOM     86  S   UNL A   1      44.413  21.739  24.937  1.00  0.00     0.124 S 
ATOM     87  O   UNL A   1      43.453  20.675  25.204  1.00  0.00    -0.237 OA
ATOM     88  O   UNL A   1      44.230  22.467  23.686  1.00  0.00    -0.237 OA
ATOM     89  O   UNL A   1      45.801  21.442  25.282  1.00  0.00    -0.744 OA
ENDBRANCH  85  86
ENDBRANCH  53  78
BRANCH  65  90
ATOM     90  C   UNL A   1      46.272  26.932  34.040  1.00  0.00     0.058 A 
ATOM     91  C   UNL A   1      46.207  25.916  35.006  1.00  0.00     0.135 A 
ATOM     92  C   UNL A   1      47.529  27.486  33.752  1.00  0.00     0.135 A 
ATOM     93  F   UNL A   1      45.027  25.357  35.320  1.00  0.00    -0.206 F 
ATOM     94  C   UNL A   1      47.341  25.490  35.688  1.00  0.00     0.059 A 
ATOM     95  C   UNL A   1      48.680  27.057  34.404  1.00  0.00     0.059 A 
ATOM     96  F   UNL A   1      47.649  28.453  32.828  1.00  0.00    -0.206 F 
ATOM     97  C   UNL A   1      48.574  26.070  35.384  1.00  0.00     0.060 A 
BRANCH  97  98
ATOM     98  S   UNL A   1      50.042  25.506  36.271  1.00  0.00     0.124 S 
ATOM     99  O   UNL A   1      49.481  25.159  37.573  1.00  0.00    -0.237 OA
ATOM    100  O   UNL A   1      50.491  24.382  35.455  1.00  0.00    -0.237 OA
ATOM    101  O   UNL A   1      50.917  26.674  36.254  1.00  0.00    -0.744 OA
ENDBRANCH  97  98
ENDBRANCH  65  90
ENDBRANCH  39  40
ENDBRANCH  31  34
ENDBRANCH  29  30
ENDBRANCH   1  29
TORSDOF 17
ENDMDL
MODEL 3
REMARK VINA RESULT:     -12.3      6.399     12.081
REMARK SMILES CCC[N@@H+]1CC2(CCN(c3nccnc3C)CC2)C[C@H]1C(=O)NCCCCNC(=O)c1ccc(-c2c3nc(c(-c4c(F)cc(S(=O)(=O)[O-])cc4F)c4ccc([nH]4)c(-c4c(F)cc(S(=O)(=O)[O-])cc4F)c4nc(c(-c5c(F)cc(S(=O)(=O)[O-])cc5F)c5ccc2[nH]5)C=C4)C=C3)cc1
REMARK SMILES IDX 26 1 25 2 24 3 23 4 21 5 22 6 20 8 4 9 5 10 6 12 19 13 7 14
REMARK SMILES IDX 18 15 8 16 17 17 9 18 3 19 2 20 1 21 10 22 11 23 15 24 12 25
REMARK SMILES IDX 14 26 16 27 13 28 27 29 28 30 29 31 30 33 31 34 32 35 96 36
REMARK SMILES IDX 33 37 95 38 34 39 35 40 36 41 89 42 37 43 94 44 88 45 90 46
REMARK SMILES IDX 38 47 93 48 87 49 86 50 39 52 73 53 52 54 72 55 53 56 56 57
REMARK SMILES IDX 71 58 91 59 54 60 55 61 70 63 92 64 57 65 40 66 41 67 50 68
REMARK SMILES IDX 42 69 43 70 49 71 51 72 44 73 45 74 46 75 47 76 48 77 74 78
REMARK SMILES IDX 75 79 84 80 76 81 77 82 83 83 85 84 78 85 79 86 80 87 81 88
REMARK SMILES IDX 82 89 58 90 59 91 68 92 60 93 61 94 67 95 69 96 62 97 63 98
REMARK SMILES IDX 64 99 65 100 66 101
REMARK H PARENT 23 7 4 11 28 32 90 51 56 62
REMARK Flexibility Score: inf
ROOT
ATOM      1  C   UNL A   1      35.035  31.885  28.113  1.00  0.00     0.023 C 
ENDROOT
BRANCH   1   2
ATOM      2  C   UNL A   1      35.091  30.476  27.523  1.00  0.00     0.023 C 
BRANCH   2   3
ATOM      3  C   UNL A   1      33.719  29.845  27.269  1.00  0.00     0.116 C 
BRANCH   3   4
ATOM      4  N   UNL A   1      32.728  30.773  26.782  1.00  0.00    -0.351 N 
ATOM      5  C   UNL A   1      31.675  30.619  25.935  1.00  0.00     0.278 C 
ATOM      6  O   UNL A   1      30.923  31.601  25.841  1.00  0.00    -0.268 OA
ATOM      7  H   UNL A   1      32.833  31.688  27.128  1.00  0.00     0.163 HD
BRANCH   5   8
ATOM      8  C   UNL A   1      31.353  29.345  25.107  1.00  0.00     0.274 C 
ATOM      9  N   UNL A   1      32.212  29.225  23.898  1.00  0.00    -0.324 N 
ATOM     10  C   UNL A   1      33.089  28.072  24.121  1.00  0.00     0.270 C 
ATOM     11  H   UNL A   1      32.819  30.027  23.728  1.00  0.00     0.348 HD
ATOM     12  C   UNL A   1      32.385  27.096  25.078  1.00  0.00     0.029 C 
ATOM     13  C   UNL A   1      31.344  27.985  25.798  1.00  0.00     0.088 C 
ATOM     14  C   UNL A   1      33.306  26.455  26.151  1.00  0.00     0.034 C 
ATOM     15  C   UNL A   1      31.750  25.932  24.255  1.00  0.00     0.034 C 
ATOM     16  C   UNL A   1      34.349  25.529  25.554  1.00  0.00     0.119 C 
ATOM     17  C   UNL A   1      32.813  24.942  23.716  1.00  0.00     0.119 C 
ATOM     18  N   UNL A   1      33.614  24.502  24.842  1.00  0.00    -0.355 N 
BRANCH   9  19
ATOM     19  C   UNL A   1      31.339  29.161  22.708  1.00  0.00     0.262 C 
BRANCH  19  20
ATOM     20  C   UNL A   1      29.866  29.543  22.903  1.00  0.00     0.058 C 
ATOM     21  C   UNL A   1      28.923  28.347  22.884  1.00  0.00     0.010 C 
ENDBRANCH  19  20
ENDBRANCH   9  19
BRANCH  18  22
ATOM     22  C   UNL A   1      34.214  23.258  24.818  1.00  0.00     0.150 A 
ATOM     23  N   UNL A   1      35.435  23.129  24.253  1.00  0.00    -0.236 NA
ATOM     24  C   UNL A   1      33.569  22.147  25.409  1.00  0.00     0.080 A 
ATOM     25  C   UNL A   1      36.002  21.903  24.342  1.00  0.00     0.133 A 
ATOM     26  N   UNL A   1      34.141  20.915  25.474  1.00  0.00    -0.256 NA
ATOM     27  C   UNL A   1      32.199  22.282  26.010  1.00  0.00     0.071 C 
ATOM     28  C   UNL A   1      35.373  20.824  24.937  1.00  0.00     0.131 A 
ENDBRANCH  18  22
ENDBRANCH   5   8
ENDBRANCH   3   4
ENDBRANCH   2   3
ENDBRANCH   1   2
BRANCH   1  29
ATOM     29  C   UNL A   1      35.936  32.131  29.323  1.00  0.00     0.116 C 
BRANCH  29  30
ATOM     30  N   UNL A   1      35.732  31.206  30.429  1.00  0.00    -0.352 N 
ATOM     31  C   UNL A   1      36.633  30.305  30.968  1.00  0.00     0.251 C 
ATOM     32  H   UNL A   1      34.841  31.224  30.845  1.00  0.00     0.163 HD
ATOM     33  O   UNL A   1      36.293  29.561  31.869  1.00  0.00    -0.269 OA
BRANCH  31  34
ATOM     34  C   UNL A   1      37.999  30.219  30.393  1.00  0.00     0.039 A 
ATOM     35  C   UNL A   1      39.093  30.240  31.262  1.00  0.00     0.014 A 
ATOM     36  C   UNL A   1      38.197  30.043  29.021  1.00  0.00     0.014 A 
ATOM     37  C   UNL A   1      40.374  29.987  30.766  1.00  0.00     0.010 A 
ATOM     38  C   UNL A   1      39.463  29.717  28.540  1.00  0.00     0.010 A 
ATOM     39  C   UNL A   1      40.563  29.670  29.409  1.00  0.00    -0.014 A 
BRANCH  39  40
ATOM     40  C   UNL A   1      41.898  29.244  28.907  1.00  0.00     0.031 A 
ATOM     41  C   UNL A   1      43.033  30.226  28.805  1.00  0.00     0.074 A 
ATOM     42  C   UNL A   1      42.068  27.974  28.485  1.00  0.00     0.049 A 
ATOM     43  N   UNL A   1      44.261  30.024  28.404  1.00  0.00    -0.248 NA
ATOM     44  C   UNL A   1      42.743  31.620  29.173  1.00  0.00     0.031 C 
ATOM     45  C   UNL A   1      41.023  26.947  28.446  1.00  0.00     0.029 A 
ATOM     46  N   UNL A   1      43.181  27.327  28.008  1.00  0.00    -0.354 N 
ATOM     47  C   UNL A   1      44.889  31.263  28.463  1.00  0.00     0.074 A 
ATOM     48  C   UNL A   1      43.889  32.221  28.884  1.00  0.00     0.031 C 
ATOM     49  C   UNL A   1      41.552  25.794  28.007  1.00  0.00     0.029 A 
ATOM     50  C   UNL A   1      42.966  26.001  27.711  1.00  0.00     0.049 A 
ATOM     51  H   UNL A   1      44.051  27.771  27.889  1.00  0.00     0.167 HD
ATOM     52  C   UNL A   1      46.185  31.571  28.218  1.00  0.00     0.037 A 
ATOM     53  C   UNL A   1      43.813  25.055  27.260  1.00  0.00     0.037 A 
ATOM     54  C   UNL A   1      47.185  30.610  27.829  1.00  0.00     0.049 A 
ATOM     55  C   UNL A   1      45.258  25.410  27.041  1.00  0.00     0.074 A 
ATOM     56  C   UNL A   1      48.541  30.807  27.636  1.00  0.00     0.029 A 
ATOM     57  N   UNL A   1      46.936  29.270  27.571  1.00  0.00    -0.354 N 
ATOM     58  N   UNL A   1      45.853  26.568  27.196  1.00  0.00    -0.248 NA
ATOM     59  C   UNL A   1      46.147  24.326  26.601  1.00  0.00     0.031 C 
ATOM     60  C   UNL A   1      49.107  29.594  27.226  1.00  0.00     0.029 A 
ATOM     61  C   UNL A   1      48.110  28.632  27.203  1.00  0.00     0.049 A 
ATOM     62  H   UNL A   1      46.055  28.835  27.639  1.00  0.00     0.167 HD
ATOM     63  C   UNL A   1      47.192  26.350  26.886  1.00  0.00     0.074 A 
ATOM     64  C   UNL A   1      47.320  24.944  26.560  1.00  0.00     0.031 C 
ATOM     65  C   UNL A   1      48.220  27.234  26.871  1.00  0.00     0.037 A 
BRANCH  52  66
ATOM     66  C   UNL A   1      46.602  33.007  28.382  1.00  0.00     0.058 A 
ATOM     67  C   UNL A   1      47.061  33.503  29.614  1.00  0.00     0.135 A 
ATOM     68  C   UNL A   1      46.572  33.892  27.292  1.00  0.00     0.135 A 
ATOM     69  F   UNL A   1      47.095  32.703  30.693  1.00  0.00    -0.206 F 
ATOM     70  C   UNL A   1      47.446  34.830  29.767  1.00  0.00     0.059 A 
ATOM     71  C   UNL A   1      46.979  35.218  27.416  1.00  0.00     0.059 A 
ATOM     72  F   UNL A   1      46.143  33.472  26.092  1.00  0.00    -0.206 F 
ATOM     73  C   UNL A   1      47.398  35.681  28.662  1.00  0.00     0.060 A 
BRANCH  73  74
ATOM     74  S   UNL A   1      47.904  37.401  28.877  1.00  0.00     0.124 S 
ATOM     75  O   UNL A   1      46.823  37.920  29.709  1.00  0.00    -0.237 OA
ATOM     76  O   UNL A   1      49.200  37.267  29.535  1.00  0.00    -0.237 OA
ATOM     77  O   UNL A   1      47.948  37.915  27.512  1.00  0.00    -0.744 OA
ENDBRANCH  73  74
ENDBRANCH  52  66
BRANCH  53  78
ATOM     78  C   UNL A   1      43.324  23.670  27.030  1.00  0.00     0.058 A 
ATOM     79  C   UNL A   1      43.062  23.205  25.732  1.00  0.00     0.135 A 
ATOM     80  C   UNL A   1      43.125  22.779  28.096  1.00  0.00     0.135 A 
ATOM     81  F   UNL A   1      43.232  24.020  24.681  1.00  0.00    -0.206 F 
ATOM     82  C   UNL A   1      42.604  21.911  25.500  1.00  0.00     0.059 A 
ATOM     83  C   UNL A   1      42.689  21.475  27.888  1.00  0.00     0.059 A 
ATOM     84  F   UNL A   1      43.381  23.171  29.355  1.00  0.00    -0.206 F 
ATOM     85  C   UNL A   1      42.422  21.053  26.585  1.00  0.00     0.060 A 
BRANCH  85  86
ATOM     86  S   UNL A   1      41.878  19.359  26.271  1.00  0.00     0.124 S 
ATOM     87  O   UNL A   1      42.265  18.692  27.508  1.00  0.00    -0.237 OA
ATOM     88  O   UNL A   1      40.444  19.531  26.058  1.00  0.00    -0.237 OA
ATOM     89  O   UNL A   1      42.638  18.981  25.082  1.00  0.00    -0.744 OA
ENDBRANCH  85  86
ENDBRANCH  53  78
BRANCH  65  90
ATOM     90  C   UNL A   1      49.575  26.699  26.497  1.00  0.00     0.058 A 
ATOM     91  C   UNL A   1      50.415  26.100  27.448  1.00  0.00     0.135 A 
ATOM     92  C   UNL A   1      50.028  26.769  25.170  1.00  0.00     0.135 A 
ATOM     93  F   UNL A   1      50.030  26.013  28.731  1.00  0.00    -0.206 F 
ATOM     94  C   UNL A   1      51.674  25.620  27.104  1.00  0.00     0.059 A 
ATOM     95  C   UNL A   1      51.273  26.272  24.799  1.00  0.00     0.059 A 
ATOM     96  F   UNL A   1      49.258  27.321  24.219  1.00  0.00    -0.206 F 
ATOM     97  C   UNL A   1      52.097  25.715  25.777  1.00  0.00     0.060 A 
BRANCH  97  98
ATOM     98  S   UNL A   1      53.731  25.084  25.339  1.00  0.00     0.124 S 
ATOM     99  O   UNL A   1      54.536  25.552  26.462  1.00  0.00    -0.237 OA
ATOM    100  O   UNL A   1      53.506  23.643  25.277  1.00  0.00    -0.237 OA
ATOM    101  O   UNL A   1      54.008  25.724  24.056  1.00  0.00    -0.744 OA
ENDBRANCH  97  98
ENDBRANCH  65  90
ENDBRANCH  39  40
ENDBRANCH  31  34
ENDBRANCH  29  30
ENDBRANCH   1  29
TORSDOF 17
ENDMDL
