MODEL 1
REMARK VINA RESULT:     -13.5      0.000      0.000
REMARK SMILES Cc1cc(C)n(-c2ccccc2C[NH+]2CCC3(CC2)NC(=O)C[C@H]3C(=O)NCCCCNC(=O)c2ccc(-c3c4nc(c(-c5c(F)cc(S(=O)(=O)[O-])cc5F)c5ccc([nH]5)c(-c5c(F)cc(S(=O)(=O)[O-])cc5F)c5nc(c(-c6c(F)cc(S(=O)(=O)[O-])cc6F)c6ccc3[nH]6)C=C5)C=C4)cc2)n1
REMARK SMILES IDX 29 1 28 2 27 3 25 4 26 5 24 7 14 8 15 9 19 10 16 12 18 13
REMARK SMILES IDX 17 14 20 15 21 16 23 18 22 19 13 20 12 21 7 22 8 23 9 24
REMARK SMILES IDX 11 25 10 26 6 27 1 28 2 29 3 30 101 31 4 32 5 33 30 34 31 35
REMARK SMILES IDX 32 36 33 37 34 39 35 40 36 41 100 42 37 43 99 44 38 45 39 46
REMARK SMILES IDX 40 47 93 48 41 49 98 50 92 51 94 52 42 53 97 54 91 55 90 56
REMARK SMILES IDX 43 58 77 59 56 60 76 61 57 62 60 63 75 64 95 65 58 66 59 67
REMARK SMILES IDX 74 69 96 70 61 71 44 72 45 73 54 74 46 75 47 76 53 77 55 78
REMARK SMILES IDX 48 79 49 80 50 81 51 82 52 83 78 84 79 85 88 86 80 87 81 88
REMARK SMILES IDX 87 89 89 90 82 91 83 92 84 93 85 94 86 95 62 96 63 97 72 98
REMARK SMILES IDX 64 99 65 100 71 101 73 102 66 103 67 104 68 105 69 106
REMARK SMILES IDX 70 107
REMARK H PARENT 27 6 14 11 20 17 32 38 94 57 60 68
REMARK Flexibility Score: inf
ROOT
ATOM      1  C   UNL A   1      36.703  21.711  24.507  1.00  0.00     0.023 C 
ENDROOT
BRANCH   1   2
ATOM      2  C   UNL A   1      35.517  21.077  25.259  1.00  0.00     0.116 C 
BRANCH   2   3
ATOM      3  N   UNL A   1      35.119  21.717  26.507  1.00  0.00    -0.356 N 
ATOM      4  C   UNL A   1      33.927  22.125  27.028  1.00  0.00     0.226 C 
ATOM      5  O   UNL A   1      33.968  22.600  28.170  1.00  0.00    -0.275 OA
ATOM      6  H   UNL A   1      35.879  21.894  27.105  1.00  0.00     0.163 HD
BRANCH   4   7
ATOM      7  C   UNL A   1      32.580  22.123  26.290  1.00  0.00     0.114 C 
ATOM      8  N   UNL A   1      31.150  25.961  26.396  1.00  0.00    -0.331 N 
ATOM      9  C   UNL A   1      30.257  24.824  26.243  1.00  0.00     0.264 C 
ATOM     10  C   UNL A   1      32.468  25.538  26.808  1.00  0.00     0.264 C 
ATOM     11  H   UNL A   1      30.734  26.481  27.168  1.00  0.00     0.348 HD
ATOM     12  C   UNL A   1      30.770  23.714  25.325  1.00  0.00     0.091 C 
ATOM     13  C   UNL A   1      33.110  24.588  25.820  1.00  0.00     0.091 C 
ATOM     14  C   UNL A   1      32.279  23.361  25.425  1.00  0.00     0.063 C 
ATOM     15  N   UNL A   1      32.629  22.860  24.099  1.00  0.00    -0.349 N 
ATOM     16  C   UNL A   1      32.566  21.490  23.995  1.00  0.00     0.221 C 
ATOM     17  H   UNL A   1      32.888  23.447  23.351  1.00  0.00     0.164 HD
ATOM     18  C   UNL A   1      32.418  20.907  25.370  1.00  0.00     0.116 C 
ATOM     19  O   UNL A   1      32.634  20.867  22.943  1.00  0.00    -0.275 OA
BRANCH   8  20
ATOM     20  C   UNL A   1      31.082  27.080  25.435  1.00  0.00     0.301 C 
BRANCH  20  21
ATOM     21  C   UNL A   1      32.181  27.197  24.380  1.00  0.00     0.032 A 
ATOM     22  C   UNL A   1      33.121  28.250  24.350  1.00  0.00     0.074 A 
ATOM     23  C   UNL A   1      33.882  28.489  23.194  1.00  0.00     0.029 A 
ATOM     24  C   UNL A   1      33.758  27.651  22.084  1.00  0.00     0.002 A 
ATOM     25  C   UNL A   1      32.187  26.287  23.305  1.00  0.00     0.012 A 
ATOM     26  C   UNL A   1      32.939  26.530  22.153  1.00  0.00     0.001 A 
BRANCH  22  27
ATOM     27  N   UNL A   1      33.375  29.003  25.525  1.00  0.00    -0.237 N 
ATOM     28  C   UNL A   1      35.546  29.449  28.303  1.00  0.00     0.069 C 
ATOM     29  C   UNL A   1      34.482  29.544  27.278  1.00  0.00     0.060 A 
ATOM     30  C   UNL A   1      33.382  30.418  27.222  1.00  0.00     0.048 A 
ATOM     31  N   UNL A   1      34.496  28.718  26.236  1.00  0.00    -0.173 NA
ATOM     32  C   UNL A   1      32.691  30.079  26.074  1.00  0.00     0.041 A 
ATOM     33  C   UNL A   1      31.400  30.621  25.584  1.00  0.00     0.067 C 
ENDBRANCH  22  27
ENDBRANCH  20  21
ENDBRANCH   8  20
ENDBRANCH   4   7
ENDBRANCH   2   3
ENDBRANCH   1   2
BRANCH   1  34
ATOM     34  C   UNL A   1      36.945  23.209  24.721  1.00  0.00     0.023 C 
BRANCH  34  35
ATOM     35  C   UNL A   1      37.724  23.531  25.986  1.00  0.00     0.116 C 
BRANCH  35  36
ATOM     36  N   UNL A   1      38.761  22.539  26.275  1.00  0.00    -0.352 N 
ATOM     37  C   UNL A   1      40.108  22.762  26.485  1.00  0.00     0.251 C 
ATOM     38  H   UNL A   1      38.463  21.602  26.325  1.00  0.00     0.163 HD
ATOM     39  O   UNL A   1      40.928  21.866  26.327  1.00  0.00    -0.269 OA
BRANCH  37  40
ATOM     40  C   UNL A   1      40.527  24.104  26.921  1.00  0.00     0.039 A 
ATOM     41  C   UNL A   1      40.063  25.260  26.295  1.00  0.00     0.014 A 
ATOM     42  C   UNL A   1      41.354  24.179  28.040  1.00  0.00     0.014 A 
ATOM     43  C   UNL A   1      40.368  26.490  26.869  1.00  0.00     0.010 A 
ATOM     44  C   UNL A   1      41.516  25.373  28.693  1.00  0.00     0.010 A 
ATOM     45  C   UNL A   1      41.069  26.539  28.090  1.00  0.00    -0.014 A 
BRANCH  45  46
ATOM     46  C   UNL A   1      41.185  27.789  28.837  1.00  0.00     0.031 A 
ATOM     47  C   UNL A   1      42.293  28.653  28.349  1.00  0.00     0.074 A 
ATOM     48  C   UNL A   1      40.265  28.221  29.730  1.00  0.00     0.049 A 
ATOM     49  N   UNL A   1      43.438  28.840  28.914  1.00  0.00    -0.248 NA
ATOM     50  C   UNL A   1      42.218  29.198  26.981  1.00  0.00     0.031 C 
ATOM     51  C   UNL A   1      38.974  27.611  30.070  1.00  0.00     0.029 A 
ATOM     52  N   UNL A   1      40.247  29.362  30.474  1.00  0.00    -0.354 N 
ATOM     53  C   UNL A   1      44.100  29.769  28.118  1.00  0.00     0.074 A 
ATOM     54  C   UNL A   1      43.428  29.748  26.848  1.00  0.00     0.031 C 
ATOM     55  C   UNL A   1      38.215  28.493  30.757  1.00  0.00     0.029 A 
ATOM     56  C   UNL A   1      39.016  29.664  31.060  1.00  0.00     0.049 A 
ATOM     57  H   UNL A   1      41.043  29.930  30.590  1.00  0.00     0.167 HD
ATOM     58  C   UNL A   1      44.930  30.690  28.683  1.00  0.00     0.037 A 
ATOM     59  C   UNL A   1      38.683  30.795  31.739  1.00  0.00     0.037 A 
ATOM     60  C   UNL A   1      45.271  30.305  30.035  1.00  0.00     0.049 A 
ATOM     61  C   UNL A   1      39.956  31.416  32.183  1.00  0.00     0.074 A 
ATOM     62  C   UNL A   1      45.846  29.191  30.616  1.00  0.00     0.029 A 
ATOM     63  N   UNL A   1      44.627  30.968  31.051  1.00  0.00    -0.354 N 
ATOM     64  N   UNL A   1      40.758  30.874  33.060  1.00  0.00    -0.248 NA
ATOM     65  C   UNL A   1      40.567  32.395  31.301  1.00  0.00     0.031 C 
ATOM     66  C   UNL A   1      45.122  28.991  31.829  1.00  0.00     0.029 A 
ATOM     67  C   UNL A   1      44.216  30.043  31.973  1.00  0.00     0.049 A 
ATOM     68  H   UNL A   1      44.487  31.941  31.107  1.00  0.00     0.167 HD
ATOM     69  C   UNL A   1      42.029  31.086  32.546  1.00  0.00     0.074 A 
ATOM     70  C   UNL A   1      41.853  32.102  31.509  1.00  0.00     0.031 C 
ATOM     71  C   UNL A   1      43.044  30.208  32.807  1.00  0.00     0.037 A 
BRANCH  58  72
ATOM     72  C   UNL A   1      45.075  32.119  28.204  1.00  0.00     0.058 A 
ATOM     73  C   UNL A   1      46.359  32.594  27.860  1.00  0.00     0.135 A 
ATOM     74  C   UNL A   1      44.082  33.115  28.344  1.00  0.00     0.135 A 
ATOM     75  F   UNL A   1      47.386  31.743  27.708  1.00  0.00    -0.206 F 
ATOM     76  C   UNL A   1      46.649  33.954  27.741  1.00  0.00     0.059 A 
ATOM     77  C   UNL A   1      44.337  34.471  28.177  1.00  0.00     0.059 A 
ATOM     78  F   UNL A   1      42.834  32.842  28.741  1.00  0.00    -0.206 F 
ATOM     79  C   UNL A   1      45.630  34.885  27.912  1.00  0.00     0.060 A 
BRANCH  79  80
ATOM     80  S   UNL A   1      46.011  36.642  27.822  1.00  0.00     0.124 S 
ATOM     81  O   UNL A   1      44.742  37.190  27.358  1.00  0.00    -0.237 OA
ATOM     82  O   UNL A   1      46.373  36.940  29.203  1.00  0.00    -0.237 OA
ATOM     83  O   UNL A   1      47.113  36.696  26.865  1.00  0.00    -0.744 OA
ENDBRANCH  79  80
ENDBRANCH  58  72
BRANCH  59  84
ATOM     84  C   UNL A   1      37.395  31.549  31.747  1.00  0.00     0.058 A 
ATOM     85  C   UNL A   1      36.744  31.873  32.955  1.00  0.00     0.135 A 
ATOM     86  C   UNL A   1      36.943  32.236  30.603  1.00  0.00     0.135 A 
ATOM     87  F   UNL A   1      37.116  31.281  34.100  1.00  0.00    -0.206 F 
ATOM     88  C   UNL A   1      35.756  32.862  33.035  1.00  0.00     0.059 A 
ATOM     89  C   UNL A   1      35.954  33.221  30.657  1.00  0.00     0.059 A 
ATOM     90  F   UNL A   1      37.517  32.037  29.407  1.00  0.00    -0.206 F 
ATOM     91  C   UNL A   1      35.384  33.551  31.883  1.00  0.00     0.060 A 
BRANCH  91  92
ATOM     92  S   UNL A   1      34.252  34.959  32.008  1.00  0.00     0.124 S 
ATOM     93  O   UNL A   1      33.127  34.380  32.736  1.00  0.00    -0.237 OA
ATOM     94  O   UNL A   1      35.049  35.936  32.742  1.00  0.00    -0.237 OA
ATOM     95  O   UNL A   1      33.981  35.301  30.614  1.00  0.00    -0.744 OA
ENDBRANCH  91  92
ENDBRANCH  59  84
BRANCH  71  96
ATOM     96  C   UNL A   1      42.870  29.225  33.937  1.00  0.00     0.058 A 
ATOM     97  C   UNL A   1      43.107  29.490  35.299  1.00  0.00     0.135 A 
ATOM     98  C   UNL A   1      42.308  27.978  33.620  1.00  0.00     0.135 A 
ATOM     99  F   UNL A   1      43.546  30.691  35.704  1.00  0.00    -0.206 F 
ATOM    100  C   UNL A   1      42.846  28.537  36.289  1.00  0.00     0.059 A 
ATOM    101  C   UNL A   1      42.007  27.031  34.590  1.00  0.00     0.059 A 
ATOM    102  F   UNL A   1      42.002  27.685  32.345  1.00  0.00    -0.206 F 
ATOM    103  C   UNL A   1      42.296  27.307  35.922  1.00  0.00     0.060 A 
BRANCH 103 104
ATOM    104  S   UNL A   1      41.922  26.084  37.197  1.00  0.00     0.124 S 
ATOM    105  O   UNL A   1      41.980  24.833  36.449  1.00  0.00    -0.237 OA
ATOM    106  O   UNL A   1      42.995  26.295  38.164  1.00  0.00    -0.237 OA
ATOM    107  O   UNL A   1      40.592  26.471  37.663  1.00  0.00    -0.744 OA
ENDBRANCH 103 104
ENDBRANCH  71  96
ENDBRANCH  45  46
ENDBRANCH  37  40
ENDBRANCH  35  36
ENDBRANCH  34  35
ENDBRANCH   1  34
TORSDOF 17
ENDMDL
MODEL 2
REMARK VINA RESULT:     -13.3      1.578      2.664
REMARK SMILES Cc1cc(C)n(-c2ccccc2C[NH+]2CCC3(CC2)NC(=O)C[C@H]3C(=O)NCCCCNC(=O)c2ccc(-c3c4nc(c(-c5c(F)cc(S(=O)(=O)[O-])cc5F)c5ccc([nH]5)c(-c5c(F)cc(S(=O)(=O)[O-])cc5F)c5nc(c(-c6c(F)cc(S(=O)(=O)[O-])cc6F)c6ccc3[nH]6)C=C5)C=C4)cc2)n1
REMARK SMILES IDX 29 1 28 2 27 3 25 4 26 5 24 7 14 8 15 9 19 10 16 12 18 13
REMARK SMILES IDX 17 14 20 15 21 16 23 18 22 19 13 20 12 21 7 22 8 23 9 24
REMARK SMILES IDX 11 25 10 26 6 27 1 28 2 29 3 30 101 31 4 32 5 33 30 34 31 35
REMARK SMILES IDX 32 36 33 37 34 39 35 40 36 41 100 42 37 43 99 44 38 45 39 46
REMARK SMILES IDX 40 47 93 48 41 49 98 50 92 51 94 52 42 53 97 54 91 55 90 56
REMARK SMILES IDX 43 58 77 59 56 60 76 61 57 62 60 63 75 64 95 65 58 66 59 67
REMARK SMILES IDX 74 69 96 70 61 71 44 72 45 73 54 74 46 75 47 76 53 77 55 78
REMARK SMILES IDX 48 79 49 80 50 81 51 82 52 83 78 84 79 85 88 86 80 87 81 88
REMARK SMILES IDX 87 89 89 90 82 91 83 92 84 93 85 94 86 95 62 96 63 97 72 98
REMARK SMILES IDX 64 99 65 100 71 101 73 102 66 103 67 104 68 105 69 106
REMARK SMILES IDX 70 107
REMARK H PARENT 27 6 14 11 20 17 32 38 94 57 60 68
REMARK Flexibility Score: inf
ROOT
ATOM      1  C   UNL A   1      38.580  21.467  25.782  1.00  0.00     0.023 C 
ENDROOT
BRANCH   1   2
ATOM      2  C   UNL A   1      37.077  21.419  25.449  1.00  0.00     0.116 C 
BRANCH   2   3
ATOM      3  N   UNL A   1      36.651  22.136  24.253  1.00  0.00    -0.356 N 
ATOM      4  C   UNL A   1      35.442  22.526  23.758  1.00  0.00     0.226 C 
ATOM      5  O   UNL A   1      35.470  23.177  22.707  1.00  0.00    -0.275 OA
ATOM      6  H   UNL A   1      37.403  22.395  23.675  1.00  0.00     0.163 HD
BRANCH   4   7
ATOM      7  C   UNL A   1      34.072  22.153  24.345  1.00  0.00     0.114 C 
ATOM      8  N   UNL A   1      32.640  25.485  26.252  1.00  0.00    -0.331 N 
ATOM      9  C   UNL A   1      32.201  24.151  26.626  1.00  0.00     0.264 C 
ATOM     10  C   UNL A   1      33.810  25.432  25.406  1.00  0.00     0.264 C 
ATOM     11  H   UNL A   1      32.918  25.898  27.142  1.00  0.00     0.348 HD
ATOM     12  C   UNL A   1      31.969  23.191  25.459  1.00  0.00     0.091 C 
ATOM     13  C   UNL A   1      33.570  24.659  24.127  1.00  0.00     0.091 C 
ATOM     14  C   UNL A   1      32.990  23.248  24.290  1.00  0.00     0.063 C 
ATOM     15  N   UNL A   1      32.232  22.823  23.116  1.00  0.00    -0.349 N 
ATOM     16  C   UNL A   1      32.356  21.482  22.838  1.00  0.00     0.221 C 
ATOM     17  H   UNL A   1      31.685  23.439  22.576  1.00  0.00     0.164 HD
ATOM     18  C   UNL A   1      33.465  20.915  23.676  1.00  0.00     0.116 C 
ATOM     19  O   UNL A   1      31.673  20.874  22.024  1.00  0.00    -0.275 OA
BRANCH   8  20
ATOM     20  C   UNL A   1      31.639  26.524  25.935  1.00  0.00     0.301 C 
BRANCH  20  21
ATOM     21  C   UNL A   1      31.988  27.981  26.235  1.00  0.00     0.032 A 
ATOM     22  C   UNL A   1      31.941  29.007  25.265  1.00  0.00     0.074 A 
ATOM     23  C   UNL A   1      32.578  30.236  25.502  1.00  0.00     0.029 A 
ATOM     24  C   UNL A   1      33.212  30.477  26.722  1.00  0.00     0.002 A 
ATOM     25  C   UNL A   1      32.505  28.307  27.504  1.00  0.00     0.012 A 
ATOM     26  C   UNL A   1      33.145  29.527  27.735  1.00  0.00     0.001 A 
BRANCH  22  27
ATOM     27  N   UNL A   1      31.160  28.835  24.094  1.00  0.00    -0.237 N 
ATOM     28  C   UNL A   1      27.966  29.308  22.610  1.00  0.00     0.069 C 
ATOM     29  C   UNL A   1      29.383  28.997  22.909  1.00  0.00     0.060 A 
ATOM     30  C   UNL A   1      30.349  28.392  22.087  1.00  0.00     0.048 A 
ATOM     31  N   UNL A   1      29.884  29.297  24.104  1.00  0.00    -0.173 NA
ATOM     32  C   UNL A   1      31.499  28.319  22.851  1.00  0.00     0.041 A 
ATOM     33  C   UNL A   1      32.794  27.682  22.504  1.00  0.00     0.067 C 
ENDBRANCH  22  27
ENDBRANCH  20  21
ENDBRANCH   8  20
ENDBRANCH   4   7
ENDBRANCH   2   3
ENDBRANCH   1   2
BRANCH   1  34
ATOM     34  C   UNL A   1      39.108  22.739  26.452  1.00  0.00     0.023 C 
BRANCH  34  35
ATOM     35  C   UNL A   1      40.372  22.525  27.268  1.00  0.00     0.116 C 
BRANCH  35  36
ATOM     36  N   UNL A   1      41.539  22.240  26.430  1.00  0.00    -0.352 N 
ATOM     37  C   UNL A   1      42.340  23.145  25.761  1.00  0.00     0.251 C 
ATOM     38  H   UNL A   1      41.781  21.290  26.332  1.00  0.00     0.163 HD
ATOM     39  O   UNL A   1      43.019  22.797  24.802  1.00  0.00    -0.269 OA
BRANCH  37  40
ATOM     40  C   UNL A   1      42.367  24.534  26.245  1.00  0.00     0.039 A 
ATOM     41  C   UNL A   1      41.574  25.528  25.674  1.00  0.00     0.014 A 
ATOM     42  C   UNL A   1      43.167  24.806  27.353  1.00  0.00     0.014 A 
ATOM     43  C   UNL A   1      41.528  26.774  26.293  1.00  0.00     0.010 A 
ATOM     44  C   UNL A   1      42.997  25.972  28.052  1.00  0.00     0.010 A 
ATOM     45  C   UNL A   1      42.217  26.980  27.503  1.00  0.00    -0.014 A 
BRANCH  45  46
ATOM     46  C   UNL A   1      41.988  28.184  28.299  1.00  0.00     0.031 A 
ATOM     47  C   UNL A   1      43.060  29.201  28.128  1.00  0.00     0.074 A 
ATOM     48  C   UNL A   1      40.834  28.446  28.953  1.00  0.00     0.049 A 
ATOM     49  N   UNL A   1      44.003  29.483  28.965  1.00  0.00    -0.248 NA
ATOM     50  C   UNL A   1      43.246  29.821  26.804  1.00  0.00     0.031 C 
ATOM     51  C   UNL A   1      39.588  27.670  28.943  1.00  0.00     0.029 A 
ATOM     52  N   UNL A   1      40.491  29.527  29.709  1.00  0.00    -0.354 N 
ATOM     53  C   UNL A   1      44.711  30.532  28.389  1.00  0.00     0.074 A 
ATOM     54  C   UNL A   1      44.371  30.516  26.992  1.00  0.00     0.031 C 
ATOM     55  C   UNL A   1      38.579  28.411  29.453  1.00  0.00     0.029 A 
ATOM     56  C   UNL A   1      39.127  29.645  29.984  1.00  0.00     0.049 A 
ATOM     57  H   UNL A   1      41.155  30.175  30.037  1.00  0.00     0.167 HD
ATOM     58  C   UNL A   1      45.256  31.505  29.172  1.00  0.00     0.037 A 
ATOM     59  C   UNL A   1      38.498  30.682  30.600  1.00  0.00     0.037 A 
ATOM     60  C   UNL A   1      45.309  31.075  30.552  1.00  0.00     0.049 A 
ATOM     61  C   UNL A   1      39.537  31.418  31.365  1.00  0.00     0.074 A 
ATOM     62  C   UNL A   1      45.866  30.000  31.218  1.00  0.00     0.029 A 
ATOM     63  N   UNL A   1      44.360  31.592  31.401  1.00  0.00    -0.354 N 
ATOM     64  N   UNL A   1      40.168  30.917  32.391  1.00  0.00    -0.248 NA
ATOM     65  C   UNL A   1      40.210  32.516  30.694  1.00  0.00     0.031 C 
ATOM     66  C   UNL A   1      44.904  29.639  32.207  1.00  0.00     0.029 A 
ATOM     67  C   UNL A   1      43.863  30.566  32.161  1.00  0.00     0.049 A 
ATOM     68  H   UNL A   1      44.086  32.535  31.454  1.00  0.00     0.167 HD
ATOM     69  C   UNL A   1      41.487  31.308  32.214  1.00  0.00     0.074 A 
ATOM     70  C   UNL A   1      41.435  32.362  31.202  1.00  0.00     0.031 C 
ATOM     71  C   UNL A   1      42.514  30.539  32.686  1.00  0.00     0.037 A 
BRANCH  58  72
ATOM     72  C   UNL A   1      45.326  32.970  28.793  1.00  0.00     0.058 A 
ATOM     73  C   UNL A   1      46.559  33.646  28.916  1.00  0.00     0.135 A 
ATOM     74  C   UNL A   1      44.199  33.801  28.600  1.00  0.00     0.135 A 
ATOM     75  F   UNL A   1      47.697  32.962  29.112  1.00  0.00    -0.206 F 
ATOM     76  C   UNL A   1      46.654  35.038  28.925  1.00  0.00     0.059 A 
ATOM     77  C   UNL A   1      44.278  35.188  28.551  1.00  0.00     0.059 A 
ATOM     78  F   UNL A   1      42.950  33.326  28.542  1.00  0.00    -0.206 F 
ATOM     79  C   UNL A   1      45.503  35.800  28.751  1.00  0.00     0.060 A 
BRANCH  79  80
ATOM     80  S   UNL A   1      45.610  37.595  28.823  1.00  0.00     0.124 S 
ATOM     81  O   UNL A   1      46.781  37.850  27.993  1.00  0.00    -0.237 OA
ATOM     82  O   UNL A   1      44.325  37.993  28.259  1.00  0.00    -0.237 OA
ATOM     83  O   UNL A   1      45.772  37.863  30.249  1.00  0.00    -0.744 OA
ENDBRANCH  79  80
ENDBRANCH  58  72
BRANCH  59  84
ATOM     84  C   UNL A   1      37.159  31.279  30.316  1.00  0.00     0.058 A 
ATOM     85  C   UNL A   1      36.380  31.848  31.344  1.00  0.00     0.135 A 
ATOM     86  C   UNL A   1      36.759  31.587  29.001  1.00  0.00     0.135 A 
ATOM     87  F   UNL A   1      36.693  31.624  32.630  1.00  0.00    -0.206 F 
ATOM     88  C   UNL A   1      35.314  32.720  31.086  1.00  0.00     0.059 A 
ATOM     89  C   UNL A   1      35.695  32.448  28.719  1.00  0.00     0.059 A 
ATOM     90  F   UNL A   1      37.452  31.134  27.946  1.00  0.00    -0.206 F 
ATOM     91  C   UNL A   1      34.994  33.035  29.767  1.00  0.00     0.060 A 
BRANCH  91  92
ATOM     92  S   UNL A   1      33.749  34.306  29.427  1.00  0.00     0.124 S 
ATOM     93  O   UNL A   1      33.293  34.649  30.771  1.00  0.00    -0.237 OA
ATOM     94  O   UNL A   1      34.529  35.329  28.739  1.00  0.00    -0.237 OA
ATOM     95  O   UNL A   1      32.771  33.608  28.597  1.00  0.00    -0.744 OA
ENDBRANCH  91  92
ENDBRANCH  59  84
BRANCH  71  96
ATOM     96  C   UNL A   1      42.202  29.471  33.704  1.00  0.00     0.058 A 
ATOM     97  C   UNL A   1      41.699  28.188  33.418  1.00  0.00     0.135 A 
ATOM     98  C   UNL A   1      42.556  29.733  35.036  1.00  0.00     0.135 A 
ATOM     99  F   UNL A   1      41.430  27.814  32.158  1.00  0.00    -0.206 F 
ATOM    100  C   UNL A   1      41.510  27.233  34.423  1.00  0.00     0.059 A 
ATOM    101  C   UNL A   1      42.411  28.788  36.044  1.00  0.00     0.059 A 
ATOM    102  F   UNL A   1      43.097  30.919  35.366  1.00  0.00    -0.206 F 
ATOM    103  C   UNL A   1      41.868  27.545  35.735  1.00  0.00     0.060 A 
BRANCH 103 104
ATOM    104  S   UNL A   1      41.661  26.307  37.033  1.00  0.00     0.124 S 
ATOM    105  O   UNL A   1      42.831  26.542  37.872  1.00  0.00    -0.237 OA
ATOM    106  O   UNL A   1      40.375  26.673  37.619  1.00  0.00    -0.237 OA
ATOM    107  O   UNL A   1      41.663  25.041  36.301  1.00  0.00    -0.744 OA
ENDBRANCH 103 104
ENDBRANCH  71  96
ENDBRANCH  45  46
ENDBRANCH  37  40
ENDBRANCH  35  36
ENDBRANCH  34  35
ENDBRANCH   1  34
TORSDOF 17
ENDMDL
MODEL 3
REMARK VINA RESULT:     -13.2      2.898      9.248
REMARK SMILES Cc1cc(C)n(-c2ccccc2C[NH+]2CCC3(CC2)NC(=O)C[C@H]3C(=O)NCCCCNC(=O)c2ccc(-c3c4nc(c(-c5c(F)cc(S(=O)(=O)[O-])cc5F)c5ccc([nH]5)c(-c5c(F)cc(S(=O)(=O)[O-])cc5F)c5nc(c(-c6c(F)cc(S(=O)(=O)[O-])cc6F)c6ccc3[nH]6)C=C5)C=C4)cc2)n1
REMARK SMILES IDX 29 1 28 2 27 3 25 4 26 5 24 7 14 8 15 9 19 10 16 12 18 13
REMARK SMILES IDX 17 14 20 15 21 16 23 18 22 19 13 20 12 21 7 22 8 23 9 24
REMARK SMILES IDX 11 25 10 26 6 27 1 28 2 29 3 30 101 31 4 32 5 33 30 34 31 35
REMARK SMILES IDX 32 36 33 37 34 39 35 40 36 41 100 42 37 43 99 44 38 45 39 46
REMARK SMILES IDX 40 47 93 48 41 49 98 50 92 51 94 52 42 53 97 54 91 55 90 56
REMARK SMILES IDX 43 58 77 59 56 60 76 61 57 62 60 63 75 64 95 65 58 66 59 67
REMARK SMILES IDX 74 69 96 70 61 71 44 72 45 73 54 74 46 75 47 76 53 77 55 78
REMARK SMILES IDX 48 79 49 80 50 81 51 82 52 83 78 84 79 85 88 86 80 87 81 88
REMARK SMILES IDX 87 89 89 90 82 91 83 92 84 93 85 94 86 95 62 96 63 97 72 98
REMARK SMILES IDX 64 99 65 100 71 101 73 102 66 103 67 104 68 105 69 106
REMARK SMILES IDX 70 107
REMARK H PARENT 27 6 14 11 20 17 32 38 94 57 60 68
REMARK Flexibility Score: inf
ROOT
ATOM      1  C   UNL A   1      31.948  29.632  26.775  1.00  0.00     0.023 C 
ENDROOT
BRANCH   1   2
ATOM      2  C   UNL A   1      31.830  29.827  25.251  1.00  0.00     0.116 C 
BRANCH   2   3
ATOM      3  N   UNL A   1      33.038  29.596  24.469  1.00  0.00    -0.356 N 
ATOM      4  C   UNL A   1      33.300  28.975  23.284  1.00  0.00     0.226 C 
ATOM      5  O   UNL A   1      34.473  29.017  22.896  1.00  0.00    -0.275 OA
ATOM      6  H   UNL A   1      33.844  29.972  24.890  1.00  0.00     0.163 HD
BRANCH   4   7
ATOM      7  C   UNL A   1      32.288  28.169  22.455  1.00  0.00     0.114 C 
ATOM      8  N   UNL A   1      33.535  24.266  22.512  1.00  0.00    -0.331 N 
ATOM      9  C   UNL A   1      32.704  24.780  21.436  1.00  0.00     0.264 C 
ATOM     10  C   UNL A   1      34.082  25.341  23.308  1.00  0.00     0.264 C 
ATOM     11  H   UNL A   1      34.308  23.821  22.018  1.00  0.00     0.348 HD
ATOM     12  C   UNL A   1      31.593  25.736  21.873  1.00  0.00     0.091 C 
ATOM     13  C   UNL A   1      33.010  26.204  23.937  1.00  0.00     0.091 C 
ATOM     14  C   UNL A   1      31.947  26.763  22.983  1.00  0.00     0.063 C 
ATOM     15  N   UNL A   1      30.680  27.025  23.660  1.00  0.00    -0.349 N 
ATOM     16  C   UNL A   1      30.022  28.135  23.183  1.00  0.00     0.221 C 
ATOM     17  H   UNL A   1      30.331  26.463  24.389  1.00  0.00     0.164 HD
ATOM     18  C   UNL A   1      30.951  28.900  22.287  1.00  0.00     0.116 C 
ATOM     19  O   UNL A   1      28.870  28.437  23.467  1.00  0.00    -0.275 OA
BRANCH   8  20
ATOM     20  C   UNL A   1      33.126  23.047  23.236  1.00  0.00     0.301 C 
BRANCH  20  21
ATOM     21  C   UNL A   1      32.617  23.191  24.670  1.00  0.00     0.032 A 
ATOM     22  C   UNL A   1      33.337  22.743  25.799  1.00  0.00     0.074 A 
ATOM     23  C   UNL A   1      32.693  22.599  27.039  1.00  0.00     0.029 A 
ATOM     24  C   UNL A   1      31.350  22.953  27.180  1.00  0.00     0.002 A 
ATOM     25  C   UNL A   1      31.311  23.677  24.879  1.00  0.00     0.012 A 
ATOM     26  C   UNL A   1      30.670  23.524  26.111  1.00  0.00     0.001 A 
BRANCH  22  27
ATOM     27  N   UNL A   1      34.738  22.540  25.708  1.00  0.00    -0.237 N 
ATOM     28  C   UNL A   1      37.942  24.025  26.099  1.00  0.00     0.069 C 
ATOM     29  C   UNL A   1      36.794  23.119  25.869  1.00  0.00     0.060 A 
ATOM     30  C   UNL A   1      36.795  21.778  25.447  1.00  0.00     0.048 A 
ATOM     31  N   UNL A   1      35.555  23.564  26.061  1.00  0.00    -0.173 NA
ATOM     32  C   UNL A   1      35.466  21.406  25.374  1.00  0.00     0.041 A 
ATOM     33  C   UNL A   1      34.894  20.125  24.890  1.00  0.00     0.067 C 
ENDBRANCH  22  27
ENDBRANCH  20  21
ENDBRANCH   8  20
ENDBRANCH   4   7
ENDBRANCH   2   3
ENDBRANCH   1   2
BRANCH   1  34
ATOM     34  C   UNL A   1      33.142  28.818  27.284  1.00  0.00     0.023 C 
BRANCH  34  35
ATOM     35  C   UNL A   1      34.456  29.582  27.273  1.00  0.00     0.116 C 
BRANCH  35  36
ATOM     36  N   UNL A   1      34.304  30.967  27.723  1.00  0.00    -0.352 N 
ATOM     37  C   UNL A   1      34.932  31.583  28.790  1.00  0.00     0.251 C 
ATOM     38  H   UNL A   1      33.680  31.526  27.205  1.00  0.00     0.163 HD
ATOM     39  O   UNL A   1      34.455  32.585  29.308  1.00  0.00    -0.269 OA
BRANCH  37  40
ATOM     40  C   UNL A   1      36.198  31.008  29.272  1.00  0.00     0.039 A 
ATOM     41  C   UNL A   1      36.297  29.677  29.671  1.00  0.00     0.014 A 
ATOM     42  C   UNL A   1      37.321  31.833  29.244  1.00  0.00     0.014 A 
ATOM     43  C   UNL A   1      37.560  29.163  29.952  1.00  0.00     0.010 A 
ATOM     44  C   UNL A   1      38.573  31.289  29.360  1.00  0.00     0.010 A 
ATOM     45  C   UNL A   1      38.701  29.967  29.762  1.00  0.00    -0.014 A 
BRANCH  45  46
ATOM     46  C   UNL A   1      40.041  29.388  29.807  1.00  0.00     0.031 A 
ATOM     47  C   UNL A   1      40.541  29.195  31.194  1.00  0.00     0.074 A 
ATOM     48  C   UNL A   1      40.679  28.881  28.726  1.00  0.00     0.049 A 
ATOM     49  N   UNL A   1      41.420  29.913  31.809  1.00  0.00    -0.248 NA
ATOM     50  C   UNL A   1      39.839  28.244  32.076  1.00  0.00     0.031 C 
ATOM     51  C   UNL A   1      40.167  28.728  27.360  1.00  0.00     0.029 A 
ATOM     52  N   UNL A   1      41.910  28.305  28.637  1.00  0.00    -0.354 N 
ATOM     53  C   UNL A   1      41.596  29.307  33.048  1.00  0.00     0.074 A 
ATOM     54  C   UNL A   1      40.443  28.472  33.246  1.00  0.00     0.031 C 
ATOM     55  C   UNL A   1      40.974  27.902  26.656  1.00  0.00     0.029 A 
ATOM     56  C   UNL A   1      42.148  27.604  27.453  1.00  0.00     0.049 A 
ATOM     57  H   UNL A   1      42.582  28.377  29.354  1.00  0.00     0.167 HD
ATOM     58  C   UNL A   1      42.822  29.305  33.644  1.00  0.00     0.037 A 
ATOM     59  C   UNL A   1      43.229  26.833  27.155  1.00  0.00     0.037 A 
ATOM     60  C   UNL A   1      43.689  30.282  33.024  1.00  0.00     0.049 A 
ATOM     61  C   UNL A   1      44.320  27.258  28.069  1.00  0.00     0.074 A 
ATOM     62  C   UNL A   1      43.620  31.644  32.799  1.00  0.00     0.029 A 
ATOM     63  N   UNL A   1      44.641  29.806  32.156  1.00  0.00    -0.354 N 
ATOM     64  N   UNL A   1      44.883  28.435  28.024  1.00  0.00    -0.248 NA
ATOM     65  C   UNL A   1      44.447  26.554  29.333  1.00  0.00     0.031 C 
ATOM     66  C   UNL A   1      44.171  31.832  31.497  1.00  0.00     0.029 A 
ATOM     67  C   UNL A   1      44.636  30.598  31.039  1.00  0.00     0.049 A 
ATOM     68  H   UNL A   1      45.227  29.030  32.311  1.00  0.00     0.167 HD
ATOM     69  C   UNL A   1      45.021  28.807  29.353  1.00  0.00     0.074 A 
ATOM     70  C   UNL A   1      44.816  27.574  30.112  1.00  0.00     0.031 C 
ATOM     71  C   UNL A   1      44.992  30.123  29.718  1.00  0.00     0.037 A 
BRANCH  58  72
ATOM     72  C   UNL A   1      43.376  28.155  34.459  1.00  0.00     0.058 A 
ATOM     73  C   UNL A   1      43.891  28.420  35.747  1.00  0.00     0.135 A 
ATOM     74  C   UNL A   1      43.690  26.881  33.935  1.00  0.00     0.135 A 
ATOM     75  F   UNL A   1      43.666  29.601  36.344  1.00  0.00    -0.206 F 
ATOM     76  C   UNL A   1      44.716  27.521  36.424  1.00  0.00     0.059 A 
ATOM     77  C   UNL A   1      44.465  25.950  34.615  1.00  0.00     0.059 A 
ATOM     78  F   UNL A   1      43.345  26.502  32.700  1.00  0.00    -0.206 F 
ATOM     79  C   UNL A   1      45.006  26.291  35.843  1.00  0.00     0.060 A 
BRANCH  79  80
ATOM     80  S   UNL A   1      46.119  25.154  36.683  1.00  0.00     0.124 S 
ATOM     81  O   UNL A   1      46.993  24.744  35.591  1.00  0.00    -0.237 OA
ATOM     82  O   UNL A   1      46.717  26.017  37.696  1.00  0.00    -0.237 OA
ATOM     83  O   UNL A   1      45.219  24.126  37.198  1.00  0.00    -0.744 OA
ENDBRANCH  79  80
ENDBRANCH  58  72
BRANCH  59  84
ATOM     84  C   UNL A   1      43.297  25.553  26.392  1.00  0.00     0.058 A 
ATOM     85  C   UNL A   1      44.224  25.373  25.345  1.00  0.00     0.135 A 
ATOM     86  C   UNL A   1      42.681  24.381  26.872  1.00  0.00     0.135 A 
ATOM     87  F   UNL A   1      44.873  26.430  24.832  1.00  0.00    -0.206 F 
ATOM     88  C   UNL A   1      44.568  24.108  24.853  1.00  0.00     0.059 A 
ATOM     89  C   UNL A   1      43.002  23.108  26.393  1.00  0.00     0.059 A 
ATOM     90  F   UNL A   1      41.813  24.427  27.894  1.00  0.00    -0.206 F 
ATOM     91  C   UNL A   1      43.969  22.976  25.402  1.00  0.00     0.060 A 
BRANCH  91  92
ATOM     92  S   UNL A   1      44.546  21.331  24.910  1.00  0.00     0.124 S 
ATOM     93  O   UNL A   1      44.588  21.447  23.456  1.00  0.00    -0.237 OA
ATOM     94  O   UNL A   1      45.839  21.241  25.579  1.00  0.00    -0.237 OA
ATOM     95  O   UNL A   1      43.514  20.440  25.434  1.00  0.00    -0.744 OA
ENDBRANCH  91  92
ENDBRANCH  59  84
BRANCH  71  96
ATOM     96  C   UNL A   1      45.178  31.169  28.647  1.00  0.00     0.058 A 
ATOM     97  C   UNL A   1      44.153  31.738  27.869  1.00  0.00     0.135 A 
ATOM     98  C   UNL A   1      46.465  31.709  28.496  1.00  0.00     0.135 A 
ATOM     99  F   UNL A   1      42.876  31.356  28.021  1.00  0.00    -0.206 F 
ATOM    100  C   UNL A   1      44.410  32.759  26.948  1.00  0.00     0.059 A 
ATOM    101  C   UNL A   1      46.737  32.747  27.614  1.00  0.00     0.059 A 
ATOM    102  F   UNL A   1      47.478  31.251  29.252  1.00  0.00    -0.206 F 
ATOM    103  C   UNL A   1      45.709  33.256  26.827  1.00  0.00     0.060 A 
BRANCH 103 104
ATOM    104  S   UNL A   1      46.043  34.598  25.667  1.00  0.00     0.124 S 
ATOM    105  O   UNL A   1      47.465  34.418  25.390  1.00  0.00    -0.237 OA
ATOM    106  O   UNL A   1      45.139  34.295  24.562  1.00  0.00    -0.237 OA
ATOM    107  O   UNL A   1      45.704  35.799  26.426  1.00  0.00    -0.744 OA
ENDBRANCH 103 104
ENDBRANCH  71  96
ENDBRANCH  45  46
ENDBRANCH  37  40
ENDBRANCH  35  36
ENDBRANCH  34  35
ENDBRANCH   1  34
TORSDOF 17
ENDMDL
