MODEL 1
REMARK VINA RESULT:     -10.5      0.000      0.000
REMARK SMILES O=C(CSc1nc2cnccc2n1CCC(F)(F)F)NCCCCNC(=O)c1ccc(-c2c3nc(c(-c4c(F)cc(S(=O)(=O)[O-])cc4F)c4ccc([nH]4)c(-c4c(F)cc(S(=O)(=O)[O-])cc4F)c4nc(c(-c5c(F)cc(S(=O)(=O)[O-])cc5F)c5ccc2[nH]5)C=C4)C=C3)cc1
REMARK SMILES IDX 21 1 20 2 1 3 2 4 3 6 4 7 5 8 6 9 13 10 7 11 12 12 8 13
REMARK SMILES IDX 11 14 9 15 10 16 14 17 15 18 16 19 17 20 18 21 19 22 22 23
REMARK SMILES IDX 23 24 24 25 25 26 26 27 27 29 28 30 29 31 93 32 30 33 92 34
REMARK SMILES IDX 31 35 32 36 33 37 86 38 34 39 91 40 85 41 87 42 35 43 90 44
REMARK SMILES IDX 84 45 83 46 36 48 70 49 49 50 69 51 50 52 53 53 68 54 88 55
REMARK SMILES IDX 51 56 52 57 67 59 89 60 54 61 37 62 38 63 47 64 39 65 40 66
REMARK SMILES IDX 46 67 48 68 41 69 42 70 43 71 44 72 45 73 71 74 72 75 81 76
REMARK SMILES IDX 73 77 74 78 80 79 82 80 75 81 76 82 77 83 78 84 79 85 55 86
REMARK SMILES IDX 56 87 65 88 57 89 58 90 64 91 66 92 59 93 60 94 61 95 62 96
REMARK SMILES IDX 63 97
REMARK H PARENT 20 5 25 28 87 47 53 58
REMARK Flexibility Score: inf
ROOT
ATOM      1  C   UNL A   1      33.343  35.909  30.720  1.00  0.00     0.116 C 
ENDROOT
BRANCH   1   2
ATOM      2  N   UNL A   1      34.153  35.287  31.753  1.00  0.00    -0.355 N 
ATOM      3  O   UNL A   1      34.385  37.140  33.056  1.00  0.00    -0.274 OA
ATOM      4  C   UNL A   1      34.498  35.925  32.923  1.00  0.00     0.230 C 
ATOM      5  H   UNL A   1      34.470  34.366  31.609  1.00  0.00     0.163 HD
BRANCH   4   6
ATOM      6  C   UNL A   1      35.025  35.021  34.039  1.00  0.00     0.178 C 
BRANCH   6   7
ATOM      7  S   UNL A   1      35.988  33.606  33.409  1.00  0.00    -0.078 SA
BRANCH   7   8
ATOM      8  C   UNL A   1      37.183  33.233  34.622  1.00  0.00     0.169 A 
ATOM      9  N   UNL A   1      36.959  32.402  35.619  1.00  0.00    -0.221 NA
ATOM     10  N   UNL A   1      38.307  33.990  34.867  1.00  0.00    -0.318 N 
ATOM     11  C   UNL A   1      37.875  32.737  36.598  1.00  0.00     0.108 A 
ATOM     12  C   UNL A   1      38.685  33.783  36.173  1.00  0.00     0.072 A 
ATOM     13  C   UNL A   1      38.068  32.237  37.889  1.00  0.00     0.141 A 
ATOM     14  C   UNL A   1      39.637  34.387  36.994  1.00  0.00     0.049 A 
ATOM     15  N   UNL A   1      38.995  32.800  38.717  1.00  0.00    -0.262 NA
ATOM     16  C   UNL A   1      39.728  33.844  38.266  1.00  0.00     0.113 A 
BRANCH  10  17
ATOM     17  C   UNL A   1      39.023  34.861  33.972  1.00  0.00     0.134 C 
BRANCH  17  18
ATOM     18  C   UNL A   1      40.163  34.221  33.176  1.00  0.00     0.137 C 
BRANCH  18  19
ATOM     19  C   UNL A   1      39.768  33.425  31.952  1.00  0.00     0.390 C 
ATOM     20  F   UNL A   1      39.491  32.143  32.232  1.00  0.00    -0.171 F 
ATOM     21  F   UNL A   1      38.681  33.973  31.368  1.00  0.00    -0.171 F 
ATOM     22  F   UNL A   1      40.758  33.434  31.033  1.00  0.00    -0.171 F 
ENDBRANCH  18  19
ENDBRANCH  17  18
ENDBRANCH  10  17
ENDBRANCH   7   8
ENDBRANCH   6   7
ENDBRANCH   4   6
ENDBRANCH   1   2
BRANCH   1  23
ATOM     23  C   UNL A   1      33.154  35.053  29.481  1.00  0.00     0.023 C 
BRANCH  23  24
ATOM     24  C   UNL A   1      34.212  35.257  28.398  1.00  0.00     0.023 C 
BRANCH  24  25
ATOM     25  C   UNL A   1      35.135  34.061  28.139  1.00  0.00     0.116 C 
BRANCH  25  26
ATOM     26  N   UNL A   1      34.453  32.838  27.780  1.00  0.00    -0.352 N 
ATOM     27  C   UNL A   1      34.687  31.518  28.053  1.00  0.00     0.251 C 
ATOM     28  H   UNL A   1      33.655  32.986  27.223  1.00  0.00     0.163 HD
ATOM     29  O   UNL A   1      33.766  30.742  27.783  1.00  0.00    -0.269 OA
BRANCH  27  30
ATOM     30  C   UNL A   1      35.974  30.972  28.562  1.00  0.00     0.039 A 
ATOM     31  C   UNL A   1      36.950  31.702  29.241  1.00  0.00     0.014 A 
ATOM     32  C   UNL A   1      36.244  29.630  28.236  1.00  0.00     0.014 A 
ATOM     33  C   UNL A   1      38.211  31.165  29.452  1.00  0.00     0.010 A 
ATOM     34  C   UNL A   1      37.493  29.074  28.479  1.00  0.00     0.010 A 
ATOM     35  C   UNL A   1      38.494  29.869  29.025  1.00  0.00    -0.014 A 
BRANCH  35  36
ATOM     36  C   UNL A   1      39.849  29.379  29.236  1.00  0.00     0.031 A 
ATOM     37  C   UNL A   1      40.220  29.138  30.660  1.00  0.00     0.074 A 
ATOM     38  C   UNL A   1      40.688  29.091  28.221  1.00  0.00     0.049 A 
ATOM     39  N   UNL A   1      41.125  29.737  31.362  1.00  0.00    -0.248 NA
ATOM     40  C   UNL A   1      39.384  28.208  31.435  1.00  0.00     0.031 C 
ATOM     41  C   UNL A   1      40.399  29.037  26.787  1.00  0.00     0.029 A 
ATOM     42  N   UNL A   1      41.983  28.682  28.284  1.00  0.00    -0.354 N 
ATOM     43  C   UNL A   1      41.114  29.124  32.614  1.00  0.00     0.074 A 
ATOM     44  C   UNL A   1      39.931  28.301  32.648  1.00  0.00     0.031 C 
ATOM     45  C   UNL A   1      41.400  28.381  26.159  1.00  0.00     0.029 A 
ATOM     46  C   UNL A   1      42.449  28.087  27.120  1.00  0.00     0.049 A 
ATOM     47  H   UNL A   1      42.542  28.797  29.085  1.00  0.00     0.167 HD
ATOM     48  C   UNL A   1      42.178  29.191  33.463  1.00  0.00     0.037 A 
ATOM     49  C   UNL A   1      43.567  27.325  26.999  1.00  0.00     0.037 A 
ATOM     50  C   UNL A   1      43.077  30.254  33.100  1.00  0.00     0.049 A 
ATOM     51  C   UNL A   1      44.462  27.690  28.135  1.00  0.00     0.074 A 
ATOM     52  C   UNL A   1      42.953  31.626  32.983  1.00  0.00     0.029 A 
ATOM     53  N   UNL A   1      44.238  29.930  32.440  1.00  0.00    -0.354 N 
ATOM     54  N   UNL A   1      45.020  28.865  28.268  1.00  0.00    -0.248 NA
ATOM     55  C   UNL A   1      44.347  26.916  29.364  1.00  0.00     0.031 C 
ATOM     56  C   UNL A   1      43.737  31.966  31.844  1.00  0.00     0.029 A 
ATOM     57  C   UNL A   1      44.339  30.796  31.380  1.00  0.00     0.049 A 
ATOM     58  H   UNL A   1      44.872  29.216  32.679  1.00  0.00     0.167 HD
ATOM     59  C   UNL A   1      44.938  29.150  29.625  1.00  0.00     0.074 A 
ATOM     60  C   UNL A   1      44.579  27.882  30.257  1.00  0.00     0.031 C 
ATOM     61  C   UNL A   1      44.887  30.433  30.091  1.00  0.00     0.037 A 
BRANCH  48  62
ATOM     62  C   UNL A   1      42.577  28.095  34.422  1.00  0.00     0.058 A 
ATOM     63  C   UNL A   1      42.644  28.370  35.804  1.00  0.00     0.135 A 
ATOM     64  C   UNL A   1      43.175  26.884  34.011  1.00  0.00     0.135 A 
ATOM     65  F   UNL A   1      42.110  29.495  36.306  1.00  0.00    -0.206 F 
ATOM     66  C   UNL A   1      43.329  27.545  36.697  1.00  0.00     0.059 A 
ATOM     67  C   UNL A   1      43.816  26.020  34.891  1.00  0.00     0.059 A 
ATOM     68  F   UNL A   1      43.255  26.530  32.722  1.00  0.00    -0.206 F 
ATOM     69  C   UNL A   1      43.929  26.380  36.224  1.00  0.00     0.060 A 
BRANCH  69  70
ATOM     70  S   UNL A   1      44.926  25.385  37.345  1.00  0.00     0.124 S 
ATOM     71  O   UNL A   1      44.324  25.707  38.634  1.00  0.00    -0.237 OA
ATOM     72  O   UNL A   1      44.685  24.035  36.846  1.00  0.00    -0.237 OA
ATOM     73  O   UNL A   1      46.278  25.894  37.134  1.00  0.00    -0.744 OA
ENDBRANCH  69  70
ENDBRANCH  48  62
BRANCH  49  74
ATOM     74  C   UNL A   1      43.690  26.051  26.229  1.00  0.00     0.058 A 
ATOM     75  C   UNL A   1      44.814  25.782  25.426  1.00  0.00     0.135 A 
ATOM     76  C   UNL A   1      42.830  24.956  26.463  1.00  0.00     0.135 A 
ATOM     77  F   UNL A   1      45.706  26.751  25.167  1.00  0.00    -0.206 F 
ATOM     78  C   UNL A   1      45.087  24.501  24.922  1.00  0.00     0.059 A 
ATOM     79  C   UNL A   1      43.072  23.679  25.960  1.00  0.00     0.059 A 
ATOM     80  F   UNL A   1      41.764  25.062  27.268  1.00  0.00    -0.206 F 
ATOM     81  C   UNL A   1      44.217  23.450  25.212  1.00  0.00     0.060 A 
BRANCH  81  82
ATOM     82  S   UNL A   1      44.640  21.765  24.710  1.00  0.00     0.124 S 
ATOM     83  O   UNL A   1      43.533  20.995  25.268  1.00  0.00    -0.237 OA
ATOM     84  O   UNL A   1      44.671  21.877  23.256  1.00  0.00    -0.237 OA
ATOM     85  O   UNL A   1      45.937  21.538  25.342  1.00  0.00    -0.744 OA
ENDBRANCH  81  82
ENDBRANCH  49  74
BRANCH  61  86
ATOM     86  C   UNL A   1      45.158  31.574  29.143  1.00  0.00     0.058 A 
ATOM     87  C   UNL A   1      46.442  32.075  28.862  1.00  0.00     0.135 A 
ATOM     88  C   UNL A   1      44.105  32.027  28.331  1.00  0.00     0.135 A 
ATOM     89  F   UNL A   1      47.519  31.617  29.513  1.00  0.00    -0.206 F 
ATOM     90  C   UNL A   1      46.664  33.001  27.841  1.00  0.00     0.059 A 
ATOM     91  C   UNL A   1      44.308  32.926  27.288  1.00  0.00     0.059 A 
ATOM     92  F   UNL A   1      42.866  31.539  28.505  1.00  0.00    -0.206 F 
ATOM     93  C   UNL A   1      45.591  33.413  27.051  1.00  0.00     0.060 A 
BRANCH  93  94
ATOM     94  S   UNL A   1      45.898  34.527  25.663  1.00  0.00     0.124 S 
ATOM     95  O   UNL A   1      45.545  35.829  26.231  1.00  0.00    -0.237 OA
ATOM     96  O   UNL A   1      47.323  34.320  25.403  1.00  0.00    -0.237 OA
ATOM     97  O   UNL A   1      45.005  34.038  24.623  1.00  0.00    -0.744 OA
ENDBRANCH  93  94
ENDBRANCH  61  86
ENDBRANCH  35  36
ENDBRANCH  27  30
ENDBRANCH  25  26
ENDBRANCH  24  25
ENDBRANCH  23  24
ENDBRANCH   1  23
TORSDOF 19
ENDMDL
MODEL 2
REMARK VINA RESULT:     -10.4      4.593     11.311
REMARK SMILES O=C(CSc1nc2cnccc2n1CCC(F)(F)F)NCCCCNC(=O)c1ccc(-c2c3nc(c(-c4c(F)cc(S(=O)(=O)[O-])cc4F)c4ccc([nH]4)c(-c4c(F)cc(S(=O)(=O)[O-])cc4F)c4nc(c(-c5c(F)cc(S(=O)(=O)[O-])cc5F)c5ccc2[nH]5)C=C4)C=C3)cc1
REMARK SMILES IDX 21 1 20 2 1 3 2 4 3 6 4 7 5 8 6 9 13 10 7 11 12 12 8 13
REMARK SMILES IDX 11 14 9 15 10 16 14 17 15 18 16 19 17 20 18 21 19 22 22 23
REMARK SMILES IDX 23 24 24 25 25 26 26 27 27 29 28 30 29 31 93 32 30 33 92 34
REMARK SMILES IDX 31 35 32 36 33 37 86 38 34 39 91 40 85 41 87 42 35 43 90 44
REMARK SMILES IDX 84 45 83 46 36 48 70 49 49 50 69 51 50 52 53 53 68 54 88 55
REMARK SMILES IDX 51 56 52 57 67 59 89 60 54 61 37 62 38 63 47 64 39 65 40 66
REMARK SMILES IDX 46 67 48 68 41 69 42 70 43 71 44 72 45 73 71 74 72 75 81 76
REMARK SMILES IDX 73 77 74 78 80 79 82 80 75 81 76 82 77 83 78 84 79 85 55 86
REMARK SMILES IDX 56 87 65 88 57 89 58 90 64 91 66 92 59 93 60 94 61 95 62 96
REMARK SMILES IDX 63 97
REMARK H PARENT 20 5 25 28 87 47 53 58
REMARK Flexibility Score: inf
ROOT
ATOM      1  C   UNL A   1      36.014  22.302  24.449  1.00  0.00     0.116 C 
ENDROOT
BRANCH   1   2
ATOM      2  N   UNL A   1      34.867  23.187  24.567  1.00  0.00    -0.355 N 
ATOM      3  O   UNL A   1      34.482  23.414  22.334  1.00  0.00    -0.274 OA
ATOM      4  C   UNL A   1      34.098  23.566  23.490  1.00  0.00     0.230 C 
ATOM      5  H   UNL A   1      34.629  23.531  25.458  1.00  0.00     0.163 HD
BRANCH   4   6
ATOM      6  C   UNL A   1      32.740  24.182  23.831  1.00  0.00     0.178 C 
BRANCH   6   7
ATOM      7  S   UNL A   1      32.296  25.569  22.732  1.00  0.00    -0.078 SA
BRANCH   7   8
ATOM      8  C   UNL A   1      32.683  27.035  23.593  1.00  0.00     0.169 A 
ATOM      9  N   UNL A   1      33.584  27.088  24.551  1.00  0.00    -0.221 NA
ATOM     10  N   UNL A   1      31.885  28.158  23.616  1.00  0.00    -0.318 N 
ATOM     11  C   UNL A   1      33.265  28.203  25.304  1.00  0.00     0.108 A 
ATOM     12  C   UNL A   1      32.154  28.848  24.775  1.00  0.00     0.072 A 
ATOM     13  C   UNL A   1      33.833  28.720  26.471  1.00  0.00     0.141 A 
ATOM     14  C   UNL A   1      31.554  29.949  25.386  1.00  0.00     0.049 A 
ATOM     15  N   UNL A   1      33.276  29.799  27.092  1.00  0.00    -0.262 NA
ATOM     16  C   UNL A   1      32.170  30.365  26.556  1.00  0.00     0.113 A 
BRANCH  10  17
ATOM     17  C   UNL A   1      30.925  28.605  22.641  1.00  0.00     0.134 C 
BRANCH  17  18
ATOM     18  C   UNL A   1      29.464  28.244  22.918  1.00  0.00     0.137 C 
BRANCH  18  19
ATOM     19  C   UNL A   1      28.457  29.366  22.800  1.00  0.00     0.390 C 
ATOM     20  F   UNL A   1      28.122  29.633  21.529  1.00  0.00    -0.171 F 
ATOM     21  F   UNL A   1      27.330  29.057  23.476  1.00  0.00    -0.171 F 
ATOM     22  F   UNL A   1      28.942  30.506  23.337  1.00  0.00    -0.171 F 
ENDBRANCH  18  19
ENDBRANCH  17  18
ENDBRANCH  10  17
ENDBRANCH   7   8
ENDBRANCH   6   7
ENDBRANCH   4   6
ENDBRANCH   1   2
BRANCH   1  23
ATOM     23  C   UNL A   1      36.798  22.130  25.736  1.00  0.00     0.023 C 
BRANCH  23  24
ATOM     24  C   UNL A   1      38.205  22.726  25.711  1.00  0.00     0.023 C 
BRANCH  24  25
ATOM     25  C   UNL A   1      39.271  21.943  26.482  1.00  0.00     0.116 C 
BRANCH  25  26
ATOM     26  N   UNL A   1      40.534  21.801  25.792  1.00  0.00    -0.352 N 
ATOM     27  C   UNL A   1      41.731  22.457  25.880  1.00  0.00     0.251 C 
ATOM     28  H   UNL A   1      40.531  21.082  25.119  1.00  0.00     0.163 HD
ATOM     29  O   UNL A   1      42.682  21.922  25.303  1.00  0.00    -0.269 OA
BRANCH  27  30
ATOM     30  C   UNL A   1      41.927  23.777  26.538  1.00  0.00     0.039 A 
ATOM     31  C   UNL A   1      42.564  23.985  27.762  1.00  0.00     0.014 A 
ATOM     32  C   UNL A   1      41.329  24.878  25.897  1.00  0.00     0.014 A 
ATOM     33  C   UNL A   1      42.476  25.211  28.403  1.00  0.00     0.010 A 
ATOM     34  C   UNL A   1      41.270  26.120  26.517  1.00  0.00     0.010 A 
ATOM     35  C   UNL A   1      41.786  26.262  27.800  1.00  0.00    -0.014 A 
BRANCH  35  36
ATOM     36  C   UNL A   1      41.691  27.510  28.543  1.00  0.00     0.031 A 
ATOM     37  C   UNL A   1      42.853  28.431  28.383  1.00  0.00     0.074 A 
ATOM     38  C   UNL A   1      40.605  27.851  29.265  1.00  0.00     0.049 A 
ATOM     39  N   UNL A   1      43.691  28.823  29.287  1.00  0.00    -0.248 NA
ATOM     40  C   UNL A   1      43.204  28.857  27.020  1.00  0.00     0.031 C 
ATOM     41  C   UNL A   1      39.304  27.183  29.322  1.00  0.00     0.029 A 
ATOM     42  N   UNL A   1      40.414  28.952  30.039  1.00  0.00    -0.354 N 
ATOM     43  C   UNL A   1      44.562  29.707  28.650  1.00  0.00     0.074 A 
ATOM     44  C   UNL A   1      44.309  29.573  27.238  1.00  0.00     0.031 C 
ATOM     45  C   UNL A   1      38.400  28.023  29.876  1.00  0.00     0.029 A 
ATOM     46  C   UNL A   1      39.083  29.225  30.324  1.00  0.00     0.049 A 
ATOM     47  H   UNL A   1      41.155  29.508  30.370  1.00  0.00     0.167 HD
ATOM     48  C   UNL A   1      45.296  30.623  29.341  1.00  0.00     0.037 A 
ATOM     49  C   UNL A   1      38.587  30.397  30.797  1.00  0.00     0.037 A 
ATOM     50  C   UNL A   1      45.371  30.293  30.740  1.00  0.00     0.049 A 
ATOM     51  C   UNL A   1      39.718  31.106  31.462  1.00  0.00     0.074 A 
ATOM     52  C   UNL A   1      45.856  29.213  31.453  1.00  0.00     0.029 A 
ATOM     53  N   UNL A   1      44.571  30.987  31.617  1.00  0.00    -0.354 N 
ATOM     54  N   UNL A   1      40.307  30.673  32.545  1.00  0.00    -0.248 NA
ATOM     55  C   UNL A   1      40.504  32.031  30.657  1.00  0.00     0.031 C 
ATOM     56  C   UNL A   1      44.929  29.034  32.519  1.00  0.00     0.029 A 
ATOM     57  C   UNL A   1      43.978  30.051  32.427  1.00  0.00     0.049 A 
ATOM     58  H   UNL A   1      44.448  31.963  31.656  1.00  0.00     0.167 HD
ATOM     59  C   UNL A   1      41.658  30.923  32.345  1.00  0.00     0.074 A 
ATOM     60  C   UNL A   1      41.709  31.826  31.195  1.00  0.00     0.031 C 
ATOM     61  C   UNL A   1      42.629  30.165  32.936  1.00  0.00     0.037 A 
BRANCH  48  62
ATOM     62  C   UNL A   1      45.674  31.988  28.818  1.00  0.00     0.058 A 
ATOM     63  C   UNL A   1      44.675  32.830  28.284  1.00  0.00     0.135 A 
ATOM     64  C   UNL A   1      47.004  32.377  28.555  1.00  0.00     0.135 A 
ATOM     65  F   UNL A   1      43.374  32.554  28.472  1.00  0.00    -0.206 F 
ATOM     66  C   UNL A   1      44.977  33.927  27.477  1.00  0.00     0.059 A 
ATOM     67  C   UNL A   1      47.329  33.497  27.798  1.00  0.00     0.059 A 
ATOM     68  F   UNL A   1      48.052  31.635  28.932  1.00  0.00    -0.206 F 
ATOM     69  C   UNL A   1      46.310  34.240  27.224  1.00  0.00     0.060 A 
BRANCH  69  70
ATOM     70  S   UNL A   1      46.700  35.570  26.075  1.00  0.00     0.124 S 
ATOM     71  O   UNL A   1      45.874  36.654  26.595  1.00  0.00    -0.237 OA
ATOM     72  O   UNL A   1      48.140  35.717  26.261  1.00  0.00    -0.237 OA
ATOM     73  O   UNL A   1      46.292  35.027  24.782  1.00  0.00    -0.744 OA
ENDBRANCH  69  70
ENDBRANCH  48  62
BRANCH  49  74
ATOM     74  C   UNL A   1      37.343  31.080  30.335  1.00  0.00     0.058 A 
ATOM     75  C   UNL A   1      36.344  31.484  31.241  1.00  0.00     0.135 A 
ATOM     76  C   UNL A   1      37.216  31.586  29.022  1.00  0.00     0.135 A 
ATOM     77  F   UNL A   1      36.390  31.078  32.520  1.00  0.00    -0.206 F 
ATOM     78  C   UNL A   1      35.312  32.363  30.879  1.00  0.00     0.059 A 
ATOM     79  C   UNL A   1      36.191  32.447  28.635  1.00  0.00     0.059 A 
ATOM     80  F   UNL A   1      38.138  31.334  28.083  1.00  0.00    -0.206 F 
ATOM     81  C   UNL A   1      35.256  32.854  29.575  1.00  0.00     0.060 A 
BRANCH  81  82
ATOM     82  S   UNL A   1      34.033  34.112  29.137  1.00  0.00     0.124 S 
ATOM     83  O   UNL A   1      33.181  33.393  28.195  1.00  0.00    -0.237 OA
ATOM     84  O   UNL A   1      33.434  34.422  30.431  1.00  0.00    -0.237 OA
ATOM     85  O   UNL A   1      34.839  35.182  28.555  1.00  0.00    -0.744 OA
ENDBRANCH  81  82
ENDBRANCH  49  74
BRANCH  61  86
ATOM     86  C   UNL A   1      42.243  29.182  34.012  1.00  0.00     0.058 A 
ATOM     87  C   UNL A   1      41.687  27.914  33.758  1.00  0.00     0.135 A 
ATOM     88  C   UNL A   1      42.651  29.445  35.329  1.00  0.00     0.135 A 
ATOM     89  F   UNL A   1      41.371  27.537  32.512  1.00  0.00    -0.206 F 
ATOM     90  C   UNL A   1      41.521  26.966  34.770  1.00  0.00     0.059 A 
ATOM     91  C   UNL A   1      42.524  28.504  36.348  1.00  0.00     0.059 A 
ATOM     92  F   UNL A   1      43.248  30.612  35.626  1.00  0.00    -0.206 F 
ATOM     93  C   UNL A   1      41.952  27.267  36.061  1.00  0.00     0.060 A 
BRANCH  93  94
ATOM     94  S   UNL A   1      41.836  26.001  37.344  1.00  0.00     0.124 S 
ATOM     95  O   UNL A   1      42.826  26.461  38.318  1.00  0.00    -0.237 OA
ATOM     96  O   UNL A   1      40.439  26.110  37.766  1.00  0.00    -0.237 OA
ATOM     97  O   UNL A   1      42.173  24.769  36.646  1.00  0.00    -0.744 OA
ENDBRANCH  93  94
ENDBRANCH  61  86
ENDBRANCH  35  36
ENDBRANCH  27  30
ENDBRANCH  25  26
ENDBRANCH  24  25
ENDBRANCH  23  24
ENDBRANCH   1  23
TORSDOF 19
ENDMDL
MODEL 3
REMARK VINA RESULT:     -10.0      4.469     11.642
REMARK SMILES O=C(CSc1nc2cnccc2n1CCC(F)(F)F)NCCCCNC(=O)c1ccc(-c2c3nc(c(-c4c(F)cc(S(=O)(=O)[O-])cc4F)c4ccc([nH]4)c(-c4c(F)cc(S(=O)(=O)[O-])cc4F)c4nc(c(-c5c(F)cc(S(=O)(=O)[O-])cc5F)c5ccc2[nH]5)C=C4)C=C3)cc1
REMARK SMILES IDX 21 1 20 2 1 3 2 4 3 6 4 7 5 8 6 9 13 10 7 11 12 12 8 13
REMARK SMILES IDX 11 14 9 15 10 16 14 17 15 18 16 19 17 20 18 21 19 22 22 23
REMARK SMILES IDX 23 24 24 25 25 26 26 27 27 29 28 30 29 31 93 32 30 33 92 34
REMARK SMILES IDX 31 35 32 36 33 37 86 38 34 39 91 40 85 41 87 42 35 43 90 44
REMARK SMILES IDX 84 45 83 46 36 48 70 49 49 50 69 51 50 52 53 53 68 54 88 55
REMARK SMILES IDX 51 56 52 57 67 59 89 60 54 61 37 62 38 63 47 64 39 65 40 66
REMARK SMILES IDX 46 67 48 68 41 69 42 70 43 71 44 72 45 73 71 74 72 75 81 76
REMARK SMILES IDX 73 77 74 78 80 79 82 80 75 81 76 82 77 83 78 84 79 85 55 86
REMARK SMILES IDX 56 87 65 88 57 89 58 90 64 91 66 92 59 93 60 94 61 95 62 96
REMARK SMILES IDX 63 97
REMARK H PARENT 20 5 25 28 87 47 53 58
REMARK Flexibility Score: inf
ROOT
ATOM      1  C   UNL A   1      38.369  21.321  25.740  1.00  0.00     0.116 C 
ENDROOT
BRANCH   1   2
ATOM      2  N   UNL A   1      37.651  21.999  24.675  1.00  0.00    -0.355 N 
ATOM      3  O   UNL A   1      35.567  21.730  25.553  1.00  0.00    -0.274 OA
ATOM      4  C   UNL A   1      36.303  22.274  24.735  1.00  0.00     0.230 C 
ATOM      5  H   UNL A   1      38.150  22.274  23.872  1.00  0.00     0.163 HD
BRANCH   4   6
ATOM      6  C   UNL A   1      35.791  23.300  23.722  1.00  0.00     0.178 C 
BRANCH   6   7
ATOM      7  S   UNL A   1      34.021  23.091  23.336  1.00  0.00    -0.078 SA
BRANCH   7   8
ATOM      8  C   UNL A   1      33.359  24.691  23.131  1.00  0.00     0.169 A 
ATOM      9  N   UNL A   1      33.850  25.567  22.280  1.00  0.00    -0.221 NA
ATOM     10  N   UNL A   1      32.526  25.310  24.036  1.00  0.00    -0.318 N 
ATOM     11  C   UNL A   1      33.440  26.804  22.737  1.00  0.00     0.108 A 
ATOM     12  C   UNL A   1      32.667  26.670  23.884  1.00  0.00     0.072 A 
ATOM     13  C   UNL A   1      33.708  28.095  22.270  1.00  0.00     0.141 A 
ATOM     14  C   UNL A   1      32.196  27.762  24.613  1.00  0.00     0.049 A 
ATOM     15  N   UNL A   1      33.257  29.185  22.956  1.00  0.00    -0.262 NA
ATOM     16  C   UNL A   1      32.543  28.997  24.090  1.00  0.00     0.113 A 
BRANCH  10  17
ATOM     17  C   UNL A   1      31.632  24.717  24.995  1.00  0.00     0.134 C 
BRANCH  17  18
ATOM     18  C   UNL A   1      31.088  23.331  24.644  1.00  0.00     0.137 C 
BRANCH  18  19
ATOM     19  C   UNL A   1      31.165  22.280  25.730  1.00  0.00     0.390 C 
ATOM     20  F   UNL A   1      30.021  22.159  26.419  1.00  0.00    -0.171 F 
ATOM     21  F   UNL A   1      31.464  21.076  25.195  1.00  0.00    -0.171 F 
ATOM     22  F   UNL A   1      32.142  22.574  26.615  1.00  0.00    -0.171 F 
ENDBRANCH  18  19
ENDBRANCH  17  18
ENDBRANCH  10  17
ENDBRANCH   7   8
ENDBRANCH   6   7
ENDBRANCH   4   6
ENDBRANCH   1   2
BRANCH   1  23
ATOM     23  C   UNL A   1      39.562  22.092  26.271  1.00  0.00     0.023 C 
BRANCH  23  24
ATOM     24  C   UNL A   1      40.409  21.333  27.292  1.00  0.00     0.023 C 
BRANCH  24  25
ATOM     25  C   UNL A   1      41.923  21.543  27.185  1.00  0.00     0.116 C 
BRANCH  25  26
ATOM     26  N   UNL A   1      42.384  21.967  25.882  1.00  0.00    -0.352 N 
ATOM     27  C   UNL A   1      42.950  23.124  25.417  1.00  0.00     0.251 C 
ATOM     28  H   UNL A   1      42.266  21.283  25.185  1.00  0.00     0.163 HD
ATOM     29  O   UNL A   1      43.442  23.065  24.287  1.00  0.00    -0.269 OA
BRANCH  27  30
ATOM     30  C   UNL A   1      42.932  24.425  26.138  1.00  0.00     0.039 A 
ATOM     31  C   UNL A   1      43.498  24.664  27.390  1.00  0.00     0.014 A 
ATOM     32  C   UNL A   1      42.196  25.456  25.525  1.00  0.00     0.014 A 
ATOM     33  C   UNL A   1      43.214  25.834  28.080  1.00  0.00     0.010 A 
ATOM     34  C   UNL A   1      41.939  26.645  26.195  1.00  0.00     0.010 A 
ATOM     35  C   UNL A   1      42.394  26.800  27.500  1.00  0.00    -0.014 A 
BRANCH  35  36
ATOM     36  C   UNL A   1      42.096  27.985  28.293  1.00  0.00     0.031 A 
ATOM     37  C   UNL A   1      43.147  29.043  28.265  1.00  0.00     0.074 A 
ATOM     38  C   UNL A   1      40.930  28.154  28.946  1.00  0.00     0.049 A 
ATOM     39  N   UNL A   1      43.866  29.479  29.247  1.00  0.00    -0.248 NA
ATOM     40  C   UNL A   1      43.537  29.584  26.954  1.00  0.00     0.031 C 
ATOM     41  C   UNL A   1      39.718  27.336  28.872  1.00  0.00     0.029 A 
ATOM     42  N   UNL A   1      40.553  29.179  29.755  1.00  0.00    -0.354 N 
ATOM     43  C   UNL A   1      44.665  30.494  28.722  1.00  0.00     0.074 A 
ATOM     44  C   UNL A   1      44.529  30.411  27.290  1.00  0.00     0.031 C 
ATOM     45  C   UNL A   1      38.683  28.031  29.395  1.00  0.00     0.029 A 
ATOM     46  C   UNL A   1      39.183  29.277  29.951  1.00  0.00     0.049 A 
ATOM     47  H   UNL A   1      41.197  29.799  30.167  1.00  0.00     0.167 HD
ATOM     48  C   UNL A   1      45.234  31.449  29.509  1.00  0.00     0.037 A 
ATOM     49  C   UNL A   1      38.516  30.354  30.440  1.00  0.00     0.037 A 
ATOM     50  C   UNL A   1      45.250  31.052  30.893  1.00  0.00     0.049 A 
ATOM     51  C   UNL A   1      39.504  31.153  31.222  1.00  0.00     0.074 A 
ATOM     52  C   UNL A   1      45.812  29.998  31.588  1.00  0.00     0.029 A 
ATOM     53  N   UNL A   1      44.313  31.596  31.739  1.00  0.00    -0.354 N 
ATOM     54  N   UNL A   1      40.064  30.731  32.325  1.00  0.00    -0.248 NA
ATOM     55  C   UNL A   1      40.226  32.208  30.524  1.00  0.00     0.031 C 
ATOM     56  C   UNL A   1      44.842  29.651  32.571  1.00  0.00     0.029 A 
ATOM     57  C   UNL A   1      43.783  30.553  32.455  1.00  0.00     0.049 A 
ATOM     58  H   UNL A   1      44.070  32.547  31.814  1.00  0.00     0.167 HD
ATOM     59  C   UNL A   1      41.386  31.149  32.240  1.00  0.00     0.074 A 
ATOM     60  C   UNL A   1      41.407  32.115  31.142  1.00  0.00     0.031 C 
ATOM     61  C   UNL A   1      42.398  30.478  32.865  1.00  0.00     0.037 A 
BRANCH  48  62
ATOM     62  C   UNL A   1      45.478  32.876  29.082  1.00  0.00     0.058 A 
ATOM     63  C   UNL A   1      46.761  33.442  29.241  1.00  0.00     0.135 A 
ATOM     64  C   UNL A   1      44.439  33.790  28.800  1.00  0.00     0.135 A 
ATOM     65  F   UNL A   1      47.822  32.666  29.514  1.00  0.00    -0.206 F 
ATOM     66  C   UNL A   1      46.979  34.820  29.209  1.00  0.00     0.059 A 
ATOM     67  C   UNL A   1      44.643  35.162  28.709  1.00  0.00     0.059 A 
ATOM     68  F   UNL A   1      43.160  33.407  28.700  1.00  0.00    -0.206 F 
ATOM     69  C   UNL A   1      45.906  35.673  28.961  1.00  0.00     0.060 A 
BRANCH  69  70
ATOM     70  S   UNL A   1      46.157  37.453  29.051  1.00  0.00     0.124 S 
ATOM     71  O   UNL A   1      44.788  37.933  29.192  1.00  0.00    -0.237 OA
ATOM     72  O   UNL A   1      47.004  37.580  30.232  1.00  0.00    -0.237 OA
ATOM     73  O   UNL A   1      46.810  37.764  27.782  1.00  0.00    -0.744 OA
ENDBRANCH  69  70
ENDBRANCH  48  62
BRANCH  49  74
ATOM     74  C   UNL A   1      37.233  30.912  29.919  1.00  0.00     0.058 A 
ATOM     75  C   UNL A   1      36.289  31.511  30.773  1.00  0.00     0.135 A 
ATOM     76  C   UNL A   1      37.013  31.103  28.537  1.00  0.00     0.135 A 
ATOM     77  F   UNL A   1      36.425  31.409  32.105  1.00  0.00    -0.206 F 
ATOM     78  C   UNL A   1      35.221  32.282  30.290  1.00  0.00     0.059 A 
ATOM     79  C   UNL A   1      35.951  31.851  28.033  1.00  0.00     0.059 A 
ATOM     80  F   UNL A   1      37.877  30.644  27.620  1.00  0.00    -0.206 F 
ATOM     81  C   UNL A   1      35.072  32.461  28.914  1.00  0.00     0.060 A 
BRANCH  81  82
ATOM     82  S   UNL A   1      33.802  33.583  28.284  1.00  0.00     0.124 S 
ATOM     83  O   UNL A   1      34.581  34.477  27.433  1.00  0.00    -0.237 OA
ATOM     84  O   UNL A   1      32.900  32.669  27.593  1.00  0.00    -0.237 OA
ATOM     85  O   UNL A   1      33.258  34.195  29.494  1.00  0.00    -0.744 OA
ENDBRANCH  81  82
ENDBRANCH  49  74
BRANCH  61  86
ATOM     86  C   UNL A   1      42.060  29.397  33.861  1.00  0.00     0.058 A 
ATOM     87  C   UNL A   1      41.771  28.066  33.510  1.00  0.00     0.135 A 
ATOM     88  C   UNL A   1      42.250  29.669  35.226  1.00  0.00     0.135 A 
ATOM     89  F   UNL A   1      41.683  27.695  32.226  1.00  0.00    -0.206 F 
ATOM     90  C   UNL A   1      41.650  27.060  34.471  1.00  0.00     0.059 A 
ATOM     91  C   UNL A   1      42.165  28.676  36.198  1.00  0.00     0.059 A 
ATOM     92  F   UNL A   1      42.592  30.906  35.623  1.00  0.00    -0.206 F 
ATOM     93  C   UNL A   1      41.859  27.373  35.813  1.00  0.00     0.060 A 
BRANCH  93  94
ATOM     94  S   UNL A   1      41.809  26.051  37.042  1.00  0.00     0.124 S 
ATOM     95  O   UNL A   1      42.152  24.875  36.243  1.00  0.00    -0.237 OA
ATOM     96  O   UNL A   1      42.828  26.478  38.003  1.00  0.00    -0.237 OA
ATOM     97  O   UNL A   1      40.442  26.092  37.538  1.00  0.00    -0.744 OA
ENDBRANCH  93  94
ENDBRANCH  61  86
ENDBRANCH  35  36
ENDBRANCH  27  30
ENDBRANCH  25  26
ENDBRANCH  24  25
ENDBRANCH  23  24
ENDBRANCH   1  23
TORSDOF 19
ENDMDL
