MODEL 1
REMARK VINA RESULT:     -10.0      0.000      0.000
REMARK SMILES C[NH+](C)CCNC(=O)NC1(CC(=O)NCCCCNC(=O)c2ccc(-c3c4nc(c(-c5c(F)cc(S(=O)(=O)[O-])cc5F)c5ccc([nH]5)c(-c5c(F)cc(S(=O)(=O)[O-])cc5F)c5nc(c(-c6c(F)cc(S(=O)(=O)[O-])cc6F)c6ccc3[nH]6)C=C5)C=C4)cc2)CCC1
REMARK SMILES IDX 15 1 14 2 12 3 13 4 11 6 10 7 88 8 90 9 89 10 9 11 6 12 7 13
REMARK SMILES IDX 8 15 5 17 4 18 2 19 1 20 3 21 16 23 17 24 18 25 19 26 20 27
REMARK SMILES IDX 21 29 22 30 23 31 87 32 24 33 86 34 25 35 26 36 27 37 80 38
REMARK SMILES IDX 28 39 85 40 79 41 81 42 29 43 84 44 78 45 77 46 30 48 64 49
REMARK SMILES IDX 43 50 63 51 44 52 47 53 62 54 82 55 45 56 46 57 61 59 83 60
REMARK SMILES IDX 48 61 31 62 32 63 41 64 33 65 34 66 40 67 42 68 35 69 36 70
REMARK SMILES IDX 37 71 38 72 39 73 65 74 66 75 75 76 67 77 68 78 74 79 76 80
REMARK SMILES IDX 69 81 70 82 71 83 72 84 73 85 49 86 50 87 59 88 51 89 52 90
REMARK SMILES IDX 58 91 60 92 53 93 54 94 55 95 56 96 57 97
REMARK H PARENT 14 5 6 14 9 16 2 22 19 28 81 47 47 58
REMARK Flexibility Score: inf
ROOT
ATOM      1  C   UNL A   1      31.040  26.985  25.758  1.00  0.00     0.116 C 
ENDROOT
BRANCH   1   2
ATOM      2  N   UNL A   1      31.194  25.946  26.742  1.00  0.00    -0.356 N 
ATOM      3  C   UNL A   1      31.764  24.726  26.524  1.00  0.00     0.222 C 
ATOM      4  O   UNL A   1      31.392  23.804  27.243  1.00  0.00    -0.275 OA
ATOM      5  H   UNL A   1      30.858  26.130  27.649  1.00  0.00     0.163 HD
BRANCH   3   6
ATOM      6  C   UNL A   1      32.887  24.628  25.502  1.00  0.00     0.128 C 
BRANCH   6   7
ATOM      7  C   UNL A   1      32.924  23.412  24.576  1.00  0.00     0.051 C 
ATOM      8  C   UNL A   1      33.813  23.510  23.288  1.00  0.00     0.029 C 
ATOM      9  C   UNL A   1      31.710  23.470  23.569  1.00  0.00     0.029 C 
ATOM     10  C   UNL A   1      32.637  24.203  22.579  1.00  0.00     0.005 C 
BRANCH   7  11
ATOM     11  N   UNL A   1      33.030  22.098  25.231  1.00  0.00    -0.332 N 
ATOM     12  N   UNL A   1      35.102  21.904  26.408  1.00  0.00    -0.332 N 
ATOM     13  C   UNL A   1      33.892  21.467  26.043  1.00  0.00     0.315 C 
ATOM     14  H   UNL A   1      35.466  21.387  27.163  1.00  0.00     0.165 HD
ATOM     15  O   UNL A   1      33.535  20.367  26.480  1.00  0.00    -0.249 OA
ATOM     16  H   UNL A   1      32.258  21.527  25.016  1.00  0.00     0.165 HD
BRANCH  12  17
ATOM     17  C   UNL A   1      36.012  22.945  25.974  1.00  0.00     0.179 C 
BRANCH  17  18
ATOM     18  C   UNL A   1      37.429  22.468  25.555  1.00  0.00     0.283 C 
BRANCH  18  19
ATOM     19  N   UNL A   1      38.553  22.472  26.498  1.00  0.00    -0.338 N 
ATOM     20  C   UNL A   1      39.618  21.548  26.138  1.00  0.00     0.332 C 
ATOM     21  C   UNL A   1      39.036  23.798  26.833  1.00  0.00     0.332 C 
ATOM     22  H   UNL A   1      38.159  22.108  27.366  1.00  0.00     0.347 HD
ENDBRANCH  18  19
ENDBRANCH  17  18
ENDBRANCH  12  17
ENDBRANCH   7  11
ENDBRANCH   6   7
ENDBRANCH   3   6
ENDBRANCH   1   2
BRANCH   1  23
ATOM     23  C   UNL A   1      31.638  28.279  26.312  1.00  0.00     0.023 C 
BRANCH  23  24
ATOM     24  C   UNL A   1      33.114  28.156  26.687  1.00  0.00     0.023 C 
BRANCH  24  25
ATOM     25  C   UNL A   1      33.983  29.268  26.125  1.00  0.00     0.116 C 
BRANCH  25  26
ATOM     26  N   UNL A   1      33.697  30.571  26.717  1.00  0.00    -0.352 N 
ATOM     27  C   UNL A   1      34.447  31.253  27.641  1.00  0.00     0.251 C 
ATOM     28  H   UNL A   1      32.869  31.011  26.418  1.00  0.00     0.163 HD
ATOM     29  O   UNL A   1      34.079  32.320  28.098  1.00  0.00    -0.269 OA
BRANCH  27  30
ATOM     30  C   UNL A   1      35.686  30.604  28.092  1.00  0.00     0.039 A 
ATOM     31  C   UNL A   1      36.899  31.105  27.627  1.00  0.00     0.014 A 
ATOM     32  C   UNL A   1      35.624  29.637  29.099  1.00  0.00     0.014 A 
ATOM     33  C   UNL A   1      38.077  30.666  28.223  1.00  0.00     0.010 A 
ATOM     34  C   UNL A   1      36.793  29.262  29.740  1.00  0.00     0.010 A 
ATOM     35  C   UNL A   1      38.027  29.772  29.305  1.00  0.00    -0.014 A 
BRANCH  35  36
ATOM     36  C   UNL A   1      39.266  29.332  29.983  1.00  0.00     0.031 A 
ATOM     37  C   UNL A   1      39.703  30.041  31.233  1.00  0.00     0.074 A 
ATOM     38  C   UNL A   1      40.005  28.343  29.447  1.00  0.00     0.049 A 
ATOM     39  N   UNL A   1      40.789  29.873  31.936  1.00  0.00    -0.248 NA
ATOM     40  C   UNL A   1      38.815  31.101  31.741  1.00  0.00     0.031 C 
ATOM     41  C   UNL A   1      39.695  27.624  28.207  1.00  0.00     0.029 A 
ATOM     42  N   UNL A   1      41.178  27.774  29.873  1.00  0.00    -0.354 N 
ATOM     43  C   UNL A   1      40.718  30.805  32.962  1.00  0.00     0.074 A 
ATOM     44  C   UNL A   1      39.517  31.582  32.755  1.00  0.00     0.031 C 
ATOM     45  C   UNL A   1      40.642  26.698  27.986  1.00  0.00     0.029 A 
ATOM     46  C   UNL A   1      41.641  26.776  29.046  1.00  0.00     0.049 A 
ATOM     47  H   UNL A   1      41.645  28.053  30.693  1.00  0.00     0.167 HD
ATOM     48  C   UNL A   1      41.562  30.973  34.006  1.00  0.00     0.037 A 
ATOM     49  C   UNL A   1      42.750  26.020  29.139  1.00  0.00     0.037 A 
ATOM     50  C   UNL A   1      42.735  30.171  34.221  1.00  0.00     0.049 A 
ATOM     51  C   UNL A   1      43.670  26.227  30.314  1.00  0.00     0.074 A 
ATOM     52  C   UNL A   1      43.641  30.232  35.263  1.00  0.00     0.029 A 
ATOM     53  N   UNL A   1      43.153  29.147  33.383  1.00  0.00    -0.354 N 
ATOM     54  N   UNL A   1      43.563  27.084  31.302  1.00  0.00    -0.248 NA
ATOM     55  C   UNL A   1      44.857  25.366  30.390  1.00  0.00     0.031 C 
ATOM     56  C   UNL A   1      44.623  29.261  35.043  1.00  0.00     0.029 A 
ATOM     57  C   UNL A   1      44.307  28.571  33.883  1.00  0.00     0.049 A 
ATOM     58  H   UNL A   1      42.696  28.872  32.556  1.00  0.00     0.167 HD
ATOM     59  C   UNL A   1      44.654  26.844  32.131  1.00  0.00     0.074 A 
ATOM     60  C   UNL A   1      45.399  25.754  31.536  1.00  0.00     0.031 C 
ATOM     61  C   UNL A   1      45.012  27.471  33.279  1.00  0.00     0.037 A 
BRANCH  48  62
ATOM     62  C   UNL A   1      41.226  32.039  35.009  1.00  0.00     0.058 A 
ATOM     63  C   UNL A   1      41.789  33.321  34.922  1.00  0.00     0.135 A 
ATOM     64  C   UNL A   1      40.303  31.795  36.037  1.00  0.00     0.135 A 
ATOM     65  F   UNL A   1      42.698  33.598  33.973  1.00  0.00    -0.206 F 
ATOM     66  C   UNL A   1      41.458  34.323  35.827  1.00  0.00     0.059 A 
ATOM     67  C   UNL A   1      39.937  32.790  36.939  1.00  0.00     0.059 A 
ATOM     68  F   UNL A   1      39.744  30.581  36.170  1.00  0.00    -0.206 F 
ATOM     69  C   UNL A   1      40.526  34.049  36.829  1.00  0.00     0.060 A 
BRANCH  69  70
ATOM     70  S   UNL A   1      40.078  35.373  37.970  1.00  0.00     0.124 S 
ATOM     71  O   UNL A   1      41.253  35.423  38.834  1.00  0.00    -0.237 OA
ATOM     72  O   UNL A   1      39.903  36.511  37.073  1.00  0.00    -0.237 OA
ATOM     73  O   UNL A   1      38.857  34.882  38.599  1.00  0.00    -0.744 OA
ENDBRANCH  69  70
ENDBRANCH  48  62
BRANCH  49  74
ATOM     74  C   UNL A   1      43.056  24.991  28.109  1.00  0.00     0.058 A 
ATOM     75  C   UNL A   1      42.783  23.634  28.342  1.00  0.00     0.135 A 
ATOM     76  C   UNL A   1      43.655  25.336  26.889  1.00  0.00     0.135 A 
ATOM     77  F   UNL A   1      42.211  23.253  29.494  1.00  0.00    -0.206 F 
ATOM     78  C   UNL A   1      43.133  22.652  27.421  1.00  0.00     0.059 A 
ATOM     79  C   UNL A   1      43.991  24.374  25.940  1.00  0.00     0.059 A 
ATOM     80  F   UNL A   1      43.915  26.622  26.607  1.00  0.00    -0.206 F 
ATOM     81  C   UNL A   1      43.745  23.032  26.226  1.00  0.00     0.060 A 
BRANCH  81  82
ATOM     82  S   UNL A   1      44.198  21.751  25.036  1.00  0.00     0.124 S 
ATOM     83  O   UNL A   1      45.532  21.385  25.496  1.00  0.00    -0.237 OA
ATOM     84  O   UNL A   1      43.155  20.752  25.243  1.00  0.00    -0.237 OA
ATOM     85  O   UNL A   1      44.139  22.450  23.756  1.00  0.00    -0.744 OA
ENDBRANCH  81  82
ENDBRANCH  49  74
BRANCH  61  86
ATOM     86  C   UNL A   1      46.238  26.967  33.984  1.00  0.00     0.058 A 
ATOM     87  C   UNL A   1      47.504  27.516  33.735  1.00  0.00     0.135 A 
ATOM     88  C   UNL A   1      46.130  25.970  34.966  1.00  0.00     0.135 A 
ATOM     89  F   UNL A   1      47.656  28.469  32.801  1.00  0.00    -0.206 F 
ATOM     90  C   UNL A   1      48.629  27.080  34.424  1.00  0.00     0.059 A 
ATOM     91  C   UNL A   1      47.239  25.536  35.685  1.00  0.00     0.059 A 
ATOM     92  F   UNL A   1      44.937  25.422  35.247  1.00  0.00    -0.206 F 
ATOM     93  C   UNL A   1      48.486  26.091  35.399  1.00  0.00     0.060 A 
BRANCH  93  94
ATOM     94  S   UNL A   1      49.946  25.566  36.320  1.00  0.00     0.124 S 
ATOM     95  O   UNL A   1      49.349  25.066  37.554  1.00  0.00    -0.237 OA
ATOM     96  O   UNL A   1      50.526  24.555  35.441  1.00  0.00    -0.237 OA
ATOM     97  O   UNL A   1      50.724  26.794  36.452  1.00  0.00    -0.744 OA
ENDBRANCH  93  94
ENDBRANCH  61  86
ENDBRANCH  35  36
ENDBRANCH  27  30
ENDBRANCH  25  26
ENDBRANCH  24  25
ENDBRANCH  23  24
ENDBRANCH   1  23
TORSDOF 19
ENDMDL
MODEL 2
REMARK VINA RESULT:      -9.9      5.178     10.530
REMARK SMILES C[NH+](C)CCNC(=O)NC1(CC(=O)NCCCCNC(=O)c2ccc(-c3c4nc(c(-c5c(F)cc(S(=O)(=O)[O-])cc5F)c5ccc([nH]5)c(-c5c(F)cc(S(=O)(=O)[O-])cc5F)c5nc(c(-c6c(F)cc(S(=O)(=O)[O-])cc6F)c6ccc3[nH]6)C=C5)C=C4)cc2)CCC1
REMARK SMILES IDX 15 1 14 2 12 3 13 4 11 6 10 7 88 8 90 9 89 10 9 11 6 12 7 13
REMARK SMILES IDX 8 15 5 17 4 18 2 19 1 20 3 21 16 23 17 24 18 25 19 26 20 27
REMARK SMILES IDX 21 29 22 30 23 31 87 32 24 33 86 34 25 35 26 36 27 37 80 38
REMARK SMILES IDX 28 39 85 40 79 41 81 42 29 43 84 44 78 45 77 46 30 48 64 49
REMARK SMILES IDX 43 50 63 51 44 52 47 53 62 54 82 55 45 56 46 57 61 59 83 60
REMARK SMILES IDX 48 61 31 62 32 63 41 64 33 65 34 66 40 67 42 68 35 69 36 70
REMARK SMILES IDX 37 71 38 72 39 73 65 74 66 75 75 76 67 77 68 78 74 79 76 80
REMARK SMILES IDX 69 81 70 82 71 83 72 84 73 85 49 86 50 87 59 88 51 89 52 90
REMARK SMILES IDX 58 91 60 92 53 93 54 94 55 95 56 96 57 97
REMARK H PARENT 14 5 6 14 9 16 2 22 19 28 81 47 47 58
REMARK Flexibility Score: inf
ROOT
ATOM      1  C   UNL A   1      36.084  21.288  25.389  1.00  0.00     0.116 C 
ENDROOT
BRANCH   1   2
ATOM      2  N   UNL A   1      35.236  21.500  26.532  1.00  0.00    -0.356 N 
ATOM      3  C   UNL A   1      34.274  22.462  26.639  1.00  0.00     0.222 C 
ATOM      4  O   UNL A   1      34.001  22.849  27.770  1.00  0.00    -0.275 OA
ATOM      5  H   UNL A   1      35.362  20.901  27.304  1.00  0.00     0.163 HD
BRANCH   3   6
ATOM      6  C   UNL A   1      33.540  22.889  25.376  1.00  0.00     0.128 C 
BRANCH   6   7
ATOM      7  C   UNL A   1      32.170  22.276  25.089  1.00  0.00     0.051 C 
ATOM      8  C   UNL A   1      32.137  20.896  24.344  1.00  0.00     0.029 C 
ATOM      9  C   UNL A   1      31.598  22.856  23.737  1.00  0.00     0.029 C 
ATOM     10  C   UNL A   1      32.243  21.658  23.012  1.00  0.00     0.005 C 
BRANCH   7  11
ATOM     11  N   UNL A   1      31.183  22.348  26.178  1.00  0.00    -0.332 N 
ATOM     12  N   UNL A   1      30.665  24.622  26.702  1.00  0.00    -0.332 N 
ATOM     13  C   UNL A   1      30.499  23.302  26.828  1.00  0.00     0.315 C 
ATOM     14  H   UNL A   1      29.924  25.126  27.110  1.00  0.00     0.165 HD
ATOM     15  O   UNL A   1      29.643  22.917  27.632  1.00  0.00    -0.249 OA
ATOM     16  H   UNL A   1      30.966  21.453  26.524  1.00  0.00     0.165 HD
BRANCH  12  17
ATOM     17  C   UNL A   1      31.662  25.499  26.118  1.00  0.00     0.179 C 
BRANCH  17  18
ATOM     18  C   UNL A   1      31.164  26.919  25.733  1.00  0.00     0.283 C 
BRANCH  18  19
ATOM     19  N   UNL A   1      31.137  27.374  24.339  1.00  0.00    -0.338 N 
ATOM     20  C   UNL A   1      30.447  26.458  23.442  1.00  0.00     0.332 C 
ATOM     21  C   UNL A   1      30.720  28.754  24.178  1.00  0.00     0.332 C 
ATOM     22  H   UNL A   1      32.114  27.358  24.046  1.00  0.00     0.347 HD
ENDBRANCH  18  19
ENDBRANCH  17  18
ENDBRANCH  12  17
ENDBRANCH   7  11
ENDBRANCH   6   7
ENDBRANCH   3   6
ENDBRANCH   1   2
BRANCH   1  23
ATOM     23  C   UNL A   1      37.470  21.858  25.692  1.00  0.00     0.023 C 
BRANCH  23  24
ATOM     24  C   UNL A   1      38.614  20.936  25.273  1.00  0.00     0.023 C 
BRANCH  24  25
ATOM     25  C   UNL A   1      39.725  20.833  26.303  1.00  0.00     0.116 C 
BRANCH  25  26
ATOM     26  N   UNL A   1      40.561  19.650  26.123  1.00  0.00    -0.352 N 
ATOM     27  C   UNL A   1      41.930  19.580  26.161  1.00  0.00     0.251 C 
ATOM     28  H   UNL A   1      40.086  18.804  25.955  1.00  0.00     0.163 HD
ATOM     29  O   UNL A   1      42.521  18.535  25.949  1.00  0.00    -0.269 OA
BRANCH  27  30
ATOM     30  C   UNL A   1      42.648  20.837  26.411  1.00  0.00     0.039 A 
ATOM     31  C   UNL A   1      42.974  21.639  25.320  1.00  0.00     0.014 A 
ATOM     32  C   UNL A   1      42.820  21.276  27.727  1.00  0.00     0.014 A 
ATOM     33  C   UNL A   1      43.433  22.931  25.552  1.00  0.00     0.010 A 
ATOM     34  C   UNL A   1      43.203  22.589  27.950  1.00  0.00     0.010 A 
ATOM     35  C   UNL A   1      43.514  23.424  26.865  1.00  0.00    -0.014 A 
BRANCH  35  36
ATOM     36  C   UNL A   1      43.953  24.811  27.128  1.00  0.00     0.031 A 
ATOM     37  C   UNL A   1      45.396  25.169  26.923  1.00  0.00     0.074 A 
ATOM     38  C   UNL A   1      43.069  25.714  27.593  1.00  0.00     0.049 A 
ATOM     39  N   UNL A   1      46.007  26.296  27.169  1.00  0.00    -0.248 NA
ATOM     40  C   UNL A   1      46.277  24.109  26.400  1.00  0.00     0.031 C 
ATOM     41  C   UNL A   1      41.653  25.454  27.876  1.00  0.00     0.029 A 
ATOM     42  N   UNL A   1      43.232  27.036  27.919  1.00  0.00    -0.354 N 
ATOM     43  C   UNL A   1      47.338  26.080  26.838  1.00  0.00     0.074 A 
ATOM     44  C   UNL A   1      47.462  24.697  26.437  1.00  0.00     0.031 C 
ATOM     45  C   UNL A   1      41.076  26.585  28.313  1.00  0.00     0.029 A 
ATOM     46  C   UNL A   1      42.081  27.640  28.371  1.00  0.00     0.049 A 
ATOM     47  H   UNL A   1      44.091  27.509  27.837  1.00  0.00     0.167 HD
ATOM     48  C   UNL A   1      48.359  26.967  26.835  1.00  0.00     0.037 A 
ATOM     49  C   UNL A   1      41.872  28.903  28.789  1.00  0.00     0.037 A 
ATOM     50  C   UNL A   1      48.216  28.349  27.203  1.00  0.00     0.049 A 
ATOM     51  C   UNL A   1      43.027  29.870  28.772  1.00  0.00     0.074 A 
ATOM     52  C   UNL A   1      49.175  29.344  27.202  1.00  0.00     0.029 A 
ATOM     53  N   UNL A   1      47.029  28.934  27.621  1.00  0.00    -0.354 N 
ATOM     54  N   UNL A   1      44.271  29.661  28.410  1.00  0.00    -0.248 NA
ATOM     55  C   UNL A   1      42.752  31.243  29.213  1.00  0.00     0.031 C 
ATOM     56  C   UNL A   1      48.575  30.527  27.645  1.00  0.00     0.029 A 
ATOM     57  C   UNL A   1      47.233  30.276  27.886  1.00  0.00     0.049 A 
ATOM     58  H   UNL A   1      46.170  28.463  27.716  1.00  0.00     0.167 HD
ATOM     59  C   UNL A   1      44.918  30.883  28.555  1.00  0.00     0.074 A 
ATOM     60  C   UNL A   1      43.926  31.829  29.022  1.00  0.00     0.031 C 
ATOM     61  C   UNL A   1      46.217  31.197  28.327  1.00  0.00     0.037 A 
BRANCH  48  62
ATOM     62  C   UNL A   1      49.706  26.479  26.387  1.00  0.00     0.058 A 
ATOM     63  C   UNL A   1      50.124  26.622  25.055  1.00  0.00     0.135 A 
ATOM     64  C   UNL A   1      50.604  25.905  27.299  1.00  0.00     0.135 A 
ATOM     65  F   UNL A   1      49.293  27.141  24.136  1.00  0.00    -0.206 F 
ATOM     66  C   UNL A   1      51.382  26.203  24.639  1.00  0.00     0.059 A 
ATOM     67  C   UNL A   1      51.878  25.501  26.911  1.00  0.00     0.059 A 
ATOM     68  F   UNL A   1      50.248  25.735  28.583  1.00  0.00    -0.206 F 
ATOM     69  C   UNL A   1      52.255  25.648  25.577  1.00  0.00     0.060 A 
BRANCH  69  70
ATOM     70  S   UNL A   1      53.899  25.146  25.027  1.00  0.00     0.124 S 
ATOM     71  O   UNL A   1      54.728  25.591  26.144  1.00  0.00    -0.237 OA
ATOM     72  O   UNL A   1      53.752  23.701  24.884  1.00  0.00    -0.237 OA
ATOM     73  O   UNL A   1      54.079  25.881  23.780  1.00  0.00    -0.744 OA
ENDBRANCH  69  70
ENDBRANCH  48  62
BRANCH  49  74
ATOM     74  C   UNL A   1      40.526  29.338  29.247  1.00  0.00     0.058 A 
ATOM     75  C   UNL A   1      39.492  29.573  28.327  1.00  0.00     0.135 A 
ATOM     76  C   UNL A   1      40.254  29.559  30.605  1.00  0.00     0.135 A 
ATOM     77  F   UNL A   1      39.703  29.376  27.018  1.00  0.00    -0.206 F 
ATOM     78  C   UNL A   1      38.251  30.053  28.732  1.00  0.00     0.059 A 
ATOM     79  C   UNL A   1      39.012  30.014  31.038  1.00  0.00     0.059 A 
ATOM     80  F   UNL A   1      41.201  29.327  31.527  1.00  0.00    -0.206 F 
ATOM     81  C   UNL A   1      38.023  30.280  30.091  1.00  0.00     0.060 A 
BRANCH  81  82
ATOM     82  S   UNL A   1      36.411  30.905  30.609  1.00  0.00     0.124 S 
ATOM     83  O   UNL A   1      35.979  29.865  31.535  1.00  0.00    -0.237 OA
ATOM     84  O   UNL A   1      36.755  32.191  31.209  1.00  0.00    -0.237 OA
ATOM     85  O   UNL A   1      35.666  30.987  29.356  1.00  0.00    -0.744 OA
ENDBRANCH  81  82
ENDBRANCH  49  74
BRANCH  61  86
ATOM     86  C   UNL A   1      46.628  32.625  28.541  1.00  0.00     0.058 A 
ATOM     87  C   UNL A   1      46.532  33.577  27.515  1.00  0.00     0.135 A 
ATOM     88  C   UNL A   1      47.058  33.056  29.805  1.00  0.00     0.135 A 
ATOM     89  F   UNL A   1      46.130  33.210  26.288  1.00  0.00    -0.206 F 
ATOM     90  C   UNL A   1      46.868  34.907  27.730  1.00  0.00     0.059 A 
ATOM     91  C   UNL A   1      47.375  34.388  30.050  1.00  0.00     0.059 A 
ATOM     92  F   UNL A   1      47.155  32.184  30.821  1.00  0.00    -0.206 F 
ATOM     93  C   UNL A   1      47.286  35.304  29.002  1.00  0.00     0.060 A 
BRANCH  93  94
ATOM     94  S   UNL A   1      47.674  37.044  29.282  1.00  0.00     0.124 S 
ATOM     95  O   UNL A   1      48.934  37.182  28.559  1.00  0.00    -0.237 OA
ATOM     96  O   UNL A   1      46.525  37.722  28.689  1.00  0.00    -0.237 OA
ATOM     97  O   UNL A   1      47.771  37.142  30.735  1.00  0.00    -0.744 OA
ENDBRANCH  93  94
ENDBRANCH  61  86
ENDBRANCH  35  36
ENDBRANCH  27  30
ENDBRANCH  25  26
ENDBRANCH  24  25
ENDBRANCH  23  24
ENDBRANCH   1  23
TORSDOF 19
ENDMDL
MODEL 3
REMARK VINA RESULT:      -9.9      3.281      9.540
REMARK SMILES C[NH+](C)CCNC(=O)NC1(CC(=O)NCCCCNC(=O)c2ccc(-c3c4nc(c(-c5c(F)cc(S(=O)(=O)[O-])cc5F)c5ccc([nH]5)c(-c5c(F)cc(S(=O)(=O)[O-])cc5F)c5nc(c(-c6c(F)cc(S(=O)(=O)[O-])cc6F)c6ccc3[nH]6)C=C5)C=C4)cc2)CCC1
REMARK SMILES IDX 15 1 14 2 12 3 13 4 11 6 10 7 88 8 90 9 89 10 9 11 6 12 7 13
REMARK SMILES IDX 8 15 5 17 4 18 2 19 1 20 3 21 16 23 17 24 18 25 19 26 20 27
REMARK SMILES IDX 21 29 22 30 23 31 87 32 24 33 86 34 25 35 26 36 27 37 80 38
REMARK SMILES IDX 28 39 85 40 79 41 81 42 29 43 84 44 78 45 77 46 30 48 64 49
REMARK SMILES IDX 43 50 63 51 44 52 47 53 62 54 82 55 45 56 46 57 61 59 83 60
REMARK SMILES IDX 48 61 31 62 32 63 41 64 33 65 34 66 40 67 42 68 35 69 36 70
REMARK SMILES IDX 37 71 38 72 39 73 65 74 66 75 75 76 67 77 68 78 74 79 76 80
REMARK SMILES IDX 69 81 70 82 71 83 72 84 73 85 49 86 50 87 59 88 51 89 52 90
REMARK SMILES IDX 58 91 60 92 53 93 54 94 55 95 56 96 57 97
REMARK H PARENT 14 5 6 14 9 16 2 22 19 28 81 47 47 58
REMARK Flexibility Score: inf
ROOT
ATOM      1  C   UNL A   1      33.659  23.308  23.124  1.00  0.00     0.116 C 
ENDROOT
BRANCH   1   2
ATOM      2  N   UNL A   1      34.025  24.647  22.743  1.00  0.00    -0.356 N 
ATOM      3  C   UNL A   1      33.153  25.657  22.460  1.00  0.00     0.222 C 
ATOM      4  O   UNL A   1      33.548  26.533  21.698  1.00  0.00    -0.275 OA
ATOM      5  H   UNL A   1      34.986  24.851  22.682  1.00  0.00     0.163 HD
BRANCH   3   6
ATOM      6  C   UNL A   1      31.819  25.683  23.191  1.00  0.00     0.128 C 
BRANCH   6   7
ATOM      7  C   UNL A   1      31.769  26.291  24.593  1.00  0.00     0.051 C 
ATOM      8  C   UNL A   1      31.743  25.302  25.810  1.00  0.00     0.029 C 
ATOM      9  C   UNL A   1      30.272  26.593  24.991  1.00  0.00     0.029 C 
ATOM     10  C   UNL A   1      30.218  25.195  25.638  1.00  0.00     0.005 C 
BRANCH   7  11
ATOM     11  N   UNL A   1      32.645  27.449  24.831  1.00  0.00    -0.332 N 
ATOM     12  N   UNL A   1      31.911  29.341  23.568  1.00  0.00    -0.332 N 
ATOM     13  C   UNL A   1      32.697  28.739  24.466  1.00  0.00     0.315 C 
ATOM     14  H   UNL A   1      31.985  30.321  23.613  1.00  0.00     0.165 HD
ATOM     15  O   UNL A   1      33.567  29.432  25.006  1.00  0.00    -0.249 OA
ATOM     16  H   UNL A   1      33.399  27.212  25.418  1.00  0.00     0.165 HD
BRANCH  12  17
ATOM     17  C   UNL A   1      30.978  28.914  22.544  1.00  0.00     0.179 C 
BRANCH  17  18
ATOM     18  C   UNL A   1      30.020  30.013  22.006  1.00  0.00     0.283 C 
BRANCH  18  19
ATOM     19  N   UNL A   1      28.587  29.762  21.822  1.00  0.00    -0.338 N 
ATOM     20  C   UNL A   1      27.869  29.547  23.070  1.00  0.00     0.332 C 
ATOM     21  C   UNL A   1      27.932  30.711  20.942  1.00  0.00     0.332 C 
ATOM     22  H   UNL A   1      28.546  28.871  21.327  1.00  0.00     0.347 HD
ENDBRANCH  18  19
ENDBRANCH  17  18
ENDBRANCH  12  17
ENDBRANCH   7  11
ENDBRANCH   6   7
ENDBRANCH   3   6
ENDBRANCH   1   2
BRANCH   1  23
ATOM     23  C   UNL A   1      34.739  22.748  24.051  1.00  0.00     0.023 C 
BRANCH  23  24
ATOM     24  C   UNL A   1      36.128  23.327  23.789  1.00  0.00     0.023 C 
BRANCH  24  25
ATOM     25  C   UNL A   1      36.928  23.593  25.052  1.00  0.00     0.116 C 
BRANCH  25  26
ATOM     26  N   UNL A   1      38.019  22.644  25.247  1.00  0.00    -0.352 N 
ATOM     27  C   UNL A   1      39.168  22.828  25.973  1.00  0.00     0.251 C 
ATOM     28  H   UNL A   1      37.918  21.770  24.805  1.00  0.00     0.163 HD
ATOM     29  O   UNL A   1      40.033  21.971  26.024  1.00  0.00    -0.269 OA
BRANCH  27  30
ATOM     30  C   UNL A   1      39.328  24.128  26.636  1.00  0.00     0.039 A 
ATOM     31  C   UNL A   1      38.844  24.270  27.934  1.00  0.00     0.014 A 
ATOM     32  C   UNL A   1      40.108  25.116  26.028  1.00  0.00     0.014 A 
ATOM     33  C   UNL A   1      39.194  25.404  28.660  1.00  0.00     0.010 A 
ATOM     34  C   UNL A   1      40.518  26.204  26.781  1.00  0.00     0.010 A 
ATOM     35  C   UNL A   1      40.062  26.356  28.101  1.00  0.00    -0.014 A 
BRANCH  35  36
ATOM     36  C   UNL A   1      40.485  27.543  28.874  1.00  0.00     0.031 A 
ATOM     37  C   UNL A   1      41.830  27.536  29.542  1.00  0.00     0.074 A 
ATOM     38  C   UNL A   1      39.645  28.587  29.009  1.00  0.00     0.049 A 
ATOM     39  N   UNL A   1      42.363  28.430  30.329  1.00  0.00    -0.248 NA
ATOM     40  C   UNL A   1      42.676  26.349  29.320  1.00  0.00     0.031 C 
ATOM     41  C   UNL A   1      38.295  28.672  28.443  1.00  0.00     0.029 A 
ATOM     42  N   UNL A   1      39.799  29.776  29.675  1.00  0.00    -0.354 N 
ATOM     43  C   UNL A   1      43.598  27.914  30.699  1.00  0.00     0.074 A 
ATOM     44  C   UNL A   1      43.711  26.601  30.106  1.00  0.00     0.031 C 
ATOM     45  C   UNL A   1      37.755  29.858  28.769  1.00  0.00     0.029 A 
ATOM     46  C   UNL A   1      38.703  30.603  29.590  1.00  0.00     0.049 A 
ATOM     47  H   UNL A   1      40.617  30.015  30.167  1.00  0.00     0.167 HD
ATOM     48  C   UNL A   1      44.567  28.501  31.437  1.00  0.00     0.037 A 
ATOM     49  C   UNL A   1      38.493  31.821  30.123  1.00  0.00     0.037 A 
ATOM     50  C   UNL A   1      44.458  29.823  31.992  1.00  0.00     0.049 A 
ATOM     51  C   UNL A   1      39.592  32.452  30.939  1.00  0.00     0.074 A 
ATOM     52  C   UNL A   1      45.392  30.528  32.727  1.00  0.00     0.029 A 
ATOM     53  N   UNL A   1      43.348  30.645  31.856  1.00  0.00    -0.354 N 
ATOM     54  N   UNL A   1      40.775  31.968  31.241  1.00  0.00    -0.248 NA
ATOM     55  C   UNL A   1      39.332  33.791  31.483  1.00  0.00     0.031 C 
ATOM     56  C   UNL A   1      44.838  31.769  33.058  1.00  0.00     0.029 A 
ATOM     57  C   UNL A   1      43.573  31.849  32.498  1.00  0.00     0.049 A 
ATOM     58  H   UNL A   1      42.524  30.405  31.375  1.00  0.00     0.167 HD
ATOM     59  C   UNL A   1      41.408  32.956  31.986  1.00  0.00     0.074 A 
ATOM     60  C   UNL A   1      40.485  34.068  32.077  1.00  0.00     0.031 C 
ATOM     61  C   UNL A   1      42.641  32.946  32.549  1.00  0.00     0.037 A 
BRANCH  48  62
ATOM     62  C   UNL A   1      45.839  27.734  31.655  1.00  0.00     0.058 A 
ATOM     63  C   UNL A   1      46.924  27.862  30.775  1.00  0.00     0.135 A 
ATOM     64  C   UNL A   1      45.994  26.900  32.773  1.00  0.00     0.135 A 
ATOM     65  F   UNL A   1      46.818  28.627  29.676  1.00  0.00    -0.206 F 
ATOM     66  C   UNL A   1      48.117  27.180  30.988  1.00  0.00     0.059 A 
ATOM     67  C   UNL A   1      47.187  26.227  33.020  1.00  0.00     0.059 A 
ATOM     68  F   UNL A   1      44.982  26.734  33.640  1.00  0.00    -0.206 F 
ATOM     69  C   UNL A   1      48.241  26.369  32.117  1.00  0.00     0.060 A 
BRANCH  69  70
ATOM     70  S   UNL A   1      49.810  25.523  32.398  1.00  0.00     0.124 S 
ATOM     71  O   UNL A   1      49.413  24.476  33.334  1.00  0.00    -0.237 OA
ATOM     72  O   UNL A   1      50.165  25.073  31.056  1.00  0.00    -0.237 OA
ATOM     73  O   UNL A   1      50.665  26.568  32.951  1.00  0.00    -0.744 OA
ENDBRANCH  69  70
ENDBRANCH  48  62
BRANCH  49  74
ATOM     74  C   UNL A   1      37.209  32.536  29.901  1.00  0.00     0.058 A 
ATOM     75  C   UNL A   1      37.108  33.561  28.947  1.00  0.00     0.135 A 
ATOM     76  C   UNL A   1      36.066  32.236  30.658  1.00  0.00     0.135 A 
ATOM     77  F   UNL A   1      38.173  33.885  28.198  1.00  0.00    -0.206 F 
ATOM     78  C   UNL A   1      35.936  34.290  28.780  1.00  0.00     0.059 A 
ATOM     79  C   UNL A   1      34.873  32.934  30.492  1.00  0.00     0.059 A 
ATOM     80  F   UNL A   1      36.102  31.249  31.567  1.00  0.00    -0.206 F 
ATOM     81  C   UNL A   1      34.825  33.975  29.565  1.00  0.00     0.060 A 
BRANCH  81  82
ATOM     82  S   UNL A   1      33.307  34.927  29.346  1.00  0.00     0.124 S 
ATOM     83  O   UNL A   1      32.629  34.160  28.308  1.00  0.00    -0.237 OA
ATOM     84  O   UNL A   1      32.709  34.870  30.676  1.00  0.00    -0.237 OA
ATOM     85  O   UNL A   1      33.795  36.243  28.943  1.00  0.00    -0.744 OA
ENDBRANCH  81  82
ENDBRANCH  49  74
BRANCH  61  86
ATOM     86  C   UNL A   1      43.076  34.185  33.277  1.00  0.00     0.058 A 
ATOM     87  C   UNL A   1      43.760  35.219  32.621  1.00  0.00     0.135 A 
ATOM     88  C   UNL A   1      42.743  34.366  34.629  1.00  0.00     0.135 A 
ATOM     89  F   UNL A   1      44.104  35.088  31.329  1.00  0.00    -0.206 F 
ATOM     90  C   UNL A   1      44.119  36.384  33.286  1.00  0.00     0.059 A 
ATOM     91  C   UNL A   1      43.070  35.535  35.307  1.00  0.00     0.059 A 
ATOM     92  F   UNL A   1      42.078  33.410  35.295  1.00  0.00    -0.206 F 
ATOM     93  C   UNL A   1      43.767  36.535  34.629  1.00  0.00     0.060 A 
BRANCH  93  94
ATOM     94  S   UNL A   1      44.196  38.073  35.469  1.00  0.00     0.124 S 
ATOM     95  O   UNL A   1      43.464  39.054  34.675  1.00  0.00    -0.237 OA
ATOM     96  O   UNL A   1      43.690  37.845  36.819  1.00  0.00    -0.237 OA
ATOM     97  O   UNL A   1      45.650  38.130  35.352  1.00  0.00    -0.744 OA
ENDBRANCH  93  94
ENDBRANCH  61  86
ENDBRANCH  35  36
ENDBRANCH  27  30
ENDBRANCH  25  26
ENDBRANCH  24  25
ENDBRANCH  23  24
ENDBRANCH   1  23
TORSDOF 19
ENDMDL
