MODEL 1
REMARK VINA RESULT:     -12.1      0.000      0.000
REMARK SMILES C[C@H]1[C@@H](C(=O)NCCCCNC(=O)c2ccc(-c3c4nc(c(-c5c(F)cc(S(=O)(=O)[O-])cc5F)c5ccc([nH]5)c(-c5c(F)cc(S(=O)(=O)[O-])cc5F)c5nc(c(-c6c(F)cc(S(=O)(=O)[O-])cc6F)c6ccc3[nH]6)C=C5)C=C4)cc2)CCN1C(=O)c1cc2cc(F)ccc2s1
REMARK SMILES IDX 9 1 8 2 7 3 6 4 4 5 5 6 3 8 1 9 2 10 82 11 80 12 81 13 83 14
REMARK SMILES IDX 84 15 85 16 86 17 94 18 87 19 93 20 88 21 92 22 89 23 91 24
REMARK SMILES IDX 90 25 10 26 11 27 12 28 13 30 14 31 15 32 79 33 16 34 78 35
REMARK SMILES IDX 17 36 18 37 19 38 72 39 20 40 77 41 71 42 73 43 21 44 76 45
REMARK SMILES IDX 70 46 69 47 22 49 56 50 35 51 55 52 36 53 39 54 54 55 74 56
REMARK SMILES IDX 37 57 38 58 53 60 75 61 40 62 23 63 24 64 33 65 25 66 26 67
REMARK SMILES IDX 32 68 34 69 27 70 28 71 29 72 30 73 31 74 57 75 58 76 67 77
REMARK SMILES IDX 59 78 60 79 66 80 68 81 61 82 62 83 63 84 64 85 65 86 41 87
REMARK SMILES IDX 42 88 51 89 43 90 44 91 50 92 52 93 45 94 46 95 47 96 48 97
REMARK SMILES IDX 49 98
REMARK H PARENT 6 7 11 29 73 48 39 59
REMARK Flexibility Score: inf
ROOT
ATOM      1  C   UNL A   1      33.189  28.677  25.785  1.00  0.00     0.023 C 
ENDROOT
BRANCH   1   2
ATOM      2  C   UNL A   1      32.043  29.610  25.428  1.00  0.00     0.023 C 
BRANCH   2   3
ATOM      3  C   UNL A   1      31.392  29.339  24.069  1.00  0.00     0.116 C 
BRANCH   3   4
ATOM      4  N   UNL A   1      32.432  29.043  23.115  1.00  0.00    -0.356 N 
ATOM      5  C   UNL A   1      32.731  27.882  22.480  1.00  0.00     0.225 C 
ATOM      6  O   UNL A   1      33.852  27.832  21.966  1.00  0.00    -0.275 OA
ATOM      7  H   UNL A   1      33.015  29.803  22.888  1.00  0.00     0.163 HD
BRANCH   5   8
ATOM      8  C   UNL A   1      31.686  26.771  22.274  1.00  0.00     0.102 C 
ATOM      9  C   UNL A   1      31.081  26.123  24.779  1.00  0.00     0.032 C 
ATOM     10  C   UNL A   1      31.384  25.707  23.359  1.00  0.00     0.094 C 
ATOM     11  N   UNL A   1      32.440  24.700  23.225  1.00  0.00    -0.334 N 
ATOM     12  C   UNL A   1      32.236  25.832  21.173  1.00  0.00     0.037 C 
ATOM     13  C   UNL A   1      33.144  24.902  21.969  1.00  0.00     0.121 C 
BRANCH  11  14
ATOM     14  C   UNL A   1      32.223  23.395  23.644  1.00  0.00     0.264 C 
ATOM     15  O   UNL A   1      31.345  22.702  23.129  1.00  0.00    -0.268 OA
BRANCH  14  16
ATOM     16  C   UNL A   1      33.100  22.840  24.649  1.00  0.00     0.093 A 
ATOM     17  C   UNL A   1      33.473  21.519  24.777  1.00  0.00     0.034 A 
ATOM     18  S   UNL A   1      34.130  23.852  25.560  1.00  0.00    -0.130 S 
ATOM     19  C   UNL A   1      34.876  21.434  25.064  1.00  0.00    -0.004 A 
ATOM     20  C   UNL A   1      35.393  22.678  25.447  1.00  0.00     0.035 A 
ATOM     21  C   UNL A   1      35.773  20.360  24.875  1.00  0.00     0.048 A 
ATOM     22  C   UNL A   1      36.772  22.886  25.632  1.00  0.00     0.022 A 
ATOM     23  C   UNL A   1      37.141  20.597  24.959  1.00  0.00     0.123 A 
ATOM     24  C   UNL A   1      37.642  21.836  25.325  1.00  0.00     0.041 A 
ATOM     25  F   UNL A   1      37.993  19.617  24.627  1.00  0.00    -0.207 F 
ENDBRANCH  14  16
ENDBRANCH  11  14
ENDBRANCH   5   8
ENDBRANCH   3   4
ENDBRANCH   2   3
ENDBRANCH   1   2
BRANCH   1  26
ATOM     26  C   UNL A   1      33.597  28.747  27.244  1.00  0.00     0.116 C 
BRANCH  26  27
ATOM     27  N   UNL A   1      33.573  30.096  27.796  1.00  0.00    -0.352 N 
ATOM     28  C   UNL A   1      34.604  30.786  28.405  1.00  0.00     0.251 C 
ATOM     29  H   UNL A   1      32.716  30.576  27.726  1.00  0.00     0.163 HD
ATOM     30  O   UNL A   1      34.426  31.887  28.883  1.00  0.00    -0.269 OA
BRANCH  28  31
ATOM     31  C   UNL A   1      35.914  30.108  28.504  1.00  0.00     0.039 A 
ATOM     32  C   UNL A   1      36.775  30.144  27.406  1.00  0.00     0.014 A 
ATOM     33  C   UNL A   1      36.330  29.575  29.726  1.00  0.00     0.014 A 
ATOM     34  C   UNL A   1      38.097  29.726  27.567  1.00  0.00     0.010 A 
ATOM     35  C   UNL A   1      37.668  29.266  29.909  1.00  0.00     0.010 A 
ATOM     36  C   UNL A   1      38.565  29.334  28.833  1.00  0.00    -0.014 A 
BRANCH  36  37
ATOM     37  C   UNL A   1      39.988  28.976  29.059  1.00  0.00     0.031 A 
ATOM     38  C   UNL A   1      40.932  30.013  29.604  1.00  0.00     0.074 A 
ATOM     39  C   UNL A   1      40.444  27.762  28.693  1.00  0.00     0.049 A 
ATOM     40  N   UNL A   1      42.227  29.945  29.773  1.00  0.00    -0.248 NA
ATOM     41  C   UNL A   1      40.349  31.317  29.966  1.00  0.00     0.031 C 
ATOM     42  C   UNL A   1      39.642  26.698  28.082  1.00  0.00     0.029 A 
ATOM     43  N   UNL A   1      41.702  27.219  28.772  1.00  0.00    -0.354 N 
ATOM     44  C   UNL A   1      42.613  31.200  30.226  1.00  0.00     0.074 A 
ATOM     45  C   UNL A   1      41.430  32.029  30.244  1.00  0.00     0.031 C 
ATOM     46  C   UNL A   1      40.419  25.623  27.875  1.00  0.00     0.029 A 
ATOM     47  C   UNL A   1      41.780  25.929  28.303  1.00  0.00     0.049 A 
ATOM     48  H   UNL A   1      42.478  27.708  29.131  1.00  0.00     0.167 HD
ATOM     49  C   UNL A   1      43.837  31.616  30.625  1.00  0.00     0.037 A 
ATOM     50  C   UNL A   1      42.830  25.088  28.230  1.00  0.00     0.037 A 
ATOM     51  C   UNL A   1      44.997  30.767  30.662  1.00  0.00     0.049 A 
ATOM     52  C   UNL A   1      44.170  25.554  28.730  1.00  0.00     0.074 A 
ATOM     53  C   UNL A   1      46.267  31.063  31.123  1.00  0.00     0.029 A 
ATOM     54  N   UNL A   1      45.022  29.448  30.232  1.00  0.00    -0.354 N 
ATOM     55  N   UNL A   1      44.506  26.726  29.218  1.00  0.00    -0.248 NA
ATOM     56  C   UNL A   1      45.274  24.586  28.679  1.00  0.00     0.031 C 
ATOM     57  C   UNL A   1      47.068  29.929  30.948  1.00  0.00     0.029 A 
ATOM     58  C   UNL A   1      46.287  28.917  30.411  1.00  0.00     0.049 A 
ATOM     59  H   UNL A   1      44.254  28.961  29.856  1.00  0.00     0.167 HD
ATOM     60  C   UNL A   1      45.851  26.627  29.554  1.00  0.00     0.074 A 
ATOM     61  C   UNL A   1      46.265  25.278  29.225  1.00  0.00     0.031 C 
ATOM     62  C   UNL A   1      46.672  27.567  30.086  1.00  0.00     0.037 A 
BRANCH  49  63
ATOM     63  C   UNL A   1      43.971  33.044  31.073  1.00  0.00     0.058 A 
ATOM     64  C   UNL A   1      43.714  33.424  32.400  1.00  0.00     0.135 A 
ATOM     65  C   UNL A   1      44.363  34.044  30.170  1.00  0.00     0.135 A 
ATOM     66  F   UNL A   1      43.316  32.510  33.301  1.00  0.00    -0.206 F 
ATOM     67  C   UNL A   1      43.804  34.750  32.808  1.00  0.00     0.059 A 
ATOM     68  C   UNL A   1      44.489  35.373  30.563  1.00  0.00     0.059 A 
ATOM     69  F   UNL A   1      44.618  33.736  28.889  1.00  0.00    -0.206 F 
ATOM     70  C   UNL A   1      44.190  35.719  31.880  1.00  0.00     0.060 A 
BRANCH  70  71
ATOM     71  S   UNL A   1      44.296  37.437  32.422  1.00  0.00     0.124 S 
ATOM     72  O   UNL A   1      43.341  37.453  33.526  1.00  0.00    -0.237 OA
ATOM     73  O   UNL A   1      45.700  37.560  32.799  1.00  0.00    -0.237 OA
ATOM     74  O   UNL A   1      43.899  38.191  31.238  1.00  0.00    -0.744 OA
ENDBRANCH  70  71
ENDBRANCH  49  63
BRANCH  50  75
ATOM     75  C   UNL A   1      42.649  23.710  27.703  1.00  0.00     0.058 A 
ATOM     76  C   UNL A   1      42.651  23.463  26.323  1.00  0.00     0.135 A 
ATOM     77  C   UNL A   1      42.485  22.613  28.563  1.00  0.00     0.135 A 
ATOM     78  F   UNL A   1      42.801  24.481  25.460  1.00  0.00    -0.206 F 
ATOM     79  C   UNL A   1      42.481  22.182  25.810  1.00  0.00     0.059 A 
ATOM     80  C   UNL A   1      42.334  21.318  28.074  1.00  0.00     0.059 A 
ATOM     81  F   UNL A   1      42.494  22.793  29.892  1.00  0.00    -0.206 F 
ATOM     82  C   UNL A   1      42.323  21.114  26.695  1.00  0.00     0.060 A 
BRANCH  82  83
ATOM     83  S   UNL A   1      42.151  19.447  26.020  1.00  0.00     0.124 S 
ATOM     84  O   UNL A   1      42.679  18.634  27.109  1.00  0.00    -0.237 OA
ATOM     85  O   UNL A   1      40.712  19.354  25.792  1.00  0.00    -0.237 OA
ATOM     86  O   UNL A   1      42.968  19.491  24.810  1.00  0.00    -0.744 OA
ENDBRANCH  82  83
ENDBRANCH  50  75
BRANCH  62  87
ATOM     87  C   UNL A   1      48.088  27.162  30.374  1.00  0.00     0.058 A 
ATOM     88  C   UNL A   1      49.095  27.278  29.405  1.00  0.00     0.135 A 
ATOM     89  C   UNL A   1      48.450  26.711  31.654  1.00  0.00     0.135 A 
ATOM     90  F   UNL A   1      48.797  27.699  28.166  1.00  0.00    -0.206 F 
ATOM     91  C   UNL A   1      50.415  26.943  29.690  1.00  0.00     0.059 A 
ATOM     92  C   UNL A   1      49.768  26.394  31.967  1.00  0.00     0.059 A 
ATOM     93  F   UNL A   1      47.523  26.594  32.617  1.00  0.00    -0.206 F 
ATOM     94  C   UNL A   1      50.741  26.504  30.974  1.00  0.00     0.060 A 
BRANCH  94  95
ATOM     95  S   UNL A   1      52.464  26.111  31.345  1.00  0.00     0.124 S 
ATOM     96  O   UNL A   1      53.071  26.182  30.021  1.00  0.00    -0.237 OA
ATOM     97  O   UNL A   1      52.836  27.178  32.271  1.00  0.00    -0.237 OA
ATOM     98  O   UNL A   1      52.389  24.778  31.933  1.00  0.00    -0.744 OA
ENDBRANCH  94  95
ENDBRANCH  62  87
ENDBRANCH  36  37
ENDBRANCH  28  31
ENDBRANCH  26  27
ENDBRANCH   1  26
TORSDOF 16
ENDMDL
MODEL 2
REMARK VINA RESULT:     -11.9      4.963     10.455
REMARK SMILES C[C@H]1[C@@H](C(=O)NCCCCNC(=O)c2ccc(-c3c4nc(c(-c5c(F)cc(S(=O)(=O)[O-])cc5F)c5ccc([nH]5)c(-c5c(F)cc(S(=O)(=O)[O-])cc5F)c5nc(c(-c6c(F)cc(S(=O)(=O)[O-])cc6F)c6ccc3[nH]6)C=C5)C=C4)cc2)CCN1C(=O)c1cc2cc(F)ccc2s1
REMARK SMILES IDX 9 1 8 2 7 3 6 4 4 5 5 6 3 8 1 9 2 10 82 11 80 12 81 13 83 14
REMARK SMILES IDX 84 15 85 16 86 17 94 18 87 19 93 20 88 21 92 22 89 23 91 24
REMARK SMILES IDX 90 25 10 26 11 27 12 28 13 30 14 31 15 32 79 33 16 34 78 35
REMARK SMILES IDX 17 36 18 37 19 38 72 39 20 40 77 41 71 42 73 43 21 44 76 45
REMARK SMILES IDX 70 46 69 47 22 49 56 50 35 51 55 52 36 53 39 54 54 55 74 56
REMARK SMILES IDX 37 57 38 58 53 60 75 61 40 62 23 63 24 64 33 65 25 66 26 67
REMARK SMILES IDX 32 68 34 69 27 70 28 71 29 72 30 73 31 74 57 75 58 76 67 77
REMARK SMILES IDX 59 78 60 79 66 80 68 81 61 82 62 83 63 84 64 85 65 86 41 87
REMARK SMILES IDX 42 88 51 89 43 90 44 91 50 92 52 93 45 94 46 95 47 96 48 97
REMARK SMILES IDX 49 98
REMARK H PARENT 6 7 11 29 73 48 39 59
REMARK Flexibility Score: inf
ROOT
ATOM      1  C   UNL A   1      42.144  21.772  26.979  1.00  0.00     0.023 C 
ENDROOT
BRANCH   1   2
ATOM      2  C   UNL A   1      40.762  21.363  27.464  1.00  0.00     0.023 C 
BRANCH   2   3
ATOM      3  C   UNL A   1      39.682  21.337  26.379  1.00  0.00     0.116 C 
BRANCH   3   4
ATOM      4  N   UNL A   1      38.912  22.553  26.471  1.00  0.00    -0.356 N 
ATOM      5  C   UNL A   1      37.800  22.937  25.795  1.00  0.00     0.225 C 
ATOM      6  O   UNL A   1      37.539  24.142  25.845  1.00  0.00    -0.275 OA
ATOM      7  H   UNL A   1      39.245  23.206  27.129  1.00  0.00     0.163 HD
BRANCH   5   8
ATOM      8  C   UNL A   1      36.842  21.918  25.152  1.00  0.00     0.102 C 
ATOM      9  C   UNL A   1      36.378  23.029  22.783  1.00  0.00     0.032 C 
ATOM     10  C   UNL A   1      35.873  22.302  24.007  1.00  0.00     0.094 C 
ATOM     11  N   UNL A   1      34.722  22.928  24.662  1.00  0.00    -0.334 N 
ATOM     12  C   UNL A   1      35.796  21.540  26.227  1.00  0.00     0.037 C 
ATOM     13  C   UNL A   1      34.775  22.663  26.091  1.00  0.00     0.121 C 
BRANCH  11  14
ATOM     14  C   UNL A   1      33.477  22.923  24.049  1.00  0.00     0.264 C 
ATOM     15  O   UNL A   1      33.067  23.912  23.440  1.00  0.00    -0.268 OA
BRANCH  14  16
ATOM     16  C   UNL A   1      32.699  21.706  24.077  1.00  0.00     0.093 A 
ATOM     17  C   UNL A   1      32.605  20.766  23.073  1.00  0.00     0.034 A 
ATOM     18  S   UNL A   1      32.130  21.071  25.557  1.00  0.00    -0.130 S 
ATOM     19  C   UNL A   1      32.678  19.446  23.632  1.00  0.00    -0.004 A 
ATOM     20  C   UNL A   1      32.500  19.471  25.021  1.00  0.00     0.035 A 
ATOM     21  C   UNL A   1      33.035  18.225  23.019  1.00  0.00     0.048 A 
ATOM     22  C   UNL A   1      32.680  18.324  25.814  1.00  0.00     0.022 A 
ATOM     23  C   UNL A   1      33.310  17.121  23.820  1.00  0.00     0.123 A 
ATOM     24  C   UNL A   1      33.145  17.161  25.194  1.00  0.00     0.041 A 
ATOM     25  F   UNL A   1      33.798  16.010  23.249  1.00  0.00    -0.207 F 
ENDBRANCH  14  16
ENDBRANCH  11  14
ENDBRANCH   5   8
ENDBRANCH   3   4
ENDBRANCH   2   3
ENDBRANCH   1   2
BRANCH   1  26
ATOM     26  C   UNL A   1      42.427  23.254  27.133  1.00  0.00     0.116 C 
BRANCH  26  27
ATOM     27  N   UNL A   1      41.987  24.058  25.999  1.00  0.00    -0.352 N 
ATOM     28  C   UNL A   1      41.555  25.370  26.000  1.00  0.00     0.251 C 
ATOM     29  H   UNL A   1      42.000  23.609  25.122  1.00  0.00     0.163 HD
ATOM     30  O   UNL A   1      41.151  25.899  24.986  1.00  0.00    -0.269 OA
BRANCH  28  31
ATOM     31  C   UNL A   1      41.548  26.084  27.295  1.00  0.00     0.039 A 
ATOM     32  C   UNL A   1      42.557  27.012  27.557  1.00  0.00     0.014 A 
ATOM     33  C   UNL A   1      40.466  25.933  28.165  1.00  0.00     0.014 A 
ATOM     34  C   UNL A   1      42.427  27.862  28.657  1.00  0.00     0.010 A 
ATOM     35  C   UNL A   1      40.288  26.851  29.188  1.00  0.00     0.010 A 
ATOM     36  C   UNL A   1      41.267  27.822  29.448  1.00  0.00    -0.014 A 
BRANCH  36  37
ATOM     37  C   UNL A   1      41.054  28.776  30.565  1.00  0.00     0.031 A 
ATOM     38  C   UNL A   1      41.899  28.662  31.805  1.00  0.00     0.074 A 
ATOM     39  C   UNL A   1      40.051  29.675  30.502  1.00  0.00     0.049 A 
ATOM     40  N   UNL A   1      41.804  29.317  32.932  1.00  0.00    -0.248 NA
ATOM     41  C   UNL A   1      42.963  27.643  31.791  1.00  0.00     0.031 C 
ATOM     42  C   UNL A   1      39.114  29.831  29.385  1.00  0.00     0.029 A 
ATOM     43  N   UNL A   1      39.644  30.624  31.405  1.00  0.00    -0.354 N 
ATOM     44  C   UNL A   1      42.770  28.768  33.766  1.00  0.00     0.074 A 
ATOM     45  C   UNL A   1      43.395  27.686  33.042  1.00  0.00     0.031 C 
ATOM     46  C   UNL A   1      38.267  30.837  29.657  1.00  0.00     0.029 A 
ATOM     47  C   UNL A   1      38.575  31.375  30.977  1.00  0.00     0.049 A 
ATOM     48  H   UNL A   1      40.078  30.755  32.280  1.00  0.00     0.167 HD
ATOM     49  C   UNL A   1      43.130  29.154  35.012  1.00  0.00     0.037 A 
ATOM     50  C   UNL A   1      37.919  32.385  31.583  1.00  0.00     0.037 A 
ATOM     51  C   UNL A   1      42.546  30.272  35.703  1.00  0.00     0.049 A 
ATOM     52  C   UNL A   1      38.372  32.832  32.946  1.00  0.00     0.074 A 
ATOM     53  C   UNL A   1      42.890  30.798  36.935  1.00  0.00     0.029 A 
ATOM     54  N   UNL A   1      41.504  31.044  35.212  1.00  0.00    -0.354 N 
ATOM     55  N   UNL A   1      39.333  32.345  33.696  1.00  0.00    -0.248 NA
ATOM     56  C   UNL A   1      37.661  33.971  33.544  1.00  0.00     0.031 C 
ATOM     57  C   UNL A   1      42.037  31.875  37.201  1.00  0.00     0.029 A 
ATOM     58  C   UNL A   1      41.186  32.039  36.119  1.00  0.00     0.049 A 
ATOM     59  H   UNL A   1      41.056  30.905  34.347  1.00  0.00     0.167 HD
ATOM     60  C   UNL A   1      39.356  33.131  34.842  1.00  0.00     0.074 A 
ATOM     61  C   UNL A   1      38.323  34.134  34.681  1.00  0.00     0.031 C 
ATOM     62  C   UNL A   1      40.160  33.034  35.930  1.00  0.00     0.037 A 
BRANCH  49  63
ATOM     63  C   UNL A   1      44.220  28.373  35.691  1.00  0.00     0.058 A 
ATOM     64  C   UNL A   1      43.931  27.293  36.540  1.00  0.00     0.135 A 
ATOM     65  C   UNL A   1      45.569  28.704  35.490  1.00  0.00     0.135 A 
ATOM     66  F   UNL A   1      42.655  26.948  36.784  1.00  0.00    -0.206 F 
ATOM     67  C   UNL A   1      44.936  26.591  37.195  1.00  0.00     0.059 A 
ATOM     68  C   UNL A   1      46.594  27.997  36.112  1.00  0.00     0.059 A 
ATOM     69  F   UNL A   1      45.902  29.730  34.691  1.00  0.00    -0.206 F 
ATOM     70  C   UNL A   1      46.266  26.953  36.977  1.00  0.00     0.060 A 
BRANCH  70  71
ATOM     71  S   UNL A   1      47.561  26.039  37.839  1.00  0.00     0.124 S 
ATOM     72  O   UNL A   1      46.907  25.737  39.109  1.00  0.00    -0.237 OA
ATOM     73  O   UNL A   1      47.781  24.899  36.955  1.00  0.00    -0.237 OA
ATOM     74  O   UNL A   1      48.661  26.994  37.911  1.00  0.00    -0.744 OA
ENDBRANCH  70  71
ENDBRANCH  49  63
BRANCH  50  75
ATOM     75  C   UNL A   1      36.796  33.068  30.889  1.00  0.00     0.058 A 
ATOM     76  C   UNL A   1      35.468  32.850  31.285  1.00  0.00     0.135 A 
ATOM     77  C   UNL A   1      37.024  33.960  29.830  1.00  0.00     0.135 A 
ATOM     78  F   UNL A   1      35.200  32.003  32.291  1.00  0.00    -0.206 F 
ATOM     79  C   UNL A   1      34.403  33.478  30.647  1.00  0.00     0.059 A 
ATOM     80  C   UNL A   1      35.975  34.617  29.190  1.00  0.00     0.059 A 
ATOM     81  F   UNL A   1      38.276  34.217  29.425  1.00  0.00    -0.206 F 
ATOM     82  C   UNL A   1      34.668  34.361  29.599  1.00  0.00     0.060 A 
BRANCH  82  83
ATOM     83  S   UNL A   1      33.281  35.208  28.810  1.00  0.00     0.124 S 
ATOM     84  O   UNL A   1      33.968  36.229  28.028  1.00  0.00    -0.237 OA
ATOM     85  O   UNL A   1      32.656  34.132  28.047  1.00  0.00    -0.237 OA
ATOM     86  O   UNL A   1      32.501  35.698  29.943  1.00  0.00    -0.744 OA
ENDBRANCH  82  83
ENDBRANCH  50  75
BRANCH  62  87
ATOM     87  C   UNL A   1      39.976  34.053  37.017  1.00  0.00     0.058 A 
ATOM     88  C   UNL A   1      40.567  35.322  36.939  1.00  0.00     0.135 A 
ATOM     89  C   UNL A   1      39.149  33.775  38.117  1.00  0.00     0.135 A 
ATOM     90  F   UNL A   1      41.370  35.633  35.909  1.00  0.00    -0.206 F 
ATOM     91  C   UNL A   1      40.359  36.279  37.927  1.00  0.00     0.059 A 
ATOM     92  C   UNL A   1      38.908  34.726  39.104  1.00  0.00     0.059 A 
ATOM     93  F   UNL A   1      38.553  32.578  38.230  1.00  0.00    -0.206 F 
ATOM     94  C   UNL A   1      39.526  35.972  39.004  1.00  0.00     0.060 A 
BRANCH  94  95
ATOM     95  S   UNL A   1      39.229  37.235  40.259  1.00  0.00     0.124 S 
ATOM     96  O   UNL A   1      38.569  36.459  41.304  1.00  0.00    -0.237 OA
ATOM     97  O   UNL A   1      40.580  37.694  40.567  1.00  0.00    -0.237 OA
ATOM     98  O   UNL A   1      38.386  38.206  39.569  1.00  0.00    -0.744 OA
ENDBRANCH  94  95
ENDBRANCH  62  87
ENDBRANCH  36  37
ENDBRANCH  28  31
ENDBRANCH  26  27
ENDBRANCH   1  26
TORSDOF 16
ENDMDL
MODEL 3
REMARK VINA RESULT:     -11.9      5.049     10.573
REMARK SMILES C[C@H]1[C@@H](C(=O)NCCCCNC(=O)c2ccc(-c3c4nc(c(-c5c(F)cc(S(=O)(=O)[O-])cc5F)c5ccc([nH]5)c(-c5c(F)cc(S(=O)(=O)[O-])cc5F)c5nc(c(-c6c(F)cc(S(=O)(=O)[O-])cc6F)c6ccc3[nH]6)C=C5)C=C4)cc2)CCN1C(=O)c1cc2cc(F)ccc2s1
REMARK SMILES IDX 9 1 8 2 7 3 6 4 4 5 5 6 3 8 1 9 2 10 82 11 80 12 81 13 83 14
REMARK SMILES IDX 84 15 85 16 86 17 94 18 87 19 93 20 88 21 92 22 89 23 91 24
REMARK SMILES IDX 90 25 10 26 11 27 12 28 13 30 14 31 15 32 79 33 16 34 78 35
REMARK SMILES IDX 17 36 18 37 19 38 72 39 20 40 77 41 71 42 73 43 21 44 76 45
REMARK SMILES IDX 70 46 69 47 22 49 56 50 35 51 55 52 36 53 39 54 54 55 74 56
REMARK SMILES IDX 37 57 38 58 53 60 75 61 40 62 23 63 24 64 33 65 25 66 26 67
REMARK SMILES IDX 32 68 34 69 27 70 28 71 29 72 30 73 31 74 57 75 58 76 67 77
REMARK SMILES IDX 59 78 60 79 66 80 68 81 61 82 62 83 63 84 64 85 65 86 41 87
REMARK SMILES IDX 42 88 51 89 43 90 44 91 50 92 52 93 45 94 46 95 47 96 48 97
REMARK SMILES IDX 49 98
REMARK H PARENT 6 7 11 29 73 48 39 59
REMARK Flexibility Score: inf
ROOT
ATOM      1  C   UNL A   1      39.280  22.175  26.840  1.00  0.00     0.023 C 
ENDROOT
BRANCH   1   2
ATOM      2  C   UNL A   1      38.507  22.522  25.578  1.00  0.00     0.023 C 
BRANCH   2   3
ATOM      3  C   UNL A   1      37.188  23.263  25.815  1.00  0.00     0.116 C 
BRANCH   3   4
ATOM      4  N   UNL A   1      36.278  22.372  26.490  1.00  0.00    -0.356 N 
ATOM      5  C   UNL A   1      34.990  22.056  26.202  1.00  0.00     0.225 C 
ATOM      6  O   UNL A   1      34.358  21.519  27.117  1.00  0.00    -0.275 OA
ATOM      7  H   UNL A   1      36.649  21.922  27.284  1.00  0.00     0.163 HD
BRANCH   5   8
ATOM      8  C   UNL A   1      34.409  22.205  24.785  1.00  0.00     0.102 C 
ATOM      9  C   UNL A   1      34.187  24.844  24.564  1.00  0.00     0.032 C 
ATOM     10  C   UNL A   1      33.619  23.462  24.343  1.00  0.00     0.094 C 
ATOM     11  N   UNL A   1      32.258  23.267  24.849  1.00  0.00    -0.334 N 
ATOM     12  C   UNL A   1      33.278  21.158  24.647  1.00  0.00     0.037 C 
ATOM     13  C   UNL A   1      32.090  21.884  25.267  1.00  0.00     0.121 C 
BRANCH  11  14
ATOM     14  C   UNL A   1      31.184  23.893  24.233  1.00  0.00     0.264 C 
ATOM     15  O   UNL A   1      30.649  23.401  23.239  1.00  0.00    -0.268 OA
BRANCH  14  16
ATOM     16  C   UNL A   1      30.657  25.100  24.828  1.00  0.00     0.093 A 
ATOM     17  C   UNL A   1      30.863  25.539  26.118  1.00  0.00     0.034 A 
ATOM     18  S   UNL A   1      30.051  26.360  23.848  1.00  0.00    -0.130 S 
ATOM     19  C   UNL A   1      31.122  26.951  26.117  1.00  0.00    -0.004 A 
ATOM     20  C   UNL A   1      30.782  27.530  24.888  1.00  0.00     0.035 A 
ATOM     21  C   UNL A   1      31.776  27.749  27.081  1.00  0.00     0.048 A 
ATOM     22  C   UNL A   1      31.085  28.870  24.588  1.00  0.00     0.022 A 
ATOM     23  C   UNL A   1      32.163  29.041  26.740  1.00  0.00     0.123 A 
ATOM     24  C   UNL A   1      31.833  29.599  25.516  1.00  0.00     0.041 A 
ATOM     25  F   UNL A   1      32.918  29.741  27.598  1.00  0.00    -0.207 F 
ENDBRANCH  14  16
ENDBRANCH  11  14
ENDBRANCH   5   8
ENDBRANCH   3   4
ENDBRANCH   2   3
ENDBRANCH   1   2
BRANCH   1  26
ATOM     26  C   UNL A   1      40.375  23.172  27.173  1.00  0.00     0.116 C 
BRANCH  26  27
ATOM     27  N   UNL A   1      40.780  23.999  26.044  1.00  0.00    -0.352 N 
ATOM     28  C   UNL A   1      41.122  25.338  26.047  1.00  0.00     0.251 C 
ATOM     29  H   UNL A   1      40.814  23.548  25.169  1.00  0.00     0.163 HD
ATOM     30  O   UNL A   1      41.378  25.924  25.016  1.00  0.00    -0.269 OA
BRANCH  28  31
ATOM     31  C   UNL A   1      41.109  26.041  27.348  1.00  0.00     0.039 A 
ATOM     32  C   UNL A   1      42.205  26.831  27.698  1.00  0.00     0.014 A 
ATOM     33  C   UNL A   1      39.954  26.027  28.133  1.00  0.00     0.014 A 
ATOM     34  C   UNL A   1      42.102  27.685  28.796  1.00  0.00     0.010 A 
ATOM     35  C   UNL A   1      39.817  26.955  29.153  1.00  0.00     0.010 A 
ATOM     36  C   UNL A   1      40.889  27.792  29.498  1.00  0.00    -0.014 A 
BRANCH  36  37
ATOM     37  C   UNL A   1      40.716  28.760  30.610  1.00  0.00     0.031 A 
ATOM     38  C   UNL A   1      41.567  28.629  31.843  1.00  0.00     0.074 A 
ATOM     39  C   UNL A   1      39.741  29.690  30.548  1.00  0.00     0.049 A 
ATOM     40  N   UNL A   1      41.503  29.295  32.966  1.00  0.00    -0.248 NA
ATOM     41  C   UNL A   1      42.599  27.578  31.828  1.00  0.00     0.031 C 
ATOM     42  C   UNL A   1      38.800  29.867  29.437  1.00  0.00     0.029 A 
ATOM     43  N   UNL A   1      39.372  30.658  31.447  1.00  0.00    -0.354 N 
ATOM     44  C   UNL A   1      42.459  28.723  33.796  1.00  0.00     0.074 A 
ATOM     45  C   UNL A   1      43.043  27.616  33.075  1.00  0.00     0.031 C 
ATOM     46  C   UNL A   1      37.988  30.901  29.709  1.00  0.00     0.029 A 
ATOM     47  C   UNL A   1      38.323  31.439  31.022  1.00  0.00     0.049 A 
ATOM     48  H   UNL A   1      39.817  30.782  32.317  1.00  0.00     0.167 HD
ATOM     49  C   UNL A   1      42.841  29.107  35.036  1.00  0.00     0.037 A 
ATOM     50  C   UNL A   1      37.704  32.473  31.625  1.00  0.00     0.037 A 
ATOM     51  C   UNL A   1      42.298  30.247  35.723  1.00  0.00     0.049 A 
ATOM     52  C   UNL A   1      38.183  32.917  32.981  1.00  0.00     0.074 A 
ATOM     53  C   UNL A   1      42.669  30.772  36.948  1.00  0.00     0.029 A 
ATOM     54  N   UNL A   1      41.276  31.048  35.235  1.00  0.00    -0.354 N 
ATOM     55  N   UNL A   1      39.134  32.405  33.727  1.00  0.00    -0.248 NA
ATOM     56  C   UNL A   1      37.513  34.081  33.576  1.00  0.00     0.031 C 
ATOM     57  C   UNL A   1      41.852  31.877  37.212  1.00  0.00     0.029 A 
ATOM     58  C   UNL A   1      40.997  32.060  36.136  1.00  0.00     0.049 A 
ATOM     59  H   UNL A   1      40.817  30.916  34.374  1.00  0.00     0.167 HD
ATOM     60  C   UNL A   1      39.192  33.198  34.866  1.00  0.00     0.074 A 
ATOM     61  C   UNL A   1      38.189  34.232  34.706  1.00  0.00     0.031 C 
ATOM     62  C   UNL A   1      40.001  33.084  35.949  1.00  0.00     0.037 A 
BRANCH  49  63
ATOM     63  C   UNL A   1      43.912  28.297  35.712  1.00  0.00     0.058 A 
ATOM     64  C   UNL A   1      43.596  27.255  36.598  1.00  0.00     0.135 A 
ATOM     65  C   UNL A   1      45.269  28.562  35.470  1.00  0.00     0.135 A 
ATOM     66  F   UNL A   1      42.313  26.974  36.881  1.00  0.00    -0.206 F 
ATOM     67  C   UNL A   1      44.585  26.528  37.250  1.00  0.00     0.059 A 
ATOM     68  C   UNL A   1      46.277  27.828  36.089  1.00  0.00     0.059 A 
ATOM     69  F   UNL A   1      45.627  29.549  34.635  1.00  0.00    -0.206 F 
ATOM     70  C   UNL A   1      45.924  26.824  36.991  1.00  0.00     0.060 A 
BRANCH  70  71
ATOM     71  S   UNL A   1      47.198  25.877  37.849  1.00  0.00     0.124 S 
ATOM     72  O   UNL A   1      46.466  24.666  38.209  1.00  0.00    -0.237 OA
ATOM     73  O   UNL A   1      48.218  25.717  36.817  1.00  0.00    -0.237 OA
ATOM     74  O   UNL A   1      47.569  26.741  38.964  1.00  0.00    -0.744 OA
ENDBRANCH  70  71
ENDBRANCH  49  63
BRANCH  50  75
ATOM     75  C   UNL A   1      36.597  33.186  30.935  1.00  0.00     0.058 A 
ATOM     76  C   UNL A   1      35.267  33.014  31.345  1.00  0.00     0.135 A 
ATOM     77  C   UNL A   1      36.844  34.062  29.866  1.00  0.00     0.135 A 
ATOM     78  F   UNL A   1      34.981  32.184  32.360  1.00  0.00    -0.206 F 
ATOM     79  C   UNL A   1      34.217  33.669  30.711  1.00  0.00     0.059 A 
ATOM     80  C   UNL A   1      35.811  34.746  29.230  1.00  0.00     0.059 A 
ATOM     81  F   UNL A   1      38.100  34.276  29.448  1.00  0.00    -0.206 F 
ATOM     82  C   UNL A   1      34.499  34.535  29.653  1.00  0.00     0.060 A 
BRANCH  82  83
ATOM     83  S   UNL A   1      33.133  35.420  28.868  1.00  0.00     0.124 S 
ATOM     84  O   UNL A   1      32.499  34.356  28.100  1.00  0.00    -0.237 OA
ATOM     85  O   UNL A   1      32.383  35.912  30.020  1.00  0.00    -0.237 OA
ATOM     86  O   UNL A   1      33.810  36.450  28.085  1.00  0.00    -0.744 OA
ENDBRANCH  82  83
ENDBRANCH  50  75
BRANCH  62  87
ATOM     87  C   UNL A   1      39.859  34.117  37.028  1.00  0.00     0.058 A 
ATOM     88  C   UNL A   1      40.545  35.338  36.970  1.00  0.00     0.135 A 
ATOM     89  C   UNL A   1      38.978  33.904  38.101  1.00  0.00     0.135 A 
ATOM     90  F   UNL A   1      41.403  35.586  35.968  1.00  0.00    -0.206 F 
ATOM     91  C   UNL A   1      40.377  36.311  37.951  1.00  0.00     0.059 A 
ATOM     92  C   UNL A   1      38.776  34.873  39.079  1.00  0.00     0.059 A 
ATOM     93  F   UNL A   1      38.290  32.756  38.194  1.00  0.00    -0.206 F 
ATOM     94  C   UNL A   1      39.488  36.069  39.000  1.00  0.00     0.060 A 
BRANCH  94  95
ATOM     95  S   UNL A   1      39.246  37.354  40.245  1.00  0.00     0.124 S 
ATOM     96  O   UNL A   1      38.539  36.619  41.289  1.00  0.00    -0.237 OA
ATOM     97  O   UNL A   1      40.616  37.746  40.562  1.00  0.00    -0.237 OA
ATOM     98  O   UNL A   1      38.459  38.362  39.542  1.00  0.00    -0.744 OA
ENDBRANCH  94  95
ENDBRANCH  62  87
ENDBRANCH  36  37
ENDBRANCH  28  31
ENDBRANCH  26  27
ENDBRANCH   1  26
TORSDOF 16
ENDMDL
