MODEL 1
REMARK VINA RESULT:     -12.9      0.000      0.000
REMARK SMILES COc1c(C)cccc1C(=O)NC(=S)Nc1ccc(C(=O)NCCCCNC(=O)c2ccc(-c3c4nc(c(-c5c(F)cc(S(=O)(=O)[O-])cc5F)c5ccc([nH]5)c(-c5c(F)cc(S(=O)(=O)[O-])cc5F)c5nc(c(-c6c(F)cc(S(=O)(=O)[O-])cc6F)c6ccc3[nH]6)C=C5)C=C4)cc2)cc1C
REMARK SMILES IDX 23 1 22 2 20 3 21 4 19 6 16 7 17 8 97 9 18 10 96 11 98 12
REMARK SMILES IDX 15 13 13 15 14 16 12 17 10 18 11 19 9 21 3 22 4 23 5 24 6 25
REMARK SMILES IDX 8 26 7 27 2 28 1 29 24 30 25 31 26 32 27 33 28 34 29 36
REMARK SMILES IDX 30 37 31 38 95 39 32 40 94 41 33 42 34 43 35 44 88 45 36 46
REMARK SMILES IDX 93 47 87 48 89 49 37 50 92 51 86 52 85 53 38 55 72 56 51 57
REMARK SMILES IDX 71 58 52 59 55 60 70 61 90 62 53 63 54 64 69 66 91 67 56 68
REMARK SMILES IDX 39 69 40 70 49 71 41 72 42 73 48 74 50 75 43 76 44 77 45 78
REMARK SMILES IDX 46 79 47 80 73 81 74 82 83 83 75 84 76 85 82 86 84 87 77 88
REMARK SMILES IDX 78 89 79 90 80 91 81 92 57 93 58 94 67 95 59 96 60 97 66 98
REMARK SMILES IDX 68 99 61 100 62 101 63 102 64 103 65 104
REMARK H PARENT 22 5 15 14 12 20 27 35 89 54 55 65
REMARK Flexibility Score: inf
ROOT
ATOM      1  C   UNL A   1      35.227  20.914  25.740  1.00  0.00     0.116 C 
ENDROOT
BRANCH   1   2
ATOM      2  N   UNL A   1      34.174  19.897  25.680  1.00  0.00    -0.352 N 
ATOM      3  C   UNL A   1      32.852  19.975  25.319  1.00  0.00     0.251 C 
ATOM      4  O   UNL A   1      32.168  18.961  25.210  1.00  0.00    -0.269 OA
ATOM      5  H   UNL A   1      34.467  18.996  25.946  1.00  0.00     0.163 HD
BRANCH   3   6
ATOM      6  C   UNL A   1      32.256  21.253  24.901  1.00  0.00     0.040 A 
ATOM      7  C   UNL A   1      31.444  24.701  24.023  1.00  0.00     0.043 A 
ATOM      8  C   UNL A   1      30.592  23.874  25.423  1.00  0.00     0.027 A 
ATOM      9  C   UNL A   1      32.560  23.736  22.972  1.00  0.00    -0.027 A 
ATOM     10  C   UNL A   1      31.114  22.197  25.952  1.00  0.00     0.016 A 
ATOM     11  C   UNL A   1      32.944  22.005  23.367  1.00  0.00     0.019 A 
ATOM     12  C   UNL A   1      32.953  24.270  21.629  1.00  0.00     0.046 C 
BRANCH   7  13
ATOM     13  N   UNL A   1      31.332  26.083  23.786  1.00  0.00    -0.332 N 
ATOM     14  H   UNL A   1      31.695  26.355  22.912  1.00  0.00     0.169 HD
BRANCH  13  15
ATOM     15  C   UNL A   1      30.833  27.121  24.496  1.00  0.00     0.177 C 
ATOM     16  S   UNL A   1      29.885  28.206  23.616  1.00  0.00    -0.040 S 
BRANCH  15  17
ATOM     17  N   UNL A   1      30.939  27.429  25.837  1.00  0.00    -0.299 N 
ATOM     18  C   UNL A   1      31.639  28.052  26.901  1.00  0.00     0.261 C 
ATOM     19  O   UNL A   1      31.225  27.932  28.053  1.00  0.00    -0.269 OA
ATOM     20  H   UNL A   1      30.146  27.021  26.257  1.00  0.00     0.172 HD
BRANCH  18  21
ATOM     21  C   UNL A   1      32.782  28.900  26.624  1.00  0.00     0.082 A 
ATOM     22  C   UNL A   1      32.548  30.276  26.554  1.00  0.00     0.134 A 
ATOM     23  C   UNL A   1      33.396  31.288  27.332  1.00  0.00    -0.008 A 
ATOM     24  C   UNL A   1      32.816  33.185  28.141  1.00  0.00     0.048 C 
ATOM     25  C   UNL A   1      34.731  30.528  27.511  1.00  0.00     0.007 A 
ATOM     26  C   UNL A   1      34.035  28.347  26.829  1.00  0.00     0.018 A 
ATOM     27  C   UNL A   1      35.043  29.190  27.201  1.00  0.00     0.001 A 
BRANCH  22  28
ATOM     28  O   UNL A   1      31.865  30.598  25.347  1.00  0.00    -0.496 OA
ATOM     29  C   UNL A   1      30.707  31.456  25.444  1.00  0.00     0.278 C 
ENDBRANCH  22  28
ENDBRANCH  18  21
ENDBRANCH  15  17
ENDBRANCH  13  15
ENDBRANCH   7  13
ENDBRANCH   3   6
ENDBRANCH   1   2
BRANCH   1  30
ATOM     30  C   UNL A   1      36.500  20.492  25.001  1.00  0.00     0.023 C 
BRANCH  30  31
ATOM     31  C   UNL A   1      37.274  21.644  24.373  1.00  0.00     0.023 C 
BRANCH  31  32
ATOM     32  C   UNL A   1      37.693  22.722  25.358  1.00  0.00     0.116 C 
BRANCH  32  33
ATOM     33  N   UNL A   1      38.605  22.272  26.398  1.00  0.00    -0.352 N 
ATOM     34  C   UNL A   1      39.812  22.881  26.726  1.00  0.00     0.251 C 
ATOM     35  H   UNL A   1      38.348  21.471  26.909  1.00  0.00     0.163 HD
ATOM     36  O   UNL A   1      40.827  22.246  26.981  1.00  0.00    -0.269 OA
BRANCH  34  37
ATOM     37  C   UNL A   1      39.762  24.346  26.947  1.00  0.00     0.039 A 
ATOM     38  C   UNL A   1      40.575  25.175  26.161  1.00  0.00     0.014 A 
ATOM     39  C   UNL A   1      39.152  24.835  28.091  1.00  0.00     0.014 A 
ATOM     40  C   UNL A   1      40.951  26.421  26.649  1.00  0.00     0.010 A 
ATOM     41  C   UNL A   1      39.657  25.969  28.656  1.00  0.00     0.010 A 
ATOM     42  C   UNL A   1      40.575  26.744  27.943  1.00  0.00    -0.014 A 
BRANCH  42  43
ATOM     43  C   UNL A   1      40.955  27.926  28.682  1.00  0.00     0.031 A 
ATOM     44  C   UNL A   1      39.965  29.018  28.716  1.00  0.00     0.074 A 
ATOM     45  C   UNL A   1      41.959  27.775  29.572  1.00  0.00     0.049 A 
ATOM     46  N   UNL A   1      40.137  30.133  29.317  1.00  0.00    -0.248 NA
ATOM     47  C   UNL A   1      38.665  28.932  28.045  1.00  0.00     0.031 C 
ATOM     48  C   UNL A   1      42.220  28.533  30.788  1.00  0.00     0.029 A 
ATOM     49  N   UNL A   1      43.086  26.963  29.428  1.00  0.00    -0.354 N 
ATOM     50  C   UNL A   1      38.918  30.778  29.376  1.00  0.00     0.074 A 
ATOM     51  C   UNL A   1      38.064  30.041  28.484  1.00  0.00     0.031 C 
ATOM     52  C   UNL A   1      43.513  28.379  31.126  1.00  0.00     0.029 A 
ATOM     53  C   UNL A   1      44.152  27.652  30.038  1.00  0.00     0.049 A 
ATOM     54  H   UNL A   1      43.127  26.083  28.987  1.00  0.00     0.167 HD
ATOM     55  C   UNL A   1      38.786  31.781  30.290  1.00  0.00     0.037 A 
ATOM     56  C   UNL A   1      45.139  28.175  29.245  1.00  0.00     0.037 A 
ATOM     57  C   UNL A   1      40.105  32.084  30.847  1.00  0.00     0.049 A 
ATOM     58  C   UNL A   1      45.131  29.689  29.251  1.00  0.00     0.074 A 
ATOM     59  C   UNL A   1      40.742  31.698  32.014  1.00  0.00     0.029 A 
ATOM     60  N   UNL A   1      41.092  32.567  29.994  1.00  0.00    -0.354 N 
ATOM     61  N   UNL A   1      44.075  30.420  29.490  1.00  0.00    -0.248 NA
ATOM     62  C   UNL A   1      46.338  30.491  29.079  1.00  0.00     0.031 C 
ATOM     63  C   UNL A   1      42.141  31.844  31.804  1.00  0.00     0.029 A 
ATOM     64  C   UNL A   1      42.346  32.351  30.530  1.00  0.00     0.049 A 
ATOM     65  H   UNL A   1      40.920  33.002  29.128  1.00  0.00     0.167 HD
ATOM     66  C   UNL A   1      44.431  31.745  29.530  1.00  0.00     0.074 A 
ATOM     67  C   UNL A   1      45.859  31.734  29.267  1.00  0.00     0.031 C 
ATOM     68  C   UNL A   1      43.541  32.750  29.798  1.00  0.00     0.037 A 
BRANCH  55  69
ATOM     69  C   UNL A   1      37.501  32.357  30.857  1.00  0.00     0.058 A 
ATOM     70  C   UNL A   1      36.729  33.236  30.060  1.00  0.00     0.135 A 
ATOM     71  C   UNL A   1      37.011  32.189  32.169  1.00  0.00     0.135 A 
ATOM     72  F   UNL A   1      37.048  33.484  28.781  1.00  0.00    -0.206 F 
ATOM     73  C   UNL A   1      35.608  33.922  30.536  1.00  0.00     0.059 A 
ATOM     74  C   UNL A   1      35.882  32.853  32.664  1.00  0.00     0.059 A 
ATOM     75  F   UNL A   1      37.601  31.389  33.059  1.00  0.00    -0.206 F 
ATOM     76  C   UNL A   1      35.195  33.732  31.844  1.00  0.00     0.060 A 
BRANCH  76  77
ATOM     77  S   UNL A   1      33.764  34.642  32.451  1.00  0.00     0.124 S 
ATOM     78  O   UNL A   1      33.107  35.034  31.208  1.00  0.00    -0.237 OA
ATOM     79  O   UNL A   1      33.072  33.632  33.245  1.00  0.00    -0.237 OA
ATOM     80  O   UNL A   1      34.354  35.738  33.215  1.00  0.00    -0.744 OA
ENDBRANCH  76  77
ENDBRANCH  55  69
BRANCH  56  81
ATOM     81  C   UNL A   1      45.455  27.277  28.087  1.00  0.00     0.058 A 
ATOM     82  C   UNL A   1      44.944  27.672  26.832  1.00  0.00     0.135 A 
ATOM     83  C   UNL A   1      46.601  26.466  28.082  1.00  0.00     0.135 A 
ATOM     84  F   UNL A   1      43.825  28.413  26.772  1.00  0.00    -0.206 F 
ATOM     85  C   UNL A   1      45.658  27.479  25.653  1.00  0.00     0.059 A 
ATOM     86  C   UNL A   1      47.321  26.238  26.902  1.00  0.00     0.059 A 
ATOM     87  F   UNL A   1      47.128  26.033  29.237  1.00  0.00    -0.206 F 
ATOM     88  C   UNL A   1      46.890  26.834  25.716  1.00  0.00     0.060 A 
BRANCH  88  89
ATOM     89  S   UNL A   1      47.985  26.959  24.276  1.00  0.00     0.124 S 
ATOM     90  O   UNL A   1      49.289  27.164  24.899  1.00  0.00    -0.237 OA
ATOM     91  O   UNL A   1      47.790  25.659  23.634  1.00  0.00    -0.237 OA
ATOM     92  O   UNL A   1      47.453  28.107  23.551  1.00  0.00    -0.744 OA
ENDBRANCH  88  89
ENDBRANCH  56  81
BRANCH  68  93
ATOM     93  C   UNL A   1      43.755  34.220  29.496  1.00  0.00     0.058 A 
ATOM     94  C   UNL A   1      43.994  35.196  30.479  1.00  0.00     0.135 A 
ATOM     95  C   UNL A   1      43.874  34.676  28.157  1.00  0.00     0.135 A 
ATOM     96  F   UNL A   1      44.066  34.885  31.780  1.00  0.00    -0.206 F 
ATOM     97  C   UNL A   1      44.217  36.536  30.166  1.00  0.00     0.059 A 
ATOM     98  C   UNL A   1      44.177  35.993  27.822  1.00  0.00     0.059 A 
ATOM     99  F   UNL A   1      43.719  33.854  27.110  1.00  0.00    -0.206 F 
ATOM    100  C   UNL A   1      44.299  36.928  28.835  1.00  0.00     0.060 A 
BRANCH 100 101
ATOM    101  S   UNL A   1      44.592  38.656  28.438  1.00  0.00     0.124 S 
ATOM    102  O   UNL A   1      44.086  38.725  27.071  1.00  0.00    -0.237 OA
ATOM    103  O   UNL A   1      43.793  39.353  29.443  1.00  0.00    -0.237 OA
ATOM    104  O   UNL A   1      46.036  38.799  28.587  1.00  0.00    -0.744 OA
ENDBRANCH 100 101
ENDBRANCH  68  93
ENDBRANCH  42  43
ENDBRANCH  34  37
ENDBRANCH  32  33
ENDBRANCH  31  32
ENDBRANCH  30  31
ENDBRANCH   1  30
TORSDOF 19
ENDMDL
MODEL 2
REMARK VINA RESULT:     -12.5      1.555      2.114
REMARK SMILES COc1c(C)cccc1C(=O)NC(=S)Nc1ccc(C(=O)NCCCCNC(=O)c2ccc(-c3c4nc(c(-c5c(F)cc(S(=O)(=O)[O-])cc5F)c5ccc([nH]5)c(-c5c(F)cc(S(=O)(=O)[O-])cc5F)c5nc(c(-c6c(F)cc(S(=O)(=O)[O-])cc6F)c6ccc3[nH]6)C=C5)C=C4)cc2)cc1C
REMARK SMILES IDX 23 1 22 2 20 3 21 4 19 6 16 7 17 8 97 9 18 10 96 11 98 12
REMARK SMILES IDX 15 13 13 15 14 16 12 17 10 18 11 19 9 21 3 22 4 23 5 24 6 25
REMARK SMILES IDX 8 26 7 27 2 28 1 29 24 30 25 31 26 32 27 33 28 34 29 36
REMARK SMILES IDX 30 37 31 38 95 39 32 40 94 41 33 42 34 43 35 44 88 45 36 46
REMARK SMILES IDX 93 47 87 48 89 49 37 50 92 51 86 52 85 53 38 55 72 56 51 57
REMARK SMILES IDX 71 58 52 59 55 60 70 61 90 62 53 63 54 64 69 66 91 67 56 68
REMARK SMILES IDX 39 69 40 70 49 71 41 72 42 73 48 74 50 75 43 76 44 77 45 78
REMARK SMILES IDX 46 79 47 80 73 81 74 82 83 83 75 84 76 85 82 86 84 87 77 88
REMARK SMILES IDX 78 89 79 90 80 91 81 92 57 93 58 94 67 95 59 96 60 97 66 98
REMARK SMILES IDX 68 99 61 100 62 101 63 102 64 103 65 104
REMARK H PARENT 22 5 15 14 12 20 27 35 89 54 55 65
REMARK Flexibility Score: inf
ROOT
ATOM      1  C   UNL A   1      35.250  21.118  25.705  1.00  0.00     0.116 C 
ENDROOT
BRANCH   1   2
ATOM      2  N   UNL A   1      34.186  20.119  25.576  1.00  0.00    -0.352 N 
ATOM      3  C   UNL A   1      32.868  20.233  25.210  1.00  0.00     0.251 C 
ATOM      4  O   UNL A   1      32.174  19.236  25.036  1.00  0.00    -0.269 OA
ATOM      5  H   UNL A   1      34.467  19.201  25.790  1.00  0.00     0.163 HD
BRANCH   3   6
ATOM      6  C   UNL A   1      32.289  21.541  24.866  1.00  0.00     0.040 A 
ATOM      7  C   UNL A   1      31.549  25.028  24.083  1.00  0.00     0.043 A 
ATOM      8  C   UNL A   1      30.838  24.242  25.581  1.00  0.00     0.027 A 
ATOM      9  C   UNL A   1      32.474  24.011  22.904  1.00  0.00    -0.027 A 
ATOM     10  C   UNL A   1      31.337  22.539  26.048  1.00  0.00     0.016 A 
ATOM     11  C   UNL A   1      32.817  22.261  23.255  1.00  0.00     0.019 A 
ATOM     12  C   UNL A   1      32.723  24.528  21.521  1.00  0.00     0.046 C 
BRANCH   7  13
ATOM     13  N   UNL A   1      31.477  26.414  23.856  1.00  0.00    -0.332 N 
ATOM     14  H   UNL A   1      31.801  26.676  22.964  1.00  0.00     0.169 HD
BRANCH  13  15
ATOM     15  C   UNL A   1      31.060  27.468  24.596  1.00  0.00     0.177 C 
ATOM     16  S   UNL A   1      30.177  28.634  23.755  1.00  0.00    -0.040 S 
BRANCH  15  17
ATOM     17  N   UNL A   1      31.204  27.737  25.942  1.00  0.00    -0.299 N 
ATOM     18  C   UNL A   1      31.957  28.291  27.009  1.00  0.00     0.261 C 
ATOM     19  O   UNL A   1      31.554  28.169  28.164  1.00  0.00    -0.269 OA
ATOM     20  H   UNL A   1      30.395  27.367  26.365  1.00  0.00     0.172 HD
BRANCH  18  21
ATOM     21  C   UNL A   1      33.144  29.076  26.732  1.00  0.00     0.082 A 
ATOM     22  C   UNL A   1      33.077  30.444  27.004  1.00  0.00     0.134 A 
ATOM     23  C   UNL A   1      34.151  31.166  27.827  1.00  0.00    -0.008 A 
ATOM     24  C   UNL A   1      33.938  32.864  29.116  1.00  0.00     0.048 C 
ATOM     25  C   UNL A   1      35.391  30.270  27.606  1.00  0.00     0.007 A 
ATOM     26  C   UNL A   1      34.335  28.380  26.595  1.00  0.00     0.018 A 
ATOM     27  C   UNL A   1      35.484  29.019  26.964  1.00  0.00     0.001 A 
BRANCH  22  28
ATOM     28  O   UNL A   1      32.272  31.100  26.030  1.00  0.00    -0.496 OA
ATOM     29  C   UNL A   1      31.249  32.000  26.508  1.00  0.00     0.278 C 
ENDBRANCH  22  28
ENDBRANCH  18  21
ENDBRANCH  15  17
ENDBRANCH  13  15
ENDBRANCH   7  13
ENDBRANCH   3   6
ENDBRANCH   1   2
BRANCH   1  30
ATOM     30  C   UNL A   1      35.890  21.478  24.362  1.00  0.00     0.023 C 
BRANCH  30  31
ATOM     31  C   UNL A   1      37.246  22.165  24.474  1.00  0.00     0.023 C 
BRANCH  31  32
ATOM     32  C   UNL A   1      37.440  22.950  25.760  1.00  0.00     0.116 C 
BRANCH  32  33
ATOM     33  N   UNL A   1      38.492  22.444  26.627  1.00  0.00    -0.352 N 
ATOM     34  C   UNL A   1      39.758  23.005  26.767  1.00  0.00     0.251 C 
ATOM     35  H   UNL A   1      38.293  21.638  27.157  1.00  0.00     0.163 HD
ATOM     36  O   UNL A   1      40.777  22.331  26.839  1.00  0.00    -0.269 OA
BRANCH  34  37
ATOM     37  C   UNL A   1      39.796  24.464  27.024  1.00  0.00     0.039 A 
ATOM     38  C   UNL A   1      40.346  25.307  26.047  1.00  0.00     0.014 A 
ATOM     39  C   UNL A   1      39.567  24.930  28.309  1.00  0.00     0.014 A 
ATOM     40  C   UNL A   1      40.869  26.538  26.424  1.00  0.00     0.010 A 
ATOM     41  C   UNL A   1      40.235  26.046  28.719  1.00  0.00     0.010 A 
ATOM     42  C   UNL A   1      40.906  26.831  27.779  1.00  0.00    -0.014 A 
BRANCH  42  43
ATOM     43  C   UNL A   1      41.508  27.993  28.392  1.00  0.00     0.031 A 
ATOM     44  C   UNL A   1      40.599  29.114  28.692  1.00  0.00     0.074 A 
ATOM     45  C   UNL A   1      42.706  27.800  28.983  1.00  0.00     0.049 A 
ATOM     46  N   UNL A   1      40.961  30.217  29.229  1.00  0.00    -0.248 NA
ATOM     47  C   UNL A   1      39.164  29.077  28.392  1.00  0.00     0.031 C 
ATOM     48  C   UNL A   1      43.307  28.536  30.087  1.00  0.00     0.029 A 
ATOM     49  N   UNL A   1      43.727  26.955  28.542  1.00  0.00    -0.354 N 
ATOM     50  C   UNL A   1      39.824  30.898  29.613  1.00  0.00     0.074 A 
ATOM     51  C   UNL A   1      38.739  30.198  28.979  1.00  0.00     0.031 C 
ATOM     52  C   UNL A   1      44.637  28.338  30.069  1.00  0.00     0.029 A 
ATOM     53  C   UNL A   1      44.939  27.604  28.847  1.00  0.00     0.049 A 
ATOM     54  H   UNL A   1      43.621  26.080  28.103  1.00  0.00     0.167 HD
ATOM     55  C   UNL A   1      39.972  31.894  30.532  1.00  0.00     0.037 A 
ATOM     56  C   UNL A   1      45.696  28.106  27.822  1.00  0.00     0.037 A 
ATOM     57  C   UNL A   1      41.401  32.150  30.719  1.00  0.00     0.049 A 
ATOM     58  C   UNL A   1      45.740  29.619  27.834  1.00  0.00     0.074 A 
ATOM     59  C   UNL A   1      42.313  31.731  31.673  1.00  0.00     0.029 A 
ATOM     60  N   UNL A   1      42.141  32.612  29.635  1.00  0.00    -0.354 N 
ATOM     61  N   UNL A   1      44.810  30.380  28.348  1.00  0.00    -0.248 NA
ATOM     62  C   UNL A   1      46.883  30.386  27.349  1.00  0.00     0.031 C 
ATOM     63  C   UNL A   1      43.610  31.836  31.098  1.00  0.00     0.029 A 
ATOM     64  C   UNL A   1      43.485  32.351  29.817  1.00  0.00     0.049 A 
ATOM     65  H   UNL A   1      41.759  33.062  28.847  1.00  0.00     0.167 HD
ATOM     66  C   UNL A   1      45.207  31.692  28.295  1.00  0.00     0.074 A 
ATOM     67  C   UNL A   1      46.513  31.640  27.662  1.00  0.00     0.031 C 
ATOM     68  C   UNL A   1      44.455  32.721  28.794  1.00  0.00     0.037 A 
BRANCH  55  69
ATOM     69  C   UNL A   1      38.904  32.503  31.422  1.00  0.00     0.058 A 
ATOM     70  C   UNL A   1      38.423  31.760  32.527  1.00  0.00     0.135 A 
ATOM     71  C   UNL A   1      38.240  33.730  31.220  1.00  0.00     0.135 A 
ATOM     72  F   UNL A   1      38.964  30.581  32.868  1.00  0.00    -0.206 F 
ATOM     73  C   UNL A   1      37.351  32.173  33.323  1.00  0.00     0.059 A 
ATOM     74  C   UNL A   1      37.174  34.173  32.014  1.00  0.00     0.059 A 
ATOM     75  F   UNL A   1      38.566  34.570  30.236  1.00  0.00    -0.206 F 
ATOM     76  C   UNL A   1      36.723  33.378  33.054  1.00  0.00     0.060 A 
BRANCH  76  77
ATOM     77  S   UNL A   1      35.328  33.885  34.072  1.00  0.00     0.124 S 
ATOM     78  O   UNL A   1      34.229  33.133  33.473  1.00  0.00    -0.237 OA
ATOM     79  O   UNL A   1      35.743  33.452  35.402  1.00  0.00    -0.237 OA
ATOM     80  O   UNL A   1      35.270  35.331  33.878  1.00  0.00    -0.744 OA
ENDBRANCH  76  77
ENDBRANCH  55  69
BRANCH  56  81
ATOM     81  C   UNL A   1      45.663  27.212  26.618  1.00  0.00     0.058 A 
ATOM     82  C   UNL A   1      46.515  26.087  26.652  1.00  0.00     0.135 A 
ATOM     83  C   UNL A   1      44.524  27.126  25.803  1.00  0.00     0.135 A 
ATOM     84  F   UNL A   1      47.643  26.127  27.381  1.00  0.00    -0.206 F 
ATOM     85  C   UNL A   1      46.139  24.864  26.105  1.00  0.00     0.059 A 
ATOM     86  C   UNL A   1      44.141  25.910  25.222  1.00  0.00     0.059 A 
ATOM     87  F   UNL A   1      43.682  28.165  25.703  1.00  0.00    -0.206 F 
ATOM     88  C   UNL A   1      44.907  24.768  25.465  1.00  0.00     0.060 A 
BRANCH  88  89
ATOM     89  S   UNL A   1      44.251  23.110  25.133  1.00  0.00     0.124 S 
ATOM     90  O   UNL A   1      45.023  22.703  23.964  1.00  0.00    -0.237 OA
ATOM     91  O   UNL A   1      44.568  22.405  26.376  1.00  0.00    -0.237 OA
ATOM     92  O   UNL A   1      42.834  23.355  24.891  1.00  0.00    -0.744 OA
ENDBRANCH  88  89
ENDBRANCH  56  81
BRANCH  68  93
ATOM     93  C   UNL A   1      44.629  34.188  28.450  1.00  0.00     0.058 A 
ATOM     94  C   UNL A   1      45.045  35.165  29.371  1.00  0.00     0.135 A 
ATOM     95  C   UNL A   1      44.518  34.637  27.108  1.00  0.00     0.135 A 
ATOM     96  F   UNL A   1      45.338  34.858  30.642  1.00  0.00    -0.206 F 
ATOM     97  C   UNL A   1      45.225  36.501  29.016  1.00  0.00     0.059 A 
ATOM     98  C   UNL A   1      44.772  35.948  26.718  1.00  0.00     0.059 A 
ATOM     99  F   UNL A   1      44.174  33.812  26.110  1.00  0.00    -0.206 F 
ATOM    100  C   UNL A   1      45.078  36.886  27.688  1.00  0.00     0.060 A 
BRANCH 100 101
ATOM    101  S   UNL A   1      45.316  38.609  27.235  1.00  0.00     0.124 S 
ATOM    102  O   UNL A   1      43.936  39.066  27.114  1.00  0.00    -0.237 OA
ATOM    103  O   UNL A   1      46.058  39.138  28.377  1.00  0.00    -0.237 OA
ATOM    104  O   UNL A   1      46.070  38.532  25.989  1.00  0.00    -0.744 OA
ENDBRANCH 100 101
ENDBRANCH  68  93
ENDBRANCH  42  43
ENDBRANCH  34  37
ENDBRANCH  32  33
ENDBRANCH  31  32
ENDBRANCH  30  31
ENDBRANCH   1  30
TORSDOF 19
ENDMDL
MODEL 3
REMARK VINA RESULT:     -12.3      2.099      3.269
REMARK SMILES COc1c(C)cccc1C(=O)NC(=S)Nc1ccc(C(=O)NCCCCNC(=O)c2ccc(-c3c4nc(c(-c5c(F)cc(S(=O)(=O)[O-])cc5F)c5ccc([nH]5)c(-c5c(F)cc(S(=O)(=O)[O-])cc5F)c5nc(c(-c6c(F)cc(S(=O)(=O)[O-])cc6F)c6ccc3[nH]6)C=C5)C=C4)cc2)cc1C
REMARK SMILES IDX 23 1 22 2 20 3 21 4 19 6 16 7 17 8 97 9 18 10 96 11 98 12
REMARK SMILES IDX 15 13 13 15 14 16 12 17 10 18 11 19 9 21 3 22 4 23 5 24 6 25
REMARK SMILES IDX 8 26 7 27 2 28 1 29 24 30 25 31 26 32 27 33 28 34 29 36
REMARK SMILES IDX 30 37 31 38 95 39 32 40 94 41 33 42 34 43 35 44 88 45 36 46
REMARK SMILES IDX 93 47 87 48 89 49 37 50 92 51 86 52 85 53 38 55 72 56 51 57
REMARK SMILES IDX 71 58 52 59 55 60 70 61 90 62 53 63 54 64 69 66 91 67 56 68
REMARK SMILES IDX 39 69 40 70 49 71 41 72 42 73 48 74 50 75 43 76 44 77 45 78
REMARK SMILES IDX 46 79 47 80 73 81 74 82 83 83 75 84 76 85 82 86 84 87 77 88
REMARK SMILES IDX 78 89 79 90 80 91 81 92 57 93 58 94 67 95 59 96 60 97 66 98
REMARK SMILES IDX 68 99 61 100 62 101 63 102 64 103 65 104
REMARK H PARENT 22 5 15 14 12 20 27 35 89 54 55 65
REMARK Flexibility Score: inf
ROOT
ATOM      1  C   UNL A   1      35.892  20.374  25.006  1.00  0.00     0.116 C 
ENDROOT
BRANCH   1   2
ATOM      2  N   UNL A   1      34.555  19.843  25.284  1.00  0.00    -0.352 N 
ATOM      3  C   UNL A   1      33.343  20.466  25.447  1.00  0.00     0.251 C 
ATOM      4  O   UNL A   1      32.307  19.814  25.543  1.00  0.00    -0.269 OA
ATOM      5  H   UNL A   1      34.519  18.863  25.369  1.00  0.00     0.163 HD
BRANCH   3   6
ATOM      6  C   UNL A   1      33.226  21.930  25.356  1.00  0.00     0.040 A 
ATOM      7  C   UNL A   1      33.677  25.542  25.089  1.00  0.00     0.043 A 
ATOM      8  C   UNL A   1      32.961  24.805  26.611  1.00  0.00     0.027 A 
ATOM      9  C   UNL A   1      33.990  24.481  23.655  1.00  0.00    -0.027 A 
ATOM     10  C   UNL A   1      32.881  22.981  26.797  1.00  0.00     0.016 A 
ATOM     11  C   UNL A   1      33.732  22.685  23.754  1.00  0.00     0.019 A 
ATOM     12  C   UNL A   1      34.200  25.103  22.310  1.00  0.00     0.046 C 
BRANCH   7  13
ATOM     13  N   UNL A   1      34.074  26.889  25.022  1.00  0.00    -0.332 N 
ATOM     14  H   UNL A   1      34.847  27.034  24.431  1.00  0.00     0.169 HD
BRANCH  13  15
ATOM     15  C   UNL A   1      33.624  28.032  25.592  1.00  0.00     0.177 C 
ATOM     16  S   UNL A   1      34.527  28.585  26.905  1.00  0.00    -0.040 S 
BRANCH  15  17
ATOM     17  N   UNL A   1      32.563  28.848  25.257  1.00  0.00    -0.299 N 
ATOM     18  C   UNL A   1      31.299  29.025  24.639  1.00  0.00     0.261 C 
ATOM     19  O   UNL A   1      30.790  30.145  24.607  1.00  0.00    -0.269 OA
ATOM     20  H   UNL A   1      32.794  29.732  25.625  1.00  0.00     0.172 HD
BRANCH  18  21
ATOM     21  C   UNL A   1      30.568  27.880  24.133  1.00  0.00     0.082 A 
ATOM     22  C   UNL A   1      30.638  27.640  22.759  1.00  0.00     0.134 A 
ATOM     23  C   UNL A   1      30.988  26.261  22.188  1.00  0.00    -0.008 A 
ATOM     24  C   UNL A   1      32.011  25.782  20.367  1.00  0.00     0.048 C 
ATOM     25  C   UNL A   1      30.548  25.313  23.327  1.00  0.00     0.007 A 
ATOM     26  C   UNL A   1      30.191  26.920  25.059  1.00  0.00     0.018 A 
ATOM     27  C   UNL A   1      30.104  25.628  24.627  1.00  0.00     0.001 A 
BRANCH  22  28
ATOM     28  O   UNL A   1      29.859  28.600  22.052  1.00  0.00    -0.496 OA
ATOM     29  C   UNL A   1      28.498  28.805  22.488  1.00  0.00     0.278 C 
ENDBRANCH  22  28
ENDBRANCH  18  21
ENDBRANCH  15  17
ENDBRANCH  13  15
ENDBRANCH   7  13
ENDBRANCH   3   6
ENDBRANCH   1   2
BRANCH   1  30
ATOM     30  C   UNL A   1      36.216  21.624  25.827  1.00  0.00     0.023 C 
BRANCH  30  31
ATOM     31  C   UNL A   1      37.412  22.420  25.318  1.00  0.00     0.023 C 
BRANCH  31  32
ATOM     32  C   UNL A   1      37.745  23.642  26.155  1.00  0.00     0.116 C 
BRANCH  32  33
ATOM     33  N   UNL A   1      38.606  23.380  27.298  1.00  0.00    -0.352 N 
ATOM     34  C   UNL A   1      39.697  24.155  27.677  1.00  0.00     0.251 C 
ATOM     35  H   UNL A   1      38.400  22.588  27.846  1.00  0.00     0.163 HD
ATOM     36  O   UNL A   1      40.753  23.670  28.062  1.00  0.00    -0.269 OA
BRANCH  34  37
ATOM     37  C   UNL A   1      39.453  25.613  27.780  1.00  0.00     0.039 A 
ATOM     38  C   UNL A   1      39.957  26.454  26.776  1.00  0.00     0.014 A 
ATOM     39  C   UNL A   1      39.002  26.139  28.980  1.00  0.00     0.014 A 
ATOM     40  C   UNL A   1      40.213  27.789  27.070  1.00  0.00     0.010 A 
ATOM     41  C   UNL A   1      39.415  27.390  29.332  1.00  0.00     0.010 A 
ATOM     42  C   UNL A   1      40.043  28.201  28.383  1.00  0.00    -0.014 A 
BRANCH  42  43
ATOM     43  C   UNL A   1      40.361  29.501  28.925  1.00  0.00     0.031 A 
ATOM     44  C   UNL A   1      39.278  30.501  28.894  1.00  0.00     0.074 A 
ATOM     45  C   UNL A   1      41.433  29.560  29.744  1.00  0.00     0.049 A 
ATOM     46  N   UNL A   1      39.385  31.700  29.326  1.00  0.00    -0.248 NA
ATOM     47  C   UNL A   1      37.948  30.215  28.348  1.00  0.00     0.031 C 
ATOM     48  C   UNL A   1      41.705  30.498  30.824  1.00  0.00     0.029 A 
ATOM     49  N   UNL A   1      42.618  28.832  29.619  1.00  0.00    -0.354 N 
ATOM     50  C   UNL A   1      38.118  32.243  29.398  1.00  0.00     0.074 A 
ATOM     51  C   UNL A   1      37.278  31.320  28.683  1.00  0.00     0.031 C 
ATOM     52  C   UNL A   1      43.027  30.502  31.075  1.00  0.00     0.029 A 
ATOM     53  C   UNL A   1      43.654  29.686  30.044  1.00  0.00     0.049 A 
ATOM     54  H   UNL A   1      42.711  27.906  29.296  1.00  0.00     0.167 HD
ATOM     55  C   UNL A   1      37.956  33.348  30.179  1.00  0.00     0.037 A 
ATOM     56  C   UNL A   1      44.532  30.174  29.112  1.00  0.00     0.037 A 
ATOM     57  C   UNL A   1      39.276  33.835  30.583  1.00  0.00     0.049 A 
ATOM     58  C   UNL A   1      44.383  31.668  28.919  1.00  0.00     0.074 A 
ATOM     59  C   UNL A   1      40.024  33.669  31.736  1.00  0.00     0.029 A 
ATOM     60  N   UNL A   1      40.152  34.275  29.597  1.00  0.00    -0.354 N 
ATOM     61  N   UNL A   1      43.281  32.335  29.143  1.00  0.00    -0.248 NA
ATOM     62  C   UNL A   1      45.494  32.537  28.546  1.00  0.00     0.031 C 
ATOM     63  C   UNL A   1      41.386  33.900  31.396  1.00  0.00     0.029 A 
ATOM     64  C   UNL A   1      41.455  34.241  30.054  1.00  0.00     0.049 A 
ATOM     65  H   UNL A   1      39.882  34.570  28.697  1.00  0.00     0.167 HD
ATOM     66  C   UNL A   1      43.514  33.677  28.978  1.00  0.00     0.074 A 
ATOM     67  C   UNL A   1      44.916  33.749  28.605  1.00  0.00     0.031 C 
ATOM     68  C   UNL A   1      42.555  34.632  29.182  1.00  0.00     0.037 A 
BRANCH  55  69
ATOM     69  C   UNL A   1      36.664  33.888  30.766  1.00  0.00     0.058 A 
ATOM     70  C   UNL A   1      35.604  34.236  29.896  1.00  0.00     0.135 A 
ATOM     71  C   UNL A   1      36.417  34.185  32.123  1.00  0.00     0.135 A 
ATOM     72  F   UNL A   1      35.673  33.999  28.578  1.00  0.00    -0.206 F 
ATOM     73  C   UNL A   1      34.432  34.866  30.325  1.00  0.00     0.059 A 
ATOM     74  C   UNL A   1      35.244  34.800  32.579  1.00  0.00     0.059 A 
ATOM     75  F   UNL A   1      37.297  33.916  33.089  1.00  0.00    -0.206 F 
ATOM     76  C   UNL A   1      34.263  35.154  31.669  1.00  0.00     0.060 A 
BRANCH  76  77
ATOM     77  S   UNL A   1      32.758  35.987  32.203  1.00  0.00     0.124 S 
ATOM     78  O   UNL A   1      31.925  34.864  32.623  1.00  0.00    -0.237 OA
ATOM     79  O   UNL A   1      33.248  36.851  33.272  1.00  0.00    -0.237 OA
ATOM     80  O   UNL A   1      32.306  36.681  31.000  1.00  0.00    -0.744 OA
ENDBRANCH  76  77
ENDBRANCH  55  69
BRANCH  56  81
ATOM     81  C   UNL A   1      44.851  29.153  28.061  1.00  0.00     0.058 A 
ATOM     82  C   UNL A   1      45.750  28.132  28.435  1.00  0.00     0.135 A 
ATOM     83  C   UNL A   1      43.947  28.861  27.028  1.00  0.00     0.135 A 
ATOM     84  F   UNL A   1      46.667  28.367  29.389  1.00  0.00    -0.206 F 
ATOM     85  C   UNL A   1      45.605  26.823  27.983  1.00  0.00     0.059 A 
ATOM     86  C   UNL A   1      43.803  27.556  26.541  1.00  0.00     0.059 A 
ATOM     87  F   UNL A   1      43.079  29.792  26.604  1.00  0.00    -0.206 F 
ATOM     88  C   UNL A   1      44.570  26.532  27.099  1.00  0.00     0.060 A 
BRANCH  88  89
ATOM     89  S   UNL A   1      44.135  24.789  26.849  1.00  0.00     0.124 S 
ATOM     90  O   UNL A   1      45.309  24.277  26.151  1.00  0.00    -0.237 OA
ATOM     91  O   UNL A   1      43.964  24.320  28.225  1.00  0.00    -0.237 OA
ATOM     92  O   UNL A   1      42.917  24.862  26.052  1.00  0.00    -0.744 OA
ENDBRANCH  88  89
ENDBRANCH  56  81
BRANCH  68  93
ATOM     93  C   UNL A   1      42.609  36.059  28.672  1.00  0.00     0.058 A 
ATOM     94  C   UNL A   1      42.138  36.458  27.409  1.00  0.00     0.135 A 
ATOM     95  C   UNL A   1      43.017  37.119  29.523  1.00  0.00     0.135 A 
ATOM     96  F   UNL A   1      41.581  35.588  26.556  1.00  0.00    -0.206 F 
ATOM     97  C   UNL A   1      42.174  37.784  26.981  1.00  0.00     0.059 A 
ATOM     98  C   UNL A   1      42.984  38.458  29.144  1.00  0.00     0.059 A 
ATOM     99  F   UNL A   1      43.449  36.901  30.772  1.00  0.00    -0.206 F 
ATOM    100  C   UNL A   1      42.606  38.778  27.852  1.00  0.00     0.060 A 
BRANCH 100 101
ATOM    101  S   UNL A   1      42.646  40.486  27.295  1.00  0.00     0.124 S 
ATOM    102  O   UNL A   1      43.107  40.328  25.920  1.00  0.00    -0.237 OA
ATOM    103  O   UNL A   1      41.254  40.904  27.451  1.00  0.00    -0.237 OA
ATOM    104  O   UNL A   1      43.588  41.120  28.211  1.00  0.00    -0.744 OA
ENDBRANCH 100 101
ENDBRANCH  68  93
ENDBRANCH  42  43
ENDBRANCH  34  37
ENDBRANCH  32  33
ENDBRANCH  31  32
ENDBRANCH  30  31
ENDBRANCH   1  30
TORSDOF 19
ENDMDL
