MODEL 1
REMARK VINA RESULT:     -13.5      0.000      0.000
REMARK SMILES Cc1nc(-c2ccccc2)sc1C(=O)N[C@@H](CC1=c2ccccc2=NC1)C(=O)NCCCCNC(=O)c1ccc(-c2c3nc(c(-c4c(F)cc(S(=O)(=O)[O-])cc4F)c4ccc([nH]4)c(-c4c(F)cc(S(=O)(=O)[O-])cc4F)c4nc(c(-c5c(F)cc(S(=O)(=O)[O-])cc5F)c5ccc2[nH]5)C=C4)C=C3)cc1
REMARK SMILES IDX 31 1 30 2 29 3 27 4 28 5 16 7 15 8 13 9 14 10 12 12 1 13
REMARK SMILES IDX 2 14 3 15 4 16 11 17 5 18 6 19 10 20 7 21 9 22 8 23 17 24
REMARK SMILES IDX 18 25 19 26 26 27 20 28 24 29 25 30 21 31 23 32 22 33 32 34
REMARK SMILES IDX 33 35 34 36 35 37 36 39 37 40 38 41 102 42 39 43 101 44
REMARK SMILES IDX 40 45 41 46 42 47 95 48 43 49 100 50 94 51 96 52 44 53 99 54
REMARK SMILES IDX 93 55 92 56 45 58 79 59 58 60 78 61 59 62 62 63 77 64 97 65
REMARK SMILES IDX 60 66 61 67 76 69 98 70 63 71 46 72 47 73 56 74 48 75 49 76
REMARK SMILES IDX 55 77 57 78 50 79 51 80 52 81 53 82 54 83 80 84 81 85 90 86
REMARK SMILES IDX 82 87 83 88 89 89 91 90 84 91 85 92 86 93 87 94 88 95 64 96
REMARK SMILES IDX 65 97 74 98 66 99 67 100 73 101 75 102 68 103 69 104 70 105
REMARK SMILES IDX 71 106 72 107
REMARK H PARENT 29 6 15 11 34 38 96 57 62 68
REMARK Flexibility Score: inf
ROOT
ATOM      1  C   UNL A   1      34.689  29.211  27.290  1.00  0.00     0.023 C 
ENDROOT
BRANCH   1   2
ATOM      2  C   UNL A   1      33.878  28.585  26.168  1.00  0.00     0.116 C 
BRANCH   2   3
ATOM      3  N   UNL A   1      32.486  28.357  26.473  1.00  0.00    -0.354 N 
ATOM      4  C   UNL A   1      31.802  27.183  26.529  1.00  0.00     0.242 C 
ATOM      5  O   UNL A   1      30.803  27.155  27.259  1.00  0.00    -0.273 OA
ATOM      6  H   UNL A   1      31.957  29.165  26.667  1.00  0.00     0.163 HD
BRANCH   4   7
ATOM      7  C   UNL A   1      32.247  25.888  25.812  1.00  0.00     0.175 C 
BRANCH   7   8
ATOM      8  N   UNL A   1      31.596  25.613  24.543  1.00  0.00    -0.339 N 
ATOM      9  C   UNL A   1      31.329  24.478  23.827  1.00  0.00     0.263 C 
ATOM     10  O   UNL A   1      30.852  24.746  22.714  1.00  0.00    -0.268 OA
ATOM     11  H   UNL A   1      31.273  26.429  24.096  1.00  0.00     0.164 HD
BRANCH   9  12
ATOM     12  C   UNL A   1      31.535  23.100  24.271  1.00  0.00     0.115 A 
ATOM     13  C   UNL A   1      30.429  22.481  26.594  1.00  0.00     0.068 C 
ATOM     14  C   UNL A   1      31.183  22.265  25.334  1.00  0.00     0.062 A 
ATOM     15  N   UNL A   1      31.628  20.955  25.225  1.00  0.00    -0.241 NA
ATOM     16  C   UNL A   1      32.373  20.783  24.166  1.00  0.00     0.124 A 
ATOM     17  S   UNL A   1      32.561  22.157  23.190  1.00  0.00    -0.108 S 
BRANCH  16  18
ATOM     18  C   UNL A   1      32.982  19.501  23.834  1.00  0.00     0.010 A 
ATOM     19  C   UNL A   1      32.380  18.698  22.857  1.00  0.00     0.011 A 
ATOM     20  C   UNL A   1      34.065  18.996  24.567  1.00  0.00     0.011 A 
ATOM     21  C   UNL A   1      32.841  17.405  22.621  1.00  0.00     0.001 A 
ATOM     22  C   UNL A   1      34.521  17.697  24.335  1.00  0.00     0.001 A 
ATOM     23  C   UNL A   1      33.905  16.901  23.368  1.00  0.00     0.000 A 
ENDBRANCH  16  18
ENDBRANCH   9  12
ENDBRANCH   7   8
BRANCH   7  24
ATOM     24  C   UNL A   1      33.779  25.647  25.759  1.00  0.00     0.068 C 
BRANCH  24  25
ATOM     25  C   UNL A   1      34.284  24.242  25.884  1.00  0.00    -0.037 C 
ATOM     26  C   UNL A   1      35.081  23.548  25.072  1.00  0.00     0.001 A 
ATOM     27  C   UNL A   1      33.934  23.425  27.095  1.00  0.00     0.174 C 
ATOM     28  C   UNL A   1      35.718  23.790  23.817  1.00  0.00     0.010 A 
ATOM     29  C   UNL A   1      35.414  22.366  25.888  1.00  0.00     0.065 A 
ATOM     30  N   UNL A   1      34.800  22.227  27.022  1.00  0.00    -0.280 NA
ATOM     31  C   UNL A   1      36.707  22.969  23.425  1.00  0.00     0.001 A 
ATOM     32  C   UNL A   1      36.507  21.504  25.388  1.00  0.00     0.028 A 
ATOM     33  C   UNL A   1      37.118  21.837  24.238  1.00  0.00     0.002 A 
ENDBRANCH  24  25
ENDBRANCH   7  24
ENDBRANCH   4   7
ENDBRANCH   2   3
ENDBRANCH   1   2
BRANCH   1  34
ATOM     34  C   UNL A   1      34.769  30.733  27.264  1.00  0.00     0.023 C 
BRANCH  34  35
ATOM     35  C   UNL A   1      35.677  31.370  28.312  1.00  0.00     0.116 C 
BRANCH  35  36
ATOM     36  N   UNL A   1      35.508  30.818  29.649  1.00  0.00    -0.352 N 
ATOM     37  C   UNL A   1      36.432  30.171  30.440  1.00  0.00     0.251 C 
ATOM     38  H   UNL A   1      34.611  30.920  30.041  1.00  0.00     0.163 HD
ATOM     39  O   UNL A   1      36.097  29.654  31.498  1.00  0.00    -0.269 OA
BRANCH  37  40
ATOM     40  C   UNL A   1      37.829  30.082  29.966  1.00  0.00     0.039 A 
ATOM     41  C   UNL A   1      38.870  30.236  30.883  1.00  0.00     0.014 A 
ATOM     42  C   UNL A   1      38.096  29.752  28.635  1.00  0.00     0.014 A 
ATOM     43  C   UNL A   1      40.180  29.960  30.485  1.00  0.00     0.010 A 
ATOM     44  C   UNL A   1      39.387  29.394  28.265  1.00  0.00     0.010 A 
ATOM     45  C   UNL A   1      40.441  29.485  29.187  1.00  0.00    -0.014 A 
BRANCH  45  46
ATOM     46  C   UNL A   1      41.805  29.061  28.778  1.00  0.00     0.031 A 
ATOM     47  C   UNL A   1      42.918  30.070  28.716  1.00  0.00     0.074 A 
ATOM     48  C   UNL A   1      42.020  27.790  28.381  1.00  0.00     0.049 A 
ATOM     49  N   UNL A   1      44.149  29.918  28.300  1.00  0.00    -0.248 NA
ATOM     50  C   UNL A   1      42.595  31.440  29.145  1.00  0.00     0.031 C 
ATOM     51  C   UNL A   1      41.007  26.733  28.328  1.00  0.00     0.029 A 
ATOM     52  N   UNL A   1      43.161  27.173  27.933  1.00  0.00    -0.354 N 
ATOM     53  C   UNL A   1      44.738  31.173  28.394  1.00  0.00     0.074 A 
ATOM     54  C   UNL A   1      43.715  32.087  28.855  1.00  0.00     0.031 C 
ATOM     55  C   UNL A   1      41.577  25.595  27.900  1.00  0.00     0.029 A 
ATOM     56  C   UNL A   1      42.986  25.845  27.615  1.00  0.00     0.049 A 
ATOM     57  H   UNL A   1      44.025  27.637  27.847  1.00  0.00     0.167 HD
ATOM     58  C   UNL A   1      46.020  31.529  28.145  1.00  0.00     0.037 A 
ATOM     59  C   UNL A   1      43.861  24.935  27.147  1.00  0.00     0.037 A 
ATOM     60  C   UNL A   1      47.044  30.608  27.728  1.00  0.00     0.049 A 
ATOM     61  C   UNL A   1      45.291  25.344  26.916  1.00  0.00     0.074 A 
ATOM     62  C   UNL A   1      48.389  30.856  27.517  1.00  0.00     0.029 A 
ATOM     63  N   UNL A   1      46.838  29.263  27.465  1.00  0.00    -0.354 N 
ATOM     64  N   UNL A   1      45.847  26.522  27.073  1.00  0.00    -0.248 NA
ATOM     65  C   UNL A   1      46.215  24.301  26.452  1.00  0.00     0.031 C 
ATOM     66  C   UNL A   1      48.991  29.663  27.098  1.00  0.00     0.029 A 
ATOM     67  C   UNL A   1      48.029  28.666  27.085  1.00  0.00     0.049 A 
ATOM     68  H   UNL A   1      45.972  28.798  27.538  1.00  0.00     0.167 HD
ATOM     69  C   UNL A   1      47.189  26.355  26.754  1.00  0.00     0.074 A 
ATOM     70  C   UNL A   1      47.365  24.961  26.404  1.00  0.00     0.031 C 
ATOM     71  C   UNL A   1      48.187  27.273  26.751  1.00  0.00     0.037 A 
BRANCH  58  72
ATOM     72  C   UNL A   1      46.387  32.974  28.338  1.00  0.00     0.058 A 
ATOM     73  C   UNL A   1      46.839  33.458  29.577  1.00  0.00     0.135 A 
ATOM     74  C   UNL A   1      46.304  33.882  27.271  1.00  0.00     0.135 A 
ATOM     75  F   UNL A   1      46.921  32.635  30.635  1.00  0.00    -0.206 F 
ATOM     76  C   UNL A   1      47.162  34.798  29.760  1.00  0.00     0.059 A 
ATOM     77  C   UNL A   1      46.648  35.222  27.424  1.00  0.00     0.059 A 
ATOM     78  F   UNL A   1      45.877  33.473  26.065  1.00  0.00    -0.206 F 
ATOM     79  C   UNL A   1      47.061  35.673  28.678  1.00  0.00     0.060 A 
BRANCH  79  80
ATOM     80  S   UNL A   1      47.484  37.410  28.930  1.00  0.00     0.124 S 
ATOM     81  O   UNL A   1      47.793  37.428  30.357  1.00  0.00    -0.237 OA
ATOM     82  O   UNL A   1      48.621  37.590  28.034  1.00  0.00    -0.237 OA
ATOM     83  O   UNL A   1      46.266  38.116  28.543  1.00  0.00    -0.744 OA
ENDBRANCH  79  80
ENDBRANCH  58  72
BRANCH  59  84
ATOM     84  C   UNL A   1      43.421  23.537  26.900  1.00  0.00     0.058 A 
ATOM     85  C   UNL A   1      43.310  23.039  25.593  1.00  0.00     0.135 A 
ATOM     86  C   UNL A   1      43.114  22.668  27.958  1.00  0.00     0.135 A 
ATOM     87  F   UNL A   1      43.589  23.834  24.548  1.00  0.00    -0.206 F 
ATOM     88  C   UNL A   1      42.896  21.735  25.341  1.00  0.00     0.059 A 
ATOM     89  C   UNL A   1      42.717  21.353  27.732  1.00  0.00     0.059 A 
ATOM     90  F   UNL A   1      43.220  23.091  29.227  1.00  0.00    -0.206 F 
ATOM     91  C   UNL A   1      42.603  20.899  26.420  1.00  0.00     0.060 A 
BRANCH  91  92
ATOM     92  S   UNL A   1      42.114  19.192  26.085  1.00  0.00     0.124 S 
ATOM     93  O   UNL A   1      42.894  18.893  24.889  1.00  0.00    -0.237 OA
ATOM     94  O   UNL A   1      42.527  18.508  27.306  1.00  0.00    -0.237 OA
ATOM     95  O   UNL A   1      40.671  19.291  25.890  1.00  0.00    -0.744 OA
ENDBRANCH  91  92
ENDBRANCH  59  84
BRANCH  71  96
ATOM     96  C   UNL A   1      49.564  26.794  26.393  1.00  0.00     0.058 A 
ATOM     97  C   UNL A   1      50.410  26.208  27.346  1.00  0.00     0.135 A 
ATOM     98  C   UNL A   1      50.022  26.877  25.068  1.00  0.00     0.135 A 
ATOM     99  F   UNL A   1      50.021  26.110  28.627  1.00  0.00    -0.206 F 
ATOM    100  C   UNL A   1      51.674  25.738  27.002  1.00  0.00     0.059 A 
ATOM    101  C   UNL A   1      51.272  26.394  24.697  1.00  0.00     0.059 A 
ATOM    102  F   UNL A   1      49.245  27.421  24.118  1.00  0.00    -0.206 F 
ATOM    103  C   UNL A   1      52.095  25.836  25.675  1.00  0.00     0.060 A 
BRANCH 103 104
ATOM    104  S   UNL A   1      53.725  25.194  25.232  1.00  0.00     0.124 S 
ATOM    105  O   UNL A   1      54.573  25.833  26.232  1.00  0.00    -0.237 OA
ATOM    106  O   UNL A   1      53.545  23.753  25.379  1.00  0.00    -0.237 OA
ATOM    107  O   UNL A   1      53.910  25.658  23.860  1.00  0.00    -0.744 OA
ENDBRANCH 103 104
ENDBRANCH  71  96
ENDBRANCH  45  46
ENDBRANCH  37  40
ENDBRANCH  35  36
ENDBRANCH  34  35
ENDBRANCH   1  34
TORSDOF 19
ENDMDL
MODEL 2
REMARK VINA RESULT:     -13.5      6.400     11.831
REMARK SMILES Cc1nc(-c2ccccc2)sc1C(=O)N[C@@H](CC1=c2ccccc2=NC1)C(=O)NCCCCNC(=O)c1ccc(-c2c3nc(c(-c4c(F)cc(S(=O)(=O)[O-])cc4F)c4ccc([nH]4)c(-c4c(F)cc(S(=O)(=O)[O-])cc4F)c4nc(c(-c5c(F)cc(S(=O)(=O)[O-])cc5F)c5ccc2[nH]5)C=C4)C=C3)cc1
REMARK SMILES IDX 31 1 30 2 29 3 27 4 28 5 16 7 15 8 13 9 14 10 12 12 1 13
REMARK SMILES IDX 2 14 3 15 4 16 11 17 5 18 6 19 10 20 7 21 9 22 8 23 17 24
REMARK SMILES IDX 18 25 19 26 26 27 20 28 24 29 25 30 21 31 23 32 22 33 32 34
REMARK SMILES IDX 33 35 34 36 35 37 36 39 37 40 38 41 102 42 39 43 101 44
REMARK SMILES IDX 40 45 41 46 42 47 95 48 43 49 100 50 94 51 96 52 44 53 99 54
REMARK SMILES IDX 93 55 92 56 45 58 79 59 58 60 78 61 59 62 62 63 77 64 97 65
REMARK SMILES IDX 60 66 61 67 76 69 98 70 63 71 46 72 47 73 56 74 48 75 49 76
REMARK SMILES IDX 55 77 57 78 50 79 51 80 52 81 53 82 54 83 80 84 81 85 90 86
REMARK SMILES IDX 82 87 83 88 89 89 91 90 84 91 85 92 86 93 87 94 88 95 64 96
REMARK SMILES IDX 65 97 74 98 66 99 67 100 73 101 75 102 68 103 69 104 70 105
REMARK SMILES IDX 71 106 72 107
REMARK H PARENT 29 6 15 11 34 38 96 57 62 68
REMARK Flexibility Score: inf
ROOT
ATOM      1  C   UNL A   1      37.402  22.485  24.725  1.00  0.00     0.023 C 
ENDROOT
BRANCH   1   2
ATOM      2  C   UNL A   1      36.017  21.867  24.646  1.00  0.00     0.116 C 
BRANCH   2   3
ATOM      3  N   UNL A   1      35.497  21.366  25.896  1.00  0.00    -0.354 N 
ATOM      4  C   UNL A   1      34.296  21.613  26.485  1.00  0.00     0.242 C 
ATOM      5  O   UNL A   1      33.863  20.745  27.253  1.00  0.00    -0.273 OA
ATOM      6  H   UNL A   1      36.095  20.762  26.391  1.00  0.00     0.163 HD
BRANCH   4   7
ATOM      7  C   UNL A   1      33.425  22.855  26.184  1.00  0.00     0.175 C 
BRANCH   7   8
ATOM      8  N   UNL A   1      32.122  22.883  26.827  1.00  0.00    -0.339 N 
ATOM      9  C   UNL A   1      30.930  23.496  26.554  1.00  0.00     0.263 C 
ATOM     10  O   UNL A   1      30.112  23.327  27.470  1.00  0.00    -0.268 OA
ATOM     11  H   UNL A   1      32.090  22.337  27.645  1.00  0.00     0.164 HD
BRANCH   9  12
ATOM     12  C   UNL A   1      30.596  24.249  25.345  1.00  0.00     0.115 A 
ATOM     13  C   UNL A   1      31.186  23.047  23.063  1.00  0.00     0.068 C 
ATOM     14  C   UNL A   1      30.654  24.105  23.957  1.00  0.00     0.062 A 
ATOM     15  N   UNL A   1      30.123  25.164  23.234  1.00  0.00    -0.241 NA
ATOM     16  C   UNL A   1      29.741  26.140  24.013  1.00  0.00     0.124 A 
ATOM     17  S   UNL A   1      29.939  25.852  25.673  1.00  0.00    -0.108 S 
BRANCH  16  18
ATOM     18  C   UNL A   1      29.169  27.378  23.499  1.00  0.00     0.010 A 
ATOM     19  C   UNL A   1      30.030  28.419  23.127  1.00  0.00     0.011 A 
ATOM     20  C   UNL A   1      27.785  27.600  23.503  1.00  0.00     0.011 A 
ATOM     21  C   UNL A   1      29.521  29.667  22.776  1.00  0.00     0.001 A 
ATOM     22  C   UNL A   1      27.277  28.854  23.159  1.00  0.00     0.001 A 
ATOM     23  C   UNL A   1      28.145  29.887  22.803  1.00  0.00     0.000 A 
ENDBRANCH  16  18
ENDBRANCH   9  12
ENDBRANCH   7   8
BRANCH   7  24
ATOM     24  C   UNL A   1      34.158  24.220  26.266  1.00  0.00     0.068 C 
BRANCH  24  25
ATOM     25  C   UNL A   1      33.870  25.246  25.213  1.00  0.00    -0.037 C 
ATOM     26  C   UNL A   1      33.515  26.524  25.343  1.00  0.00     0.001 A 
ATOM     27  C   UNL A   1      34.026  24.894  23.760  1.00  0.00     0.174 C 
ATOM     28  C   UNL A   1      33.231  27.396  26.437  1.00  0.00     0.010 A 
ATOM     29  C   UNL A   1      33.664  27.037  23.969  1.00  0.00     0.065 A 
ATOM     30  N   UNL A   1      33.935  26.180  23.034  1.00  0.00    -0.280 NA
ATOM     31  C   UNL A   1      33.195  28.721  26.215  1.00  0.00     0.001 A 
ATOM     32  C   UNL A   1      33.604  28.505  23.802  1.00  0.00     0.028 A 
ATOM     33  C   UNL A   1      33.415  29.273  24.888  1.00  0.00     0.002 A 
ENDBRANCH  24  25
ENDBRANCH   7  24
ENDBRANCH   4   7
ENDBRANCH   2   3
ENDBRANCH   1   2
BRANCH   1  34
ATOM     34  C   UNL A   1      37.915  22.751  26.136  1.00  0.00     0.023 C 
BRANCH  34  35
ATOM     35  C   UNL A   1      38.686  24.054  26.330  1.00  0.00     0.116 C 
BRANCH  35  36
ATOM     36  N   UNL A   1      40.125  23.917  26.148  1.00  0.00    -0.352 N 
ATOM     37  C   UNL A   1      41.136  24.726  26.619  1.00  0.00     0.251 C 
ATOM     38  H   UNL A   1      40.415  23.141  25.617  1.00  0.00     0.163 HD
ATOM     39  O   UNL A   1      42.296  24.543  26.274  1.00  0.00    -0.269 OA
BRANCH  37  40
ATOM     40  C   UNL A   1      40.786  25.846  27.519  1.00  0.00     0.039 A 
ATOM     41  C   UNL A   1      39.780  25.665  28.469  1.00  0.00     0.014 A 
ATOM     42  C   UNL A   1      41.520  27.033  27.476  1.00  0.00     0.014 A 
ATOM     43  C   UNL A   1      39.578  26.643  29.446  1.00  0.00     0.010 A 
ATOM     44  C   UNL A   1      41.377  27.963  28.499  1.00  0.00     0.010 A 
ATOM     45  C   UNL A   1      40.412  27.774  29.500  1.00  0.00    -0.014 A 
BRANCH  45  46
ATOM     46  C   UNL A   1      40.304  28.763  30.604  1.00  0.00     0.031 A 
ATOM     47  C   UNL A   1      41.168  28.621  31.826  1.00  0.00     0.074 A 
ATOM     48  C   UNL A   1      39.371  29.735  30.543  1.00  0.00     0.049 A 
ATOM     49  N   UNL A   1      41.160  29.324  32.929  1.00  0.00    -0.248 NA
ATOM     50  C   UNL A   1      42.145  27.521  31.823  1.00  0.00     0.031 C 
ATOM     51  C   UNL A   1      38.425  29.938  29.443  1.00  0.00     0.029 A 
ATOM     52  N   UNL A   1      39.055  30.731  31.434  1.00  0.00    -0.354 N 
ATOM     53  C   UNL A   1      42.110  28.739  33.757  1.00  0.00     0.074 A 
ATOM     54  C   UNL A   1      42.637  27.591  33.051  1.00  0.00     0.031 C 
ATOM     55  C   UNL A   1      37.654  31.004  29.712  1.00  0.00     0.029 A 
ATOM     56  C   UNL A   1      38.027  31.544  31.016  1.00  0.00     0.049 A 
ATOM     57  H   UNL A   1      39.522  30.852  32.292  1.00  0.00     0.167 HD
ATOM     58  C   UNL A   1      42.527  29.136  34.982  1.00  0.00     0.037 A 
ATOM     59  C   UNL A   1      37.449  32.602  31.616  1.00  0.00     0.037 A 
ATOM     60  C   UNL A   1      42.032  30.303  35.662  1.00  0.00     0.049 A 
ATOM     61  C   UNL A   1      37.956  33.049  32.961  1.00  0.00     0.074 A 
ATOM     62  C   UNL A   1      42.438  30.830  36.875  1.00  0.00     0.029 A 
ATOM     63  N   UNL A   1      41.025  31.129  35.184  1.00  0.00    -0.354 N 
ATOM     64  N   UNL A   1      38.902  32.522  33.701  1.00  0.00    -0.248 NA
ATOM     65  C   UNL A   1      37.325  34.238  33.548  1.00  0.00     0.031 C 
ATOM     66  C   UNL A   1      41.657  31.960  37.144  1.00  0.00     0.029 A 
ATOM     67  C   UNL A   1      40.790  32.157  36.081  1.00  0.00     0.049 A 
ATOM     68  H   UNL A   1      40.548  31.003  34.331  1.00  0.00     0.167 HD
ATOM     69  C   UNL A   1      38.998  33.330  34.828  1.00  0.00     0.074 A 
ATOM     70  C   UNL A   1      38.021  34.387  34.668  1.00  0.00     0.031 C 
ATOM     71  C   UNL A   1      39.820  33.208  35.899  1.00  0.00     0.037 A 
BRANCH  58  72
ATOM     72  C   UNL A   1      43.586  28.307  35.656  1.00  0.00     0.058 A 
ATOM     73  C   UNL A   1      44.952  28.526  35.415  1.00  0.00     0.135 A 
ATOM     74  C   UNL A   1      43.234  27.296  36.563  1.00  0.00     0.135 A 
ATOM     75  F   UNL A   1      45.343  29.469  34.543  1.00  0.00    -0.206 F 
ATOM     76  C   UNL A   1      45.931  27.748  36.024  1.00  0.00     0.059 A 
ATOM     77  C   UNL A   1      44.197  26.523  37.205  1.00  0.00     0.059 A 
ATOM     78  F   UNL A   1      41.942  27.044  36.828  1.00  0.00    -0.206 F 
ATOM     79  C   UNL A   1      45.543  26.747  36.916  1.00  0.00     0.060 A 
BRANCH  79  80
ATOM     80  S   UNL A   1      46.825  25.746  37.699  1.00  0.00     0.124 S 
ATOM     81  O   UNL A   1      46.127  25.258  38.884  1.00  0.00    -0.237 OA
ATOM     82  O   UNL A   1      47.111  24.745  36.676  1.00  0.00    -0.237 OA
ATOM     83  O   UNL A   1      47.897  26.703  37.951  1.00  0.00    -0.744 OA
ENDBRANCH  79  80
ENDBRANCH  58  72
BRANCH  59  84
ATOM     84  C   UNL A   1      36.351  33.336  30.935  1.00  0.00     0.058 A 
ATOM     85  C   UNL A   1      36.613  34.144  29.818  1.00  0.00     0.135 A 
ATOM     86  C   UNL A   1      35.022  33.239  31.373  1.00  0.00     0.135 A 
ATOM     87  F   UNL A   1      37.869  34.273  29.364  1.00  0.00    -0.206 F 
ATOM     88  C   UNL A   1      35.599  34.843  29.168  1.00  0.00     0.059 A 
ATOM     89  C   UNL A   1      33.988  33.911  30.728  1.00  0.00     0.059 A 
ATOM     90  F   UNL A   1      34.717  32.465  32.427  1.00  0.00    -0.206 F 
ATOM     91  C   UNL A   1      34.289  34.718  29.632  1.00  0.00     0.060 A 
BRANCH  91  92
ATOM     92  S   UNL A   1      32.972  35.588  28.752  1.00  0.00     0.124 S 
ATOM     93  O   UNL A   1      32.387  34.513  27.960  1.00  0.00    -0.237 OA
ATOM     94  O   UNL A   1      32.151  36.095  29.848  1.00  0.00    -0.237 OA
ATOM     95  O   UNL A   1      33.693  36.609  27.999  1.00  0.00    -0.744 OA
ENDBRANCH  91  92
ENDBRANCH  59  84
BRANCH  71  96
ATOM     96  C   UNL A   1      39.726  34.261  36.964  1.00  0.00     0.058 A 
ATOM     97  C   UNL A   1      38.998  34.051  38.145  1.00  0.00     0.135 A 
ATOM     98  C   UNL A   1      40.414  35.477  36.823  1.00  0.00     0.135 A 
ATOM     99  F   UNL A   1      38.318  32.908  38.326  1.00  0.00    -0.206 F 
ATOM    100  C   UNL A   1      38.938  35.019  39.142  1.00  0.00     0.059 A 
ATOM    101  C   UNL A   1      40.387  36.450  37.817  1.00  0.00     0.059 A 
ATOM    102  F   UNL A   1      41.133  35.722  35.716  1.00  0.00    -0.206 F 
ATOM    103  C   UNL A   1      39.636  36.215  38.968  1.00  0.00     0.060 A 
BRANCH 103 104
ATOM    104  S   UNL A   1      39.579  37.453  40.282  1.00  0.00     0.124 S 
ATOM    105  O   UNL A   1      38.785  36.768  41.296  1.00  0.00    -0.237 OA
ATOM    106  O   UNL A   1      40.991  37.638  40.601  1.00  0.00    -0.237 OA
ATOM    107  O   UNL A   1      38.934  38.596  39.644  1.00  0.00    -0.744 OA
ENDBRANCH 103 104
ENDBRANCH  71  96
ENDBRANCH  45  46
ENDBRANCH  37  40
ENDBRANCH  35  36
ENDBRANCH  34  35
ENDBRANCH   1  34
TORSDOF 19
ENDMDL
MODEL 3
REMARK VINA RESULT:     -13.4      1.981      8.680
REMARK SMILES Cc1nc(-c2ccccc2)sc1C(=O)N[C@@H](CC1=c2ccccc2=NC1)C(=O)NCCCCNC(=O)c1ccc(-c2c3nc(c(-c4c(F)cc(S(=O)(=O)[O-])cc4F)c4ccc([nH]4)c(-c4c(F)cc(S(=O)(=O)[O-])cc4F)c4nc(c(-c5c(F)cc(S(=O)(=O)[O-])cc5F)c5ccc2[nH]5)C=C4)C=C3)cc1
REMARK SMILES IDX 31 1 30 2 29 3 27 4 28 5 16 7 15 8 13 9 14 10 12 12 1 13
REMARK SMILES IDX 2 14 3 15 4 16 11 17 5 18 6 19 10 20 7 21 9 22 8 23 17 24
REMARK SMILES IDX 18 25 19 26 26 27 20 28 24 29 25 30 21 31 23 32 22 33 32 34
REMARK SMILES IDX 33 35 34 36 35 37 36 39 37 40 38 41 102 42 39 43 101 44
REMARK SMILES IDX 40 45 41 46 42 47 95 48 43 49 100 50 94 51 96 52 44 53 99 54
REMARK SMILES IDX 93 55 92 56 45 58 79 59 58 60 78 61 59 62 62 63 77 64 97 65
REMARK SMILES IDX 60 66 61 67 76 69 98 70 63 71 46 72 47 73 56 74 48 75 49 76
REMARK SMILES IDX 55 77 57 78 50 79 51 80 52 81 53 82 54 83 80 84 81 85 90 86
REMARK SMILES IDX 82 87 83 88 89 89 91 90 84 91 85 92 86 93 87 94 88 95 64 96
REMARK SMILES IDX 65 97 74 98 66 99 67 100 73 101 75 102 68 103 69 104 70 105
REMARK SMILES IDX 71 106 72 107
REMARK H PARENT 29 6 15 11 34 38 96 57 62 68
REMARK Flexibility Score: inf
ROOT
ATOM      1  C   UNL A   1      32.515  28.835  27.294  1.00  0.00     0.023 C 
ENDROOT
BRANCH   1   2
ATOM      2  C   UNL A   1      31.751  28.071  26.227  1.00  0.00     0.116 C 
BRANCH   2   3
ATOM      3  N   UNL A   1      30.882  27.030  26.722  1.00  0.00    -0.354 N 
ATOM      4  C   UNL A   1      30.401  25.935  26.075  1.00  0.00     0.242 C 
ATOM      5  O   UNL A   1      30.105  24.959  26.777  1.00  0.00    -0.273 OA
ATOM      6  H   UNL A   1      30.597  27.128  27.660  1.00  0.00     0.163 HD
BRANCH   4   7
ATOM      7  C   UNL A   1      30.288  25.819  24.538  1.00  0.00     0.175 C 
BRANCH   7   8
ATOM      8  N   UNL A   1      30.478  24.487  23.989  1.00  0.00    -0.339 N 
ATOM      9  C   UNL A   1      31.570  23.712  23.708  1.00  0.00     0.263 C 
ATOM     10  O   UNL A   1      31.246  22.669  23.120  1.00  0.00    -0.268 OA
ATOM     11  H   UNL A   1      29.629  24.041  23.769  1.00  0.00     0.164 HD
BRANCH   9  12
ATOM     12  C   UNL A   1      32.960  24.009  24.051  1.00  0.00     0.115 A 
ATOM     13  C   UNL A   1      33.716  26.512  23.644  1.00  0.00     0.068 C 
ATOM     14  C   UNL A   1      33.839  25.094  24.067  1.00  0.00     0.062 A 
ATOM     15  N   UNL A   1      35.105  24.819  24.564  1.00  0.00    -0.241 NA
ATOM     16  C   UNL A   1      35.249  23.552  24.848  1.00  0.00     0.124 A 
ATOM     17  S   UNL A   1      33.870  22.599  24.591  1.00  0.00    -0.108 S 
BRANCH  16  18
ATOM     18  C   UNL A   1      36.494  23.000  25.365  1.00  0.00     0.010 A 
ATOM     19  C   UNL A   1      37.341  23.827  26.116  1.00  0.00     0.011 A 
ATOM     20  C   UNL A   1      36.927  21.716  25.010  1.00  0.00     0.011 A 
ATOM     21  C   UNL A   1      38.606  23.385  26.498  1.00  0.00     0.001 A 
ATOM     22  C   UNL A   1      38.199  21.277  25.386  1.00  0.00     0.001 A 
ATOM     23  C   UNL A   1      39.038  22.113  26.123  1.00  0.00     0.000 A 
ENDBRANCH  16  18
ENDBRANCH   9  12
ENDBRANCH   7   8
BRANCH   7  24
ATOM     24  C   UNL A   1      29.084  26.559  23.899  1.00  0.00     0.068 C 
BRANCH  24  25
ATOM     25  C   UNL A   1      29.349  27.816  23.127  1.00  0.00    -0.037 C 
ATOM     26  C   UNL A   1      28.621  28.929  23.035  1.00  0.00     0.001 A 
ATOM     27  C   UNL A   1      30.624  27.961  22.345  1.00  0.00     0.174 C 
ATOM     28  C   UNL A   1      27.362  29.368  23.545  1.00  0.00     0.010 A 
ATOM     29  C   UNL A   1      29.550  29.862  22.371  1.00  0.00     0.065 A 
ATOM     30  N   UNL A   1      30.680  29.386  21.949  1.00  0.00    -0.280 NA
ATOM     31  C   UNL A   1      27.067  30.678  23.498  1.00  0.00     0.001 A 
ATOM     32  C   UNL A   1      29.154  31.286  22.352  1.00  0.00     0.028 A 
ATOM     33  C   UNL A   1      27.991  31.642  22.923  1.00  0.00     0.002 A 
ENDBRANCH  24  25
ENDBRANCH   7  24
ENDBRANCH   4   7
ENDBRANCH   2   3
ENDBRANCH   1   2
BRANCH   1  34
ATOM     34  C   UNL A   1      33.803  29.501  26.821  1.00  0.00     0.023 C 
BRANCH  34  35
ATOM     35  C   UNL A   1      35.049  29.207  27.653  1.00  0.00     0.116 C 
BRANCH  35  36
ATOM     36  N   UNL A   1      35.173  30.045  28.838  1.00  0.00    -0.352 N 
ATOM     37  C   UNL A   1      36.281  30.267  29.627  1.00  0.00     0.251 C 
ATOM     38  H   UNL A   1      34.354  30.516  29.114  1.00  0.00     0.163 HD
ATOM     39  O   UNL A   1      36.191  30.906  30.667  1.00  0.00    -0.269 OA
BRANCH  37  40
ATOM     40  C   UNL A   1      37.574  29.686  29.209  1.00  0.00     0.039 A 
ATOM     41  C   UNL A   1      37.958  29.769  27.870  1.00  0.00     0.014 A 
ATOM     42  C   UNL A   1      38.439  29.146  30.165  1.00  0.00     0.014 A 
ATOM     43  C   UNL A   1      39.254  29.401  27.505  1.00  0.00     0.010 A 
ATOM     44  C   UNL A   1      39.754  28.862  29.815  1.00  0.00     0.010 A 
ATOM     45  C   UNL A   1      40.178  28.995  28.484  1.00  0.00    -0.014 A 
BRANCH  45  46
ATOM     46  C   UNL A   1      41.599  28.722  28.143  1.00  0.00     0.031 A 
ATOM     47  C   UNL A   1      42.028  27.328  27.778  1.00  0.00     0.074 A 
ATOM     48  C   UNL A   1      42.513  29.708  28.245  1.00  0.00     0.049 A 
ATOM     49  N   UNL A   1      43.230  26.871  27.536  1.00  0.00    -0.248 NA
ATOM     50  C   UNL A   1      40.973  26.305  27.710  1.00  0.00     0.031 C 
ATOM     51  C   UNL A   1      42.235  31.087  28.657  1.00  0.00     0.029 A 
ATOM     52  N   UNL A   1      43.868  29.700  28.022  1.00  0.00    -0.354 N 
ATOM     53  C   UNL A   1      43.078  25.508  27.313  1.00  0.00     0.074 A 
ATOM     54  C   UNL A   1      41.676  25.202  27.500  1.00  0.00     0.031 C 
ATOM     55  C   UNL A   1      43.376  31.794  28.632  1.00  0.00     0.029 A 
ATOM     56  C   UNL A   1      44.473  30.917  28.236  1.00  0.00     0.049 A 
ATOM     57  H   UNL A   1      44.361  28.897  27.737  1.00  0.00     0.167 HD
ATOM     58  C   UNL A   1      44.014  24.597  26.956  1.00  0.00     0.037 A 
ATOM     59  C   UNL A   1      45.764  31.283  28.125  1.00  0.00     0.037 A 
ATOM     60  C   UNL A   1      45.399  24.914  26.729  1.00  0.00     0.049 A 
ATOM     61  C   UNL A   1      46.781  30.263  27.690  1.00  0.00     0.074 A 
ATOM     62  C   UNL A   1      46.414  24.077  26.299  1.00  0.00     0.029 A 
ATOM     63  N   UNL A   1      45.963  26.168  26.907  1.00  0.00    -0.354 N 
ATOM     64  N   UNL A   1      46.607  28.992  27.418  1.00  0.00    -0.248 NA
ATOM     65  C   UNL A   1      48.166  30.728  27.537  1.00  0.00     0.031 C 
ATOM     66  C   UNL A   1      47.599  24.821  26.244  1.00  0.00     0.029 A 
ATOM     67  C   UNL A   1      47.313  26.128  26.604  1.00  0.00     0.049 A 
ATOM     68  H   UNL A   1      45.475  26.970  27.205  1.00  0.00     0.167 HD
ATOM     69  C   UNL A   1      47.855  28.511  27.036  1.00  0.00     0.074 A 
ATOM     70  C   UNL A   1      48.772  29.630  27.103  1.00  0.00     0.031 C 
ATOM     71  C   UNL A   1      48.209  27.256  26.665  1.00  0.00     0.037 A 
BRANCH  58  72
ATOM     72  C   UNL A   1      43.563  23.175  26.774  1.00  0.00     0.058 A 
ATOM     73  C   UNL A   1      43.402  22.614  25.496  1.00  0.00     0.135 A 
ATOM     74  C   UNL A   1      43.303  22.358  27.885  1.00  0.00     0.135 A 
ATOM     75  F   UNL A   1      43.620  23.357  24.399  1.00  0.00    -0.206 F 
ATOM     76  C   UNL A   1      42.968  21.304  25.327  1.00  0.00     0.059 A 
ATOM     77  C   UNL A   1      42.894  21.035  27.740  1.00  0.00     0.059 A 
ATOM     78  F   UNL A   1      43.440  22.844  29.130  1.00  0.00    -0.206 F 
ATOM     79  C   UNL A   1      42.713  20.523  26.455  1.00  0.00     0.060 A 
BRANCH  79  80
ATOM     80  S   UNL A   1      42.150  18.825  26.219  1.00  0.00     0.124 S 
ATOM     81  O   UNL A   1      40.783  19.035  25.753  1.00  0.00    -0.237 OA
ATOM     82  O   UNL A   1      43.088  18.318  25.223  1.00  0.00    -0.237 OA
ATOM     83  O   UNL A   1      42.277  18.237  27.550  1.00  0.00    -0.744 OA
ENDBRANCH  79  80
ENDBRANCH  58  72
BRANCH  59  84
ATOM     84  C   UNL A   1      46.164  32.689  28.395  1.00  0.00     0.058 A 
ATOM     85  C   UNL A   1      46.154  33.648  27.371  1.00  0.00     0.135 A 
ATOM     86  C   UNL A   1      46.553  33.107  29.677  1.00  0.00     0.135 A 
ATOM     87  F   UNL A   1      45.794  33.296  26.127  1.00  0.00    -0.206 F 
ATOM     88  C   UNL A   1      46.528  34.968  27.602  1.00  0.00     0.059 A 
ATOM     89  C   UNL A   1      46.912  34.426  29.938  1.00  0.00     0.059 A 
ATOM     90  F   UNL A   1      46.563  32.232  30.695  1.00  0.00    -0.206 F 
ATOM     91  C   UNL A   1      46.906  35.347  28.892  1.00  0.00     0.060 A 
BRANCH  91  92
ATOM     92  S   UNL A   1      47.343  37.074  29.195  1.00  0.00     0.124 S 
ATOM     93  O   UNL A   1      46.254  37.505  30.064  1.00  0.00    -0.237 OA
ATOM     94  O   UNL A   1      48.654  36.955  29.824  1.00  0.00    -0.237 OA
ATOM     95  O   UNL A   1      47.351  37.655  27.856  1.00  0.00    -0.744 OA
ENDBRANCH  91  92
ENDBRANCH  59  84
BRANCH  71  96
ATOM     96  C   UNL A   1      49.639  27.033  26.267  1.00  0.00     0.058 A 
ATOM     97  C   UNL A   1      50.601  26.598  27.190  1.00  0.00     0.135 A 
ATOM     98  C   UNL A   1      50.040  27.209  24.932  1.00  0.00     0.135 A 
ATOM     99  F   UNL A   1      50.270  26.420  28.479  1.00  0.00    -0.206 F 
ATOM    100  C   UNL A   1      51.919  26.364  26.810  1.00  0.00     0.059 A 
ATOM    101  C   UNL A   1      51.347  26.959  24.525  1.00  0.00     0.059 A 
ATOM    102  F   UNL A   1      49.154  27.614  24.009  1.00  0.00    -0.206 F 
ATOM    103  C   UNL A   1      52.281  26.548  25.475  1.00  0.00     0.060 A 
BRANCH 103 104
ATOM    104  S   UNL A   1      53.986  26.211  24.983  1.00  0.00     0.124 S 
ATOM    105  O   UNL A   1      53.827  25.908  23.565  1.00  0.00    -0.237 OA
ATOM    106  O   UNL A   1      54.656  27.470  25.291  1.00  0.00    -0.237 OA
ATOM    107  O   UNL A   1      54.366  25.084  25.828  1.00  0.00    -0.744 OA
ENDBRANCH 103 104
ENDBRANCH  71  96
ENDBRANCH  45  46
ENDBRANCH  37  40
ENDBRANCH  35  36
ENDBRANCH  34  35
ENDBRANCH   1  34
TORSDOF 19
ENDMDL
