MODEL 1
REMARK VINA RESULT:     -11.8      0.000      0.000
REMARK SMILES CC1(C)CCN(S(=O)(=O)c2ccc(O)c(C(=O)NCCCCNC(=O)c3ccc(-c4c5nc(c(-c6c(F)cc(S(=O)(=O)[O-])cc6F)c6ccc([nH]6)c(-c6c(F)cc(S(=O)(=O)[O-])cc6F)c6nc(c(-c7c(F)cc(S(=O)(=O)[O-])cc7F)c7ccc4[nH]7)C=C6)C=C5)cc3)c2)C1
REMARK SMILES IDX 21 1 20 2 19 3 18 4 16 5 17 6 15 8 10 9 11 10 92 11 12 12
REMARK SMILES IDX 13 13 7 14 8 15 9 16 6 17 1 18 2 19 3 20 4 21 93 22 5 23
REMARK SMILES IDX 14 24 22 26 23 27 24 28 25 30 26 31 27 32 91 33 28 34 90 35
REMARK SMILES IDX 29 36 30 37 31 38 84 39 32 40 89 41 83 42 85 43 33 44 88 45
REMARK SMILES IDX 82 46 81 47 34 49 68 50 47 51 67 52 48 53 51 54 66 55 86 56
REMARK SMILES IDX 49 57 50 58 65 60 87 61 52 62 35 63 36 64 45 65 37 66 38 67
REMARK SMILES IDX 44 68 46 69 39 70 40 71 41 72 42 73 43 74 69 75 70 76 79 77
REMARK SMILES IDX 71 78 72 79 78 80 80 81 73 82 74 83 75 84 76 85 77 86 53 87
REMARK SMILES IDX 54 88 63 89 55 90 56 91 62 92 64 93 57 94 58 95 59 96 60 97
REMARK SMILES IDX 61 98
REMARK H PARENT 18 7 14 25 23 29 85 48 51 59
REMARK Flexibility Score: inf
ROOT
ATOM      1  C   UNL A   1      32.485  28.115  26.249  1.00  0.00     0.023 C 
ENDROOT
BRANCH   1   2
ATOM      2  C   UNL A   1      32.376  28.966  24.987  1.00  0.00     0.023 C 
BRANCH   2   3
ATOM      3  C   UNL A   1      31.124  29.847  24.895  1.00  0.00     0.116 C 
BRANCH   3   4
ATOM      4  N   UNL A   1      30.630  29.906  23.538  1.00  0.00    -0.352 N 
ATOM      5  C   UNL A   1      30.266  28.951  22.626  1.00  0.00     0.255 C 
ATOM      6  O   UNL A   1      29.871  29.392  21.540  1.00  0.00    -0.269 OA
ATOM      7  H   UNL A   1      30.535  30.825  23.198  1.00  0.00     0.163 HD
BRANCH   5   8
ATOM      8  C   UNL A   1      30.279  27.457  22.809  1.00  0.00     0.082 A 
ATOM      9  C   UNL A   1      31.741  25.485  22.678  1.00  0.00     0.083 A 
ATOM     10  C   UNL A   1      30.773  24.710  23.309  1.00  0.00     0.025 A 
ATOM     11  C   UNL A   1      31.499  26.841  22.430  1.00  0.00     0.039 A 
ATOM     12  C   UNL A   1      29.548  25.272  23.634  1.00  0.00     0.048 A 
ATOM     13  C   UNL A   1      29.307  26.633  23.402  1.00  0.00     0.128 A 
BRANCH   9  14
ATOM     14  S   UNL A   1      33.347  24.782  22.380  1.00  0.00     0.243 S 
ATOM     15  O   UNL A   1      34.272  25.889  22.201  1.00  0.00    -0.207 OA
ATOM     16  O   UNL A   1      33.224  23.752  21.379  1.00  0.00    -0.207 OA
BRANCH  14  17
ATOM     17  N   UNL A   1      33.761  24.015  23.850  1.00  0.00    -0.197 NA
ATOM     18  C   UNL A   1      34.948  23.007  26.610  1.00  0.00     0.012 C 
ATOM     19  C   UNL A   1      35.612  23.460  25.302  1.00  0.00    -0.020 C 
ATOM     20  C   UNL A   1      37.070  23.840  25.579  1.00  0.00     0.012 C 
ATOM     21  C   UNL A   1      35.499  22.397  24.210  1.00  0.00     0.024 C 
ATOM     22  C   UNL A   1      34.854  24.627  24.659  1.00  0.00     0.109 C 
ATOM     23  C   UNL A   1      34.076  22.562  23.689  1.00  0.00     0.103 C 
ENDBRANCH  14  17
ENDBRANCH   9  14
BRANCH  13  24
ATOM     24  O   UNL A   1      28.106  27.090  23.844  1.00  0.00    -0.507 OA
ATOM     25  H   UNL A   1      27.916  27.095  24.761  1.00  0.00     0.293 HD
ENDBRANCH  13  24
ENDBRANCH   5   8
ENDBRANCH   3   4
ENDBRANCH   2   3
ENDBRANCH   1   2
BRANCH   1  26
ATOM     26  C   UNL A   1      33.577  28.549  27.216  1.00  0.00     0.116 C 
BRANCH  26  27
ATOM     27  N   UNL A   1      33.456  29.934  27.654  1.00  0.00    -0.352 N 
ATOM     28  C   UNL A   1      34.419  30.721  28.241  1.00  0.00     0.251 C 
ATOM     29  H   UNL A   1      32.578  30.357  27.513  1.00  0.00     0.163 HD
ATOM     30  O   UNL A   1      34.149  31.851  28.633  1.00  0.00    -0.269 OA
BRANCH  28  31
ATOM     31  C   UNL A   1      35.769  30.157  28.435  1.00  0.00     0.039 A 
ATOM     32  C   UNL A   1      36.676  30.200  27.374  1.00  0.00     0.014 A 
ATOM     33  C   UNL A   1      36.156  29.661  29.682  1.00  0.00     0.014 A 
ATOM     34  C   UNL A   1      38.000  29.813  27.587  1.00  0.00     0.010 A 
ATOM     35  C   UNL A   1      37.489  29.344  29.912  1.00  0.00     0.010 A 
ATOM     36  C   UNL A   1      38.424  29.421  28.867  1.00  0.00    -0.014 A 
BRANCH  36  37
ATOM     37  C   UNL A   1      39.841  29.079  29.142  1.00  0.00     0.031 A 
ATOM     38  C   UNL A   1      40.757  30.117  29.727  1.00  0.00     0.074 A 
ATOM     39  C   UNL A   1      40.315  27.867  28.795  1.00  0.00     0.049 A 
ATOM     40  N   UNL A   1      42.044  30.053  29.947  1.00  0.00    -0.248 NA
ATOM     41  C   UNL A   1      40.151  31.411  30.080  1.00  0.00     0.031 C 
ATOM     42  C   UNL A   1      39.534  26.796  28.171  1.00  0.00     0.029 A 
ATOM     43  N   UNL A   1      41.575  27.335  28.902  1.00  0.00    -0.354 N 
ATOM     44  C   UNL A   1      42.405  31.299  30.443  1.00  0.00     0.074 A 
ATOM     45  C   UNL A   1      41.211  32.116  30.448  1.00  0.00     0.031 C 
ATOM     46  C   UNL A   1      40.328  25.732  27.968  1.00  0.00     0.029 A 
ATOM     47  C   UNL A   1      41.679  26.054  28.415  1.00  0.00     0.049 A 
ATOM     48  H   UNL A   1      42.335  27.826  29.292  1.00  0.00     0.167 HD
ATOM     49  C   UNL A   1      43.617  31.717  30.878  1.00  0.00     0.037 A 
ATOM     50  C   UNL A   1      42.746  25.235  28.333  1.00  0.00     0.037 A 
ATOM     51  C   UNL A   1      44.791  30.886  30.906  1.00  0.00     0.049 A 
ATOM     52  C   UNL A   1      44.076  25.714  28.848  1.00  0.00     0.074 A 
ATOM     53  C   UNL A   1      46.054  31.196  31.379  1.00  0.00     0.029 A 
ATOM     54  N   UNL A   1      44.844  29.578  30.448  1.00  0.00    -0.354 N 
ATOM     55  N   UNL A   1      44.388  26.878  29.365  1.00  0.00    -0.248 NA
ATOM     56  C   UNL A   1      45.197  24.767  28.775  1.00  0.00     0.031 C 
ATOM     57  C   UNL A   1      46.878  30.083  31.184  1.00  0.00     0.029 A 
ATOM     58  C   UNL A   1      46.120  29.069  30.621  1.00  0.00     0.049 A 
ATOM     59  H   UNL A   1      44.087  29.085  30.057  1.00  0.00     0.167 HD
ATOM     60  C   UNL A   1      45.734  26.794  29.706  1.00  0.00     0.074 A 
ATOM     61  C   UNL A   1      46.174  25.463  29.343  1.00  0.00     0.031 C 
ATOM     62  C   UNL A   1      46.531  27.733  30.270  1.00  0.00     0.037 A 
BRANCH  49  63
ATOM     63  C   UNL A   1      43.726  33.131  31.372  1.00  0.00     0.058 A 
ATOM     64  C   UNL A   1      43.451  33.464  32.708  1.00  0.00     0.135 A 
ATOM     65  C   UNL A   1      44.134  34.162  30.511  1.00  0.00     0.135 A 
ATOM     66  F   UNL A   1      43.040  32.520  33.569  1.00  0.00    -0.206 F 
ATOM     67  C   UNL A   1      43.550  34.774  33.166  1.00  0.00     0.059 A 
ATOM     68  C   UNL A   1      44.263  35.475  30.954  1.00  0.00     0.059 A 
ATOM     69  F   UNL A   1      44.406  33.898  29.223  1.00  0.00    -0.206 F 
ATOM     70  C   UNL A   1      43.955  35.772  32.280  1.00  0.00     0.060 A 
BRANCH  70  71
ATOM     71  S   UNL A   1      44.081  37.467  32.890  1.00  0.00     0.124 S 
ATOM     72  O   UNL A   1      43.083  37.467  33.955  1.00  0.00    -0.237 OA
ATOM     73  O   UNL A   1      45.472  37.541  33.326  1.00  0.00    -0.237 OA
ATOM     74  O   UNL A   1      43.751  38.275  31.720  1.00  0.00    -0.744 OA
ENDBRANCH  70  71
ENDBRANCH  49  63
BRANCH  50  75
ATOM     75  C   UNL A   1      42.595  23.868  27.769  1.00  0.00     0.058 A 
ATOM     76  C   UNL A   1      42.465  22.754  28.611  1.00  0.00     0.135 A 
ATOM     77  C   UNL A   1      42.570  23.648  26.383  1.00  0.00     0.135 A 
ATOM     78  F   UNL A   1      42.487  22.915  29.942  1.00  0.00    -0.206 F 
ATOM     79  C   UNL A   1      42.337  21.466  28.102  1.00  0.00     0.059 A 
ATOM     80  C   UNL A   1      42.421  22.371  25.849  1.00  0.00     0.059 A 
ATOM     81  F   UNL A   1      42.673  24.683  25.536  1.00  0.00    -0.206 F 
ATOM     82  C   UNL A   1      42.317  21.285  26.717  1.00  0.00     0.060 A 
BRANCH  82  83
ATOM     83  S   UNL A   1      42.110  19.613  26.065  1.00  0.00     0.124 S 
ATOM     84  O   UNL A   1      40.685  19.593  25.759  1.00  0.00    -0.237 OA
ATOM     85  O   UNL A   1      43.010  19.616  24.916  1.00  0.00    -0.237 OA
ATOM     86  O   UNL A   1      42.531  18.767  27.178  1.00  0.00    -0.744 OA
ENDBRANCH  82  83
ENDBRANCH  50  75
BRANCH  62  87
ATOM     87  C   UNL A   1      47.951  27.346  30.568  1.00  0.00     0.058 A 
ATOM     88  C   UNL A   1      48.305  26.718  31.771  1.00  0.00     0.135 A 
ATOM     89  C   UNL A   1      48.957  27.549  29.610  1.00  0.00     0.135 A 
ATOM     90  F   UNL A   1      47.380  26.507  32.721  1.00  0.00    -0.206 F 
ATOM     91  C   UNL A   1      49.613  26.316  32.022  1.00  0.00     0.059 A 
ATOM     92  C   UNL A   1      50.266  27.137  29.830  1.00  0.00     0.059 A 
ATOM     93  F   UNL A   1      48.666  28.139  28.439  1.00  0.00    -0.206 F 
ATOM     94  C   UNL A   1      50.587  26.528  31.043  1.00  0.00     0.060 A 
BRANCH  94  95
ATOM     95  S   UNL A   1      52.272  25.962  31.359  1.00  0.00     0.124 S 
ATOM     96  O   UNL A   1      52.036  24.625  31.893  1.00  0.00    -0.237 OA
ATOM     97  O   UNL A   1      52.876  26.016  30.031  1.00  0.00    -0.237 OA
ATOM     98  O   UNL A   1      52.785  26.939  32.313  1.00  0.00    -0.744 OA
ENDBRANCH  94  95
ENDBRANCH  62  87
ENDBRANCH  36  37
ENDBRANCH  28  31
ENDBRANCH  26  27
ENDBRANCH   1  26
TORSDOF 17
ENDMDL
MODEL 2
REMARK VINA RESULT:     -11.7      1.233      2.100
REMARK SMILES CC1(C)CCN(S(=O)(=O)c2ccc(O)c(C(=O)NCCCCNC(=O)c3ccc(-c4c5nc(c(-c6c(F)cc(S(=O)(=O)[O-])cc6F)c6ccc([nH]6)c(-c6c(F)cc(S(=O)(=O)[O-])cc6F)c6nc(c(-c7c(F)cc(S(=O)(=O)[O-])cc7F)c7ccc4[nH]7)C=C6)C=C5)cc3)c2)C1
REMARK SMILES IDX 21 1 20 2 19 3 18 4 16 5 17 6 15 8 10 9 11 10 92 11 12 12
REMARK SMILES IDX 13 13 7 14 8 15 9 16 6 17 1 18 2 19 3 20 4 21 93 22 5 23
REMARK SMILES IDX 14 24 22 26 23 27 24 28 25 30 26 31 27 32 91 33 28 34 90 35
REMARK SMILES IDX 29 36 30 37 31 38 84 39 32 40 89 41 83 42 85 43 33 44 88 45
REMARK SMILES IDX 82 46 81 47 34 49 68 50 47 51 67 52 48 53 51 54 66 55 86 56
REMARK SMILES IDX 49 57 50 58 65 60 87 61 52 62 35 63 36 64 45 65 37 66 38 67
REMARK SMILES IDX 44 68 46 69 39 70 40 71 41 72 42 73 43 74 69 75 70 76 79 77
REMARK SMILES IDX 71 78 72 79 78 80 80 81 73 82 74 83 75 84 76 85 77 86 53 87
REMARK SMILES IDX 54 88 63 89 55 90 56 91 62 92 64 93 57 94 58 95 59 96 60 97
REMARK SMILES IDX 61 98
REMARK H PARENT 18 7 14 25 23 29 85 48 51 59
REMARK Flexibility Score: inf
ROOT
ATOM      1  C   UNL A   1      32.493  28.095  26.228  1.00  0.00     0.023 C 
ENDROOT
BRANCH   1   2
ATOM      2  C   UNL A   1      31.974  29.240  25.362  1.00  0.00     0.023 C 
BRANCH   2   3
ATOM      3  C   UNL A   1      31.600  28.858  23.924  1.00  0.00     0.116 C 
BRANCH   3   4
ATOM      4  N   UNL A   1      32.751  28.928  23.052  1.00  0.00    -0.352 N 
ATOM      5  C   UNL A   1      33.480  27.987  22.378  1.00  0.00     0.255 C 
ATOM      6  O   UNL A   1      34.414  28.435  21.704  1.00  0.00    -0.269 OA
ATOM      7  H   UNL A   1      33.080  29.846  22.916  1.00  0.00     0.163 HD
BRANCH   5   8
ATOM      8  C   UNL A   1      33.257  26.498  22.355  1.00  0.00     0.082 A 
ATOM      9  C   UNL A   1      32.976  24.541  23.817  1.00  0.00     0.083 A 
ATOM     10  C   UNL A   1      32.574  23.771  22.730  1.00  0.00     0.025 A 
ATOM     11  C   UNL A   1      33.313  25.887  23.634  1.00  0.00     0.039 A 
ATOM     12  C   UNL A   1      32.570  24.326  21.460  1.00  0.00     0.048 A 
ATOM     13  C   UNL A   1      32.892  25.678  21.274  1.00  0.00     0.128 A 
BRANCH   9  14
ATOM     14  S   UNL A   1      32.858  23.851  25.452  1.00  0.00     0.243 S 
ATOM     15  O   UNL A   1      32.274  22.526  25.316  1.00  0.00    -0.207 OA
ATOM     16  O   UNL A   1      32.267  24.832  26.327  1.00  0.00    -0.207 OA
BRANCH  14  17
ATOM     17  N   UNL A   1      34.479  23.637  25.947  1.00  0.00    -0.197 NA
ATOM     18  C   UNL A   1      37.600  23.209  26.288  1.00  0.00     0.012 C 
ATOM     19  C   UNL A   1      36.556  22.535  25.387  1.00  0.00    -0.020 C 
ATOM     20  C   UNL A   1      37.265  21.844  24.218  1.00  0.00     0.012 C 
ATOM     21  C   UNL A   1      35.673  21.565  26.170  1.00  0.00     0.024 C 
ATOM     22  C   UNL A   1      35.515  23.540  24.880  1.00  0.00     0.109 C 
ATOM     23  C   UNL A   1      34.665  22.472  26.867  1.00  0.00     0.103 C 
ENDBRANCH  14  17
ENDBRANCH   9  14
BRANCH  13  24
ATOM     24  O   UNL A   1      32.766  26.131  19.999  1.00  0.00    -0.507 OA
ATOM     25  H   UNL A   1      33.507  26.492  19.555  1.00  0.00     0.293 HD
ENDBRANCH  13  24
ENDBRANCH   5   8
ENDBRANCH   3   4
ENDBRANCH   2   3
ENDBRANCH   1   2
BRANCH   1  26
ATOM     26  C   UNL A   1      33.541  28.499  27.255  1.00  0.00     0.116 C 
BRANCH  26  27
ATOM     27  N   UNL A   1      33.437  29.889  27.681  1.00  0.00    -0.352 N 
ATOM     28  C   UNL A   1      34.415  30.674  28.246  1.00  0.00     0.251 C 
ATOM     29  H   UNL A   1      32.560  30.318  27.550  1.00  0.00     0.163 HD
ATOM     30  O   UNL A   1      34.159  31.809  28.631  1.00  0.00    -0.269 OA
BRANCH  28  31
ATOM     31  C   UNL A   1      35.764  30.101  28.424  1.00  0.00     0.039 A 
ATOM     32  C   UNL A   1      36.653  30.125  27.348  1.00  0.00     0.014 A 
ATOM     33  C   UNL A   1      36.166  29.616  29.671  1.00  0.00     0.014 A 
ATOM     34  C   UNL A   1      37.977  29.729  27.545  1.00  0.00     0.010 A 
ATOM     35  C   UNL A   1      37.500  29.291  29.883  1.00  0.00     0.010 A 
ATOM     36  C   UNL A   1      38.419  29.348  28.822  1.00  0.00    -0.014 A 
BRANCH  36  37
ATOM     37  C   UNL A   1      39.837  28.998  29.078  1.00  0.00     0.031 A 
ATOM     38  C   UNL A   1      40.770  30.035  29.639  1.00  0.00     0.074 A 
ATOM     39  C   UNL A   1      40.297  27.779  28.734  1.00  0.00     0.049 A 
ATOM     40  N   UNL A   1      42.060  29.962  29.839  1.00  0.00    -0.248 NA
ATOM     41  C   UNL A   1      40.180  31.336  29.990  1.00  0.00     0.031 C 
ATOM     42  C   UNL A   1      39.498  26.709  28.132  1.00  0.00     0.029 A 
ATOM     43  N   UNL A   1      41.555  27.239  28.826  1.00  0.00    -0.354 N 
ATOM     44  C   UNL A   1      42.438  31.210  30.319  1.00  0.00     0.074 A 
ATOM     45  C   UNL A   1      41.251  32.035  30.334  1.00  0.00     0.031 C 
ATOM     46  C   UNL A   1      40.280  25.637  27.927  1.00  0.00     0.029 A 
ATOM     47  C   UNL A   1      41.641  25.952  28.350  1.00  0.00     0.049 A 
ATOM     48  H   UNL A   1      42.324  27.727  29.200  1.00  0.00     0.167 HD
ATOM     49  C   UNL A   1      43.660  31.622  30.731  1.00  0.00     0.037 A 
ATOM     50  C   UNL A   1      42.700  25.124  28.258  1.00  0.00     0.037 A 
ATOM     51  C   UNL A   1      44.828  30.782  30.748  1.00  0.00     0.049 A 
ATOM     52  C   UNL A   1      44.042  25.598  28.748  1.00  0.00     0.074 A 
ATOM     53  C   UNL A   1      46.100  31.087  31.198  1.00  0.00     0.029 A 
ATOM     54  N   UNL A   1      44.864  29.470  30.301  1.00  0.00    -0.354 N 
ATOM     55  N   UNL A   1      44.371  26.764  29.250  1.00  0.00    -0.248 NA
ATOM     56  C   UNL A   1      45.155  24.642  28.666  1.00  0.00     0.031 C 
ATOM     57  C   UNL A   1      46.913  29.966  31.000  1.00  0.00     0.029 A 
ATOM     58  C   UNL A   1      46.138  28.953  30.459  1.00  0.00     0.049 A 
ATOM     59  H   UNL A   1      44.098  28.979  29.926  1.00  0.00     0.167 HD
ATOM     60  C   UNL A   1      45.721  26.673  29.570  1.00  0.00     0.074 A 
ATOM     61  C   UNL A   1      46.146  25.335  29.212  1.00  0.00     0.031 C 
ATOM     62  C   UNL A   1      46.534  27.611  30.113  1.00  0.00     0.037 A 
BRANCH  49  63
ATOM     63  C   UNL A   1      43.787  33.040  31.210  1.00  0.00     0.058 A 
ATOM     64  C   UNL A   1      44.136  34.080  30.335  1.00  0.00     0.135 A 
ATOM     65  C   UNL A   1      43.532  33.369  32.551  1.00  0.00     0.135 A 
ATOM     66  F   UNL A   1      44.408  33.818  29.047  1.00  0.00    -0.206 F 
ATOM     67  C   UNL A   1      44.255  35.394  30.778  1.00  0.00     0.059 A 
ATOM     68  C   UNL A   1      43.622  34.680  33.010  1.00  0.00     0.059 A 
ATOM     69  F   UNL A   1      43.197  32.412  33.430  1.00  0.00    -0.206 F 
ATOM     70  C   UNL A   1      43.999  35.682  32.118  1.00  0.00     0.060 A 
BRANCH  70  71
ATOM     71  S   UNL A   1      44.155  37.392  32.678  1.00  0.00     0.124 S 
ATOM     72  O   UNL A   1      43.850  38.126  31.454  1.00  0.00    -0.237 OA
ATOM     73  O   UNL A   1      43.148  37.471  33.731  1.00  0.00    -0.237 OA
ATOM     74  O   UNL A   1      45.539  37.475  33.132  1.00  0.00    -0.744 OA
ENDBRANCH  70  71
ENDBRANCH  49  63
BRANCH  50  75
ATOM     75  C   UNL A   1      42.530  23.754  27.708  1.00  0.00     0.058 A 
ATOM     76  C   UNL A   1      42.417  22.648  28.562  1.00  0.00     0.135 A 
ATOM     77  C   UNL A   1      42.471  23.523  26.326  1.00  0.00     0.135 A 
ATOM     78  F   UNL A   1      42.472  22.818  29.892  1.00  0.00    -0.206 F 
ATOM     79  C   UNL A   1      42.272  21.356  28.067  1.00  0.00     0.059 A 
ATOM     80  C   UNL A   1      42.304  22.243  25.805  1.00  0.00     0.059 A 
ATOM     81  F   UNL A   1      42.557  24.551  25.468  1.00  0.00    -0.206 F 
ATOM     82  C   UNL A   1      42.217  21.164  26.685  1.00  0.00     0.060 A 
BRANCH  82  83
ATOM     83  S   UNL A   1      41.987  19.488  26.051  1.00  0.00     0.124 S 
ATOM     84  O   UNL A   1      42.858  19.495  24.883  1.00  0.00    -0.237 OA
ATOM     85  O   UNL A   1      42.431  18.669  27.175  1.00  0.00    -0.237 OA
ATOM     86  O   UNL A   1      40.555  19.431  25.773  1.00  0.00    -0.744 OA
ENDBRANCH  82  83
ENDBRANCH  50  75
BRANCH  62  87
ATOM     87  C   UNL A   1      47.956  27.215  30.392  1.00  0.00     0.058 A 
ATOM     88  C   UNL A   1      48.977  27.429  29.455  1.00  0.00     0.135 A 
ATOM     89  C   UNL A   1      48.307  26.674  31.639  1.00  0.00     0.135 A 
ATOM     90  F   UNL A   1      48.690  27.938  28.247  1.00  0.00    -0.206 F 
ATOM     91  C   UNL A   1      50.300  27.107  29.739  1.00  0.00     0.059 A 
ATOM     92  C   UNL A   1      49.626  26.364  31.952  1.00  0.00     0.059 A 
ATOM     93  F   UNL A   1      47.367  26.458  32.572  1.00  0.00    -0.206 F 
ATOM     94  C   UNL A   1      50.615  26.575  30.992  1.00  0.00     0.060 A 
BRANCH  94  95
ATOM     95  S   UNL A   1      52.341  26.203  31.367  1.00  0.00     0.124 S 
ATOM     96  O   UNL A   1      52.239  24.850  31.903  1.00  0.00    -0.237 OA
ATOM     97  O   UNL A   1      52.981  26.320  30.061  1.00  0.00    -0.237 OA
ATOM     98  O   UNL A   1      52.708  27.235  32.332  1.00  0.00    -0.744 OA
ENDBRANCH  94  95
ENDBRANCH  62  87
ENDBRANCH  36  37
ENDBRANCH  28  31
ENDBRANCH  26  27
ENDBRANCH   1  26
TORSDOF 17
ENDMDL
MODEL 3
REMARK VINA RESULT:     -11.7      3.011      9.326
REMARK SMILES CC1(C)CCN(S(=O)(=O)c2ccc(O)c(C(=O)NCCCCNC(=O)c3ccc(-c4c5nc(c(-c6c(F)cc(S(=O)(=O)[O-])cc6F)c6ccc([nH]6)c(-c6c(F)cc(S(=O)(=O)[O-])cc6F)c6nc(c(-c7c(F)cc(S(=O)(=O)[O-])cc7F)c7ccc4[nH]7)C=C6)C=C5)cc3)c2)C1
REMARK SMILES IDX 21 1 20 2 19 3 18 4 16 5 17 6 15 8 10 9 11 10 92 11 12 12
REMARK SMILES IDX 13 13 7 14 8 15 9 16 6 17 1 18 2 19 3 20 4 21 93 22 5 23
REMARK SMILES IDX 14 24 22 26 23 27 24 28 25 30 26 31 27 32 91 33 28 34 90 35
REMARK SMILES IDX 29 36 30 37 31 38 84 39 32 40 89 41 83 42 85 43 33 44 88 45
REMARK SMILES IDX 82 46 81 47 34 49 68 50 47 51 67 52 48 53 51 54 66 55 86 56
REMARK SMILES IDX 49 57 50 58 65 60 87 61 52 62 35 63 36 64 45 65 37 66 38 67
REMARK SMILES IDX 44 68 46 69 39 70 40 71 41 72 42 73 43 74 69 75 70 76 79 77
REMARK SMILES IDX 71 78 72 79 78 80 80 81 73 82 74 83 75 84 76 85 77 86 53 87
REMARK SMILES IDX 54 88 63 89 55 90 56 91 62 92 64 93 57 94 58 95 59 96 60 97
REMARK SMILES IDX 61 98
REMARK H PARENT 18 7 14 25 23 29 85 48 51 59
REMARK Flexibility Score: inf
ROOT
ATOM      1  C   UNL A   1      35.528  23.305  25.809  1.00  0.00     0.023 C 
ENDROOT
BRANCH   1   2
ATOM      2  C   UNL A   1      35.437  21.798  26.030  1.00  0.00     0.023 C 
BRANCH   2   3
ATOM      3  C   UNL A   1      34.344  21.344  27.007  1.00  0.00     0.116 C 
BRANCH   3   4
ATOM      4  N   UNL A   1      33.569  20.258  26.449  1.00  0.00    -0.352 N 
ATOM      5  C   UNL A   1      32.581  20.195  25.504  1.00  0.00     0.255 C 
ATOM      6  O   UNL A   1      32.152  19.058  25.274  1.00  0.00    -0.269 OA
ATOM      7  H   UNL A   1      33.801  19.380  26.830  1.00  0.00     0.163 HD
BRANCH   5   8
ATOM      8  C   UNL A   1      31.988  21.335  24.720  1.00  0.00     0.082 A 
ATOM      9  C   UNL A   1      31.184  23.648  24.938  1.00  0.00     0.083 A 
ATOM     10  C   UNL A   1      31.133  23.774  23.554  1.00  0.00     0.025 A 
ATOM     11  C   UNL A   1      31.606  22.445  25.516  1.00  0.00     0.039 A 
ATOM     12  C   UNL A   1      31.441  22.685  22.754  1.00  0.00     0.048 A 
ATOM     13  C   UNL A   1      31.879  21.483  23.327  1.00  0.00     0.128 A 
BRANCH   9  14
ATOM     14  S   UNL A   1      30.905  25.087  25.945  1.00  0.00     0.243 S 
ATOM     15  O   UNL A   1      31.482  24.814  27.252  1.00  0.00    -0.207 OA
ATOM     16  O   UNL A   1      29.525  25.483  25.815  1.00  0.00    -0.207 OA
BRANCH  14  17
ATOM     17  N   UNL A   1      31.855  26.310  25.223  1.00  0.00    -0.197 NA
ATOM     18  C   UNL A   1      33.978  28.490  24.339  1.00  0.00     0.012 C 
ATOM     19  C   UNL A   1      33.346  28.152  25.696  1.00  0.00    -0.020 C 
ATOM     20  C   UNL A   1      34.217  28.726  26.819  1.00  0.00     0.012 C 
ATOM     21  C   UNL A   1      31.902  28.643  25.788  1.00  0.00     0.024 C 
ATOM     22  C   UNL A   1      33.156  26.640  25.870  1.00  0.00     0.109 C 
ATOM     23  C   UNL A   1      31.111  27.592  25.020  1.00  0.00     0.103 C 
ENDBRANCH  14  17
ENDBRANCH   9  14
BRANCH  13  24
ATOM     24  O   UNL A   1      32.238  20.519  22.440  1.00  0.00    -0.507 OA
ATOM     25  H   UNL A   1      31.816  20.470  21.605  1.00  0.00     0.293 HD
ENDBRANCH  13  24
ENDBRANCH   5   8
ENDBRANCH   3   4
ENDBRANCH   2   3
ENDBRANCH   1   2
BRANCH   1  26
ATOM     26  C   UNL A   1      36.850  23.782  25.223  1.00  0.00     0.116 C 
BRANCH  26  27
ATOM     27  N   UNL A   1      37.943  22.835  25.397  1.00  0.00    -0.352 N 
ATOM     28  C   UNL A   1      39.118  23.018  26.088  1.00  0.00     0.251 C 
ATOM     29  H   UNL A   1      37.828  21.956  24.966  1.00  0.00     0.163 HD
ATOM     30  O   UNL A   1      39.988  22.154  26.082  1.00  0.00    -0.269 OA
BRANCH  28  31
ATOM     31  C   UNL A   1      39.327  24.296  26.796  1.00  0.00     0.039 A 
ATOM     32  C   UNL A   1      38.838  24.435  28.096  1.00  0.00     0.014 A 
ATOM     33  C   UNL A   1      40.070  25.319  26.201  1.00  0.00     0.014 A 
ATOM     34  C   UNL A   1      39.161  25.576  28.831  1.00  0.00     0.010 A 
ATOM     35  C   UNL A   1      40.450  26.421  26.958  1.00  0.00     0.010 A 
ATOM     36  C   UNL A   1      40.002  26.558  28.282  1.00  0.00    -0.014 A 
BRANCH  36  37
ATOM     37  C   UNL A   1      40.425  27.743  29.066  1.00  0.00     0.031 A 
ATOM     38  C   UNL A   1      41.748  27.728  29.781  1.00  0.00     0.074 A 
ATOM     39  C   UNL A   1      39.590  28.791  29.197  1.00  0.00     0.049 A 
ATOM     40  N   UNL A   1      42.255  28.615  30.597  1.00  0.00    -0.248 NA
ATOM     41  C   UNL A   1      42.597  26.544  29.577  1.00  0.00     0.031 C 
ATOM     42  C   UNL A   1      38.258  28.896  28.594  1.00  0.00     0.029 A 
ATOM     43  N   UNL A   1      39.728  29.965  29.894  1.00  0.00    -0.354 N 
ATOM     44  C   UNL A   1      43.469  28.089  31.019  1.00  0.00     0.074 A 
ATOM     45  C   UNL A   1      43.602  26.785  30.407  1.00  0.00     0.031 C 
ATOM     46  C   UNL A   1      37.712  30.075  28.933  1.00  0.00     0.029 A 
ATOM     47  C   UNL A   1      38.637  30.796  29.802  1.00  0.00     0.049 A 
ATOM     48  H   UNL A   1      40.535  30.190  30.412  1.00  0.00     0.167 HD
ATOM     49  C   UNL A   1      44.400  28.653  31.823  1.00  0.00     0.037 A 
ATOM     50  C   UNL A   1      38.407  32.000  30.362  1.00  0.00     0.037 A 
ATOM     51  C   UNL A   1      44.278  29.967  32.397  1.00  0.00     0.049 A 
ATOM     52  C   UNL A   1      39.469  32.616  31.231  1.00  0.00     0.074 A 
ATOM     53  C   UNL A   1      45.189  30.652  33.181  1.00  0.00     0.029 A 
ATOM     54  N   UNL A   1      43.178  30.797  32.242  1.00  0.00    -0.354 N 
ATOM     55  N   UNL A   1      40.637  32.128  31.576  1.00  0.00    -0.248 NA
ATOM     56  C   UNL A   1      39.187  33.949  31.782  1.00  0.00     0.031 C 
ATOM     57  C   UNL A   1      44.629  31.887  33.521  1.00  0.00     0.029 A 
ATOM     58  C   UNL A   1      43.384  31.985  32.921  1.00  0.00     0.049 A 
ATOM     59  H   UNL A   1      42.370  30.574  31.726  1.00  0.00     0.167 HD
ATOM     60  C   UNL A   1      41.241  33.105  32.361  1.00  0.00     0.074 A 
ATOM     61  C   UNL A   1      40.313  34.215  32.433  1.00  0.00     0.031 C 
ATOM     62  C   UNL A   1      42.454  33.085  32.964  1.00  0.00     0.037 A 
BRANCH  49  63
ATOM     63  C   UNL A   1      45.638  27.854  32.116  1.00  0.00     0.058 A 
ATOM     64  C   UNL A   1      45.691  26.954  33.192  1.00  0.00     0.135 A 
ATOM     65  C   UNL A   1      46.774  27.965  31.299  1.00  0.00     0.135 A 
ATOM     66  F   UNL A   1      44.639  26.821  34.016  1.00  0.00    -0.206 F 
ATOM     67  C   UNL A   1      46.836  26.214  33.466  1.00  0.00     0.059 A 
ATOM     68  C   UNL A   1      47.923  27.217  31.540  1.00  0.00     0.059 A 
ATOM     69  F   UNL A   1      46.777  28.813  30.258  1.00  0.00    -0.206 F 
ATOM     70  C   UNL A   1      47.948  26.354  32.634  1.00  0.00     0.060 A 
BRANCH  70  71
ATOM     71  S   UNL A   1      49.427  25.385  33.000  1.00  0.00     0.124 S 
ATOM     72  O   UNL A   1      50.294  26.395  33.599  1.00  0.00    -0.237 OA
ATOM     73  O   UNL A   1      48.917  24.367  33.913  1.00  0.00    -0.237 OA
ATOM     74  O   UNL A   1      49.845  24.895  31.691  1.00  0.00    -0.744 OA
ENDBRANCH  70  71
ENDBRANCH  49  63
BRANCH  50  75
ATOM     75  C   UNL A   1      37.133  32.715  30.094  1.00  0.00     0.058 A 
ATOM     76  C   UNL A   1      37.032  33.630  29.037  1.00  0.00     0.135 A 
ATOM     77  C   UNL A   1      35.991  32.496  30.880  1.00  0.00     0.135 A 
ATOM     78  F   UNL A   1      38.098  33.876  28.259  1.00  0.00    -0.206 F 
ATOM     79  C   UNL A   1      35.852  34.320  28.779  1.00  0.00     0.059 A 
ATOM     80  C   UNL A   1      34.793  33.157  30.629  1.00  0.00     0.059 A 
ATOM     81  F   UNL A   1      36.032  31.616  31.893  1.00  0.00    -0.206 F 
ATOM     82  C   UNL A   1      34.737  34.077  29.583  1.00  0.00     0.060 A 
BRANCH  82  83
ATOM     83  S   UNL A   1      33.197  34.947  29.215  1.00  0.00     0.124 S 
ATOM     84  O   UNL A   1      32.604  34.079  28.207  1.00  0.00    -0.237 OA
ATOM     85  O   UNL A   1      32.533  34.963  30.516  1.00  0.00    -0.237 OA
ATOM     86  O   UNL A   1      33.656  36.249  28.739  1.00  0.00    -0.744 OA
ENDBRANCH  82  83
ENDBRANCH  50  75
BRANCH  62  87
ATOM     87  C   UNL A   1      42.869  34.314  33.722  1.00  0.00     0.058 A 
ATOM     88  C   UNL A   1      42.591  34.463  35.088  1.00  0.00     0.135 A 
ATOM     89  C   UNL A   1      43.608  35.322  33.084  1.00  0.00     0.135 A 
ATOM     90  F   UNL A   1      41.882  33.528  35.740  1.00  0.00    -0.206 F 
ATOM     91  C   UNL A   1      43.022  35.580  35.797  1.00  0.00     0.059 A 
ATOM     92  C   UNL A   1      44.067  36.437  33.778  1.00  0.00     0.059 A 
ATOM     93  F   UNL A   1      43.906  35.220  31.779  1.00  0.00    -0.206 F 
ATOM     94  C   UNL A   1      43.761  36.562  35.132  1.00  0.00     0.060 A 
BRANCH  94  95
ATOM     95  S   UNL A   1      44.355  37.985  36.071  1.00  0.00     0.124 S 
ATOM     96  O   UNL A   1      43.897  39.094  35.241  1.00  0.00    -0.237 OA
ATOM     97  O   UNL A   1      43.671  37.826  37.351  1.00  0.00    -0.237 OA
ATOM     98  O   UNL A   1      45.799  37.785  36.112  1.00  0.00    -0.744 OA
ENDBRANCH  94  95
ENDBRANCH  62  87
ENDBRANCH  36  37
ENDBRANCH  28  31
ENDBRANCH  26  27
ENDBRANCH   1  26
TORSDOF 17
ENDMDL
