MODEL 1
REMARK VINA RESULT:     -12.3      0.000      0.000
REMARK SMILES O=C(Cc1cccn1-c1ccc2c(c1)OCCO2)NCCCCNC(=O)c1ccc(-c2c3nc(c(-c4c(F)cc(S(=O)(=O)[O-])cc4F)c4ccc([nH]4)c(-c4c(F)cc(S(=O)(=O)[O-])cc4F)c4nc(c(-c5c(F)cc(S(=O)(=O)[O-])cc5F)c5ccc2[nH]5)C=C4)C=C3)cc1
REMARK SMILES IDX 22 1 21 2 20 3 19 4 1 5 2 6 3 8 4 9 5 10 8 11 6 12 7 13 9 14
REMARK SMILES IDX 10 15 14 16 11 17 13 18 12 19 15 20 18 21 16 22 17 23 23 24
REMARK SMILES IDX 24 25 25 26 26 28 27 29 28 30 92 31 29 32 91 33 30 34 31 35
REMARK SMILES IDX 32 36 85 37 33 38 90 39 84 40 86 41 34 42 89 43 83 44 82 45
REMARK SMILES IDX 35 47 69 48 48 49 68 50 49 51 52 52 67 53 87 54 50 55 51 56
REMARK SMILES IDX 66 58 88 59 53 60 36 61 37 62 46 63 38 64 39 65 45 66 47 67
REMARK SMILES IDX 40 68 41 69 42 70 43 71 44 72 70 73 71 74 80 75 72 76 73 77
REMARK SMILES IDX 79 78 81 79 74 80 75 81 76 82 77 83 78 84 54 85 55 86 64 87
REMARK SMILES IDX 56 88 57 89 63 90 65 91 58 92 59 93 60 94 61 95 62 96
REMARK H PARENT 19 7 24 27 86 46 52 57
REMARK Flexibility Score: inf
ROOT
ATOM      1  C   UNL A   1      33.738  28.283  25.495  1.00  0.00     0.023 C 
ENDROOT
BRANCH   1   2
ATOM      2  C   UNL A   1      34.352  28.783  24.179  1.00  0.00     0.023 C 
BRANCH   2   3
ATOM      3  C   UNL A   1      33.491  28.584  22.927  1.00  0.00     0.116 C 
BRANCH   3   4
ATOM      4  N   UNL A   1      32.590  27.455  23.044  1.00  0.00    -0.356 N 
ATOM      5  O   UNL A   1      33.784  26.023  21.706  1.00  0.00    -0.275 OA
ATOM      6  C   UNL A   1      32.829  26.231  22.450  1.00  0.00     0.225 C 
ATOM      7  H   UNL A   1      31.767  27.565  23.573  1.00  0.00     0.163 HD
BRANCH   6   8
ATOM      8  C   UNL A   1      31.770  25.166  22.732  1.00  0.00     0.154 C 
BRANCH   8   9
ATOM      9  C   UNL A   1      31.392  25.123  24.187  1.00  0.00     0.032 A 
ATOM     10  C   UNL A   1      30.203  25.574  24.746  1.00  0.00     0.024 A 
ATOM     11  N   UNL A   1      32.132  24.533  25.210  1.00  0.00    -0.320 N 
ATOM     12  C   UNL A   1      30.178  25.187  26.100  1.00  0.00     0.020 A 
ATOM     13  C   UNL A   1      31.348  24.511  26.345  1.00  0.00     0.091 A 
BRANCH  11  14
ATOM     14  C   UNL A   1      33.435  23.975  25.146  1.00  0.00     0.049 A 
ATOM     15  C   UNL A   1      34.534  24.797  25.423  1.00  0.00     0.031 A 
ATOM     16  C   UNL A   1      33.626  22.623  24.839  1.00  0.00     0.077 A 
ATOM     17  C   UNL A   1      35.814  24.247  25.451  1.00  0.00     0.052 A 
ATOM     18  C   UNL A   1      34.911  22.081  24.876  1.00  0.00     0.163 A 
ATOM     19  C   UNL A   1      36.004  22.894  25.179  1.00  0.00     0.161 A 
ATOM     20  O   UNL A   1      35.023  20.737  24.630  1.00  0.00    -0.486 OA
ATOM     21  O   UNL A   1      37.288  22.428  25.283  1.00  0.00    -0.486 OA
ATOM     22  C   UNL A   1      36.278  20.222  25.090  1.00  0.00     0.271 C 
ATOM     23  C   UNL A   1      37.431  21.132  24.697  1.00  0.00     0.271 C 
ENDBRANCH  11  14
ENDBRANCH   8   9
ENDBRANCH   6   8
ENDBRANCH   3   4
ENDBRANCH   2   3
ENDBRANCH   1   2
BRANCH   1  24
ATOM     24  C   UNL A   1      34.549  28.602  26.750  1.00  0.00     0.116 C 
BRANCH  24  25
ATOM     25  N   UNL A   1      34.919  30.002  26.833  1.00  0.00    -0.352 N 
ATOM     26  C   UNL A   1      35.921  30.565  27.593  1.00  0.00     0.251 C 
ATOM     27  H   UNL A   1      34.392  30.623  26.281  1.00  0.00     0.163 HD
ATOM     28  O   UNL A   1      35.823  31.747  27.911  1.00  0.00    -0.269 OA
BRANCH  26  29
ATOM     29  C   UNL A   1      37.104  29.780  28.038  1.00  0.00     0.039 A 
ATOM     30  C   UNL A   1      38.230  29.754  27.202  1.00  0.00     0.014 A 
ATOM     31  C   UNL A   1      37.085  28.988  29.193  1.00  0.00     0.014 A 
ATOM     32  C   UNL A   1      39.338  28.976  27.541  1.00  0.00     0.010 A 
ATOM     33  C   UNL A   1      38.202  28.227  29.547  1.00  0.00     0.010 A 
ATOM     34  C   UNL A   1      39.335  28.223  28.725  1.00  0.00    -0.014 A 
BRANCH  34  35
ATOM     35  C   UNL A   1      40.607  27.590  29.169  1.00  0.00     0.031 A 
ATOM     36  C   UNL A   1      40.884  26.280  28.385  1.00  0.00     0.074 A 
ATOM     37  C   UNL A   1      41.300  28.199  30.184  1.00  0.00     0.049 A 
ATOM     38  N   UNL A   1      41.522  25.203  28.727  1.00  0.00    -0.248 NA
ATOM     39  C   UNL A   1      40.278  26.115  27.034  1.00  0.00     0.031 C 
ATOM     40  C   UNL A   1      40.938  29.500  30.791  1.00  0.00     0.029 A 
ATOM     41  N   UNL A   1      42.433  27.879  30.911  1.00  0.00    -0.354 N 
ATOM     42  C   UNL A   1      41.573  24.344  27.597  1.00  0.00     0.074 A 
ATOM     43  C   UNL A   1      40.691  24.912  26.626  1.00  0.00     0.031 C 
ATOM     44  C   UNL A   1      41.760  29.806  31.822  1.00  0.00     0.029 A 
ATOM     45  C   UNL A   1      42.745  28.756  31.994  1.00  0.00     0.049 A 
ATOM     46  H   UNL A   1      42.990  27.096  30.696  1.00  0.00     0.167 HD
ATOM     47  C   UNL A   1      42.435  23.286  27.493  1.00  0.00     0.037 A 
ATOM     48  C   UNL A   1      43.690  28.621  32.983  1.00  0.00     0.037 A 
ATOM     49  C   UNL A   1      43.186  23.176  28.695  1.00  0.00     0.049 A 
ATOM     50  C   UNL A   1      44.458  27.429  32.600  1.00  0.00     0.074 A 
ATOM     51  C   UNL A   1      42.845  22.787  29.964  1.00  0.00     0.029 A 
ATOM     52  N   UNL A   1      44.380  23.852  28.728  1.00  0.00    -0.354 N 
ATOM     53  N   UNL A   1      45.329  27.383  31.638  1.00  0.00    -0.248 NA
ATOM     54  C   UNL A   1      44.177  26.169  33.301  1.00  0.00     0.031 C 
ATOM     55  C   UNL A   1      43.580  23.674  30.773  1.00  0.00     0.029 A 
ATOM     56  C   UNL A   1      44.500  24.379  29.987  1.00  0.00     0.049 A 
ATOM     57  H   UNL A   1      45.025  23.940  27.991  1.00  0.00     0.167 HD
ATOM     58  C   UNL A   1      45.433  26.034  31.414  1.00  0.00     0.074 A 
ATOM     59  C   UNL A   1      44.995  25.370  32.622  1.00  0.00     0.031 C 
ATOM     60  C   UNL A   1      45.313  25.559  30.151  1.00  0.00     0.037 A 
BRANCH  47  61
ATOM     61  C   UNL A   1      42.896  22.426  26.338  1.00  0.00     0.058 A 
ATOM     62  C   UNL A   1      42.540  21.050  26.351  1.00  0.00     0.135 A 
ATOM     63  C   UNL A   1      43.925  22.781  25.456  1.00  0.00     0.135 A 
ATOM     64  F   UNL A   1      41.515  20.610  27.102  1.00  0.00    -0.206 F 
ATOM     65  C   UNL A   1      43.257  20.077  25.664  1.00  0.00     0.059 A 
ATOM     66  C   UNL A   1      44.632  21.821  24.718  1.00  0.00     0.059 A 
ATOM     67  F   UNL A   1      44.327  24.053  25.339  1.00  0.00    -0.206 F 
ATOM     68  C   UNL A   1      44.328  20.470  24.875  1.00  0.00     0.060 A 
BRANCH  68  69
ATOM     69  S   UNL A   1      45.326  19.183  24.094  1.00  0.00     0.124 S 
ATOM     70  O   UNL A   1      45.132  18.060  25.004  1.00  0.00    -0.237 OA
ATOM     71  O   UNL A   1      44.689  19.052  22.786  1.00  0.00    -0.237 OA
ATOM     72  O   UNL A   1      46.665  19.763  24.073  1.00  0.00    -0.744 OA
ENDBRANCH  68  69
ENDBRANCH  47  61
BRANCH  48  73
ATOM     73  C   UNL A   1      44.071  29.227  34.331  1.00  0.00     0.058 A 
ATOM     74  C   UNL A   1      45.241  29.936  34.632  1.00  0.00     0.135 A 
ATOM     75  C   UNL A   1      43.123  29.215  35.401  1.00  0.00     0.135 A 
ATOM     76  F   UNL A   1      46.291  29.914  33.802  1.00  0.00    -0.206 F 
ATOM     77  C   UNL A   1      45.377  30.708  35.808  1.00  0.00     0.059 A 
ATOM     78  C   UNL A   1      43.206  30.012  36.540  1.00  0.00     0.059 A 
ATOM     79  F   UNL A   1      42.031  28.438  35.375  1.00  0.00    -0.206 F 
ATOM     80  C   UNL A   1      44.326  30.793  36.722  1.00  0.00     0.060 A 
BRANCH  80  81
ATOM     81  S   UNL A   1      44.340  32.002  38.066  1.00  0.00     0.124 S 
ATOM     82  O   UNL A   1      43.603  31.308  39.114  1.00  0.00    -0.237 OA
ATOM     83  O   UNL A   1      45.769  32.188  38.306  1.00  0.00    -0.237 OA
ATOM     84  O   UNL A   1      43.665  33.159  37.482  1.00  0.00    -0.744 OA
ENDBRANCH  80  81
ENDBRANCH  48  73
BRANCH  60  85
ATOM     85  C   UNL A   1      45.741  26.515  29.058  1.00  0.00     0.058 A 
ATOM     86  C   UNL A   1      47.104  26.813  28.907  1.00  0.00     0.135 A 
ATOM     87  C   UNL A   1      44.860  27.193  28.196  1.00  0.00     0.135 A 
ATOM     88  F   UNL A   1      48.009  26.216  29.699  1.00  0.00    -0.206 F 
ATOM     89  C   UNL A   1      47.571  27.710  27.943  1.00  0.00     0.059 A 
ATOM     90  C   UNL A   1      45.300  28.089  27.215  1.00  0.00     0.059 A 
ATOM     91  F   UNL A   1      43.541  27.005  28.287  1.00  0.00    -0.206 F 
ATOM     92  C   UNL A   1      46.662  28.337  27.091  1.00  0.00     0.060 A 
BRANCH  92  93
ATOM     93  S   UNL A   1      47.295  29.444  25.809  1.00  0.00     0.124 S 
ATOM     94  O   UNL A   1      46.207  30.404  25.660  1.00  0.00    -0.237 OA
ATOM     95  O   UNL A   1      48.511  29.960  26.427  1.00  0.00    -0.237 OA
ATOM     96  O   UNL A   1      47.506  28.561  24.663  1.00  0.00    -0.744 OA
ENDBRANCH  92  93
ENDBRANCH  60  85
ENDBRANCH  34  35
ENDBRANCH  26  29
ENDBRANCH  24  25
ENDBRANCH   1  24
TORSDOF 16
ENDMDL
MODEL 2
REMARK VINA RESULT:     -12.2      3.206      9.061
REMARK SMILES O=C(Cc1cccn1-c1ccc2c(c1)OCCO2)NCCCCNC(=O)c1ccc(-c2c3nc(c(-c4c(F)cc(S(=O)(=O)[O-])cc4F)c4ccc([nH]4)c(-c4c(F)cc(S(=O)(=O)[O-])cc4F)c4nc(c(-c5c(F)cc(S(=O)(=O)[O-])cc5F)c5ccc2[nH]5)C=C4)C=C3)cc1
REMARK SMILES IDX 22 1 21 2 20 3 19 4 1 5 2 6 3 8 4 9 5 10 8 11 6 12 7 13 9 14
REMARK SMILES IDX 10 15 14 16 11 17 13 18 12 19 15 20 18 21 16 22 17 23 23 24
REMARK SMILES IDX 24 25 25 26 26 28 27 29 28 30 92 31 29 32 91 33 30 34 31 35
REMARK SMILES IDX 32 36 85 37 33 38 90 39 84 40 86 41 34 42 89 43 83 44 82 45
REMARK SMILES IDX 35 47 69 48 48 49 68 50 49 51 52 52 67 53 87 54 50 55 51 56
REMARK SMILES IDX 66 58 88 59 53 60 36 61 37 62 46 63 38 64 39 65 45 66 47 67
REMARK SMILES IDX 40 68 41 69 42 70 43 71 44 72 70 73 71 74 80 75 72 76 73 77
REMARK SMILES IDX 79 78 81 79 74 80 75 81 76 82 77 83 78 84 54 85 55 86 64 87
REMARK SMILES IDX 56 88 57 89 63 90 65 91 58 92 59 93 60 94 61 95 62 96
REMARK H PARENT 19 7 24 27 86 46 52 57
REMARK Flexibility Score: inf
ROOT
ATOM      1  C   UNL A   1      33.071  28.261  25.934  1.00  0.00     0.023 C 
ENDROOT
BRANCH   1   2
ATOM      2  C   UNL A   1      33.813  29.038  24.837  1.00  0.00     0.023 C 
BRANCH   2   3
ATOM      3  C   UNL A   1      33.791  28.402  23.443  1.00  0.00     0.116 C 
BRANCH   3   4
ATOM      4  N   UNL A   1      32.787  27.363  23.319  1.00  0.00    -0.356 N 
ATOM      5  O   UNL A   1      33.680  26.350  21.464  1.00  0.00    -0.275 OA
ATOM      6  C   UNL A   1      32.831  26.379  22.352  1.00  0.00     0.225 C 
ATOM      7  H   UNL A   1      32.038  27.359  23.958  1.00  0.00     0.163 HD
BRANCH   6   8
ATOM      8  C   UNL A   1      31.694  25.361  22.425  1.00  0.00     0.154 C 
BRANCH   8   9
ATOM      9  C   UNL A   1      31.083  25.301  23.797  1.00  0.00     0.032 A 
ATOM     10  C   UNL A   1      29.839  25.793  24.170  1.00  0.00     0.024 A 
ATOM     11  N   UNL A   1      31.620  24.652  24.907  1.00  0.00    -0.320 N 
ATOM     12  C   UNL A   1      29.578  25.376  25.490  1.00  0.00     0.020 A 
ATOM     13  C   UNL A   1      30.662  24.640  25.899  1.00  0.00     0.091 A 
BRANCH  11  14
ATOM     14  C   UNL A   1      32.892  24.035  25.037  1.00  0.00     0.049 A 
ATOM     15  C   UNL A   1      33.932  24.753  25.639  1.00  0.00     0.031 A 
ATOM     16  C   UNL A   1      33.104  22.723  24.598  1.00  0.00     0.077 A 
ATOM     17  C   UNL A   1      35.161  24.134  25.854  1.00  0.00     0.052 A 
ATOM     18  C   UNL A   1      34.337  22.110  24.824  1.00  0.00     0.163 A 
ATOM     19  C   UNL A   1      35.365  22.817  25.449  1.00  0.00     0.161 A 
ATOM     20  O   UNL A   1      34.460  20.803  24.430  1.00  0.00    -0.486 OA
ATOM     21  O   UNL A   1      36.585  22.271  25.751  1.00  0.00    -0.486 OA
ATOM     22  C   UNL A   1      35.575  20.166  25.063  1.00  0.00     0.271 C 
ATOM     23  C   UNL A   1      36.811  21.052  25.038  1.00  0.00     0.271 C 
ENDBRANCH  11  14
ENDBRANCH   8   9
ENDBRANCH   6   8
ENDBRANCH   3   4
ENDBRANCH   2   3
ENDBRANCH   1   2
BRANCH   1  24
ATOM     24  C   UNL A   1      33.287  28.782  27.355  1.00  0.00     0.116 C 
BRANCH  24  25
ATOM     25  N   UNL A   1      33.333  30.229  27.416  1.00  0.00    -0.352 N 
ATOM     26  C   UNL A   1      34.239  31.015  28.093  1.00  0.00     0.251 C 
ATOM     27  H   UNL A   1      32.635  30.708  26.913  1.00  0.00     0.163 HD
ATOM     28  O   UNL A   1      33.901  32.148  28.426  1.00  0.00    -0.269 OA
BRANCH  26  29
ATOM     29  C   UNL A   1      35.603  30.526  28.435  1.00  0.00     0.039 A 
ATOM     30  C   UNL A   1      36.552  30.451  27.405  1.00  0.00     0.014 A 
ATOM     31  C   UNL A   1      35.926  30.039  29.707  1.00  0.00     0.014 A 
ATOM     32  C   UNL A   1      37.823  29.933  27.659  1.00  0.00     0.010 A 
ATOM     33  C   UNL A   1      37.205  29.542  29.970  1.00  0.00     0.010 A 
ATOM     34  C   UNL A   1      38.160  29.493  28.947  1.00  0.00    -0.014 A 
BRANCH  34  35
ATOM     35  C   UNL A   1      39.582  29.160  29.237  1.00  0.00     0.031 A 
ATOM     36  C   UNL A   1      40.375  30.421  29.673  1.00  0.00     0.074 A 
ATOM     37  C   UNL A   1      39.982  27.862  29.050  1.00  0.00     0.049 A 
ATOM     38  N   UNL A   1      41.629  30.724  29.542  1.00  0.00    -0.248 NA
ATOM     39  C   UNL A   1      39.628  31.561  30.276  1.00  0.00     0.031 C 
ATOM     40  C   UNL A   1      39.080  26.744  28.693  1.00  0.00     0.029 A 
ATOM     41  N   UNL A   1      41.198  27.204  29.120  1.00  0.00    -0.354 N 
ATOM     42  C   UNL A   1      41.857  31.956  30.210  1.00  0.00     0.074 A 
ATOM     43  C   UNL A   1      40.565  32.474  30.539  1.00  0.00     0.031 C 
ATOM     44  C   UNL A   1      39.772  25.597  28.498  1.00  0.00     0.029 A 
ATOM     45  C   UNL A   1      41.187  25.834  28.713  1.00  0.00     0.049 A 
ATOM     46  H   UNL A   1      42.019  27.650  29.430  1.00  0.00     0.167 HD
ATOM     47  C   UNL A   1      43.102  32.408  30.556  1.00  0.00     0.037 A 
ATOM     48  C   UNL A   1      42.240  24.973  28.517  1.00  0.00     0.037 A 
ATOM     49  C   UNL A   1      44.078  31.488  30.087  1.00  0.00     0.049 A 
ATOM     50  C   UNL A   1      43.418  25.718  28.982  1.00  0.00     0.074 A 
ATOM     51  C   UNL A   1      44.528  31.181  28.830  1.00  0.00     0.029 A 
ATOM     52  N   UNL A   1      44.446  30.495  30.960  1.00  0.00    -0.354 N 
ATOM     53  N   UNL A   1      43.715  25.939  30.226  1.00  0.00    -0.248 NA
ATOM     54  C   UNL A   1      44.295  26.327  27.973  1.00  0.00     0.031 C 
ATOM     55  C   UNL A   1      44.704  29.786  28.891  1.00  0.00     0.029 A 
ATOM     56  C   UNL A   1      44.596  29.353  30.218  1.00  0.00     0.049 A 
ATOM     57  H   UNL A   1      44.577  30.586  31.931  1.00  0.00     0.167 HD
ATOM     58  C   UNL A   1      44.602  26.980  30.126  1.00  0.00     0.074 A 
ATOM     59  C   UNL A   1      45.148  26.941  28.787  1.00  0.00     0.031 C 
ATOM     60  C   UNL A   1      44.417  28.086  30.884  1.00  0.00     0.037 A 
BRANCH  47  61
ATOM     61  C   UNL A   1      43.597  33.485  31.494  1.00  0.00     0.058 A 
ATOM     62  C   UNL A   1      43.286  33.357  32.875  1.00  0.00     0.135 A 
ATOM     63  C   UNL A   1      44.019  34.755  31.081  1.00  0.00     0.135 A 
ATOM     64  F   UNL A   1      42.944  32.166  33.398  1.00  0.00    -0.206 F 
ATOM     65  C   UNL A   1      43.240  34.442  33.744  1.00  0.00     0.059 A 
ATOM     66  C   UNL A   1      44.026  35.854  31.951  1.00  0.00     0.059 A 
ATOM     67  F   UNL A   1      44.365  34.988  29.808  1.00  0.00    -0.206 F 
ATOM     68  C   UNL A   1      43.578  35.698  33.262  1.00  0.00     0.060 A 
BRANCH  68  69
ATOM     69  S   UNL A   1      43.390  37.112  34.368  1.00  0.00     0.124 S 
ATOM     70  O   UNL A   1      43.592  38.234  33.459  1.00  0.00    -0.237 OA
ATOM     71  O   UNL A   1      42.026  36.938  34.861  1.00  0.00    -0.237 OA
ATOM     72  O   UNL A   1      44.437  36.901  35.364  1.00  0.00    -0.744 OA
ENDBRANCH  68  69
ENDBRANCH  47  61
BRANCH  48  73
ATOM     73  C   UNL A   1      42.543  23.616  27.888  1.00  0.00     0.058 A 
ATOM     74  C   UNL A   1      43.017  22.474  28.544  1.00  0.00     0.135 A 
ATOM     75  C   UNL A   1      42.209  23.386  26.516  1.00  0.00     0.135 A 
ATOM     76  F   UNL A   1      43.520  22.551  29.782  1.00  0.00    -0.206 F 
ATOM     77  C   UNL A   1      42.988  21.191  27.950  1.00  0.00     0.059 A 
ATOM     78  C   UNL A   1      42.114  22.128  25.926  1.00  0.00     0.059 A 
ATOM     79  F   UNL A   1      41.917  24.390  25.678  1.00  0.00    -0.206 F 
ATOM     80  C   UNL A   1      42.471  21.021  26.664  1.00  0.00     0.060 A 
BRANCH  80  81
ATOM     81  S   UNL A   1      42.130  19.377  25.996  1.00  0.00     0.124 S 
ATOM     82  O   UNL A   1      40.685  19.414  25.808  1.00  0.00    -0.237 OA
ATOM     83  O   UNL A   1      42.933  19.362  24.776  1.00  0.00    -0.237 OA
ATOM     84  O   UNL A   1      42.606  18.482  27.050  1.00  0.00    -0.744 OA
ENDBRANCH  80  81
ENDBRANCH  48  73
BRANCH  60  85
ATOM     85  C   UNL A   1      43.709  27.856  32.203  1.00  0.00     0.058 A 
ATOM     86  C   UNL A   1      44.401  27.224  33.248  1.00  0.00     0.135 A 
ATOM     87  C   UNL A   1      42.363  28.176  32.457  1.00  0.00     0.135 A 
ATOM     88  F   UNL A   1      45.687  26.876  33.080  1.00  0.00    -0.206 F 
ATOM     89  C   UNL A   1      43.805  26.948  34.479  1.00  0.00     0.059 A 
ATOM     90  C   UNL A   1      41.743  27.921  33.685  1.00  0.00     0.059 A 
ATOM     91  F   UNL A   1      41.610  28.746  31.513  1.00  0.00    -0.206 F 
ATOM     92  C   UNL A   1      42.476  27.310  34.696  1.00  0.00     0.060 A 
BRANCH  92  93
ATOM     93  S   UNL A   1      41.745  27.002  36.321  1.00  0.00     0.124 S 
ATOM     94  O   UNL A   1      41.033  28.248  36.585  1.00  0.00    -0.237 OA
ATOM     95  O   UNL A   1      40.905  25.839  36.061  1.00  0.00    -0.237 OA
ATOM     96  O   UNL A   1      42.902  26.755  37.179  1.00  0.00    -0.744 OA
ENDBRANCH  92  93
ENDBRANCH  60  85
ENDBRANCH  34  35
ENDBRANCH  26  29
ENDBRANCH  24  25
ENDBRANCH   1  24
TORSDOF 16
ENDMDL
MODEL 3
REMARK VINA RESULT:     -12.1      1.017      1.589
REMARK SMILES O=C(Cc1cccn1-c1ccc2c(c1)OCCO2)NCCCCNC(=O)c1ccc(-c2c3nc(c(-c4c(F)cc(S(=O)(=O)[O-])cc4F)c4ccc([nH]4)c(-c4c(F)cc(S(=O)(=O)[O-])cc4F)c4nc(c(-c5c(F)cc(S(=O)(=O)[O-])cc5F)c5ccc2[nH]5)C=C4)C=C3)cc1
REMARK SMILES IDX 22 1 21 2 20 3 19 4 1 5 2 6 3 8 4 9 5 10 8 11 6 12 7 13 9 14
REMARK SMILES IDX 10 15 14 16 11 17 13 18 12 19 15 20 18 21 16 22 17 23 23 24
REMARK SMILES IDX 24 25 25 26 26 28 27 29 28 30 92 31 29 32 91 33 30 34 31 35
REMARK SMILES IDX 32 36 85 37 33 38 90 39 84 40 86 41 34 42 89 43 83 44 82 45
REMARK SMILES IDX 35 47 69 48 48 49 68 50 49 51 52 52 67 53 87 54 50 55 51 56
REMARK SMILES IDX 66 58 88 59 53 60 36 61 37 62 46 63 38 64 39 65 45 66 47 67
REMARK SMILES IDX 40 68 41 69 42 70 43 71 44 72 70 73 71 74 80 75 72 76 73 77
REMARK SMILES IDX 79 78 81 79 74 80 75 81 76 82 77 83 78 84 54 85 55 86 64 87
REMARK SMILES IDX 56 88 57 89 63 90 65 91 58 92 59 93 60 94 61 95 62 96
REMARK H PARENT 19 7 24 27 86 46 52 57
REMARK Flexibility Score: inf
ROOT
ATOM      1  C   UNL A   1      33.796  28.472  25.808  1.00  0.00     0.023 C 
ENDROOT
BRANCH   1   2
ATOM      2  C   UNL A   1      32.278  28.534  26.026  1.00  0.00     0.023 C 
BRANCH   2   3
ATOM      3  C   UNL A   1      31.641  27.274  26.621  1.00  0.00     0.116 C 
BRANCH   3   4
ATOM      4  N   UNL A   1      31.690  26.144  25.714  1.00  0.00    -0.356 N 
ATOM      5  O   UNL A   1      31.475  24.511  27.312  1.00  0.00    -0.275 OA
ATOM      6  C   UNL A   1      31.560  24.833  26.130  1.00  0.00     0.225 C 
ATOM      7  H   UNL A   1      31.821  26.320  24.754  1.00  0.00     0.163 HD
BRANCH   6   8
ATOM      8  C   UNL A   1      31.603  23.800  25.005  1.00  0.00     0.154 C 
BRANCH   8   9
ATOM      9  C   UNL A   1      32.107  24.392  23.718  1.00  0.00     0.032 A 
ATOM     10  C   UNL A   1      31.335  24.942  22.704  1.00  0.00     0.024 A 
ATOM     11  N   UNL A   1      33.443  24.578  23.369  1.00  0.00    -0.320 N 
ATOM     12  C   UNL A   1      32.200  25.540  21.766  1.00  0.00     0.020 A 
ATOM     13  C   UNL A   1      33.481  25.344  22.222  1.00  0.00     0.091 A 
BRANCH  11  14
ATOM     14  C   UNL A   1      34.603  24.142  24.059  1.00  0.00     0.049 A 
ATOM     15  C   UNL A   1      35.002  24.831  25.211  1.00  0.00     0.031 A 
ATOM     16  C   UNL A   1      35.327  23.028  23.620  1.00  0.00     0.077 A 
ATOM     17  C   UNL A   1      36.087  24.366  25.950  1.00  0.00     0.052 A 
ATOM     18  C   UNL A   1      36.408  22.566  24.371  1.00  0.00     0.163 A 
ATOM     19  C   UNL A   1      36.789  23.237  25.534  1.00  0.00     0.161 A 
ATOM     20  O   UNL A   1      37.034  21.432  23.922  1.00  0.00    -0.486 OA
ATOM     21  O   UNL A   1      37.806  22.818  26.352  1.00  0.00    -0.486 OA
ATOM     22  C   UNL A   1      37.827  20.828  24.951  1.00  0.00     0.271 C 
ATOM     23  C   UNL A   1      38.649  21.863  25.702  1.00  0.00     0.271 C 
ENDBRANCH  11  14
ENDBRANCH   8   9
ENDBRANCH   6   8
ENDBRANCH   3   4
ENDBRANCH   2   3
ENDBRANCH   1   2
BRANCH   1  24
ATOM     24  C   UNL A   1      34.641  28.807  27.038  1.00  0.00     0.116 C 
BRANCH  24  25
ATOM     25  N   UNL A   1      35.072  30.191  27.058  1.00  0.00    -0.352 N 
ATOM     26  C   UNL A   1      36.129  30.734  27.755  1.00  0.00     0.251 C 
ATOM     27  H   UNL A   1      34.548  30.816  26.508  1.00  0.00     0.163 HD
ATOM     28  O   UNL A   1      36.094  31.928  28.038  1.00  0.00    -0.269 OA
BRANCH  26  29
ATOM     29  C   UNL A   1      37.297  29.914  28.176  1.00  0.00     0.039 A 
ATOM     30  C   UNL A   1      38.455  29.962  27.387  1.00  0.00     0.014 A 
ATOM     31  C   UNL A   1      37.235  29.022  29.254  1.00  0.00     0.014 A 
ATOM     32  C   UNL A   1      39.552  29.158  27.699  1.00  0.00     0.010 A 
ATOM     33  C   UNL A   1      38.340  28.234  29.584  1.00  0.00     0.010 A 
ATOM     34  C   UNL A   1      39.505  28.304  28.810  1.00  0.00    -0.014 A 
BRANCH  34  35
ATOM     35  C   UNL A   1      40.761  27.634  29.247  1.00  0.00     0.031 A 
ATOM     36  C   UNL A   1      41.008  26.328  28.446  1.00  0.00     0.074 A 
ATOM     37  C   UNL A   1      41.468  28.213  30.270  1.00  0.00     0.049 A 
ATOM     38  N   UNL A   1      41.618  25.232  28.775  1.00  0.00    -0.248 NA
ATOM     39  C   UNL A   1      40.398  26.195  27.093  1.00  0.00     0.031 C 
ATOM     40  C   UNL A   1      41.137  29.515  30.893  1.00  0.00     0.029 A 
ATOM     41  N   UNL A   1      42.593  27.856  30.993  1.00  0.00    -0.354 N 
ATOM     42  C   UNL A   1      41.650  24.387  27.634  1.00  0.00     0.074 A 
ATOM     43  C   UNL A   1      40.782  24.988  26.670  1.00  0.00     0.031 C 
ATOM     44  C   UNL A   1      41.965  29.788  31.928  1.00  0.00     0.029 A 
ATOM     45  C   UNL A   1      42.925  28.712  32.087  1.00  0.00     0.049 A 
ATOM     46  H   UNL A   1      43.131  27.063  30.768  1.00  0.00     0.167 HD
ATOM     47  C   UNL A   1      42.486  23.309  27.516  1.00  0.00     0.037 A 
ATOM     48  C   UNL A   1      43.866  28.541  33.075  1.00  0.00     0.037 A 
ATOM     49  C   UNL A   1      43.233  23.166  28.717  1.00  0.00     0.049 A 
ATOM     50  C   UNL A   1      44.606  27.337  32.676  1.00  0.00     0.074 A 
ATOM     51  C   UNL A   1      42.883  22.769  29.980  1.00  0.00     0.029 A 
ATOM     52  N   UNL A   1      44.444  23.812  28.759  1.00  0.00    -0.354 N 
ATOM     53  N   UNL A   1      45.475  27.282  31.714  1.00  0.00    -0.248 NA
ATOM     54  C   UNL A   1      44.294  26.075  33.361  1.00  0.00     0.031 C 
ATOM     55  C   UNL A   1      43.638  23.628  30.801  1.00  0.00     0.029 A 
ATOM     56  C   UNL A   1      44.575  24.320  30.025  1.00  0.00     0.049 A 
ATOM     57  H   UNL A   1      45.091  23.894  28.023  1.00  0.00     0.167 HD
ATOM     58  C   UNL A   1      45.547  25.933  31.473  1.00  0.00     0.074 A 
ATOM     59  C   UNL A   1      45.092  25.265  32.672  1.00  0.00     0.031 C 
ATOM     60  C   UNL A   1      45.416  25.478  30.204  1.00  0.00     0.037 A 
BRANCH  47  61
ATOM     61  C   UNL A   1      42.927  22.454  26.351  1.00  0.00     0.058 A 
ATOM     62  C   UNL A   1      42.567  21.079  26.362  1.00  0.00     0.135 A 
ATOM     63  C   UNL A   1      43.944  22.809  25.454  1.00  0.00     0.135 A 
ATOM     64  F   UNL A   1      41.553  20.637  27.127  1.00  0.00    -0.206 F 
ATOM     65  C   UNL A   1      43.272  20.106  25.661  1.00  0.00     0.059 A 
ATOM     66  C   UNL A   1      44.636  21.851  24.701  1.00  0.00     0.059 A 
ATOM     67  F   UNL A   1      44.348  24.081  25.337  1.00  0.00    -0.206 F 
ATOM     68  C   UNL A   1      44.332  20.500  24.857  1.00  0.00     0.060 A 
BRANCH  68  69
ATOM     69  S   UNL A   1      45.313  19.214  24.055  1.00  0.00     0.124 S 
ATOM     70  O   UNL A   1      44.699  19.147  22.734  1.00  0.00    -0.237 OA
ATOM     71  O   UNL A   1      46.658  19.782  24.097  1.00  0.00    -0.237 OA
ATOM     72  O   UNL A   1      45.108  18.051  24.913  1.00  0.00    -0.744 OA
ENDBRANCH  68  69
ENDBRANCH  47  61
BRANCH  48  73
ATOM     73  C   UNL A   1      44.261  29.121  34.430  1.00  0.00     0.058 A 
ATOM     74  C   UNL A   1      45.342  29.969  34.698  1.00  0.00     0.135 A 
ATOM     75  C   UNL A   1      43.405  28.918  35.558  1.00  0.00     0.135 A 
ATOM     76  F   UNL A   1      46.321  30.140  33.801  1.00  0.00    -0.206 F 
ATOM     77  C   UNL A   1      45.460  30.688  35.909  1.00  0.00     0.059 A 
ATOM     78  C   UNL A   1      43.464  29.656  36.738  1.00  0.00     0.059 A 
ATOM     79  F   UNL A   1      42.430  27.999  35.555  1.00  0.00    -0.206 F 
ATOM     80  C   UNL A   1      44.478  30.575  36.895  1.00  0.00     0.060 A 
BRANCH  80  81
ATOM     81  S   UNL A   1      44.428  31.700  38.309  1.00  0.00     0.124 S 
ATOM     82  O   UNL A   1      43.222  32.474  38.045  1.00  0.00    -0.237 OA
ATOM     83  O   UNL A   1      44.360  30.779  39.440  1.00  0.00    -0.237 OA
ATOM     84  O   UNL A   1      45.686  32.436  38.196  1.00  0.00    -0.744 OA
ENDBRANCH  80  81
ENDBRANCH  48  73
BRANCH  60  85
ATOM     85  C   UNL A   1      45.868  26.437  29.123  1.00  0.00     0.058 A 
ATOM     86  C   UNL A   1      47.237  26.712  28.982  1.00  0.00     0.135 A 
ATOM     87  C   UNL A   1      45.005  27.141  28.264  1.00  0.00     0.135 A 
ATOM     88  F   UNL A   1      48.127  26.089  29.772  1.00  0.00    -0.206 F 
ATOM     89  C   UNL A   1      47.725  27.609  28.031  1.00  0.00     0.059 A 
ATOM     90  C   UNL A   1      45.466  28.039  27.295  1.00  0.00     0.059 A 
ATOM     91  F   UNL A   1      43.682  26.977  28.346  1.00  0.00    -0.206 F 
ATOM     92  C   UNL A   1      46.833  28.263  27.181  1.00  0.00     0.060 A 
BRANCH  92  93
ATOM     93  S   UNL A   1      47.494  29.371  25.914  1.00  0.00     0.124 S 
ATOM     94  O   UNL A   1      48.600  30.018  26.611  1.00  0.00    -0.237 OA
ATOM     95  O   UNL A   1      47.873  28.437  24.860  1.00  0.00    -0.237 OA
ATOM     96  O   UNL A   1      46.365  30.244  25.596  1.00  0.00    -0.744 OA
ENDBRANCH  92  93
ENDBRANCH  60  85
ENDBRANCH  34  35
ENDBRANCH  26  29
ENDBRANCH  24  25
ENDBRANCH   1  24
TORSDOF 16
ENDMDL
