MODEL 1
REMARK VINA RESULT:     -11.5      0.000      0.000
REMARK SMILES O=C(CC1(NC(=O)c2cc([N+](=O)[O-])ccc2F)CCC1)NCCCCNC(=O)c1ccc(-c2c3nc(c(-c4c(F)cc(S(=O)(=O)[O-])cc4F)c4ccc([nH]4)c(-c4c(F)cc(S(=O)(=O)[O-])cc4F)c4nc(c(-c5c(F)cc(S(=O)(=O)[O-])cc5F)c5ccc2[nH]5)C=C4)C=C3)cc1
REMARK SMILES IDX 23 1 22 2 21 3 1 4 2 5 3 7 4 8 18 9 20 10 19 11 5 12 6 13
REMARK SMILES IDX 7 15 8 16 9 17 16 18 10 19 15 20 17 21 14 22 11 23 12 24
REMARK SMILES IDX 13 25 24 26 25 27 26 28 27 29 28 31 29 32 30 33 94 34 31 35
REMARK SMILES IDX 93 36 32 37 33 38 34 39 87 40 35 41 92 42 86 43 88 44 36 45
REMARK SMILES IDX 91 46 85 47 84 48 37 50 71 51 50 52 70 53 51 54 54 55 69 56
REMARK SMILES IDX 89 57 52 58 53 59 68 61 90 62 55 63 38 64 39 65 48 66 40 67
REMARK SMILES IDX 41 68 47 69 49 70 42 71 43 72 44 73 45 74 46 75 72 76 73 77
REMARK SMILES IDX 82 78 74 79 75 80 81 81 83 82 76 83 77 84 78 85 79 86 80 87
REMARK SMILES IDX 56 88 57 89 66 90 58 91 59 92 65 93 67 94 60 95 61 96 62 97
REMARK SMILES IDX 63 98 64 99
REMARK H PARENT 21 6 5 14 26 30 88 49 54 60
REMARK Flexibility Score: inf
ROOT
ATOM      1  C   UNL A   1      32.444  28.015  24.788  1.00  0.00     0.023 C 
ENDROOT
BRANCH   1   2
ATOM      2  C   UNL A   1      32.493  27.177  23.510  1.00  0.00     0.116 C 
BRANCH   2   3
ATOM      3  N   UNL A   1      33.436  26.077  23.567  1.00  0.00    -0.356 N 
ATOM      4  O   UNL A   1      31.878  24.478  23.146  1.00  0.00    -0.275 OA
ATOM      5  C   UNL A   1      33.060  24.786  23.300  1.00  0.00     0.222 C 
ATOM      6  H   UNL A   1      34.373  26.263  23.804  1.00  0.00     0.163 HD
BRANCH   5   7
ATOM      7  C   UNL A   1      34.127  23.718  23.366  1.00  0.00     0.128 C 
BRANCH   7   8
ATOM      8  C   UNL A   1      34.303  22.851  24.615  1.00  0.00     0.049 C 
ATOM      9  C   UNL A   1      35.366  21.701  24.523  1.00  0.00     0.029 C 
ATOM     10  C   UNL A   1      35.306  23.549  25.605  1.00  0.00     0.029 C 
ATOM     11  C   UNL A   1      36.001  22.198  25.827  1.00  0.00     0.005 C 
BRANCH   8  12
ATOM     12  N   UNL A   1      33.092  22.400  25.379  1.00  0.00    -0.346 N 
ATOM     13  C   UNL A   1      32.088  21.485  25.176  1.00  0.00     0.254 C 
ATOM     14  H   UNL A   1      32.994  22.878  26.234  1.00  0.00     0.164 HD
ATOM     15  O   UNL A   1      30.999  21.650  25.723  1.00  0.00    -0.269 OA
BRANCH  13  16
ATOM     16  C   UNL A   1      32.258  20.282  24.371  1.00  0.00     0.082 A 
ATOM     17  C   UNL A   1      32.725  19.102  24.960  1.00  0.00     0.102 A 
ATOM     18  C   UNL A   1      32.140  20.379  22.987  1.00  0.00     0.136 A 
ATOM     19  C   UNL A   1      32.958  17.990  24.139  1.00  0.00     0.270 A 
ATOM     20  C   UNL A   1      32.359  19.265  22.179  1.00  0.00     0.047 A 
ATOM     21  F   UNL A   1      31.793  21.541  22.413  1.00  0.00    -0.206 F 
ATOM     22  C   UNL A   1      32.747  18.055  22.753  1.00  0.00     0.088 A 
BRANCH  19  23
ATOM     23  N   UNL A   1      33.461  16.745  24.727  1.00  0.00     0.062 N 
ATOM     24  O   UNL A   1      33.178  16.518  25.911  1.00  0.00    -0.258 OA
ATOM     25  O   UNL A   1      34.151  16.008  24.010  1.00  0.00    -0.258 OA
ENDBRANCH  19  23
ENDBRANCH  13  16
ENDBRANCH   8  12
ENDBRANCH   7   8
ENDBRANCH   5   7
ENDBRANCH   2   3
ENDBRANCH   1   2
BRANCH   1  26
ATOM     26  C   UNL A   1      33.782  28.178  25.512  1.00  0.00     0.023 C 
BRANCH  26  27
ATOM     27  C   UNL A   1      33.690  28.333  27.024  1.00  0.00     0.116 C 
BRANCH  27  28
ATOM     28  N   UNL A   1      33.556  29.719  27.448  1.00  0.00    -0.352 N 
ATOM     29  C   UNL A   1      34.495  30.516  28.057  1.00  0.00     0.251 C 
ATOM     30  H   UNL A   1      32.682  30.138  27.276  1.00  0.00     0.163 HD
ATOM     31  O   UNL A   1      34.195  31.636  28.460  1.00  0.00    -0.269 OA
BRANCH  29  32
ATOM     32  C   UNL A   1      35.861  29.991  28.250  1.00  0.00     0.039 A 
ATOM     33  C   UNL A   1      36.777  30.091  27.201  1.00  0.00     0.014 A 
ATOM     34  C   UNL A   1      36.244  29.452  29.482  1.00  0.00     0.014 A 
ATOM     35  C   UNL A   1      38.102  29.703  27.409  1.00  0.00     0.010 A 
ATOM     36  C   UNL A   1      37.579  29.129  29.706  1.00  0.00     0.010 A 
ATOM     37  C   UNL A   1      38.521  29.253  28.673  1.00  0.00    -0.014 A 
BRANCH  37  38
ATOM     38  C   UNL A   1      39.939  28.904  28.931  1.00  0.00     0.031 A 
ATOM     39  C   UNL A   1      40.867  29.924  29.530  1.00  0.00     0.074 A 
ATOM     40  C   UNL A   1      40.402  27.686  28.581  1.00  0.00     0.049 A 
ATOM     41  N   UNL A   1      42.148  29.831  29.773  1.00  0.00    -0.248 NA
ATOM     42  C   UNL A   1      40.284  31.229  29.881  1.00  0.00     0.031 C 
ATOM     43  C   UNL A   1      39.605  26.628  27.954  1.00  0.00     0.029 A 
ATOM     44  N   UNL A   1      41.652  27.133  28.697  1.00  0.00    -0.354 N 
ATOM     45  C   UNL A   1      42.525  31.061  30.298  1.00  0.00     0.074 A 
ATOM     46  C   UNL A   1      41.350  31.905  30.284  1.00  0.00     0.031 C 
ATOM     47  C   UNL A   1      40.378  25.546  27.769  1.00  0.00     0.029 A 
ATOM     48  C   UNL A   1      41.732  25.842  28.228  1.00  0.00     0.049 A 
ATOM     49  H   UNL A   1      42.420  27.615  29.080  1.00  0.00     0.167 HD
ATOM     50  C   UNL A   1      43.732  31.441  30.778  1.00  0.00     0.037 A 
ATOM     51  C   UNL A   1      42.778  24.995  28.172  1.00  0.00     0.037 A 
ATOM     52  C   UNL A   1      44.887  30.584  30.816  1.00  0.00     0.049 A 
ATOM     53  C   UNL A   1      44.113  25.443  28.702  1.00  0.00     0.074 A 
ATOM     54  C   UNL A   1      46.144  30.862  31.322  1.00  0.00     0.029 A 
ATOM     55  N   UNL A   1      44.927  29.283  30.337  1.00  0.00    -0.354 N 
ATOM     56  N   UNL A   1      44.440  26.597  29.233  1.00  0.00    -0.248 NA
ATOM     57  C   UNL A   1      45.220  24.481  28.627  1.00  0.00     0.031 C 
ATOM     58  C   UNL A   1      46.956  29.743  31.113  1.00  0.00     0.029 A 
ATOM     59  C   UNL A   1      46.191  28.751  30.520  1.00  0.00     0.049 A 
ATOM     60  H   UNL A   1      44.168  28.808  29.928  1.00  0.00     0.167 HD
ATOM     61  C   UNL A   1      45.782  26.491  29.578  1.00  0.00     0.074 A 
ATOM     62  C   UNL A   1      46.205  25.157  29.205  1.00  0.00     0.031 C 
ATOM     63  C   UNL A   1      46.592  27.416  30.148  1.00  0.00     0.037 A 
BRANCH  50  64
ATOM     64  C   UNL A   1      43.863  32.835  31.325  1.00  0.00     0.058 A 
ATOM     65  C   UNL A   1      43.579  33.106  32.674  1.00  0.00     0.135 A 
ATOM     66  C   UNL A   1      44.207  33.916  30.499  1.00  0.00     0.135 A 
ATOM     67  F   UNL A   1      43.252  32.108  33.511  1.00  0.00    -0.206 F 
ATOM     68  C   UNL A   1      43.614  34.402  33.178  1.00  0.00     0.059 A 
ATOM     69  C   UNL A   1      44.275  35.216  30.987  1.00  0.00     0.059 A 
ATOM     70  F   UNL A   1      44.512  33.709  29.208  1.00  0.00    -0.206 F 
ATOM     71  C   UNL A   1      43.961  35.452  32.326  1.00  0.00     0.060 A 
BRANCH  71  72
ATOM     72  S   UNL A   1      44.025  37.124  33.000  1.00  0.00     0.124 S 
ATOM     73  O   UNL A   1      45.307  37.118  33.696  1.00  0.00    -0.237 OA
ATOM     74  O   UNL A   1      43.959  37.943  31.793  1.00  0.00    -0.237 OA
ATOM     75  O   UNL A   1      42.843  37.189  33.856  1.00  0.00    -0.744 OA
ENDBRANCH  71  72
ENDBRANCH  50  64
BRANCH  51  76
ATOM     76  C   UNL A   1      42.592  23.625  27.621  1.00  0.00     0.058 A 
ATOM     77  C   UNL A   1      42.324  22.532  28.460  1.00  0.00     0.135 A 
ATOM     78  C   UNL A   1      42.713  23.379  26.246  1.00  0.00     0.135 A 
ATOM     79  F   UNL A   1      42.210  22.711  29.785  1.00  0.00    -0.206 F 
ATOM     80  C   UNL A   1      42.207  21.240  27.958  1.00  0.00     0.059 A 
ATOM     81  C   UNL A   1      42.576  22.099  25.716  1.00  0.00     0.059 A 
ATOM     82  F   UNL A   1      42.957  24.393  25.404  1.00  0.00    -0.206 F 
ATOM     83  C   UNL A   1      42.339  21.033  26.584  1.00  0.00     0.060 A 
BRANCH  83  84
ATOM     84  S   UNL A   1      42.198  19.346  25.954  1.00  0.00     0.124 S 
ATOM     85  O   UNL A   1      43.032  19.413  24.758  1.00  0.00    -0.237 OA
ATOM     86  O   UNL A   1      42.736  18.562  27.061  1.00  0.00    -0.237 OA
ATOM     87  O   UNL A   1      40.767  19.193  25.716  1.00  0.00    -0.744 OA
ENDBRANCH  83  84
ENDBRANCH  51  76
BRANCH  63  88
ATOM     88  C   UNL A   1      48.016  27.024  30.427  1.00  0.00     0.058 A 
ATOM     89  C   UNL A   1      48.379  26.515  31.685  1.00  0.00     0.135 A 
ATOM     90  C   UNL A   1      49.034  27.237  29.485  1.00  0.00     0.135 A 
ATOM     91  F   UNL A   1      47.445  26.298  32.624  1.00  0.00    -0.206 F 
ATOM     92  C   UNL A   1      49.707  26.255  32.006  1.00  0.00     0.059 A 
ATOM     93  C   UNL A   1      50.365  26.958  29.776  1.00  0.00     0.059 A 
ATOM     94  F   UNL A   1      48.735  27.711  28.265  1.00  0.00    -0.206 F 
ATOM     95  C   UNL A   1      50.694  26.485  31.047  1.00  0.00     0.060 A 
BRANCH  95  96
ATOM     96  S   UNL A   1      52.412  26.144  31.482  1.00  0.00     0.124 S 
ATOM     97  O   UNL A   1      52.674  27.167  32.490  1.00  0.00    -0.237 OA
ATOM     98  O   UNL A   1      52.339  24.772  31.974  1.00  0.00    -0.237 OA
ATOM     99  O   UNL A   1      53.122  26.312  30.217  1.00  0.00    -0.744 OA
ENDBRANCH  95  96
ENDBRANCH  63  88
ENDBRANCH  37  38
ENDBRANCH  29  32
ENDBRANCH  27  28
ENDBRANCH  26  27
ENDBRANCH   1  26
TORSDOF 18
ENDMDL
MODEL 2
REMARK VINA RESULT:     -11.2      3.908      5.831
REMARK SMILES O=C(CC1(NC(=O)c2cc([N+](=O)[O-])ccc2F)CCC1)NCCCCNC(=O)c1ccc(-c2c3nc(c(-c4c(F)cc(S(=O)(=O)[O-])cc4F)c4ccc([nH]4)c(-c4c(F)cc(S(=O)(=O)[O-])cc4F)c4nc(c(-c5c(F)cc(S(=O)(=O)[O-])cc5F)c5ccc2[nH]5)C=C4)C=C3)cc1
REMARK SMILES IDX 23 1 22 2 21 3 1 4 2 5 3 7 4 8 18 9 20 10 19 11 5 12 6 13
REMARK SMILES IDX 7 15 8 16 9 17 16 18 10 19 15 20 17 21 14 22 11 23 12 24
REMARK SMILES IDX 13 25 24 26 25 27 26 28 27 29 28 31 29 32 30 33 94 34 31 35
REMARK SMILES IDX 93 36 32 37 33 38 34 39 87 40 35 41 92 42 86 43 88 44 36 45
REMARK SMILES IDX 91 46 85 47 84 48 37 50 71 51 50 52 70 53 51 54 54 55 69 56
REMARK SMILES IDX 89 57 52 58 53 59 68 61 90 62 55 63 38 64 39 65 48 66 40 67
REMARK SMILES IDX 41 68 47 69 49 70 42 71 43 72 44 73 45 74 46 75 72 76 73 77
REMARK SMILES IDX 82 78 74 79 75 80 81 81 83 82 76 83 77 84 78 85 79 86 80 87
REMARK SMILES IDX 56 88 57 89 66 90 58 91 59 92 65 93 67 94 60 95 61 96 62 97
REMARK SMILES IDX 63 98 64 99
REMARK H PARENT 21 6 5 14 26 30 88 49 54 60
REMARK Flexibility Score: inf
ROOT
ATOM      1  C   UNL A   1      34.567  31.246  27.921  1.00  0.00     0.023 C 
ENDROOT
BRANCH   1   2
ATOM      2  C   UNL A   1      33.246  31.633  27.253  1.00  0.00     0.116 C 
BRANCH   2   3
ATOM      3  N   UNL A   1      32.318  30.528  27.107  1.00  0.00    -0.356 N 
ATOM      4  O   UNL A   1      33.098  29.904  25.066  1.00  0.00    -0.275 OA
ATOM      5  C   UNL A   1      32.365  29.681  26.031  1.00  0.00     0.222 C 
ATOM      6  H   UNL A   1      31.635  30.383  27.800  1.00  0.00     0.163 HD
BRANCH   5   7
ATOM      7  C   UNL A   1      31.365  28.548  25.987  1.00  0.00     0.128 C 
BRANCH   7   8
ATOM      8  C   UNL A   1      31.693  27.230  25.283  1.00  0.00     0.049 C 
ATOM      9  C   UNL A   1      32.809  26.346  25.940  1.00  0.00     0.029 C 
ATOM     10  C   UNL A   1      30.687  26.117  25.753  1.00  0.00     0.029 C 
ATOM     11  C   UNL A   1      31.863  25.140  25.900  1.00  0.00     0.005 C 
BRANCH   8  12
ATOM     12  N   UNL A   1      31.798  27.197  23.786  1.00  0.00    -0.346 N 
ATOM     13  C   UNL A   1      30.931  27.386  22.737  1.00  0.00     0.254 C 
ATOM     14  H   UNL A   1      32.711  26.988  23.482  1.00  0.00     0.164 HD
ATOM     15  O   UNL A   1      31.165  26.851  21.654  1.00  0.00    -0.269 OA
BRANCH  13  16
ATOM     16  C   UNL A   1      29.753  28.240  22.822  1.00  0.00     0.082 A 
ATOM     17  C   UNL A   1      29.872  29.622  22.643  1.00  0.00     0.102 A 
ATOM     18  C   UNL A   1      28.558  27.688  23.275  1.00  0.00     0.136 A 
ATOM     19  C   UNL A   1      28.733  30.420  22.817  1.00  0.00     0.270 A 
ATOM     20  C   UNL A   1      27.426  28.486  23.431  1.00  0.00     0.047 A 
ATOM     21  F   UNL A   1      28.472  26.377  23.547  1.00  0.00    -0.206 F 
ATOM     22  C   UNL A   1      27.501  29.856  23.180  1.00  0.00     0.088 A 
BRANCH  19  23
ATOM     23  N   UNL A   1      28.832  31.873  22.650  1.00  0.00     0.062 N 
ATOM     24  O   UNL A   1      28.599  32.336  21.526  1.00  0.00    -0.258 OA
ATOM     25  O   UNL A   1      29.160  32.544  23.638  1.00  0.00    -0.258 OA
ENDBRANCH  19  23
ENDBRANCH  13  16
ENDBRANCH   8  12
ENDBRANCH   7   8
ENDBRANCH   5   7
ENDBRANCH   2   3
ENDBRANCH   1   2
BRANCH   1  26
ATOM     26  C   UNL A   1      35.610  32.362  27.995  1.00  0.00     0.023 C 
BRANCH  26  27
ATOM     27  C   UNL A   1      36.302  32.519  29.343  1.00  0.00     0.116 C 
BRANCH  27  28
ATOM     28  N   UNL A   1      35.894  31.514  30.313  1.00  0.00    -0.352 N 
ATOM     29  C   UNL A   1      36.574  30.387  30.707  1.00  0.00     0.251 C 
ATOM     30  H   UNL A   1      35.020  31.660  30.742  1.00  0.00     0.163 HD
ATOM     31  O   UNL A   1      36.047  29.571  31.456  1.00  0.00    -0.269 OA
BRANCH  29  32
ATOM     32  C   UNL A   1      37.937  30.157  30.188  1.00  0.00     0.039 A 
ATOM     33  C   UNL A   1      39.009  30.154  31.083  1.00  0.00     0.014 A 
ATOM     34  C   UNL A   1      38.142  29.895  28.830  1.00  0.00     0.014 A 
ATOM     35  C   UNL A   1      40.285  29.825  30.622  1.00  0.00     0.010 A 
ATOM     36  C   UNL A   1      39.401  29.503  28.388  1.00  0.00     0.010 A 
ATOM     37  C   UNL A   1      40.485  29.463  29.279  1.00  0.00    -0.014 A 
BRANCH  37  38
ATOM     38  C   UNL A   1      41.820  29.043  28.789  1.00  0.00     0.031 A 
ATOM     39  C   UNL A   1      42.933  30.049  28.684  1.00  0.00     0.074 A 
ATOM     40  C   UNL A   1      42.017  27.768  28.394  1.00  0.00     0.049 A 
ATOM     41  N   UNL A   1      44.146  29.892  28.224  1.00  0.00    -0.248 NA
ATOM     42  C   UNL A   1      42.634  31.420  29.132  1.00  0.00     0.031 C 
ATOM     43  C   UNL A   1      41.002  26.713  28.412  1.00  0.00     0.029 A 
ATOM     44  N   UNL A   1      43.134  27.144  27.899  1.00  0.00    -0.354 N 
ATOM     45  C   UNL A   1      44.753  31.138  28.322  1.00  0.00     0.074 A 
ATOM     46  C   UNL A   1      43.757  32.056  28.830  1.00  0.00     0.031 C 
ATOM     47  C   UNL A   1      41.550  25.567  27.976  1.00  0.00     0.029 A 
ATOM     48  C   UNL A   1      42.943  25.811  27.614  1.00  0.00     0.049 A 
ATOM     49  H   UNL A   1      43.992  27.606  27.759  1.00  0.00     0.167 HD
ATOM     50  C   UNL A   1      46.033  31.478  28.046  1.00  0.00     0.037 A 
ATOM     51  C   UNL A   1      43.793  24.893  27.115  1.00  0.00     0.037 A 
ATOM     52  C   UNL A   1      47.026  30.552  27.570  1.00  0.00     0.049 A 
ATOM     53  C   UNL A   1      45.208  25.297  26.805  1.00  0.00     0.074 A 
ATOM     54  C   UNL A   1      48.362  30.789  27.301  1.00  0.00     0.029 A 
ATOM     55  N   UNL A   1      46.795  29.211  27.300  1.00  0.00    -0.354 N 
ATOM     56  N   UNL A   1      45.777  26.471  26.944  1.00  0.00    -0.248 NA
ATOM     57  C   UNL A   1      46.100  24.257  26.273  1.00  0.00     0.031 C 
ATOM     58  C   UNL A   1      48.930  29.602  26.829  1.00  0.00     0.029 A 
ATOM     59  C   UNL A   1      47.960  28.612  26.850  1.00  0.00     0.049 A 
ATOM     60  H   UNL A   1      45.931  28.752  27.411  1.00  0.00     0.167 HD
ATOM     61  C   UNL A   1      47.096  26.306  26.539  1.00  0.00     0.074 A 
ATOM     62  C   UNL A   1      47.246  24.917  26.160  1.00  0.00     0.031 C 
ATOM     63  C   UNL A   1      48.092  27.224  26.483  1.00  0.00     0.037 A 
BRANCH  50  64
ATOM     64  C   UNL A   1      46.445  32.906  28.272  1.00  0.00     0.058 A 
ATOM     65  C   UNL A   1      46.267  33.871  27.268  1.00  0.00     0.135 A 
ATOM     66  C   UNL A   1      47.076  33.306  29.461  1.00  0.00     0.135 A 
ATOM     67  F   UNL A   1      45.662  33.545  26.115  1.00  0.00    -0.206 F 
ATOM     68  C   UNL A   1      46.717  35.178  27.428  1.00  0.00     0.059 A 
ATOM     69  C   UNL A   1      47.510  34.614  29.653  1.00  0.00     0.059 A 
ATOM     70  F   UNL A   1      47.248  32.429  30.462  1.00  0.00    -0.206 F 
ATOM     71  C   UNL A   1      47.340  35.539  28.624  1.00  0.00     0.060 A 
BRANCH  71  72
ATOM     72  S   UNL A   1      47.897  37.244  28.825  1.00  0.00     0.124 S 
ATOM     73  O   UNL A   1      49.274  37.167  28.352  1.00  0.00    -0.237 OA
ATOM     74  O   UNL A   1      46.967  37.972  27.966  1.00  0.00    -0.237 OA
ATOM     75  O   UNL A   1      47.734  37.487  30.256  1.00  0.00    -0.744 OA
ENDBRANCH  71  72
ENDBRANCH  50  64
BRANCH  51  76
ATOM     76  C   UNL A   1      43.332  23.493  26.912  1.00  0.00     0.058 A 
ATOM     77  C   UNL A   1      43.166  22.615  27.995  1.00  0.00     0.135 A 
ATOM     78  C   UNL A   1      43.083  22.996  25.624  1.00  0.00     0.135 A 
ATOM     79  F   UNL A   1      43.402  23.036  29.247  1.00  0.00    -0.206 F 
ATOM     80  C   UNL A   1      42.793  21.289  27.806  1.00  0.00     0.059 A 
ATOM     81  C   UNL A   1      42.684  21.679  25.412  1.00  0.00     0.059 A 
ATOM     82  F   UNL A   1      43.217  23.800  24.560  1.00  0.00    -0.206 F 
ATOM     83  C   UNL A   1      42.558  20.828  26.510  1.00  0.00     0.060 A 
BRANCH  83  84
ATOM     84  S   UNL A   1      42.088  19.099  26.286  1.00  0.00     0.124 S 
ATOM     85  O   UNL A   1      42.241  18.579  27.641  1.00  0.00    -0.237 OA
ATOM     86  O   UNL A   1      40.717  19.216  25.801  1.00  0.00    -0.237 OA
ATOM     87  O   UNL A   1      43.057  18.609  25.311  1.00  0.00    -0.744 OA
ENDBRANCH  83  84
ENDBRANCH  51  76
BRANCH  63  88
ATOM     88  C   UNL A   1      49.443  26.763  26.014  1.00  0.00     0.058 A 
ATOM     89  C   UNL A   1      50.330  26.137  26.906  1.00  0.00     0.135 A 
ATOM     90  C   UNL A   1      49.895  27.022  24.711  1.00  0.00     0.135 A 
ATOM     91  F   UNL A   1      49.949  25.872  28.166  1.00  0.00    -0.206 F 
ATOM     92  C   UNL A   1      51.627  25.807  26.528  1.00  0.00     0.059 A 
ATOM     93  C   UNL A   1      51.180  26.676  24.304  1.00  0.00     0.059 A 
ATOM     94  F   UNL A   1      49.081  27.608  23.819  1.00  0.00    -0.206 F 
ATOM     95  C   UNL A   1      52.044  26.087  25.227  1.00  0.00     0.060 A 
BRANCH  95  96
ATOM     96  S   UNL A   1      53.732  25.654  24.754  1.00  0.00     0.124 S 
ATOM     97  O   UNL A   1      53.636  25.623  23.298  1.00  0.00    -0.237 OA
ATOM     98  O   UNL A   1      54.503  26.758  25.316  1.00  0.00    -0.237 OA
ATOM     99  O   UNL A   1      53.943  24.360  25.398  1.00  0.00    -0.744 OA
ENDBRANCH  95  96
ENDBRANCH  63  88
ENDBRANCH  37  38
ENDBRANCH  29  32
ENDBRANCH  27  28
ENDBRANCH  26  27
ENDBRANCH   1  26
TORSDOF 18
ENDMDL
MODEL 3
REMARK VINA RESULT:     -11.2      4.755     10.399
REMARK SMILES O=C(CC1(NC(=O)c2cc([N+](=O)[O-])ccc2F)CCC1)NCCCCNC(=O)c1ccc(-c2c3nc(c(-c4c(F)cc(S(=O)(=O)[O-])cc4F)c4ccc([nH]4)c(-c4c(F)cc(S(=O)(=O)[O-])cc4F)c4nc(c(-c5c(F)cc(S(=O)(=O)[O-])cc5F)c5ccc2[nH]5)C=C4)C=C3)cc1
REMARK SMILES IDX 23 1 22 2 21 3 1 4 2 5 3 7 4 8 18 9 20 10 19 11 5 12 6 13
REMARK SMILES IDX 7 15 8 16 9 17 16 18 10 19 15 20 17 21 14 22 11 23 12 24
REMARK SMILES IDX 13 25 24 26 25 27 26 28 27 29 28 31 29 32 30 33 94 34 31 35
REMARK SMILES IDX 93 36 32 37 33 38 34 39 87 40 35 41 92 42 86 43 88 44 36 45
REMARK SMILES IDX 91 46 85 47 84 48 37 50 71 51 50 52 70 53 51 54 54 55 69 56
REMARK SMILES IDX 89 57 52 58 53 59 68 61 90 62 55 63 38 64 39 65 48 66 40 67
REMARK SMILES IDX 41 68 47 69 49 70 42 71 43 72 44 73 45 74 46 75 72 76 73 77
REMARK SMILES IDX 82 78 74 79 75 80 81 81 83 82 76 83 77 84 78 85 79 86 80 87
REMARK SMILES IDX 56 88 57 89 66 90 58 91 59 92 65 93 67 94 60 95 61 96 62 97
REMARK SMILES IDX 63 98 64 99
REMARK H PARENT 21 6 5 14 26 30 88 49 54 60
REMARK Flexibility Score: inf
ROOT
ATOM      1  C   UNL A   1      38.182  23.732  26.141  1.00  0.00     0.023 C 
ENDROOT
BRANCH   1   2
ATOM      2  C   UNL A   1      37.222  23.232  25.061  1.00  0.00     0.116 C 
BRANCH   2   3
ATOM      3  N   UNL A   1      35.915  22.859  25.566  1.00  0.00    -0.356 N 
ATOM      4  O   UNL A   1      36.250  20.627  25.308  1.00  0.00    -0.275 OA
ATOM      5  C   UNL A   1      35.547  21.549  25.724  1.00  0.00     0.222 C 
ATOM      6  H   UNL A   1      35.274  23.568  25.801  1.00  0.00     0.163 HD
BRANCH   5   7
ATOM      7  C   UNL A   1      34.169  21.270  26.279  1.00  0.00     0.128 C 
BRANCH   7   8
ATOM      8  C   UNL A   1      32.976  21.030  25.352  1.00  0.00     0.049 C 
ATOM      9  C   UNL A   1      33.290  20.939  23.818  1.00  0.00     0.029 C 
ATOM     10  C   UNL A   1      32.673  19.489  25.270  1.00  0.00     0.029 C 
ATOM     11  C   UNL A   1      32.513  19.619  23.748  1.00  0.00     0.005 C 
BRANCH   8  12
ATOM     12  N   UNL A   1      31.692  21.770  25.592  1.00  0.00    -0.346 N 
ATOM     13  C   UNL A   1      31.323  23.090  25.690  1.00  0.00     0.254 C 
ATOM     14  H   UNL A   1      30.928  21.160  25.708  1.00  0.00     0.164 HD
ATOM     15  O   UNL A   1      30.324  23.393  26.340  1.00  0.00    -0.269 OA
BRANCH  13  16
ATOM     16  C   UNL A   1      32.035  24.167  25.013  1.00  0.00     0.082 A 
ATOM     17  C   UNL A   1      31.789  24.433  23.662  1.00  0.00     0.102 A 
ATOM     18  C   UNL A   1      33.092  24.788  25.673  1.00  0.00     0.136 A 
ATOM     19  C   UNL A   1      32.554  25.420  23.024  1.00  0.00     0.270 A 
ATOM     20  C   UNL A   1      33.838  25.778  25.036  1.00  0.00     0.047 A 
ATOM     21  F   UNL A   1      33.395  24.458  26.937  1.00  0.00    -0.206 F 
ATOM     22  C   UNL A   1      33.558  26.117  23.713  1.00  0.00     0.088 A 
BRANCH  19  23
ATOM     23  N   UNL A   1      32.328  25.708  21.605  1.00  0.00     0.062 N 
ATOM     24  O   UNL A   1      33.170  25.295  20.797  1.00  0.00    -0.258 OA
ATOM     25  O   UNL A   1      31.320  26.363  21.305  1.00  0.00    -0.258 OA
ENDBRANCH  19  23
ENDBRANCH  13  16
ENDBRANCH   8  12
ENDBRANCH   7   8
ENDBRANCH   5   7
ENDBRANCH   2   3
ENDBRANCH   1   2
BRANCH   1  26
ATOM     26  C   UNL A   1      39.265  22.736  26.561  1.00  0.00     0.023 C 
BRANCH  26  27
ATOM     27  C   UNL A   1      40.577  23.357  27.021  1.00  0.00     0.116 C 
BRANCH  27  28
ATOM     28  N   UNL A   1      41.264  24.087  25.966  1.00  0.00    -0.352 N 
ATOM     29  C   UNL A   1      41.694  25.392  25.977  1.00  0.00     0.251 C 
ATOM     30  H   UNL A   1      41.442  23.583  25.140  1.00  0.00     0.163 HD
ATOM     31  O   UNL A   1      42.159  25.903  24.963  1.00  0.00    -0.269 OA
BRANCH  29  32
ATOM     32  C   UNL A   1      41.559  26.179  27.219  1.00  0.00     0.039 A 
ATOM     33  C   UNL A   1      42.487  27.187  27.485  1.00  0.00     0.014 A 
ATOM     34  C   UNL A   1      40.487  25.951  28.087  1.00  0.00     0.014 A 
ATOM     35  C   UNL A   1      42.304  28.012  28.596  1.00  0.00     0.010 A 
ATOM     36  C   UNL A   1      40.271  26.816  29.155  1.00  0.00     0.010 A 
ATOM     37  C   UNL A   1      41.176  27.855  29.419  1.00  0.00    -0.014 A 
BRANCH  37  38
ATOM     38  C   UNL A   1      40.930  28.767  30.563  1.00  0.00     0.031 A 
ATOM     39  C   UNL A   1      41.759  28.647  31.812  1.00  0.00     0.074 A 
ATOM     40  C   UNL A   1      39.930  29.670  30.494  1.00  0.00     0.049 A 
ATOM     41  N   UNL A   1      41.656  29.307  32.935  1.00  0.00    -0.248 NA
ATOM     42  C   UNL A   1      42.827  27.634  31.806  1.00  0.00     0.031 C 
ATOM     43  C   UNL A   1      39.033  29.851  29.350  1.00  0.00     0.029 A 
ATOM     44  N   UNL A   1      39.497  30.601  31.404  1.00  0.00    -0.354 N 
ATOM     45  C   UNL A   1      42.640  28.789  33.769  1.00  0.00     0.074 A 
ATOM     46  C   UNL A   1      43.289  27.719  33.045  1.00  0.00     0.031 C 
ATOM     47  C   UNL A   1      38.177  30.851  29.615  1.00  0.00     0.029 A 
ATOM     48  C   UNL A   1      38.438  31.359  30.960  1.00  0.00     0.049 A 
ATOM     49  H   UNL A   1      39.905  30.716  32.292  1.00  0.00     0.167 HD
ATOM     50  C   UNL A   1      42.990  29.192  35.013  1.00  0.00     0.037 A 
ATOM     51  C   UNL A   1      37.753  32.347  31.568  1.00  0.00     0.037 A 
ATOM     52  C   UNL A   1      42.358  30.277  35.715  1.00  0.00     0.049 A 
ATOM     53  C   UNL A   1      38.154  32.769  32.955  1.00  0.00     0.074 A 
ATOM     54  C   UNL A   1      42.668  30.790  36.961  1.00  0.00     0.029 A 
ATOM     55  N   UNL A   1      41.293  31.023  35.229  1.00  0.00    -0.354 N 
ATOM     56  N   UNL A   1      39.114  32.296  33.712  1.00  0.00    -0.248 NA
ATOM     57  C   UNL A   1      37.384  33.858  33.571  1.00  0.00     0.031 C 
ATOM     58  C   UNL A   1      41.766  31.818  37.248  1.00  0.00     0.029 A 
ATOM     59  C   UNL A   1      40.924  31.979  36.159  1.00  0.00     0.049 A 
ATOM     60  H   UNL A   1      40.864  30.891  34.353  1.00  0.00     0.167 HD
ATOM     61  C   UNL A   1      39.079  33.043  34.884  1.00  0.00     0.074 A 
ATOM     62  C   UNL A   1      38.010  34.008  34.731  1.00  0.00     0.031 C 
ATOM     63  C   UNL A   1      39.859  32.937  35.987  1.00  0.00     0.037 A 
BRANCH  50  64
ATOM     64  C   UNL A   1      44.124  28.473  35.690  1.00  0.00     0.058 A 
ATOM     65  C   UNL A   1      45.455  28.856  35.459  1.00  0.00     0.135 A 
ATOM     66  C   UNL A   1      43.896  27.363  36.518  1.00  0.00     0.135 A 
ATOM     67  F   UNL A   1      45.730  29.916  34.682  1.00  0.00    -0.206 F 
ATOM     68  C   UNL A   1      46.520  28.152  36.011  1.00  0.00     0.059 A 
ATOM     69  C   UNL A   1      44.945  26.660  37.103  1.00  0.00     0.059 A 
ATOM     70  F   UNL A   1      42.642  26.970  36.792  1.00  0.00    -0.206 F 
ATOM     71  C   UNL A   1      46.255  27.053  36.830  1.00  0.00     0.060 A 
BRANCH  71  72
ATOM     72  S   UNL A   1      47.647  26.164  37.557  1.00  0.00     0.124 S 
ATOM     73  O   UNL A   1      46.970  25.174  38.388  1.00  0.00    -0.237 OA
ATOM     74  O   UNL A   1      48.328  25.644  36.374  1.00  0.00    -0.237 OA
ATOM     75  O   UNL A   1      48.372  27.204  38.280  1.00  0.00    -0.744 OA
ENDBRANCH  71  72
ENDBRANCH  50  64
BRANCH  51  76
ATOM     76  C   UNL A   1      36.640  33.025  30.850  1.00  0.00     0.058 A 
ATOM     77  C   UNL A   1      36.889  33.956  29.830  1.00  0.00     0.135 A 
ATOM     78  C   UNL A   1      35.303  32.779  31.197  1.00  0.00     0.135 A 
ATOM     79  F   UNL A   1      38.151  34.236  29.467  1.00  0.00    -0.206 F 
ATOM     80  C   UNL A   1      35.856  34.636  29.196  1.00  0.00     0.059 A 
ATOM     81  C   UNL A   1      34.250  33.429  30.560  1.00  0.00     0.059 A 
ATOM     82  F   UNL A   1      35.015  31.889  32.158  1.00  0.00    -0.206 F 
ATOM     83  C   UNL A   1      34.538  34.369  29.571  1.00  0.00     0.060 A 
BRANCH  83  84
ATOM     84  S   UNL A   1      33.211  35.274  28.746  1.00  0.00     0.124 S 
ATOM     85  O   UNL A   1      32.442  35.765  29.885  1.00  0.00    -0.237 OA
ATOM     86  O   UNL A   1      33.951  36.284  27.997  1.00  0.00    -0.237 OA
ATOM     87  O   UNL A   1      32.556  34.251  27.937  1.00  0.00    -0.744 OA
ENDBRANCH  83  84
ENDBRANCH  51  76
BRANCH  63  88
ATOM     88  C   UNL A   1      39.609  33.896  37.117  1.00  0.00     0.058 A 
ATOM     89  C   UNL A   1      40.195  35.172  37.109  1.00  0.00     0.135 A 
ATOM     90  C   UNL A   1      38.866  33.520  38.247  1.00  0.00     0.135 A 
ATOM     91  F   UNL A   1      40.920  35.579  36.056  1.00  0.00    -0.206 F 
ATOM     92  C   UNL A   1      40.074  36.033  38.195  1.00  0.00     0.059 A 
ATOM     93  C   UNL A   1      38.710  34.375  39.333  1.00  0.00     0.059 A 
ATOM     94  F   UNL A   1      38.277  32.315  38.296  1.00  0.00    -0.206 F 
ATOM     95  C   UNL A   1      39.335  35.623  39.305  1.00  0.00     0.060 A 
BRANCH  95  96
ATOM     96  S   UNL A   1      39.190  36.751  40.706  1.00  0.00     0.124 S 
ATOM     97  O   UNL A   1      40.543  36.724  41.253  1.00  0.00    -0.237 OA
ATOM     98  O   UNL A   1      38.792  37.997  40.059  1.00  0.00    -0.237 OA
ATOM     99  O   UNL A   1      38.163  36.130  41.538  1.00  0.00    -0.744 OA
ENDBRANCH  95  96
ENDBRANCH  63  88
ENDBRANCH  37  38
ENDBRANCH  29  32
ENDBRANCH  27  28
ENDBRANCH  26  27
ENDBRANCH   1  26
TORSDOF 18
ENDMDL
