MODEL 1
REMARK VINA RESULT:     -11.9      0.000      0.000
REMARK SMILES Cc1cc(C(=O)Nc2ccn(C)n2)sc1/C=C/C(=O)NCCCCNC(=O)c1ccc(-c2c3nc(c(-c4c(F)cc(S(=O)(=O)[O-])cc4F)c4ccc([nH]4)c(-c4c(F)cc(S(=O)(=O)[O-])cc4F)c4nc(c(-c5c(F)cc(S(=O)(=O)[O-])cc5F)c5ccc2[nH]5)C=C4)C=C3)cc1
REMARK SMILES IDX 22 1 21 2 20 3 18 4 19 5 17 7 16 8 15 9 1 10 2 11 3 12 4 13
REMARK SMILES IDX 14 14 5 15 6 16 7 17 8 19 9 20 13 21 10 22 11 23 12 24 23 25
REMARK SMILES IDX 24 26 25 27 26 28 27 30 28 31 29 32 93 33 30 34 92 35 31 36
REMARK SMILES IDX 32 37 33 38 86 39 34 40 91 41 85 42 87 43 35 44 90 45 84 46
REMARK SMILES IDX 83 47 36 49 70 50 49 51 69 52 50 53 53 54 68 55 88 56 51 57
REMARK SMILES IDX 52 58 67 60 89 61 54 62 37 63 38 64 47 65 39 66 40 67 46 68
REMARK SMILES IDX 48 69 41 70 42 71 43 72 44 73 45 74 71 75 72 76 81 77 73 78
REMARK SMILES IDX 74 79 80 80 82 81 75 82 76 83 77 84 78 85 79 86 55 87 56 88
REMARK SMILES IDX 65 89 57 90 58 91 64 92 66 93 59 94 60 95 61 96 62 97 63 98
REMARK H PARENT 20 6 7 18 25 29 87 48 53 59
REMARK Flexibility Score: inf
ROOT
ATOM      1  C   UNL A   1      31.884  28.761  25.344  1.00  0.00     0.023 C 
ENDROOT
BRANCH   1   2
ATOM      2  C   UNL A   1      31.300  27.926  24.204  1.00  0.00     0.116 C 
BRANCH   2   3
ATOM      3  N   UNL A   1      32.161  27.973  23.037  1.00  0.00    -0.353 N 
ATOM      4  C   UNL A   1      33.246  27.218  22.721  1.00  0.00     0.244 C 
ATOM      5  O   UNL A   1      33.800  27.356  21.633  1.00  0.00    -0.270 OA
ATOM      6  H   UNL A   1      31.922  28.659  22.371  1.00  0.00     0.163 HD
BRANCH   4   7
ATOM      7  C   UNL A   1      33.728  26.169  23.646  1.00  0.00     0.072 C 
ATOM      8  C   UNL A   1      34.210  24.987  23.235  1.00  0.00     0.025 C 
BRANCH   8   9
ATOM      9  C   UNL A   1      34.588  23.921  24.104  1.00  0.00     0.031 A 
ATOM     10  C   UNL A   1      36.688  23.002  22.929  1.00  0.00     0.046 C 
ATOM     11  C   UNL A   1      35.578  22.958  23.930  1.00  0.00    -0.032 A 
ATOM     12  C   UNL A   1      35.362  21.841  24.813  1.00  0.00     0.029 A 
ATOM     13  C   UNL A   1      34.290  22.024  25.669  1.00  0.00     0.093 A 
ATOM     14  S   UNL A   1      33.846  23.674  25.632  1.00  0.00    -0.130 S 
BRANCH  13  15
ATOM     15  C   UNL A   1      33.754  21.070  26.637  1.00  0.00     0.266 C 
ATOM     16  O   UNL A   1      33.848  21.274  27.851  1.00  0.00    -0.268 OA
ATOM     17  N   UNL A   1      33.048  19.953  26.242  1.00  0.00    -0.304 N 
ATOM     18  H   UNL A   1      32.448  19.578  26.927  1.00  0.00     0.171 HD
BRANCH  17  19
ATOM     19  C   UNL A   1      33.052  19.282  25.047  1.00  0.00     0.154 A 
ATOM     20  C   UNL A   1      32.213  19.438  23.918  1.00  0.00     0.068 A 
ATOM     21  N   UNL A   1      33.963  18.329  24.841  1.00  0.00    -0.155 NA
ATOM     22  C   UNL A   1      32.541  18.396  23.082  1.00  0.00     0.110 A 
ATOM     23  N   UNL A   1      33.531  17.715  23.722  1.00  0.00    -0.274 N 
ATOM     24  C   UNL A   1      34.052  16.413  23.381  1.00  0.00     0.173 C 
ENDBRANCH  17  19
ENDBRANCH  13  15
ENDBRANCH   8   9
ENDBRANCH   4   7
ENDBRANCH   2   3
ENDBRANCH   1   2
BRANCH   1  25
ATOM     25  C   UNL A   1      32.335  27.938  26.553  1.00  0.00     0.023 C 
BRANCH  25  26
ATOM     26  C   UNL A   1      33.585  28.464  27.253  1.00  0.00     0.116 C 
BRANCH  26  27
ATOM     27  N   UNL A   1      33.488  29.864  27.631  1.00  0.00    -0.352 N 
ATOM     28  C   UNL A   1      34.462  30.663  28.184  1.00  0.00     0.251 C 
ATOM     29  H   UNL A   1      32.616  30.295  27.472  1.00  0.00     0.163 HD
ATOM     30  O   UNL A   1      34.199  31.801  28.546  1.00  0.00    -0.269 OA
BRANCH  28  31
ATOM     31  C   UNL A   1      35.816  30.103  28.378  1.00  0.00     0.039 A 
ATOM     32  C   UNL A   1      36.722  30.156  27.317  1.00  0.00     0.014 A 
ATOM     33  C   UNL A   1      36.200  29.583  29.616  1.00  0.00     0.014 A 
ATOM     34  C   UNL A   1      38.041  29.749  27.521  1.00  0.00     0.010 A 
ATOM     35  C   UNL A   1      37.530  29.238  29.835  1.00  0.00     0.010 A 
ATOM     36  C   UNL A   1      38.464  29.324  28.791  1.00  0.00    -0.014 A 
BRANCH  36  37
ATOM     37  C   UNL A   1      39.881  28.974  29.055  1.00  0.00     0.031 A 
ATOM     38  C   UNL A   1      40.819  30.007  29.612  1.00  0.00     0.074 A 
ATOM     39  C   UNL A   1      40.337  27.751  28.720  1.00  0.00     0.049 A 
ATOM     40  N   UNL A   1      42.106  29.921  29.828  1.00  0.00    -0.248 NA
ATOM     41  C   UNL A   1      40.240  31.319  29.941  1.00  0.00     0.031 C 
ATOM     42  C   UNL A   1      39.533  26.682  28.120  1.00  0.00     0.029 A 
ATOM     43  N   UNL A   1      41.592  27.204  28.820  1.00  0.00    -0.354 N 
ATOM     44  C   UNL A   1      42.494  31.170  30.300  1.00  0.00     0.074 A 
ATOM     45  C   UNL A   1      41.315  32.009  30.295  1.00  0.00     0.031 C 
ATOM     46  C   UNL A   1      40.311  25.604  27.923  1.00  0.00     0.029 A 
ATOM     47  C   UNL A   1      41.672  25.914  28.351  1.00  0.00     0.049 A 
ATOM     48  H   UNL A   1      42.362  27.690  29.193  1.00  0.00     0.167 HD
ATOM     49  C   UNL A   1      43.717  31.572  30.719  1.00  0.00     0.037 A 
ATOM     50  C   UNL A   1      42.723  25.077  28.271  1.00  0.00     0.037 A 
ATOM     51  C   UNL A   1      44.877  30.722  30.754  1.00  0.00     0.049 A 
ATOM     52  C   UNL A   1      44.066  25.538  28.768  1.00  0.00     0.074 A 
ATOM     53  C   UNL A   1      46.148  31.017  31.217  1.00  0.00     0.029 A 
ATOM     54  N   UNL A   1      44.907  29.407  30.313  1.00  0.00    -0.354 N 
ATOM     55  N   UNL A   1      44.402  26.704  29.267  1.00  0.00    -0.248 NA
ATOM     56  C   UNL A   1      45.169  24.570  28.702  1.00  0.00     0.031 C 
ATOM     57  C   UNL A   1      46.954  29.890  31.029  1.00  0.00     0.029 A 
ATOM     58  C   UNL A   1      46.176  28.880  30.484  1.00  0.00     0.049 A 
ATOM     59  H   UNL A   1      44.141  28.921  29.934  1.00  0.00     0.167 HD
ATOM     60  C   UNL A   1      45.748  26.601  29.599  1.00  0.00     0.074 A 
ATOM     61  C   UNL A   1      46.163  25.258  29.250  1.00  0.00     0.031 C 
ATOM     62  C   UNL A   1      46.566  27.535  30.146  1.00  0.00     0.037 A 
BRANCH  49  63
ATOM     63  C   UNL A   1      43.857  32.995  31.184  1.00  0.00     0.058 A 
ATOM     64  C   UNL A   1      43.643  33.353  32.524  1.00  0.00     0.135 A 
ATOM     65  C   UNL A   1      44.230  34.008  30.285  1.00  0.00     0.135 A 
ATOM     66  F   UNL A   1      43.269  32.427  33.421  1.00  0.00    -0.206 F 
ATOM     67  C   UNL A   1      43.764  34.671  32.953  1.00  0.00     0.059 A 
ATOM     68  C   UNL A   1      44.381  35.329  30.698  1.00  0.00     0.059 A 
ATOM     69  F   UNL A   1      44.445  33.719  28.993  1.00  0.00    -0.206 F 
ATOM     70  C   UNL A   1      44.130  35.653  32.030  1.00  0.00     0.060 A 
BRANCH  70  71
ATOM     71  S   UNL A   1      44.279  37.359  32.599  1.00  0.00     0.124 S 
ATOM     72  O   UNL A   1      45.652  37.380  33.094  1.00  0.00    -0.237 OA
ATOM     73  O   UNL A   1      44.034  38.121  31.379  1.00  0.00    -0.237 OA
ATOM     74  O   UNL A   1      43.241  37.467  33.620  1.00  0.00    -0.744 OA
ENDBRANCH  70  71
ENDBRANCH  49  63
BRANCH  50  75
ATOM     75  C   UNL A   1      42.541  23.707  27.727  1.00  0.00     0.058 A 
ATOM     76  C   UNL A   1      42.556  23.476  26.344  1.00  0.00     0.135 A 
ATOM     77  C   UNL A   1      42.369  22.602  28.574  1.00  0.00     0.135 A 
ATOM     78  F   UNL A   1      42.714  24.502  25.494  1.00  0.00    -0.206 F 
ATOM     79  C   UNL A   1      42.393  22.199  25.816  1.00  0.00     0.059 A 
ATOM     80  C   UNL A   1      42.225  21.313  28.071  1.00  0.00     0.059 A 
ATOM     81  F   UNL A   1      42.366  22.769  29.906  1.00  0.00    -0.206 F 
ATOM     82  C   UNL A   1      42.228  21.123  26.690  1.00  0.00     0.060 A 
BRANCH  82  83
ATOM     83  S   UNL A   1      42.070  19.461  25.998  1.00  0.00     0.124 S 
ATOM     84  O   UNL A   1      42.915  19.555  24.814  1.00  0.00    -0.237 OA
ATOM     85  O   UNL A   1      42.580  18.627  27.082  1.00  0.00    -0.237 OA
ATOM     86  O   UNL A   1      40.637  19.339  25.747  1.00  0.00    -0.744 OA
ENDBRANCH  82  83
ENDBRANCH  50  75
BRANCH  62  87
ATOM     87  C   UNL A   1      47.981  27.128  30.439  1.00  0.00     0.058 A 
ATOM     88  C   UNL A   1      49.001  27.270  29.486  1.00  0.00     0.135 A 
ATOM     89  C   UNL A   1      48.331  26.649  31.712  1.00  0.00     0.135 A 
ATOM     90  F   UNL A   1      48.716  27.717  28.253  1.00  0.00    -0.206 F 
ATOM     91  C   UNL A   1      50.319  26.939  29.780  1.00  0.00     0.059 A 
ATOM     92  C   UNL A   1      49.646  26.332  32.035  1.00  0.00     0.059 A 
ATOM     93  F   UNL A   1      47.393  26.502  32.660  1.00  0.00    -0.206 F 
ATOM     94  C   UNL A   1      50.632  26.473  31.059  1.00  0.00     0.060 A 
BRANCH  94  95
ATOM     95  S   UNL A   1      52.354  26.091  31.446  1.00  0.00     0.124 S 
ATOM     96  O   UNL A   1      52.983  26.207  30.135  1.00  0.00    -0.237 OA
ATOM     97  O   UNL A   1      52.699  27.132  32.410  1.00  0.00    -0.237 OA
ATOM     98  O   UNL A   1      52.286  24.738  31.993  1.00  0.00    -0.744 OA
ENDBRANCH  94  95
ENDBRANCH  62  87
ENDBRANCH  36  37
ENDBRANCH  28  31
ENDBRANCH  26  27
ENDBRANCH  25  26
ENDBRANCH   1  25
TORSDOF 17
ENDMDL
MODEL 2
REMARK VINA RESULT:     -11.5      1.322      2.296
REMARK SMILES Cc1cc(C(=O)Nc2ccn(C)n2)sc1/C=C/C(=O)NCCCCNC(=O)c1ccc(-c2c3nc(c(-c4c(F)cc(S(=O)(=O)[O-])cc4F)c4ccc([nH]4)c(-c4c(F)cc(S(=O)(=O)[O-])cc4F)c4nc(c(-c5c(F)cc(S(=O)(=O)[O-])cc5F)c5ccc2[nH]5)C=C4)C=C3)cc1
REMARK SMILES IDX 22 1 21 2 20 3 18 4 19 5 17 7 16 8 15 9 1 10 2 11 3 12 4 13
REMARK SMILES IDX 14 14 5 15 6 16 7 17 8 19 9 20 13 21 10 22 11 23 12 24 23 25
REMARK SMILES IDX 24 26 25 27 26 28 27 30 28 31 29 32 93 33 30 34 92 35 31 36
REMARK SMILES IDX 32 37 33 38 86 39 34 40 91 41 85 42 87 43 35 44 90 45 84 46
REMARK SMILES IDX 83 47 36 49 70 50 49 51 69 52 50 53 53 54 68 55 88 56 51 57
REMARK SMILES IDX 52 58 67 60 89 61 54 62 37 63 38 64 47 65 39 66 40 67 46 68
REMARK SMILES IDX 48 69 41 70 42 71 43 72 44 73 45 74 71 75 72 76 81 77 73 78
REMARK SMILES IDX 74 79 80 80 82 81 75 82 76 83 77 84 78 85 79 86 55 87 56 88
REMARK SMILES IDX 65 89 57 90 58 91 64 92 66 93 59 94 60 95 61 96 62 97 63 98
REMARK H PARENT 20 6 7 18 25 29 87 48 53 59
REMARK Flexibility Score: inf
ROOT
ATOM      1  C   UNL A   1      33.490  28.759  24.632  1.00  0.00     0.023 C 
ENDROOT
BRANCH   1   2
ATOM      2  C   UNL A   1      33.852  27.760  23.533  1.00  0.00     0.116 C 
BRANCH   2   3
ATOM      3  N   UNL A   1      32.786  27.663  22.553  1.00  0.00    -0.353 N 
ATOM      4  C   UNL A   1      32.020  26.597  22.199  1.00  0.00     0.244 C 
ATOM      5  O   UNL A   1      31.100  26.737  21.396  1.00  0.00    -0.270 OA
ATOM      6  H   UNL A   1      32.588  28.498  22.069  1.00  0.00     0.163 HD
BRANCH   4   7
ATOM      7  C   UNL A   1      32.230  25.277  22.830  1.00  0.00     0.072 C 
ATOM      8  C   UNL A   1      31.269  24.612  23.489  1.00  0.00     0.025 C 
BRANCH   8   9
ATOM      9  C   UNL A   1      31.469  23.386  24.191  1.00  0.00     0.031 A 
ATOM     10  C   UNL A   1      30.377  23.900  26.467  1.00  0.00     0.046 C 
ATOM     11  C   UNL A   1      31.212  23.091  25.527  1.00  0.00    -0.032 A 
ATOM     12  C   UNL A   1      31.928  21.908  25.933  1.00  0.00     0.029 A 
ATOM     13  C   UNL A   1      32.620  21.309  24.895  1.00  0.00     0.093 A 
ATOM     14  S   UNL A   1      32.064  21.972  23.421  1.00  0.00    -0.130 S 
BRANCH  13  15
ATOM     15  C   UNL A   1      33.498  20.144  24.969  1.00  0.00     0.266 C 
ATOM     16  O   UNL A   1      33.043  19.016  25.182  1.00  0.00    -0.268 OA
ATOM     17  N   UNL A   1      34.852  20.237  24.722  1.00  0.00    -0.304 N 
ATOM     18  H   UNL A   1      35.283  19.393  24.455  1.00  0.00     0.171 HD
BRANCH  17  19
ATOM     19  C   UNL A   1      35.690  21.319  24.790  1.00  0.00     0.154 A 
ATOM     20  C   UNL A   1      35.803  22.434  23.926  1.00  0.00     0.068 A 
ATOM     21  N   UNL A   1      36.554  21.407  25.804  1.00  0.00    -0.155 NA
ATOM     22  C   UNL A   1      36.916  23.115  24.364  1.00  0.00     0.110 A 
ATOM     23  N   UNL A   1      37.375  22.410  25.434  1.00  0.00    -0.274 N 
ATOM     24  C   UNL A   1      38.646  22.568  26.100  1.00  0.00     0.173 C 
ENDBRANCH  17  19
ENDBRANCH  13  15
ENDBRANCH   8   9
ENDBRANCH   4   7
ENDBRANCH   2   3
ENDBRANCH   1   2
BRANCH   1  25
ATOM     25  C   UNL A   1      32.869  28.121  25.877  1.00  0.00     0.023 C 
BRANCH  25  26
ATOM     26  C   UNL A   1      33.602  28.420  27.181  1.00  0.00     0.116 C 
BRANCH  26  27
ATOM     27  N   UNL A   1      33.475  29.805  27.609  1.00  0.00    -0.352 N 
ATOM     28  C   UNL A   1      34.428  30.599  28.205  1.00  0.00     0.251 C 
ATOM     29  H   UNL A   1      32.599  30.226  27.452  1.00  0.00     0.163 HD
ATOM     30  O   UNL A   1      34.140  31.718  28.603  1.00  0.00    -0.269 OA
BRANCH  28  31
ATOM     31  C   UNL A   1      35.788  30.055  28.397  1.00  0.00     0.039 A 
ATOM     32  C   UNL A   1      36.676  30.070  27.320  1.00  0.00     0.014 A 
ATOM     33  C   UNL A   1      36.197  29.588  29.649  1.00  0.00     0.014 A 
ATOM     34  C   UNL A   1      38.001  29.679  27.517  1.00  0.00     0.010 A 
ATOM     35  C   UNL A   1      37.532  29.260  29.858  1.00  0.00     0.010 A 
ATOM     36  C   UNL A   1      38.448  29.308  28.796  1.00  0.00    -0.014 A 
BRANCH  36  37
ATOM     37  C   UNL A   1      39.871  28.978  29.049  1.00  0.00     0.031 A 
ATOM     38  C   UNL A   1      40.800  30.024  29.597  1.00  0.00     0.074 A 
ATOM     39  C   UNL A   1      40.341  27.760  28.713  1.00  0.00     0.049 A 
ATOM     40  N   UNL A   1      42.090  29.955  29.804  1.00  0.00    -0.248 NA
ATOM     41  C   UNL A   1      40.206  31.329  29.929  1.00  0.00     0.031 C 
ATOM     42  C   UNL A   1      39.547  26.680  28.121  1.00  0.00     0.029 A 
ATOM     43  N   UNL A   1      41.603  27.230  28.804  1.00  0.00    -0.354 N 
ATOM     44  C   UNL A   1      42.464  31.210  30.270  1.00  0.00     0.074 A 
ATOM     45  C   UNL A   1      41.275  32.033  30.273  1.00  0.00     0.031 C 
ATOM     46  C   UNL A   1      40.337  25.612  27.920  1.00  0.00     0.029 A 
ATOM     47  C   UNL A   1      41.697  25.940  28.336  1.00  0.00     0.049 A 
ATOM     48  H   UNL A   1      42.370  27.727  29.170  1.00  0.00     0.167 HD
ATOM     49  C   UNL A   1      43.686  31.629  30.679  1.00  0.00     0.037 A 
ATOM     50  C   UNL A   1      42.759  25.117  28.250  1.00  0.00     0.037 A 
ATOM     51  C   UNL A   1      44.857  30.794  30.706  1.00  0.00     0.049 A 
ATOM     52  C   UNL A   1      44.099  25.597  28.736  1.00  0.00     0.074 A 
ATOM     53  C   UNL A   1      46.127  31.106  31.159  1.00  0.00     0.029 A 
ATOM     54  N   UNL A   1      44.901  29.479  30.267  1.00  0.00    -0.354 N 
ATOM     55  N   UNL A   1      44.424  26.768  29.230  1.00  0.00    -0.248 NA
ATOM     56  C   UNL A   1      45.214  24.643  28.662  1.00  0.00     0.031 C 
ATOM     57  C   UNL A   1      46.947  29.990  30.967  1.00  0.00     0.029 A 
ATOM     58  C   UNL A   1      46.179  28.969  30.430  1.00  0.00     0.049 A 
ATOM     59  H   UNL A   1      44.138  28.982  29.895  1.00  0.00     0.167 HD
ATOM     60  C   UNL A   1      45.773  26.683  29.551  1.00  0.00     0.074 A 
ATOM     61  C   UNL A   1      46.204  25.345  29.202  1.00  0.00     0.031 C 
ATOM     62  C   UNL A   1      46.583  27.628  30.090  1.00  0.00     0.037 A 
BRANCH  49  63
ATOM     63  C   UNL A   1      43.810  33.054  31.140  1.00  0.00     0.058 A 
ATOM     64  C   UNL A   1      44.080  34.096  30.240  1.00  0.00     0.135 A 
ATOM     65  C   UNL A   1      43.637  33.385  32.494  1.00  0.00     0.135 A 
ATOM     66  F   UNL A   1      44.269  33.832  28.937  1.00  0.00    -0.206 F 
ATOM     67  C   UNL A   1      44.204  35.413  30.667  1.00  0.00     0.059 A 
ATOM     68  C   UNL A   1      43.732  34.701  32.941  1.00  0.00     0.059 A 
ATOM     69  F   UNL A   1      43.380  32.427  33.397  1.00  0.00    -0.206 F 
ATOM     70  C   UNL A   1      44.032  35.705  32.022  1.00  0.00     0.060 A 
BRANCH  70  71
ATOM     71  S   UNL A   1      44.200  37.418  32.564  1.00  0.00     0.124 S 
ATOM     72  O   UNL A   1      43.142  37.511  33.565  1.00  0.00    -0.237 OA
ATOM     73  O   UNL A   1      45.565  37.453  33.080  1.00  0.00    -0.237 OA
ATOM     74  O   UNL A   1      43.977  38.183  31.341  1.00  0.00    -0.744 OA
ENDBRANCH  70  71
ENDBRANCH  49  63
BRANCH  50  75
ATOM     75  C   UNL A   1      42.590  23.744  27.709  1.00  0.00     0.058 A 
ATOM     76  C   UNL A   1      42.551  23.516  26.326  1.00  0.00     0.135 A 
ATOM     77  C   UNL A   1      42.486  22.632  28.560  1.00  0.00     0.135 A 
ATOM     78  F   UNL A   1      42.643  24.548  25.474  1.00  0.00    -0.206 F 
ATOM     79  C   UNL A   1      42.400  22.236  25.802  1.00  0.00     0.059 A 
ATOM     80  C   UNL A   1      42.355  21.341  28.059  1.00  0.00     0.059 A 
ATOM     81  F   UNL A   1      42.537  22.796  29.891  1.00  0.00    -0.206 F 
ATOM     82  C   UNL A   1      42.303  21.154  26.678  1.00  0.00     0.060 A 
BRANCH  82  83
ATOM     83  S   UNL A   1      42.160  19.490  25.988  1.00  0.00     0.124 S 
ATOM     84  O   UNL A   1      40.747  19.442  25.630  1.00  0.00    -0.237 OA
ATOM     85  O   UNL A   1      43.101  19.537  24.873  1.00  0.00    -0.237 OA
ATOM     86  O   UNL A   1      42.561  18.633  27.100  1.00  0.00    -0.744 OA
ENDBRANCH  82  83
ENDBRANCH  50  75
BRANCH  62  87
ATOM     87  C   UNL A   1      48.006  27.240  30.373  1.00  0.00     0.058 A 
ATOM     88  C   UNL A   1      49.035  27.491  29.453  1.00  0.00     0.135 A 
ATOM     89  C   UNL A   1      48.352  26.669  31.608  1.00  0.00     0.135 A 
ATOM     90  F   UNL A   1      48.754  28.029  28.256  1.00  0.00    -0.206 F 
ATOM     91  C   UNL A   1      50.358  27.176  29.741  1.00  0.00     0.059 A 
ATOM     92  C   UNL A   1      49.671  26.365  31.927  1.00  0.00     0.059 A 
ATOM     93  F   UNL A   1      47.405  26.417  32.525  1.00  0.00    -0.206 F 
ATOM     94  C   UNL A   1      50.667  26.615  30.983  1.00  0.00     0.060 A 
BRANCH  94  95
ATOM     95  S   UNL A   1      52.393  26.254  31.366  1.00  0.00     0.124 S 
ATOM     96  O   UNL A   1      52.763  27.409  32.176  1.00  0.00    -0.237 OA
ATOM     97  O   UNL A   1      52.299  24.983  32.079  1.00  0.00    -0.237 OA
ATOM     98  O   UNL A   1      53.024  26.181  30.050  1.00  0.00    -0.744 OA
ENDBRANCH  94  95
ENDBRANCH  62  87
ENDBRANCH  36  37
ENDBRANCH  28  31
ENDBRANCH  26  27
ENDBRANCH  25  26
ENDBRANCH   1  25
TORSDOF 17
ENDMDL
MODEL 3
REMARK VINA RESULT:     -11.1      2.884      8.846
REMARK SMILES Cc1cc(C(=O)Nc2ccn(C)n2)sc1/C=C/C(=O)NCCCCNC(=O)c1ccc(-c2c3nc(c(-c4c(F)cc(S(=O)(=O)[O-])cc4F)c4ccc([nH]4)c(-c4c(F)cc(S(=O)(=O)[O-])cc4F)c4nc(c(-c5c(F)cc(S(=O)(=O)[O-])cc5F)c5ccc2[nH]5)C=C4)C=C3)cc1
REMARK SMILES IDX 22 1 21 2 20 3 18 4 19 5 17 7 16 8 15 9 1 10 2 11 3 12 4 13
REMARK SMILES IDX 14 14 5 15 6 16 7 17 8 19 9 20 13 21 10 22 11 23 12 24 23 25
REMARK SMILES IDX 24 26 25 27 26 28 27 30 28 31 29 32 93 33 30 34 92 35 31 36
REMARK SMILES IDX 32 37 33 38 86 39 34 40 91 41 85 42 87 43 35 44 90 45 84 46
REMARK SMILES IDX 83 47 36 49 70 50 49 51 69 52 50 53 53 54 68 55 88 56 51 57
REMARK SMILES IDX 52 58 67 60 89 61 54 62 37 63 38 64 47 65 39 66 40 67 46 68
REMARK SMILES IDX 48 69 41 70 42 71 43 72 44 73 45 74 71 75 72 76 81 77 73 78
REMARK SMILES IDX 74 79 80 80 82 81 75 82 76 83 77 84 78 85 79 86 55 87 56 88
REMARK SMILES IDX 65 89 57 90 58 91 64 92 66 93 59 94 60 95 61 96 62 97 63 98
REMARK H PARENT 20 6 7 18 25 29 87 48 53 59
REMARK Flexibility Score: inf
ROOT
ATOM      1  C   UNL A   1      33.531  30.157  26.827  1.00  0.00     0.023 C 
ENDROOT
BRANCH   1   2
ATOM      2  C   UNL A   1      32.591  29.686  25.716  1.00  0.00     0.116 C 
BRANCH   2   3
ATOM      3  N   UNL A   1      33.310  29.525  24.466  1.00  0.00    -0.353 N 
ATOM      4  C   UNL A   1      33.662  28.392  23.802  1.00  0.00     0.244 C 
ATOM      5  O   UNL A   1      34.202  28.465  22.700  1.00  0.00    -0.270 OA
ATOM      6  H   UNL A   1      33.585  30.366  24.033  1.00  0.00     0.163 HD
BRANCH   4   7
ATOM      7  C   UNL A   1      33.331  27.062  24.355  1.00  0.00     0.072 C 
ATOM      8  C   UNL A   1      33.659  25.909  23.752  1.00  0.00     0.025 C 
BRANCH   8   9
ATOM      9  C   UNL A   1      33.267  24.616  24.211  1.00  0.00     0.031 A 
ATOM     10  C   UNL A   1      30.747  24.611  23.676  1.00  0.00     0.046 C 
ATOM     11  C   UNL A   1      31.989  24.074  24.314  1.00  0.00    -0.032 A 
ATOM     12  C   UNL A   1      31.989  22.934  25.194  1.00  0.00     0.029 A 
ATOM     13  C   UNL A   1      33.252  22.603  25.653  1.00  0.00     0.093 A 
ATOM     14  S   UNL A   1      34.406  23.430  24.703  1.00  0.00    -0.130 S 
BRANCH  13  15
ATOM     15  C   UNL A   1      33.602  21.554  26.608  1.00  0.00     0.266 C 
ATOM     16  O   UNL A   1      34.039  21.832  27.729  1.00  0.00    -0.268 OA
ATOM     17  N   UNL A   1      33.382  20.220  26.335  1.00  0.00    -0.304 N 
ATOM     18  H   UNL A   1      33.315  19.640  27.128  1.00  0.00     0.171 HD
BRANCH  17  19
ATOM     19  C   UNL A   1      33.241  19.576  25.134  1.00  0.00     0.154 A 
ATOM     20  C   UNL A   1      32.235  19.708  24.147  1.00  0.00     0.068 A 
ATOM     21  N   UNL A   1      34.158  18.678  24.768  1.00  0.00    -0.155 NA
ATOM     22  C   UNL A   1      32.488  18.703  23.242  1.00  0.00     0.110 A 
ATOM     23  N   UNL A   1      33.596  18.064  23.708  1.00  0.00    -0.274 N 
ATOM     24  C   UNL A   1      34.126  16.800  23.257  1.00  0.00     0.173 C 
ENDBRANCH  17  19
ENDBRANCH  13  15
ENDBRANCH   8   9
ENDBRANCH   4   7
ENDBRANCH   2   3
ENDBRANCH   1   2
BRANCH   1  25
ATOM     25  C   UNL A   1      34.500  29.081  27.324  1.00  0.00     0.023 C 
BRANCH  25  26
ATOM     26  C   UNL A   1      35.746  29.617  28.023  1.00  0.00     0.116 C 
BRANCH  26  27
ATOM     27  N   UNL A   1      35.584  29.757  29.461  1.00  0.00    -0.352 N 
ATOM     28  C   UNL A   1      36.562  29.747  30.429  1.00  0.00     0.251 C 
ATOM     29  H   UNL A   1      34.660  29.872  29.782  1.00  0.00     0.163 HD
ATOM     30  O   UNL A   1      36.261  29.772  31.614  1.00  0.00    -0.269 OA
BRANCH  28  31
ATOM     31  C   UNL A   1      37.977  29.656  30.011  1.00  0.00     0.039 A 
ATOM     32  C   UNL A   1      38.894  29.055  30.875  1.00  0.00     0.014 A 
ATOM     33  C   UNL A   1      38.376  30.110  28.752  1.00  0.00     0.014 A 
ATOM     34  C   UNL A   1      40.205  28.845  30.444  1.00  0.00     0.010 A 
ATOM     35  C   UNL A   1      39.665  29.843  28.302  1.00  0.00     0.010 A 
ATOM     36  C   UNL A   1      40.589  29.203  29.142  1.00  0.00    -0.014 A 
BRANCH  36  37
ATOM     37  C   UNL A   1      41.950  28.908  28.631  1.00  0.00     0.031 A 
ATOM     38  C   UNL A   1      42.297  27.518  28.175  1.00  0.00     0.074 A 
ATOM     39  C   UNL A   1      42.892  29.872  28.652  1.00  0.00     0.049 A 
ATOM     40  N   UNL A   1      43.450  27.044  27.780  1.00  0.00    -0.248 NA
ATOM     41  C   UNL A   1      41.212  26.525  28.194  1.00  0.00     0.031 C 
ATOM     42  C   UNL A   1      42.689  31.244  29.124  1.00  0.00     0.029 A 
ATOM     43  N   UNL A   1      44.213  29.842  28.282  1.00  0.00    -0.354 N 
ATOM     44  C   UNL A   1      43.234  25.695  27.522  1.00  0.00     0.074 A 
ATOM     45  C   UNL A   1      41.852  25.418  27.849  1.00  0.00     0.031 C 
ATOM     46  C   UNL A   1      43.839  31.928  28.998  1.00  0.00     0.029 A 
ATOM     47  C   UNL A   1      44.867  31.037  28.468  1.00  0.00     0.049 A 
ATOM     48  H   UNL A   1      44.651  29.040  27.917  1.00  0.00     0.167 HD
ATOM     49  C   UNL A   1      44.104  24.778  27.037  1.00  0.00     0.037 A 
ATOM     50  C   UNL A   1      46.150  31.376  28.241  1.00  0.00     0.037 A 
ATOM     51  C   UNL A   1      45.468  25.070  26.682  1.00  0.00     0.049 A 
ATOM     52  C   UNL A   1      47.090  30.347  27.676  1.00  0.00     0.074 A 
ATOM     53  C   UNL A   1      46.413  24.225  26.126  1.00  0.00     0.029 A 
ATOM     54  N   UNL A   1      46.080  26.304  26.843  1.00  0.00    -0.354 N 
ATOM     55  N   UNL A   1      46.854  29.090  27.381  1.00  0.00    -0.248 NA
ATOM     56  C   UNL A   1      48.467  30.781  27.403  1.00  0.00     0.031 C 
ATOM     57  C   UNL A   1      47.606  24.940  25.977  1.00  0.00     0.029 A 
ATOM     58  C   UNL A   1      47.393  26.241  26.405  1.00  0.00     0.049 A 
ATOM     59  H   UNL A   1      45.647  27.106  27.213  1.00  0.00     0.167 HD
ATOM     60  C   UNL A   1      48.044  28.592  26.864  1.00  0.00     0.074 A 
ATOM     61  C   UNL A   1      48.996  29.683  26.879  1.00  0.00     0.031 C 
ATOM     62  C   UNL A   1      48.321  27.343  26.413  1.00  0.00     0.037 A 
BRANCH  49  63
ATOM     63  C   UNL A   1      43.600  23.374  26.852  1.00  0.00     0.058 A 
ATOM     64  C   UNL A   1      43.294  22.865  25.580  1.00  0.00     0.135 A 
ATOM     65  C   UNL A   1      43.442  22.520  27.956  1.00  0.00     0.135 A 
ATOM     66  F   UNL A   1      43.412  23.645  24.494  1.00  0.00    -0.206 F 
ATOM     67  C   UNL A   1      42.819  21.570  25.410  1.00  0.00     0.059 A 
ATOM     68  C   UNL A   1      42.992  21.211  27.806  1.00  0.00     0.059 A 
ATOM     69  F   UNL A   1      43.720  22.957  29.194  1.00  0.00    -0.206 F 
ATOM     70  C   UNL A   1      42.668  20.751  26.532  1.00  0.00     0.060 A 
BRANCH  70  71
ATOM     71  S   UNL A   1      42.047  19.073  26.296  1.00  0.00     0.124 S 
ATOM     72  O   UNL A   1      42.104  18.549  27.658  1.00  0.00    -0.237 OA
ATOM     73  O   UNL A   1      40.709  19.304  25.763  1.00  0.00    -0.237 OA
ATOM     74  O   UNL A   1      42.999  18.488  25.358  1.00  0.00    -0.744 OA
ENDBRANCH  70  71
ENDBRANCH  49  63
BRANCH  50  75
ATOM     75  C   UNL A   1      46.611  32.760  28.518  1.00  0.00     0.058 A 
ATOM     76  C   UNL A   1      47.122  33.109  29.777  1.00  0.00     0.135 A 
ATOM     77  C   UNL A   1      46.571  33.755  27.530  1.00  0.00     0.135 A 
ATOM     78  F   UNL A   1      47.176  32.191  30.756  1.00  0.00    -0.206 F 
ATOM     79  C   UNL A   1      47.564  34.398  30.054  1.00  0.00     0.059 A 
ATOM     80  C   UNL A   1      47.027  35.047  27.775  1.00  0.00     0.059 A 
ATOM     81  F   UNL A   1      46.109  33.467  26.303  1.00  0.00    -0.206 F 
ATOM     82  C   UNL A   1      47.513  35.361  29.044  1.00  0.00     0.060 A 
BRANCH  82  83
ATOM     83  S   UNL A   1      48.139  37.020  29.395  1.00  0.00     0.124 S 
ATOM     84  O   UNL A   1      47.018  37.608  30.119  1.00  0.00    -0.237 OA
ATOM     85  O   UNL A   1      49.333  36.737  30.186  1.00  0.00    -0.237 OA
ATOM     86  O   UNL A   1      48.393  37.568  28.067  1.00  0.00    -0.744 OA
ENDBRANCH  82  83
ENDBRANCH  50  75
BRANCH  62  87
ATOM     87  C   UNL A   1      49.696  27.096  25.863  1.00  0.00     0.058 A 
ATOM     88  C   UNL A   1      50.741  26.628  26.674  1.00  0.00     0.135 A 
ATOM     89  C   UNL A   1      49.952  27.269  24.493  1.00  0.00     0.135 A 
ATOM     90  F   UNL A   1      50.548  26.453  27.990  1.00  0.00    -0.206 F 
ATOM     91  C   UNL A   1      51.999  26.353  26.148  1.00  0.00     0.059 A 
ATOM     92  C   UNL A   1      51.195  26.980  23.942  1.00  0.00     0.059 A 
ATOM     93  F   UNL A   1      48.983  27.707  23.675  1.00  0.00    -0.206 F 
ATOM     94  C   UNL A   1      52.215  26.529  24.780  1.00  0.00     0.060 A 
BRANCH  94  95
ATOM     95  S   UNL A   1      53.838  26.124  24.099  1.00  0.00     0.124 S 
ATOM     96  O   UNL A   1      53.552  26.073  22.670  1.00  0.00    -0.237 OA
ATOM     97  O   UNL A   1      54.656  27.249  24.543  1.00  0.00    -0.237 OA
ATOM     98  O   UNL A   1      54.155  24.842  24.723  1.00  0.00    -0.744 OA
ENDBRANCH  94  95
ENDBRANCH  62  87
ENDBRANCH  36  37
ENDBRANCH  28  31
ENDBRANCH  26  27
ENDBRANCH  25  26
ENDBRANCH   1  25
TORSDOF 17
ENDMDL
