MODEL 1
REMARK VINA RESULT:     -11.7      0.000      0.000
REMARK SMILES CNC(=O)c1cccc(-c2cnc(O)c(C(=O)NCCCCNC(=O)c3ccc(-c4c5nc(c(-c6c(F)cc(S(=O)(=O)[O-])cc6F)c6ccc([nH]6)c(-c6c(F)cc(S(=O)(=O)[O-])cc6F)c6nc(c(-c7c(F)cc(S(=O)(=O)[O-])cc7F)c7ccc4[nH]7)C=C6)C=C5)cc3)c2)c1
REMARK SMILES IDX 21 1 20 2 19 3 18 4 16 5 17 6 15 8 10 9 11 10 92 11 12 12
REMARK SMILES IDX 13 13 9 14 5 15 6 16 93 17 7 18 8 19 3 20 1 21 2 22 4 24
REMARK SMILES IDX 14 25 22 27 23 28 24 29 25 31 26 32 27 33 91 34 28 35 90 36
REMARK SMILES IDX 29 37 30 38 31 39 84 40 32 41 89 42 83 43 85 44 33 45 88 46
REMARK SMILES IDX 82 47 81 48 34 50 68 51 47 52 67 53 48 54 51 55 66 56 86 57
REMARK SMILES IDX 49 58 50 59 65 61 87 62 52 63 35 64 36 65 45 66 37 67 38 68
REMARK SMILES IDX 44 69 46 70 39 71 40 72 41 73 42 74 43 75 69 76 70 77 79 78
REMARK SMILES IDX 71 79 72 80 78 81 80 82 73 83 74 84 75 85 76 86 77 87 53 88
REMARK SMILES IDX 54 89 63 90 55 91 56 92 62 93 64 94 57 95 58 96 59 97 60 98
REMARK SMILES IDX 61 99
REMARK H PARENT 18 7 2 23 14 26 23 30 85 49 51 60
REMARK Flexibility Score: inf
ROOT
ATOM      1  C   UNL A   1      33.204  28.218  25.806  1.00  0.00     0.023 C 
ENDROOT
BRANCH   1   2
ATOM      2  C   UNL A   1      33.366  29.433  24.890  1.00  0.00     0.023 C 
BRANCH   2   3
ATOM      3  C   UNL A   1      33.477  29.090  23.401  1.00  0.00     0.116 C 
BRANCH   3   4
ATOM      4  N   UNL A   1      32.182  28.722  22.851  1.00  0.00    -0.352 N 
ATOM      5  C   UNL A   1      31.672  27.533  22.393  1.00  0.00     0.256 C 
ATOM      6  O   UNL A   1      30.485  27.504  22.057  1.00  0.00    -0.269 OA
ATOM      7  H   UNL A   1      31.548  29.473  22.795  1.00  0.00     0.163 HD
BRANCH   5   8
ATOM      8  C   UNL A   1      32.433  26.261  22.333  1.00  0.00     0.102 A 
ATOM      9  C   UNL A   1      33.751  24.472  23.331  1.00  0.00     0.001 A 
ATOM     10  C   UNL A   1      33.664  23.808  22.117  1.00  0.00     0.124 A 
ATOM     11  C   UNL A   1      33.172  25.746  23.396  1.00  0.00     0.029 A 
ATOM     12  N   UNL A   1      33.032  24.303  21.028  1.00  0.00    -0.221 NA
ATOM     13  C   UNL A   1      32.425  25.505  21.158  1.00  0.00     0.223 A 
BRANCH   9  14
ATOM     14  C   UNL A   1      34.312  23.866  24.540  1.00  0.00    -0.016 A 
ATOM     15  C   UNL A   1      36.271  22.999  25.714  1.00  0.00     0.040 A 
ATOM     16  C   UNL A   1      35.455  22.604  26.777  1.00  0.00     0.014 A 
ATOM     17  C   UNL A   1      35.696  23.603  24.595  1.00  0.00     0.022 A 
ATOM     18  C   UNL A   1      34.082  22.856  26.736  1.00  0.00     0.001 A 
ATOM     19  C   UNL A   1      33.515  23.493  25.629  1.00  0.00     0.009 A 
BRANCH  15  20
ATOM     20  C   UNL A   1      37.714  22.657  25.760  1.00  0.00     0.251 C 
ATOM     21  C   UNL A   1      37.462  20.292  24.833  1.00  0.00     0.143 C 
ATOM     22  N   UNL A   1      38.160  21.397  25.450  1.00  0.00    -0.355 N 
ATOM     23  H   UNL A   1      39.099  21.219  25.684  1.00  0.00     0.163 HD
ATOM     24  O   UNL A   1      38.523  23.524  26.080  1.00  0.00    -0.269 OA
ENDBRANCH  15  20
ENDBRANCH   9  14
BRANCH  13  25
ATOM     25  O   UNL A   1      31.782  25.907  20.020  1.00  0.00    -0.493 OA
ATOM     26  H   UNL A   1      31.074  26.518  20.074  1.00  0.00     0.295 HD
ENDBRANCH  13  25
ENDBRANCH   5   8
ENDBRANCH   3   4
ENDBRANCH   2   3
ENDBRANCH   1   2
BRANCH   1  27
ATOM     27  C   UNL A   1      33.571  28.461  27.266  1.00  0.00     0.116 C 
BRANCH  27  28
ATOM     28  N   UNL A   1      33.459  29.856  27.664  1.00  0.00    -0.352 N 
ATOM     29  C   UNL A   1      34.422  30.658  28.235  1.00  0.00     0.251 C 
ATOM     30  H   UNL A   1      32.585  30.280  27.505  1.00  0.00     0.163 HD
ATOM     31  O   UNL A   1      34.144  31.787  28.606  1.00  0.00    -0.269 OA
BRANCH  29  32
ATOM     32  C   UNL A   1      35.782  30.114  28.437  1.00  0.00     0.039 A 
ATOM     33  C   UNL A   1      36.682  30.151  27.370  1.00  0.00     0.014 A 
ATOM     34  C   UNL A   1      36.177  29.616  29.680  1.00  0.00     0.014 A 
ATOM     35  C   UNL A   1      38.004  29.751  27.570  1.00  0.00     0.010 A 
ATOM     36  C   UNL A   1      37.509  29.278  29.896  1.00  0.00     0.010 A 
ATOM     37  C   UNL A   1      38.437  29.349  28.845  1.00  0.00    -0.014 A 
BRANCH  37  38
ATOM     38  C   UNL A   1      39.859  29.013  29.105  1.00  0.00     0.031 A 
ATOM     39  C   UNL A   1      40.790  30.055  29.656  1.00  0.00     0.074 A 
ATOM     40  C   UNL A   1      40.324  27.794  28.769  1.00  0.00     0.049 A 
ATOM     41  N   UNL A   1      42.078  29.980  29.868  1.00  0.00    -0.248 NA
ATOM     42  C   UNL A   1      40.201  31.363  29.988  1.00  0.00     0.031 C 
ATOM     43  C   UNL A   1      39.527  26.717  28.175  1.00  0.00     0.029 A 
ATOM     44  N   UNL A   1      41.583  27.258  28.863  1.00  0.00    -0.354 N 
ATOM     45  C   UNL A   1      42.458  31.231  30.340  1.00  0.00     0.074 A 
ATOM     46  C   UNL A   1      41.271  32.060  30.340  1.00  0.00     0.031 C 
ATOM     47  C   UNL A   1      40.313  25.646  27.976  1.00  0.00     0.029 A 
ATOM     48  C   UNL A   1      41.673  25.969  28.394  1.00  0.00     0.049 A 
ATOM     49  H   UNL A   1      42.351  27.752  29.234  1.00  0.00     0.167 HD
ATOM     50  C   UNL A   1      43.679  31.644  30.756  1.00  0.00     0.037 A 
ATOM     51  C   UNL A   1      42.733  25.143  28.305  1.00  0.00     0.037 A 
ATOM     52  C   UNL A   1      44.847  30.805  30.782  1.00  0.00     0.049 A 
ATOM     53  C   UNL A   1      44.076  25.619  28.789  1.00  0.00     0.074 A 
ATOM     54  C   UNL A   1      46.116  31.110  31.243  1.00  0.00     0.029 A 
ATOM     55  N   UNL A   1      44.891  29.494  30.331  1.00  0.00    -0.354 N 
ATOM     56  N   UNL A   1      44.403  26.787  29.289  1.00  0.00    -0.248 NA
ATOM     57  C   UNL A   1      45.190  24.666  28.702  1.00  0.00     0.031 C 
ATOM     58  C   UNL A   1      46.935  29.993  31.041  1.00  0.00     0.029 A 
ATOM     59  C   UNL A   1      46.167  28.980  30.490  1.00  0.00     0.049 A 
ATOM     60  H   UNL A   1      44.126  29.001  29.953  1.00  0.00     0.167 HD
ATOM     61  C   UNL A   1      45.756  26.700  29.598  1.00  0.00     0.074 A 
ATOM     62  C   UNL A   1      46.183  25.364  29.238  1.00  0.00     0.031 C 
ATOM     63  C   UNL A   1      46.571  27.644  30.133  1.00  0.00     0.037 A 
BRANCH  50  64
ATOM     64  C   UNL A   1      43.808  33.067  31.223  1.00  0.00     0.058 A 
ATOM     65  C   UNL A   1      44.159  34.100  30.339  1.00  0.00     0.135 A 
ATOM     66  C   UNL A   1      43.555  33.407  32.561  1.00  0.00     0.135 A 
ATOM     67  F   UNL A   1      44.427  33.827  29.052  1.00  0.00    -0.206 F 
ATOM     68  C   UNL A   1      44.286  35.415  30.772  1.00  0.00     0.059 A 
ATOM     69  C   UNL A   1      43.650  34.720  33.011  1.00  0.00     0.059 A 
ATOM     70  F   UNL A   1      43.217  32.457  33.448  1.00  0.00    -0.206 F 
ATOM     71  C   UNL A   1      44.034  35.715  32.112  1.00  0.00     0.060 A 
BRANCH  71  72
ATOM     72  S   UNL A   1      44.205  37.426  32.660  1.00  0.00     0.124 S 
ATOM     73  O   UNL A   1      43.934  38.155  31.425  1.00  0.00    -0.237 OA
ATOM     74  O   UNL A   1      43.181  37.529  33.694  1.00  0.00    -0.237 OA
ATOM     75  O   UNL A   1      45.584  37.492  33.139  1.00  0.00    -0.744 OA
ENDBRANCH  71  72
ENDBRANCH  50  64
BRANCH  51  76
ATOM     76  C   UNL A   1      42.562  23.773  27.758  1.00  0.00     0.058 A 
ATOM     77  C   UNL A   1      42.539  23.548  26.374  1.00  0.00     0.135 A 
ATOM     78  C   UNL A   1      42.437  22.660  28.604  1.00  0.00     0.135 A 
ATOM     79  F   UNL A   1      42.650  24.582  25.526  1.00  0.00    -0.206 F 
ATOM     80  C   UNL A   1      42.383  22.272  25.844  1.00  0.00     0.059 A 
ATOM     81  C   UNL A   1      42.303  21.370  28.098  1.00  0.00     0.059 A 
ATOM     82  F   UNL A   1      42.472  22.820  29.936  1.00  0.00    -0.206 F 
ATOM     83  C   UNL A   1      42.268  21.188  26.717  1.00  0.00     0.060 A 
BRANCH  83  84
ATOM     84  S   UNL A   1      42.119  19.527  26.021  1.00  0.00     0.124 S 
ATOM     85  O   UNL A   1      42.991  19.619  24.856  1.00  0.00    -0.237 OA
ATOM     86  O   UNL A   1      42.603  18.691  27.116  1.00  0.00    -0.237 OA
ATOM     87  O   UNL A   1      40.693  19.411  25.738  1.00  0.00    -0.744 OA
ENDBRANCH  83  84
ENDBRANCH  51  76
BRANCH  63  88
ATOM     88  C   UNL A   1      48.000  27.256  30.388  1.00  0.00     0.058 A 
ATOM     89  C   UNL A   1      49.000  27.463  29.428  1.00  0.00     0.135 A 
ATOM     90  C   UNL A   1      48.379  26.723  31.630  1.00  0.00     0.135 A 
ATOM     91  F   UNL A   1      48.687  27.964  28.222  1.00  0.00    -0.206 F 
ATOM     92  C   UNL A   1      50.329  27.141  29.684  1.00  0.00     0.059 A 
ATOM     93  C   UNL A   1      49.705  26.414  31.916  1.00  0.00     0.059 A 
ATOM     94  F   UNL A   1      47.459  26.513  32.586  1.00  0.00    -0.206 F 
ATOM     95  C   UNL A   1      50.671  26.617  30.932  1.00  0.00     0.060 A 
BRANCH  95  96
ATOM     96  S   UNL A   1      52.405  26.240  31.268  1.00  0.00     0.124 S 
ATOM     97  O   UNL A   1      52.305  24.920  31.881  1.00  0.00    -0.237 OA
ATOM     98  O   UNL A   1      52.999  26.277  29.935  1.00  0.00    -0.237 OA
ATOM     99  O   UNL A   1      52.819  27.318  32.161  1.00  0.00    -0.744 OA
ENDBRANCH  95  96
ENDBRANCH  63  88
ENDBRANCH  37  38
ENDBRANCH  29  32
ENDBRANCH  27  28
ENDBRANCH   1  27
TORSDOF 17
ENDMDL
MODEL 2
REMARK VINA RESULT:     -11.6      1.212      1.894
REMARK SMILES CNC(=O)c1cccc(-c2cnc(O)c(C(=O)NCCCCNC(=O)c3ccc(-c4c5nc(c(-c6c(F)cc(S(=O)(=O)[O-])cc6F)c6ccc([nH]6)c(-c6c(F)cc(S(=O)(=O)[O-])cc6F)c6nc(c(-c7c(F)cc(S(=O)(=O)[O-])cc7F)c7ccc4[nH]7)C=C6)C=C5)cc3)c2)c1
REMARK SMILES IDX 21 1 20 2 19 3 18 4 16 5 17 6 15 8 10 9 11 10 92 11 12 12
REMARK SMILES IDX 13 13 9 14 5 15 6 16 93 17 7 18 8 19 3 20 1 21 2 22 4 24
REMARK SMILES IDX 14 25 22 27 23 28 24 29 25 31 26 32 27 33 91 34 28 35 90 36
REMARK SMILES IDX 29 37 30 38 31 39 84 40 32 41 89 42 83 43 85 44 33 45 88 46
REMARK SMILES IDX 82 47 81 48 34 50 68 51 47 52 67 53 48 54 51 55 66 56 86 57
REMARK SMILES IDX 49 58 50 59 65 61 87 62 52 63 35 64 36 65 45 66 37 67 38 68
REMARK SMILES IDX 44 69 46 70 39 71 40 72 41 73 42 74 43 75 69 76 70 77 79 78
REMARK SMILES IDX 71 79 72 80 78 81 80 82 73 83 74 84 75 85 76 86 77 87 53 88
REMARK SMILES IDX 54 89 63 90 55 91 56 92 62 93 64 94 57 95 58 96 59 97 60 98
REMARK SMILES IDX 61 99
REMARK H PARENT 18 7 2 23 14 26 23 30 85 49 51 60
REMARK Flexibility Score: inf
ROOT
ATOM      1  C   UNL A   1      32.421  27.836  26.600  1.00  0.00     0.023 C 
ENDROOT
BRANCH   1   2
ATOM      2  C   UNL A   1      31.452  28.897  26.073  1.00  0.00     0.023 C 
BRANCH   2   3
ATOM      3  C   UNL A   1      31.320  28.927  24.548  1.00  0.00     0.116 C 
BRANCH   3   4
ATOM      4  N   UNL A   1      32.604  29.189  23.916  1.00  0.00    -0.352 N 
ATOM      5  C   UNL A   1      33.431  28.416  23.140  1.00  0.00     0.256 C 
ATOM      6  O   UNL A   1      34.438  28.946  22.662  1.00  0.00    -0.269 OA
ATOM      7  H   UNL A   1      32.946  30.098  24.077  1.00  0.00     0.163 HD
BRANCH   5   8
ATOM      8  C   UNL A   1      33.166  27.001  22.783  1.00  0.00     0.102 A 
ATOM      9  C   UNL A   1      33.635  24.613  22.887  1.00  0.00     0.001 A 
ATOM     10  C   UNL A   1      32.457  24.408  22.184  1.00  0.00     0.124 A 
ATOM     11  C   UNL A   1      34.006  25.943  23.123  1.00  0.00     0.029 A 
ATOM     12  N   UNL A   1      31.651  25.406  21.754  1.00  0.00    -0.221 NA
ATOM     13  C   UNL A   1      32.012  26.672  22.068  1.00  0.00     0.223 A 
BRANCH   9  14
ATOM     14  C   UNL A   1      34.423  23.524  23.468  1.00  0.00    -0.016 A 
ATOM     15  C   UNL A   1      34.464  21.429  24.725  1.00  0.00     0.040 A 
ATOM     16  C   UNL A   1      35.861  21.452  24.708  1.00  0.00     0.014 A 
ATOM     17  C   UNL A   1      33.755  22.473  24.129  1.00  0.00     0.022 A 
ATOM     18  C   UNL A   1      36.537  22.487  24.058  1.00  0.00     0.001 A 
ATOM     19  C   UNL A   1      35.822  23.511  23.433  1.00  0.00     0.009 A 
BRANCH  15  20
ATOM     20  C   UNL A   1      33.779  20.351  25.479  1.00  0.00     0.251 C 
ATOM     21  C   UNL A   1      33.642  21.614  27.693  1.00  0.00     0.143 C 
ATOM     22  N   UNL A   1      33.537  20.464  26.825  1.00  0.00    -0.355 N 
ATOM     23  H   UNL A   1      33.248  19.633  27.266  1.00  0.00     0.163 HD
ATOM     24  O   UNL A   1      33.420  19.340  24.883  1.00  0.00    -0.269 OA
ENDBRANCH  15  20
ENDBRANCH   9  14
BRANCH  13  25
ATOM     25  O   UNL A   1      31.119  27.609  21.626  1.00  0.00    -0.493 OA
ATOM     26  H   UNL A   1      30.306  27.730  22.077  1.00  0.00     0.295 HD
ENDBRANCH  13  25
ENDBRANCH   5   8
ENDBRANCH   3   4
ENDBRANCH   2   3
ENDBRANCH   1   2
BRANCH   1  27
ATOM     27  C   UNL A   1      33.686  28.388  27.249  1.00  0.00     0.116 C 
BRANCH  27  28
ATOM     28  N   UNL A   1      33.569  29.783  27.645  1.00  0.00    -0.352 N 
ATOM     29  C   UNL A   1      34.529  30.589  28.217  1.00  0.00     0.251 C 
ATOM     30  H   UNL A   1      32.695  30.204  27.486  1.00  0.00     0.163 HD
ATOM     31  O   UNL A   1      34.248  31.717  28.587  1.00  0.00    -0.269 OA
BRANCH  29  32
ATOM     32  C   UNL A   1      35.891  30.049  28.421  1.00  0.00     0.039 A 
ATOM     33  C   UNL A   1      36.782  30.058  27.345  1.00  0.00     0.014 A 
ATOM     34  C   UNL A   1      36.297  29.581  29.673  1.00  0.00     0.014 A 
ATOM     35  C   UNL A   1      38.106  29.663  27.544  1.00  0.00     0.010 A 
ATOM     36  C   UNL A   1      37.630  29.248  29.885  1.00  0.00     0.010 A 
ATOM     37  C   UNL A   1      38.549  29.292  28.825  1.00  0.00    -0.014 A 
BRANCH  37  38
ATOM     38  C   UNL A   1      39.973  28.962  29.081  1.00  0.00     0.031 A 
ATOM     39  C   UNL A   1      40.900  30.005  29.639  1.00  0.00     0.074 A 
ATOM     40  C   UNL A   1      40.444  27.747  28.736  1.00  0.00     0.049 A 
ATOM     41  N   UNL A   1      42.188  29.935  29.848  1.00  0.00    -0.248 NA
ATOM     42  C   UNL A   1      40.304  31.307  29.980  1.00  0.00     0.031 C 
ATOM     43  C   UNL A   1      39.652  26.671  28.136  1.00  0.00     0.029 A 
ATOM     44  N   UNL A   1      41.706  27.218  28.826  1.00  0.00    -0.354 N 
ATOM     45  C   UNL A   1      42.562  31.185  30.328  1.00  0.00     0.074 A 
ATOM     46  C   UNL A   1      41.371  32.007  30.336  1.00  0.00     0.031 C 
ATOM     47  C   UNL A   1      40.443  25.605  27.928  1.00  0.00     0.029 A 
ATOM     48  C   UNL A   1      41.802  25.933  28.348  1.00  0.00     0.049 A 
ATOM     49  H   UNL A   1      42.472  27.713  29.198  1.00  0.00     0.167 HD
ATOM     50  C   UNL A   1      43.781  31.601  30.745  1.00  0.00     0.037 A 
ATOM     51  C   UNL A   1      42.866  25.113  28.252  1.00  0.00     0.037 A 
ATOM     52  C   UNL A   1      44.954  30.768  30.765  1.00  0.00     0.049 A 
ATOM     53  C   UNL A   1      44.207  25.592  28.737  1.00  0.00     0.074 A 
ATOM     54  C   UNL A   1      46.222  31.076  31.227  1.00  0.00     0.029 A 
ATOM     55  N   UNL A   1      45.004  29.460  30.304  1.00  0.00    -0.354 N 
ATOM     56  N   UNL A   1      44.529  26.758  29.245  1.00  0.00    -0.248 NA
ATOM     57  C   UNL A   1      45.326  24.645  28.643  1.00  0.00     0.031 C 
ATOM     58  C   UNL A   1      47.046  29.965  31.016  1.00  0.00     0.029 A 
ATOM     59  C   UNL A   1      46.283  28.952  30.458  1.00  0.00     0.049 A 
ATOM     60  H   UNL A   1      44.242  28.966  29.924  1.00  0.00     0.167 HD
ATOM     61  C   UNL A   1      45.883  26.676  29.552  1.00  0.00     0.074 A 
ATOM     62  C   UNL A   1      46.316  25.345  29.183  1.00  0.00     0.031 C 
ATOM     63  C   UNL A   1      46.693  27.620  30.092  1.00  0.00     0.037 A 
BRANCH  50  64
ATOM     64  C   UNL A   1      43.904  33.021  31.222  1.00  0.00     0.058 A 
ATOM     65  C   UNL A   1      44.180  34.073  30.333  1.00  0.00     0.135 A 
ATOM     66  C   UNL A   1      43.720  33.341  32.576  1.00  0.00     0.135 A 
ATOM     67  F   UNL A   1      44.380  33.821  29.029  1.00  0.00    -0.206 F 
ATOM     68  C   UNL A   1      44.300  35.386  30.774  1.00  0.00     0.059 A 
ATOM     69  C   UNL A   1      43.810  34.651  33.037  1.00  0.00     0.059 A 
ATOM     70  F   UNL A   1      43.455  32.373  33.469  1.00  0.00    -0.206 F 
ATOM     71  C   UNL A   1      44.118  35.665  32.129  1.00  0.00     0.060 A 
BRANCH  71  72
ATOM     72  S   UNL A   1      44.281  37.373  32.688  1.00  0.00     0.124 S 
ATOM     73  O   UNL A   1      43.149  37.488  33.603  1.00  0.00    -0.237 OA
ATOM     74  O   UNL A   1      45.600  37.376  33.311  1.00  0.00    -0.237 OA
ATOM     75  O   UNL A   1      44.173  38.146  31.454  1.00  0.00    -0.744 OA
ENDBRANCH  71  72
ENDBRANCH  50  64
BRANCH  51  76
ATOM     76  C   UNL A   1      42.701  23.745  27.696  1.00  0.00     0.058 A 
ATOM     77  C   UNL A   1      42.407  22.659  28.533  1.00  0.00     0.135 A 
ATOM     78  C   UNL A   1      42.814  23.497  26.319  1.00  0.00     0.135 A 
ATOM     79  F   UNL A   1      42.294  22.846  29.857  1.00  0.00    -0.206 F 
ATOM     80  C   UNL A   1      42.245  21.373  28.031  1.00  0.00     0.059 A 
ATOM     81  C   UNL A   1      42.634  22.224  25.789  1.00  0.00     0.059 A 
ATOM     82  F   UNL A   1      43.076  24.507  25.474  1.00  0.00    -0.206 F 
ATOM     83  C   UNL A   1      42.359  21.166  26.654  1.00  0.00     0.060 A 
BRANCH  83  84
ATOM     84  S   UNL A   1      42.095  19.502  26.002  1.00  0.00     0.124 S 
ATOM     85  O   UNL A   1      42.560  18.676  27.111  1.00  0.00    -0.237 OA
ATOM     86  O   UNL A   1      40.657  19.492  25.759  1.00  0.00    -0.237 OA
ATOM     87  O   UNL A   1      42.926  19.478  24.803  1.00  0.00    -0.744 OA
ENDBRANCH  83  84
ENDBRANCH  51  76
BRANCH  63  88
ATOM     88  C   UNL A   1      48.124  27.238  30.344  1.00  0.00     0.058 A 
ATOM     89  C   UNL A   1      49.130  27.496  29.401  1.00  0.00     0.135 A 
ATOM     90  C   UNL A   1      48.500  26.658  31.565  1.00  0.00     0.135 A 
ATOM     91  F   UNL A   1      48.820  28.043  28.214  1.00  0.00    -0.206 F 
ATOM     92  C   UNL A   1      50.460  27.178  29.654  1.00  0.00     0.059 A 
ATOM     93  C   UNL A   1      49.827  26.352  31.849  1.00  0.00     0.059 A 
ATOM     94  F   UNL A   1      47.575  26.399  32.504  1.00  0.00    -0.206 F 
ATOM     95  C   UNL A   1      50.799  26.607  30.883  1.00  0.00     0.060 A 
BRANCH  95  96
ATOM     96  S   UNL A   1      52.534  26.236  31.218  1.00  0.00     0.124 S 
ATOM     97  O   UNL A   1      52.926  27.379  32.035  1.00  0.00    -0.237 OA
ATOM     98  O   UNL A   1      52.453  24.955  31.915  1.00  0.00    -0.237 OA
ATOM     99  O   UNL A   1      53.131  26.179  29.887  1.00  0.00    -0.744 OA
ENDBRANCH  95  96
ENDBRANCH  63  88
ENDBRANCH  37  38
ENDBRANCH  29  32
ENDBRANCH  27  28
ENDBRANCH   1  27
TORSDOF 17
ENDMDL
MODEL 3
REMARK VINA RESULT:     -11.6      3.051      9.429
REMARK SMILES CNC(=O)c1cccc(-c2cnc(O)c(C(=O)NCCCCNC(=O)c3ccc(-c4c5nc(c(-c6c(F)cc(S(=O)(=O)[O-])cc6F)c6ccc([nH]6)c(-c6c(F)cc(S(=O)(=O)[O-])cc6F)c6nc(c(-c7c(F)cc(S(=O)(=O)[O-])cc7F)c7ccc4[nH]7)C=C6)C=C5)cc3)c2)c1
REMARK SMILES IDX 21 1 20 2 19 3 18 4 16 5 17 6 15 8 10 9 11 10 92 11 12 12
REMARK SMILES IDX 13 13 9 14 5 15 6 16 93 17 7 18 8 19 3 20 1 21 2 22 4 24
REMARK SMILES IDX 14 25 22 27 23 28 24 29 25 31 26 32 27 33 91 34 28 35 90 36
REMARK SMILES IDX 29 37 30 38 31 39 84 40 32 41 89 42 83 43 85 44 33 45 88 46
REMARK SMILES IDX 82 47 81 48 34 50 68 51 47 52 67 53 48 54 51 55 66 56 86 57
REMARK SMILES IDX 49 58 50 59 65 61 87 62 52 63 35 64 36 65 45 66 37 67 38 68
REMARK SMILES IDX 44 69 46 70 39 71 40 72 41 73 42 74 43 75 69 76 70 77 79 78
REMARK SMILES IDX 71 79 72 80 78 81 80 82 73 83 74 84 75 85 76 86 77 87 53 88
REMARK SMILES IDX 54 89 63 90 55 91 56 92 62 93 64 94 57 95 58 96 59 97 60 98
REMARK SMILES IDX 61 99
REMARK H PARENT 18 7 2 23 14 26 23 30 85 49 51 60
REMARK Flexibility Score: inf
ROOT
ATOM      1  C   UNL A   1      35.766  23.550  25.888  1.00  0.00     0.023 C 
ENDROOT
BRANCH   1   2
ATOM      2  C   UNL A   1      35.611  22.154  26.495  1.00  0.00     0.023 C 
BRANCH   2   3
ATOM      3  C   UNL A   1      34.293  21.936  27.245  1.00  0.00     0.116 C 
BRANCH   3   4
ATOM      4  N   UNL A   1      33.308  21.288  26.394  1.00  0.00    -0.352 N 
ATOM      5  C   UNL A   1      32.128  21.723  25.843  1.00  0.00     0.256 C 
ATOM      6  O   UNL A   1      31.533  20.961  25.077  1.00  0.00    -0.269 OA
ATOM      7  H   UNL A   1      33.530  20.355  26.170  1.00  0.00     0.163 HD
BRANCH   5   8
ATOM      8  C   UNL A   1      31.549  23.071  26.057  1.00  0.00     0.102 A 
ATOM      9  C   UNL A   1      31.587  25.501  25.888  1.00  0.00     0.001 A 
ATOM     10  C   UNL A   1      30.281  25.497  26.355  1.00  0.00     0.124 A 
ATOM     11  C   UNL A   1      32.231  24.259  25.807  1.00  0.00     0.029 A 
ATOM     12  N   UNL A   1      29.603  24.377  26.695  1.00  0.00    -0.221 NA
ATOM     13  C   UNL A   1      30.240  23.195  26.531  1.00  0.00     0.223 A 
BRANCH   9  14
ATOM     14  C   UNL A   1      32.259  26.703  25.391  1.00  0.00    -0.016 A 
ATOM     15  C   UNL A   1      32.625  29.111  25.583  1.00  0.00     0.040 A 
ATOM     16  C   UNL A   1      33.420  29.077  24.435  1.00  0.00     0.014 A 
ATOM     17  C   UNL A   1      32.031  27.933  26.040  1.00  0.00     0.022 A 
ATOM     18  C   UNL A   1      33.654  27.867  23.780  1.00  0.00     0.001 A 
ATOM     19  C   UNL A   1      33.086  26.684  24.261  1.00  0.00     0.009 A 
BRANCH  15  20
ATOM     20  C   UNL A   1      32.343  30.422  26.217  1.00  0.00     0.251 C 
ATOM     21  C   UNL A   1      34.468  30.505  27.628  1.00  0.00     0.143 C 
ATOM     22  N   UNL A   1      33.157  30.932  27.196  1.00  0.00    -0.355 N 
ATOM     23  H   UNL A   1      32.792  31.709  27.677  1.00  0.00     0.163 HD
ATOM     24  O   UNL A   1      31.360  31.062  25.852  1.00  0.00    -0.269 OA
ENDBRANCH  15  20
ENDBRANCH   9  14
BRANCH  13  25
ATOM     25  O   UNL A   1      29.465  22.118  26.864  1.00  0.00    -0.493 OA
ATOM     26  H   UNL A   1      29.208  21.504  26.204  1.00  0.00     0.295 HD
ENDBRANCH  13  25
ENDBRANCH   5   8
ENDBRANCH   3   4
ENDBRANCH   2   3
ENDBRANCH   1   2
BRANCH   1  27
ATOM     27  C   UNL A   1      36.995  23.732  25.004  1.00  0.00     0.116 C 
BRANCH  27  28
ATOM     28  N   UNL A   1      38.031  22.740  25.245  1.00  0.00    -0.352 N 
ATOM     29  C   UNL A   1      39.193  22.880  25.972  1.00  0.00     0.251 C 
ATOM     30  H   UNL A   1      37.884  21.857  24.836  1.00  0.00     0.163 HD
ATOM     31  O   UNL A   1      40.016  21.981  26.001  1.00  0.00    -0.269 OA
BRANCH  29  32
ATOM     32  C   UNL A   1      39.448  24.155  26.677  1.00  0.00     0.039 A 
ATOM     33  C   UNL A   1      38.913  24.332  27.955  1.00  0.00     0.014 A 
ATOM     34  C   UNL A   1      40.246  25.146  26.100  1.00  0.00     0.014 A 
ATOM     35  C   UNL A   1      39.237  25.476  28.685  1.00  0.00     0.010 A 
ATOM     36  C   UNL A   1      40.619  26.255  26.852  1.00  0.00     0.010 A 
ATOM     37  C   UNL A   1      40.124  26.427  28.154  1.00  0.00    -0.014 A 
BRANCH  37  38
ATOM     38  C   UNL A   1      40.560  27.602  28.949  1.00  0.00     0.031 A 
ATOM     39  C   UNL A   1      41.881  27.580  29.665  1.00  0.00     0.074 A 
ATOM     40  C   UNL A   1      39.729  28.654  29.087  1.00  0.00     0.049 A 
ATOM     41  N   UNL A   1      42.395  28.468  30.474  1.00  0.00    -0.248 NA
ATOM     42  C   UNL A   1      42.723  26.388  29.466  1.00  0.00     0.031 C 
ATOM     43  C   UNL A   1      38.399  28.767  28.484  1.00  0.00     0.029 A 
ATOM     44  N   UNL A   1      39.872  29.822  29.791  1.00  0.00    -0.354 N 
ATOM     45  C   UNL A   1      43.609  27.939  30.895  1.00  0.00     0.074 A 
ATOM     46  C   UNL A   1      43.734  26.632  30.287  1.00  0.00     0.031 C 
ATOM     47  C   UNL A   1      37.857  29.947  28.830  1.00  0.00     0.029 A 
ATOM     48  C   UNL A   1      38.784  30.657  29.705  1.00  0.00     0.049 A 
ATOM     49  H   UNL A   1      40.681  30.042  30.310  1.00  0.00     0.167 HD
ATOM     50  C   UNL A   1      44.544  28.501  31.698  1.00  0.00     0.037 A 
ATOM     51  C   UNL A   1      38.556  31.858  30.272  1.00  0.00     0.037 A 
ATOM     52  C   UNL A   1      44.427  29.815  32.274  1.00  0.00     0.049 A 
ATOM     53  C   UNL A   1      39.617  32.469  31.146  1.00  0.00     0.074 A 
ATOM     54  C   UNL A   1      45.347  30.499  33.049  1.00  0.00     0.029 A 
ATOM     55  N   UNL A   1      43.325  30.645  32.135  1.00  0.00    -0.354 N 
ATOM     56  N   UNL A   1      40.786  31.980  31.484  1.00  0.00    -0.248 NA
ATOM     57  C   UNL A   1      39.332  33.795  31.710  1.00  0.00     0.031 C 
ATOM     58  C   UNL A   1      44.787  31.731  33.407  1.00  0.00     0.029 A 
ATOM     59  C   UNL A   1      43.534  31.829  32.822  1.00  0.00     0.049 A 
ATOM     60  H   UNL A   1      42.513  30.424  31.624  1.00  0.00     0.167 HD
ATOM     61  C   UNL A   1      41.386  32.949  32.281  1.00  0.00     0.074 A 
ATOM     62  C   UNL A   1      40.455  34.055  32.367  1.00  0.00     0.031 C 
ATOM     63  C   UNL A   1      42.599  32.923  32.888  1.00  0.00     0.037 A 
BRANCH  50  64
ATOM     64  C   UNL A   1      45.779  27.697  31.993  1.00  0.00     0.058 A 
ATOM     65  C   UNL A   1      45.821  26.778  33.054  1.00  0.00     0.135 A 
ATOM     66  C   UNL A   1      46.926  27.826  31.193  1.00  0.00     0.135 A 
ATOM     67  F   UNL A   1      44.757  26.627  33.859  1.00  0.00    -0.206 F 
ATOM     68  C   UNL A   1      46.965  26.039  33.331  1.00  0.00     0.059 A 
ATOM     69  C   UNL A   1      48.074  27.078  31.435  1.00  0.00     0.059 A 
ATOM     70  F   UNL A   1      46.940  28.691  30.166  1.00  0.00    -0.206 F 
ATOM     71  C   UNL A   1      48.089  26.199  32.519  1.00  0.00     0.060 A 
BRANCH  71  72
ATOM     72  S   UNL A   1      49.569  25.236  32.893  1.00  0.00     0.124 S 
ATOM     73  O   UNL A   1      50.415  26.240  33.531  1.00  0.00    -0.237 OA
ATOM     74  O   UNL A   1      49.052  24.193  33.773  1.00  0.00    -0.237 OA
ATOM     75  O   UNL A   1      50.017  24.779  31.580  1.00  0.00    -0.744 OA
ENDBRANCH  71  72
ENDBRANCH  50  64
BRANCH  51  76
ATOM     76  C   UNL A   1      37.280  32.572  30.009  1.00  0.00     0.058 A 
ATOM     77  C   UNL A   1      37.216  33.606  29.064  1.00  0.00     0.135 A 
ATOM     78  C   UNL A   1      36.098  32.225  30.681  1.00  0.00     0.135 A 
ATOM     79  F   UNL A   1      38.322  33.976  28.401  1.00  0.00    -0.206 F 
ATOM     80  C   UNL A   1      36.030  34.283  28.802  1.00  0.00     0.059 A 
ATOM     81  C   UNL A   1      34.894  32.872  30.420  1.00  0.00     0.059 A 
ATOM     82  F   UNL A   1      36.103  31.229  31.581  1.00  0.00    -0.206 F 
ATOM     83  C   UNL A   1      34.872  33.906  29.486  1.00  0.00     0.060 A 
BRANCH  83  84
ATOM     84  S   UNL A   1      33.324  34.754  29.102  1.00  0.00     0.124 S 
ATOM     85  O   UNL A   1      32.703  34.840  30.419  1.00  0.00    -0.237 OA
ATOM     86  O   UNL A   1      33.795  36.013  28.535  1.00  0.00    -0.237 OA
ATOM     87  O   UNL A   1      32.676  33.853  28.154  1.00  0.00    -0.744 OA
ENDBRANCH  83  84
ENDBRANCH  51  76
BRANCH  63  88
ATOM     88  C   UNL A   1      43.002  34.139  33.673  1.00  0.00     0.058 A 
ATOM     89  C   UNL A   1      42.775  34.230  35.054  1.00  0.00     0.135 A 
ATOM     90  C   UNL A   1      43.674  35.199  33.045  1.00  0.00     0.135 A 
ATOM     91  F   UNL A   1      42.130  33.245  35.700  1.00  0.00    -0.206 F 
ATOM     92  C   UNL A   1      43.187  35.339  35.785  1.00  0.00     0.059 A 
ATOM     93  C   UNL A   1      44.115  36.308  33.759  1.00  0.00     0.059 A 
ATOM     94  F   UNL A   1      43.923  35.155  31.726  1.00  0.00    -0.206 F 
ATOM     95  C   UNL A   1      43.858  36.373  35.128  1.00  0.00     0.060 A 
BRANCH  95  96
ATOM     96  S   UNL A   1      44.424  37.790  36.094  1.00  0.00     0.124 S 
ATOM     97  O   UNL A   1      44.085  38.901  35.211  1.00  0.00    -0.237 OA
ATOM     98  O   UNL A   1      43.626  37.681  37.311  1.00  0.00    -0.237 OA
ATOM     99  O   UNL A   1      45.852  37.534  36.264  1.00  0.00    -0.744 OA
ENDBRANCH  95  96
ENDBRANCH  63  88
ENDBRANCH  37  38
ENDBRANCH  29  32
ENDBRANCH  27  28
ENDBRANCH   1  27
TORSDOF 17
ENDMDL
