MODEL 1
REMARK VINA RESULT:     -13.6      0.000      0.000
REMARK SMILES Cc1nc2ccccc2c2c1C(=O)N(c1cccc(C(=O)NCCCCNC(=O)c3ccc(-c4c5nc(c(-c6c(F)cc(S(=O)(=O)[O-])cc6F)c6ccc([nH]6)c(-c6c(F)cc(S(=O)(=O)[O-])cc6F)c6nc(c(-c7c(F)cc(S(=O)(=O)[O-])cc7F)c7ccc4[nH]7)C=C6)C=C5)cc3)c1)C2=O
REMARK SMILES IDX 25 1 24 2 23 3 22 4 20 5 21 6 19 8 15 9 16 10 96 11 17 12
REMARK SMILES IDX 18 13 14 14 1 15 2 16 3 17 11 18 4 19 10 20 12 21 5 22 9 23
REMARK SMILES IDX 97 24 13 25 6 26 8 27 98 28 7 29 26 30 27 31 28 32 29 34
REMARK SMILES IDX 30 35 31 36 95 37 32 38 94 39 33 40 34 41 35 42 88 43 36 44
REMARK SMILES IDX 93 45 87 46 89 47 37 48 92 49 86 50 85 51 38 53 72 54 51 55
REMARK SMILES IDX 71 56 52 57 55 58 70 59 90 60 53 61 54 62 69 64 91 65 56 66
REMARK SMILES IDX 39 67 40 68 49 69 41 70 42 71 48 72 50 73 43 74 44 75 45 76
REMARK SMILES IDX 46 77 47 78 73 79 74 80 83 81 75 82 76 83 82 84 84 85 77 86
REMARK SMILES IDX 78 87 79 88 80 89 81 90 57 91 58 92 67 93 59 94 60 95 66 96
REMARK SMILES IDX 68 97 61 98 62 99 63 100 64 101 65 102
REMARK H PARENT 22 7 27 33 89 52 55 63
REMARK Flexibility Score: inf
ROOT
ATOM      1  C   UNL A   1      33.932  28.430  25.796  1.00  0.00     0.023 C 
ENDROOT
BRANCH   1   2
ATOM      2  C   UNL A   1      33.158  29.287  24.802  1.00  0.00     0.023 C 
BRANCH   2   3
ATOM      3  C   UNL A   1      33.417  29.023  23.322  1.00  0.00     0.116 C 
BRANCH   3   4
ATOM      4  N   UNL A   1      32.211  28.762  22.569  1.00  0.00    -0.352 N 
ATOM      5  C   UNL A   1      31.205  27.852  22.711  1.00  0.00     0.251 C 
ATOM      6  O   UNL A   1      30.227  28.013  21.975  1.00  0.00    -0.269 OA
ATOM      7  H   UNL A   1      32.091  29.364  21.798  1.00  0.00     0.163 HD
BRANCH   5   8
ATOM      8  C   UNL A   1      31.203  26.692  23.658  1.00  0.00     0.041 A 
ATOM      9  C   UNL A   1      31.711  24.421  24.388  1.00  0.00     0.053 A 
ATOM     10  C   UNL A   1      30.817  24.601  25.467  1.00  0.00     0.027 A 
ATOM     11  C   UNL A   1      31.978  25.520  23.558  1.00  0.00     0.040 A 
ATOM     12  C   UNL A   1      30.027  25.736  25.567  1.00  0.00     0.003 A 
ATOM     13  C   UNL A   1      30.198  26.757  24.646  1.00  0.00     0.014 A 
BRANCH   9  14
ATOM     14  N   UNL A   1      31.947  23.073  23.943  1.00  0.00    -0.242 N 
ATOM     15  C   UNL A   1      33.232  18.634  24.708  1.00  0.00     0.067 C 
ATOM     16  C   UNL A   1      33.792  20.024  24.694  1.00  0.00     0.052 A 
ATOM     17  N   UNL A   1      35.133  20.139  24.928  1.00  0.00    -0.252 NA
ATOM     18  C   UNL A   1      33.095  21.056  24.106  1.00  0.00     0.075 A 
ATOM     19  C   UNL A   1      35.676  21.374  24.875  1.00  0.00     0.071 A 
ATOM     20  C   UNL A   1      33.859  22.036  23.542  1.00  0.00     0.064 A 
ATOM     21  C   UNL A   1      31.942  21.879  24.657  1.00  0.00     0.268 C 
ATOM     22  C   UNL A   1      36.854  21.669  25.549  1.00  0.00     0.029 A 
ATOM     23  C   UNL A   1      34.988  22.422  24.263  1.00  0.00     0.014 A 
ATOM     24  C   UNL A   1      32.886  22.931  22.976  1.00  0.00     0.266 C 
ATOM     25  O   UNL A   1      31.304  21.562  25.645  1.00  0.00    -0.268 OA
ATOM     26  C   UNL A   1      37.203  22.991  25.851  1.00  0.00     0.002 A 
ATOM     27  C   UNL A   1      35.325  23.761  24.579  1.00  0.00     0.011 A 
ATOM     28  O   UNL A   1      32.908  23.263  21.803  1.00  0.00    -0.268 OA
ATOM     29  C   UNL A   1      36.389  24.034  25.431  1.00  0.00     0.001 A 
ENDBRANCH   9  14
ENDBRANCH   5   8
ENDBRANCH   3   4
ENDBRANCH   2   3
ENDBRANCH   1   2
BRANCH   1  30
ATOM     30  C   UNL A   1      33.556  28.613  27.259  1.00  0.00     0.116 C 
BRANCH  30  31
ATOM     31  N   UNL A   1      33.646  29.994  27.714  1.00  0.00    -0.352 N 
ATOM     32  C   UNL A   1      34.703  30.689  28.256  1.00  0.00     0.251 C 
ATOM     33  H   UNL A   1      32.817  30.515  27.617  1.00  0.00     0.163 HD
ATOM     34  O   UNL A   1      34.536  31.832  28.670  1.00  0.00    -0.269 OA
BRANCH  32  35
ATOM     35  C   UNL A   1      36.023  30.037  28.391  1.00  0.00     0.039 A 
ATOM     36  C   UNL A   1      36.407  29.451  29.597  1.00  0.00     0.014 A 
ATOM     37  C   UNL A   1      36.910  30.066  27.311  1.00  0.00     0.014 A 
ATOM     38  C   UNL A   1      37.740  29.117  29.797  1.00  0.00     0.010 A 
ATOM     39  C   UNL A   1      38.225  29.625  27.484  1.00  0.00     0.010 A 
ATOM     40  C   UNL A   1      38.671  29.218  28.749  1.00  0.00    -0.014 A 
BRANCH  40  41
ATOM     41  C   UNL A   1      40.106  28.933  29.020  1.00  0.00     0.031 A 
ATOM     42  C   UNL A   1      40.712  27.605  28.644  1.00  0.00     0.074 A 
ATOM     43  C   UNL A   1      40.888  29.906  29.527  1.00  0.00     0.049 A 
ATOM     44  N   UNL A   1      41.949  27.196  28.772  1.00  0.00    -0.248 NA
ATOM     45  C   UNL A   1      39.814  26.601  28.050  1.00  0.00     0.031 C 
ATOM     46  C   UNL A   1      40.425  31.242  29.907  1.00  0.00     0.029 A 
ATOM     47  N   UNL A   1      42.236  29.940  29.771  1.00  0.00    -0.354 N 
ATOM     48  C   UNL A   1      41.974  25.889  28.298  1.00  0.00     0.074 A 
ATOM     49  C   UNL A   1      40.620  25.559  27.909  1.00  0.00     0.031 C 
ATOM     50  C   UNL A   1      41.480  31.988  30.261  1.00  0.00     0.029 A 
ATOM     51  C   UNL A   1      42.685  31.165  30.204  1.00  0.00     0.049 A 
ATOM     52  H   UNL A   1      42.827  29.162  29.648  1.00  0.00     0.167 HD
ATOM     53  C   UNL A   1      43.028  25.045  28.185  1.00  0.00     0.037 A 
ATOM     54  C   UNL A   1      43.923  31.583  30.527  1.00  0.00     0.037 A 
ATOM     55  C   UNL A   1      44.379  25.384  28.551  1.00  0.00     0.049 A 
ATOM     56  C   UNL A   1      45.068  30.618  30.439  1.00  0.00     0.074 A 
ATOM     57  C   UNL A   1      45.517  24.601  28.466  1.00  0.00     0.029 A 
ATOM     58  N   UNL A   1      44.775  26.609  29.068  1.00  0.00    -0.354 N 
ATOM     59  N   UNL A   1      45.065  29.378  30.014  1.00  0.00    -0.248 NA
ATOM     60  C   UNL A   1      46.378  31.101  30.895  1.00  0.00     0.031 C 
ATOM     61  C   UNL A   1      46.595  25.341  28.967  1.00  0.00     0.029 A 
ATOM     62  C   UNL A   1      46.136  26.597  29.327  1.00  0.00     0.049 A 
ATOM     63  H   UNL A   1      44.176  27.374  29.229  1.00  0.00     0.167 HD
ATOM     64  C   UNL A   1      46.372  28.927  30.153  1.00  0.00     0.074 A 
ATOM     65  C   UNL A   1      47.142  30.037  30.681  1.00  0.00     0.031 C 
ATOM     66  C   UNL A   1      46.885  27.704  29.871  1.00  0.00     0.037 A 
BRANCH  53  67
ATOM     67  C   UNL A   1      42.754  23.662  27.657  1.00  0.00     0.058 A 
ATOM     68  C   UNL A   1      42.492  22.582  28.516  1.00  0.00     0.135 A 
ATOM     69  C   UNL A   1      42.746  23.414  26.274  1.00  0.00     0.135 A 
ATOM     70  F   UNL A   1      42.501  22.759  29.846  1.00  0.00    -0.206 F 
ATOM     71  C   UNL A   1      42.270  21.299  28.024  1.00  0.00     0.059 A 
ATOM     72  C   UNL A   1      42.502  22.144  25.760  1.00  0.00     0.059 A 
ATOM     73  F   UNL A   1      42.986  24.411  25.408  1.00  0.00    -0.206 F 
ATOM     74  C   UNL A   1      42.286  21.088  26.644  1.00  0.00     0.060 A 
BRANCH  74  75
ATOM     75  S   UNL A   1      42.030  19.411  26.025  1.00  0.00     0.124 S 
ATOM     76  O   UNL A   1      42.503  18.612  27.150  1.00  0.00    -0.237 OA
ATOM     77  O   UNL A   1      40.590  19.380  25.787  1.00  0.00    -0.237 OA
ATOM     78  O   UNL A   1      42.861  19.361  24.825  1.00  0.00    -0.744 OA
ENDBRANCH  74  75
ENDBRANCH  53  67
BRANCH  54  79
ATOM     79  C   UNL A   1      44.122  32.992  30.951  1.00  0.00     0.058 A 
ATOM     80  C   UNL A   1      44.498  33.972  30.023  1.00  0.00     0.135 A 
ATOM     81  C   UNL A   1      43.851  33.400  32.266  1.00  0.00     0.135 A 
ATOM     82  F   UNL A   1      44.775  33.627  28.756  1.00  0.00    -0.206 F 
ATOM     83  C   UNL A   1      44.577  35.315  30.377  1.00  0.00     0.059 A 
ATOM     84  C   UNL A   1      43.901  34.739  32.639  1.00  0.00     0.059 A 
ATOM     85  F   UNL A   1      43.474  32.499  33.186  1.00  0.00    -0.206 F 
ATOM     86  C   UNL A   1      44.262  35.690  31.685  1.00  0.00     0.060 A 
BRANCH  86  87
ATOM     87  S   UNL A   1      44.256  37.447  32.102  1.00  0.00     0.124 S 
ATOM     88  O   UNL A   1      43.751  38.041  30.870  1.00  0.00    -0.237 OA
ATOM     89  O   UNL A   1      43.352  37.485  33.248  1.00  0.00    -0.237 OA
ATOM     90  O   UNL A   1      45.657  37.724  32.410  1.00  0.00    -0.744 OA
ENDBRANCH  86  87
ENDBRANCH  54  79
BRANCH  66  91
ATOM     91  C   UNL A   1      48.347  27.493  30.141  1.00  0.00     0.058 A 
ATOM     92  C   UNL A   1      48.792  26.947  31.354  1.00  0.00     0.135 A 
ATOM     93  C   UNL A   1      49.306  27.783  29.157  1.00  0.00     0.135 A 
ATOM     94  F   UNL A   1      47.916  26.662  32.329  1.00  0.00    -0.206 F 
ATOM     95  C   UNL A   1      50.142  26.704  31.588  1.00  0.00     0.059 A 
ATOM     96  C   UNL A   1      50.658  27.528  29.361  1.00  0.00     0.059 A 
ATOM     97  F   UNL A   1      48.929  28.300  27.977  1.00  0.00    -0.206 F 
ATOM     98  C   UNL A   1      51.068  26.995  30.583  1.00  0.00     0.060 A 
BRANCH  98  99
ATOM     99  S   UNL A   1      52.810  26.632  30.884  1.00  0.00     0.124 S 
ATOM    100  O   UNL A   1      53.273  27.882  31.477  1.00  0.00    -0.237 OA
ATOM    101  O   UNL A   1      52.740  25.489  31.789  1.00  0.00    -0.237 OA
ATOM    102  O   UNL A   1      53.331  26.338  29.552  1.00  0.00    -0.744 OA
ENDBRANCH  98  99
ENDBRANCH  66  91
ENDBRANCH  40  41
ENDBRANCH  32  35
ENDBRANCH  30  31
ENDBRANCH   1  30
TORSDOF 15
ENDMDL
MODEL 2
REMARK VINA RESULT:     -13.4      0.552      7.996
REMARK SMILES Cc1nc2ccccc2c2c1C(=O)N(c1cccc(C(=O)NCCCCNC(=O)c3ccc(-c4c5nc(c(-c6c(F)cc(S(=O)(=O)[O-])cc6F)c6ccc([nH]6)c(-c6c(F)cc(S(=O)(=O)[O-])cc6F)c6nc(c(-c7c(F)cc(S(=O)(=O)[O-])cc7F)c7ccc4[nH]7)C=C6)C=C5)cc3)c1)C2=O
REMARK SMILES IDX 25 1 24 2 23 3 22 4 20 5 21 6 19 8 15 9 16 10 96 11 17 12
REMARK SMILES IDX 18 13 14 14 1 15 2 16 3 17 11 18 4 19 10 20 12 21 5 22 9 23
REMARK SMILES IDX 97 24 13 25 6 26 8 27 98 28 7 29 26 30 27 31 28 32 29 34
REMARK SMILES IDX 30 35 31 36 95 37 32 38 94 39 33 40 34 41 35 42 88 43 36 44
REMARK SMILES IDX 93 45 87 46 89 47 37 48 92 49 86 50 85 51 38 53 72 54 51 55
REMARK SMILES IDX 71 56 52 57 55 58 70 59 90 60 53 61 54 62 69 64 91 65 56 66
REMARK SMILES IDX 39 67 40 68 49 69 41 70 42 71 48 72 50 73 43 74 44 75 45 76
REMARK SMILES IDX 46 77 47 78 73 79 74 80 83 81 75 82 76 83 82 84 84 85 77 86
REMARK SMILES IDX 78 87 79 88 80 89 81 90 57 91 58 92 67 93 59 94 60 95 66 96
REMARK SMILES IDX 68 97 61 98 62 99 63 100 64 101 65 102
REMARK H PARENT 22 7 27 33 89 52 55 63
REMARK Flexibility Score: inf
ROOT
ATOM      1  C   UNL A   1      33.534  28.277  25.877  1.00  0.00     0.023 C 
ENDROOT
BRANCH   1   2
ATOM      2  C   UNL A   1      33.169  29.354  24.863  1.00  0.00     0.023 C 
BRANCH   2   3
ATOM      3  C   UNL A   1      33.437  29.033  23.396  1.00  0.00     0.116 C 
BRANCH   3   4
ATOM      4  N   UNL A   1      32.231  28.804  22.633  1.00  0.00    -0.352 N 
ATOM      5  C   UNL A   1      31.211  27.906  22.754  1.00  0.00     0.251 C 
ATOM      6  O   UNL A   1      30.239  28.095  22.016  1.00  0.00    -0.269 OA
ATOM      7  H   UNL A   1      32.124  29.419  21.871  1.00  0.00     0.163 HD
BRANCH   5   8
ATOM      8  C   UNL A   1      31.186  26.731  23.682  1.00  0.00     0.041 A 
ATOM      9  C   UNL A   1      31.694  24.455  24.396  1.00  0.00     0.053 A 
ATOM     10  C   UNL A   1      30.755  24.606  25.440  1.00  0.00     0.027 A 
ATOM     11  C   UNL A   1      31.980  25.570  23.595  1.00  0.00     0.040 A 
ATOM     12  C   UNL A   1      29.947  25.730  25.526  1.00  0.00     0.003 A 
ATOM     13  C   UNL A   1      30.141  26.767  24.629  1.00  0.00     0.014 A 
BRANCH   9  14
ATOM     14  N   UNL A   1      31.965  23.117  23.939  1.00  0.00    -0.242 N 
ATOM     15  C   UNL A   1      33.334  18.699  24.672  1.00  0.00     0.067 C 
ATOM     16  C   UNL A   1      33.863  20.100  24.683  1.00  0.00     0.052 A 
ATOM     17  N   UNL A   1      35.198  20.240  24.939  1.00  0.00    -0.252 NA
ATOM     18  C   UNL A   1      33.153  21.124  24.096  1.00  0.00     0.075 A 
ATOM     19  C   UNL A   1      35.716  21.487  24.907  1.00  0.00     0.071 A 
ATOM     20  C   UNL A   1      33.904  22.126  23.555  1.00  0.00     0.064 A 
ATOM     21  C   UNL A   1      31.975  21.915  24.639  1.00  0.00     0.268 C 
ATOM     22  C   UNL A   1      36.877  21.799  25.603  1.00  0.00     0.029 A 
ATOM     23  C   UNL A   1      35.015  22.527  24.297  1.00  0.00     0.014 A 
ATOM     24  C   UNL A   1      32.921  23.007  22.984  1.00  0.00     0.266 C 
ATOM     25  O   UNL A   1      31.329  21.574  25.613  1.00  0.00    -0.268 OA
ATOM     26  C   UNL A   1      37.192  23.124  25.925  1.00  0.00     0.002 A 
ATOM     27  C   UNL A   1      35.317  23.869  24.634  1.00  0.00     0.011 A 
ATOM     28  O   UNL A   1      32.954  23.353  21.816  1.00  0.00    -0.268 OA
ATOM     29  C   UNL A   1      36.363  24.155  25.504  1.00  0.00     0.001 A 
ENDBRANCH   9  14
ENDBRANCH   5   8
ENDBRANCH   3   4
ENDBRANCH   2   3
ENDBRANCH   1   2
BRANCH   1  30
ATOM     30  C   UNL A   1      33.127  28.559  27.315  1.00  0.00     0.116 C 
BRANCH  30  31
ATOM     31  N   UNL A   1      33.245  29.963  27.688  1.00  0.00    -0.352 N 
ATOM     32  C   UNL A   1      34.328  30.679  28.144  1.00  0.00     0.251 C 
ATOM     33  H   UNL A   1      32.414  30.484  27.599  1.00  0.00     0.163 HD
ATOM     34  O   UNL A   1      34.186  31.844  28.500  1.00  0.00    -0.269 OA
BRANCH  32  35
ATOM     35  C   UNL A   1      35.649  30.025  28.257  1.00  0.00     0.039 A 
ATOM     36  C   UNL A   1      36.102  29.543  29.484  1.00  0.00     0.014 A 
ATOM     37  C   UNL A   1      36.469  29.948  27.127  1.00  0.00     0.014 A 
ATOM     38  C   UNL A   1      37.442  29.212  29.633  1.00  0.00     0.010 A 
ATOM     39  C   UNL A   1      37.789  29.507  27.260  1.00  0.00     0.010 A 
ATOM     40  C   UNL A   1      38.309  29.208  28.527  1.00  0.00    -0.014 A 
BRANCH  40  41
ATOM     41  C   UNL A   1      39.755  28.931  28.736  1.00  0.00     0.031 A 
ATOM     42  C   UNL A   1      40.637  29.931  29.439  1.00  0.00     0.074 A 
ATOM     43  C   UNL A   1      40.258  27.737  28.368  1.00  0.00     0.049 A 
ATOM     44  N   UNL A   1      41.909  29.844  29.739  1.00  0.00    -0.248 NA
ATOM     45  C   UNL A   1      40.014  31.198  29.858  1.00  0.00     0.031 C 
ATOM     46  C   UNL A   1      39.501  26.675  27.702  1.00  0.00     0.029 A 
ATOM     47  N   UNL A   1      41.507  27.197  28.536  1.00  0.00    -0.354 N 
ATOM     48  C   UNL A   1      42.242  31.043  30.359  1.00  0.00     0.074 A 
ATOM     49  C   UNL A   1      41.046  31.858  30.364  1.00  0.00     0.031 C 
ATOM     50  C   UNL A   1      40.275  25.588  27.590  1.00  0.00     0.029 A 
ATOM     51  C   UNL A   1      41.605  25.895  28.107  1.00  0.00     0.049 A 
ATOM     52  H   UNL A   1      42.262  27.695  28.927  1.00  0.00     0.167 HD
ATOM     53  C   UNL A   1      43.429  31.427  30.888  1.00  0.00     0.037 A 
ATOM     54  C   UNL A   1      42.646  25.042  28.119  1.00  0.00     0.037 A 
ATOM     55  C   UNL A   1      44.612  30.604  30.902  1.00  0.00     0.049 A 
ATOM     56  C   UNL A   1      43.964  25.504  28.666  1.00  0.00     0.074 A 
ATOM     57  C   UNL A   1      45.860  30.899  31.421  1.00  0.00     0.029 A 
ATOM     58  N   UNL A   1      44.690  29.322  30.378  1.00  0.00    -0.354 N 
ATOM     59  N   UNL A   1      44.266  26.652  29.223  1.00  0.00    -0.248 NA
ATOM     60  C   UNL A   1      45.088  24.564  28.566  1.00  0.00     0.031 C 
ATOM     61  C   UNL A   1      46.704  29.809  31.177  1.00  0.00     0.029 A 
ATOM     62  C   UNL A   1      45.971  28.820  30.542  1.00  0.00     0.049 A 
ATOM     63  H   UNL A   1      43.945  28.840  29.951  1.00  0.00     0.167 HD
ATOM     64  C   UNL A   1      45.616  26.576  29.539  1.00  0.00     0.074 A 
ATOM     65  C   UNL A   1      46.067  25.260  29.130  1.00  0.00     0.031 C 
ATOM     66  C   UNL A   1      46.410  27.514  30.112  1.00  0.00     0.037 A 
BRANCH  53  67
ATOM     67  C   UNL A   1      43.510  32.809  31.478  1.00  0.00     0.058 A 
ATOM     68  C   UNL A   1      43.891  33.920  30.708  1.00  0.00     0.135 A 
ATOM     69  C   UNL A   1      43.194  33.027  32.830  1.00  0.00     0.135 A 
ATOM     70  F   UNL A   1      44.218  33.766  29.416  1.00  0.00    -0.206 F 
ATOM     71  C   UNL A   1      43.995  35.191  31.267  1.00  0.00     0.059 A 
ATOM     72  C   UNL A   1      43.267  34.294  33.403  1.00  0.00     0.059 A 
ATOM     73  F   UNL A   1      42.819  32.001  33.610  1.00  0.00    -0.206 F 
ATOM     74  C   UNL A   1      43.689  35.366  32.618  1.00  0.00     0.060 A 
BRANCH  74  75
ATOM     75  S   UNL A   1      43.861  37.014  33.335  1.00  0.00     0.124 S 
ATOM     76  O   UNL A   1      42.689  37.076  34.202  1.00  0.00    -0.237 OA
ATOM     77  O   UNL A   1      45.149  36.928  34.016  1.00  0.00    -0.237 OA
ATOM     78  O   UNL A   1      43.829  37.897  32.172  1.00  0.00    -0.744 OA
ENDBRANCH  74  75
ENDBRANCH  53  67
BRANCH  54  79
ATOM     79  C   UNL A   1      42.456  23.664  27.602  1.00  0.00     0.058 A 
ATOM     80  C   UNL A   1      42.465  23.409  26.223  1.00  0.00     0.135 A 
ATOM     81  C   UNL A   1      42.357  22.567  28.473  1.00  0.00     0.135 A 
ATOM     82  F   UNL A   1      42.550  24.427  25.353  1.00  0.00    -0.206 F 
ATOM     83  C   UNL A   1      42.403  22.112  25.724  1.00  0.00     0.059 A 
ATOM     84  C   UNL A   1      42.316  21.261  27.999  1.00  0.00     0.059 A 
ATOM     85  F   UNL A   1      42.358  22.762  29.800  1.00  0.00    -0.206 F 
ATOM     86  C   UNL A   1      42.344  21.043  26.621  1.00  0.00     0.060 A 
BRANCH  86  87
ATOM     87  S   UNL A   1      42.382  19.361  25.965  1.00  0.00     0.124 S 
ATOM     88  O   UNL A   1      43.332  19.495  24.867  1.00  0.00    -0.237 OA
ATOM     89  O   UNL A   1      42.842  18.595  27.119  1.00  0.00    -0.237 OA
ATOM     90  O   UNL A   1      40.995  19.122  25.576  1.00  0.00    -0.744 OA
ENDBRANCH  86  87
ENDBRANCH  54  79
BRANCH  66  91
ATOM     91  C   UNL A   1      47.854  27.159  30.321  1.00  0.00     0.058 A 
ATOM     92  C   UNL A   1      48.843  27.570  29.415  1.00  0.00     0.135 A 
ATOM     93  C   UNL A   1      48.259  26.454  31.465  1.00  0.00     0.135 A 
ATOM     94  F   UNL A   1      48.505  28.237  28.301  1.00  0.00    -0.206 F 
ATOM     95  C   UNL A   1      50.188  27.285  29.631  1.00  0.00     0.059 A 
ATOM     96  C   UNL A   1      49.600  26.177  31.712  1.00  0.00     0.059 A 
ATOM     97  F   UNL A   1      47.352  26.046  32.365  1.00  0.00    -0.206 F 
ATOM     98  C   UNL A   1      50.557  26.591  30.785  1.00  0.00     0.060 A 
BRANCH  98  99
ATOM     99  S   UNL A   1      52.310  26.269  31.074  1.00  0.00     0.124 S 
ATOM    100  O   UNL A   1      52.702  27.443  31.845  1.00  0.00    -0.237 OA
ATOM    101  O   UNL A   1      52.280  25.008  31.808  1.00  0.00    -0.237 OA
ATOM    102  O   UNL A   1      52.866  26.188  29.726  1.00  0.00    -0.744 OA
ENDBRANCH  98  99
ENDBRANCH  66  91
ENDBRANCH  40  41
ENDBRANCH  32  35
ENDBRANCH  30  31
ENDBRANCH   1  30
TORSDOF 15
ENDMDL
MODEL 3
REMARK VINA RESULT:     -13.2      2.738      3.543
REMARK SMILES Cc1nc2ccccc2c2c1C(=O)N(c1cccc(C(=O)NCCCCNC(=O)c3ccc(-c4c5nc(c(-c6c(F)cc(S(=O)(=O)[O-])cc6F)c6ccc([nH]6)c(-c6c(F)cc(S(=O)(=O)[O-])cc6F)c6nc(c(-c7c(F)cc(S(=O)(=O)[O-])cc7F)c7ccc4[nH]7)C=C6)C=C5)cc3)c1)C2=O
REMARK SMILES IDX 25 1 24 2 23 3 22 4 20 5 21 6 19 8 15 9 16 10 96 11 17 12
REMARK SMILES IDX 18 13 14 14 1 15 2 16 3 17 11 18 4 19 10 20 12 21 5 22 9 23
REMARK SMILES IDX 97 24 13 25 6 26 8 27 98 28 7 29 26 30 27 31 28 32 29 34
REMARK SMILES IDX 30 35 31 36 95 37 32 38 94 39 33 40 34 41 35 42 88 43 36 44
REMARK SMILES IDX 93 45 87 46 89 47 37 48 92 49 86 50 85 51 38 53 72 54 51 55
REMARK SMILES IDX 71 56 52 57 55 58 70 59 90 60 53 61 54 62 69 64 91 65 56 66
REMARK SMILES IDX 39 67 40 68 49 69 41 70 42 71 48 72 50 73 43 74 44 75 45 76
REMARK SMILES IDX 46 77 47 78 73 79 74 80 83 81 75 82 76 83 82 84 84 85 77 86
REMARK SMILES IDX 78 87 79 88 80 89 81 90 57 91 58 92 67 93 59 94 60 95 66 96
REMARK SMILES IDX 68 97 61 98 62 99 63 100 64 101 65 102
REMARK H PARENT 22 7 27 33 89 52 55 63
REMARK Flexibility Score: inf
ROOT
ATOM      1  C   UNL A   1      35.216  31.918  27.678  1.00  0.00     0.023 C 
ENDROOT
BRANCH   1   2
ATOM      2  C   UNL A   1      34.186  30.795  27.681  1.00  0.00     0.023 C 
BRANCH   2   3
ATOM      3  C   UNL A   1      34.654  29.435  27.172  1.00  0.00     0.116 C 
BRANCH   3   4
ATOM      4  N   UNL A   1      34.507  29.279  25.743  1.00  0.00    -0.352 N 
ATOM      5  C   UNL A   1      33.939  28.312  24.967  1.00  0.00     0.251 C 
ATOM      6  O   UNL A   1      33.843  28.576  23.764  1.00  0.00    -0.269 OA
ATOM      7  H   UNL A   1      34.895  30.022  25.225  1.00  0.00     0.163 HD
BRANCH   5   8
ATOM      8  C   UNL A   1      33.449  26.981  25.447  1.00  0.00     0.041 A 
ATOM      9  C   UNL A   1      33.416  24.546  25.589  1.00  0.00     0.053 A 
ATOM     10  C   UNL A   1      32.177  24.633  26.262  1.00  0.00     0.027 A 
ATOM     11  C   UNL A   1      34.094  25.738  25.290  1.00  0.00     0.040 A 
ATOM     12  C   UNL A   1      31.517  25.844  26.401  1.00  0.00     0.003 A 
ATOM     13  C   UNL A   1      32.137  27.003  25.964  1.00  0.00     0.014 A 
BRANCH   9  14
ATOM     14  N   UNL A   1      33.697  23.327  24.877  1.00  0.00    -0.242 N 
ATOM     15  C   UNL A   1      35.252  18.913  24.694  1.00  0.00     0.067 C 
ATOM     16  C   UNL A   1      35.737  20.311  24.931  1.00  0.00     0.052 A 
ATOM     17  N   UNL A   1      37.081  20.460  25.127  1.00  0.00    -0.252 NA
ATOM     18  C   UNL A   1      34.956  21.393  24.589  1.00  0.00     0.075 A 
ATOM     19  C   UNL A   1      37.555  21.713  25.295  1.00  0.00     0.071 A 
ATOM     20  C   UNL A   1      35.637  22.508  24.197  1.00  0.00     0.064 A 
ATOM     21  C   UNL A   1      33.793  22.020  25.340  1.00  0.00     0.268 C 
ATOM     22  C   UNL A   1      38.751  21.943  25.964  1.00  0.00     0.029 A 
ATOM     23  C   UNL A   1      36.782  22.815  24.932  1.00  0.00     0.014 A 
ATOM     24  C   UNL A   1      34.590  23.435  23.861  1.00  0.00     0.266 C 
ATOM     25  O   UNL A   1      33.227  21.478  26.272  1.00  0.00    -0.268 OA
ATOM     26  C   UNL A   1      39.046  23.199  26.506  1.00  0.00     0.002 A 
ATOM     27  C   UNL A   1      37.064  24.085  25.492  1.00  0.00     0.011 A 
ATOM     28  O   UNL A   1      34.531  23.990  22.777  1.00  0.00    -0.268 OA
ATOM     29  C   UNL A   1      38.157  24.253  26.335  1.00  0.00     0.001 A 
ENDBRANCH   9  14
ENDBRANCH   5   8
ENDBRANCH   3   4
ENDBRANCH   2   3
ENDBRANCH   1   2
BRANCH   1  30
ATOM     30  C   UNL A   1      35.912  32.179  29.006  1.00  0.00     0.116 C 
BRANCH  30  31
ATOM     31  N   UNL A   1      35.723  31.112  29.980  1.00  0.00    -0.352 N 
ATOM     32  C   UNL A   1      36.595  30.147  30.429  1.00  0.00     0.251 C 
ATOM     33  H   UNL A   1      34.826  31.077  30.384  1.00  0.00     0.163 HD
ATOM     34  O   UNL A   1      36.199  29.270  31.190  1.00  0.00    -0.269 OA
BRANCH  32  35
ATOM     35  C   UNL A   1      37.993  30.136  29.948  1.00  0.00     0.039 A 
ATOM     36  C   UNL A   1      38.284  29.874  28.609  1.00  0.00     0.014 A 
ATOM     37  C   UNL A   1      39.029  30.331  30.865  1.00  0.00     0.014 A 
ATOM     38  C   UNL A   1      39.588  29.572  28.242  1.00  0.00     0.010 A 
ATOM     39  C   UNL A   1      40.355  30.135  30.464  1.00  0.00     0.010 A 
ATOM     40  C   UNL A   1      40.639  29.680  29.168  1.00  0.00    -0.014 A 
BRANCH  40  41
ATOM     41  C   UNL A   1      42.011  29.269  28.765  1.00  0.00     0.031 A 
ATOM     42  C   UNL A   1      42.289  27.858  28.311  1.00  0.00     0.074 A 
ATOM     43  C   UNL A   1      42.991  30.192  28.725  1.00  0.00     0.049 A 
ATOM     44  N   UNL A   1      43.413  27.333  27.891  1.00  0.00    -0.248 NA
ATOM     45  C   UNL A   1      41.163  26.911  28.334  1.00  0.00     0.031 C 
ATOM     46  C   UNL A   1      42.840  31.595  29.114  1.00  0.00     0.029 A 
ATOM     47  N   UNL A   1      44.292  30.103  28.301  1.00  0.00    -0.354 N 
ATOM     48  C   UNL A   1      43.136  25.997  27.622  1.00  0.00     0.074 A 
ATOM     49  C   UNL A   1      41.745  25.782  27.957  1.00  0.00     0.031 C 
ATOM     50  C   UNL A   1      43.975  32.252  28.839  1.00  0.00     0.029 A 
ATOM     51  C   UNL A   1      44.959  31.304  28.322  1.00  0.00     0.049 A 
ATOM     52  H   UNL A   1      44.708  29.259  28.009  1.00  0.00     0.167 HD
ATOM     53  C   UNL A   1      43.960  25.041  27.129  1.00  0.00     0.037 A 
ATOM     54  C   UNL A   1      46.222  31.614  27.973  1.00  0.00     0.037 A 
ATOM     55  C   UNL A   1      45.338  25.264  26.774  1.00  0.00     0.049 A 
ATOM     56  C   UNL A   1      47.130  30.530  27.474  1.00  0.00     0.074 A 
ATOM     57  C   UNL A   1      46.252  24.362  26.259  1.00  0.00     0.029 A 
ATOM     58  N   UNL A   1      45.999  26.478  26.894  1.00  0.00    -0.354 N 
ATOM     59  N   UNL A   1      46.857  29.267  27.252  1.00  0.00    -0.248 NA
ATOM     60  C   UNL A   1      48.523  30.907  27.200  1.00  0.00     0.031 C 
ATOM     61  C   UNL A   1      47.477  25.021  26.102  1.00  0.00     0.029 A 
ATOM     62  C   UNL A   1      47.315  26.344  26.482  1.00  0.00     0.049 A 
ATOM     63  H   UNL A   1      45.593  27.312  27.224  1.00  0.00     0.167 HD
ATOM     64  C   UNL A   1      48.044  28.695  26.814  1.00  0.00     0.074 A 
ATOM     65  C   UNL A   1      49.032  29.755  26.781  1.00  0.00     0.031 C 
ATOM     66  C   UNL A   1      48.292  27.406  26.474  1.00  0.00     0.037 A 
BRANCH  53  67
ATOM     67  C   UNL A   1      43.391  23.657  26.962  1.00  0.00     0.058 A 
ATOM     68  C   UNL A   1      43.230  22.788  28.053  1.00  0.00     0.135 A 
ATOM     69  C   UNL A   1      42.996  23.196  25.695  1.00  0.00     0.135 A 
ATOM     70  F   UNL A   1      43.605  23.172  29.284  1.00  0.00    -0.206 F 
ATOM     71  C   UNL A   1      42.734  21.498  27.889  1.00  0.00     0.059 A 
ATOM     72  C   UNL A   1      42.474  21.918  25.512  1.00  0.00     0.059 A 
ATOM     73  F   UNL A   1      43.124  23.986  24.618  1.00  0.00    -0.206 F 
ATOM     74  C   UNL A   1      42.367  21.069  26.613  1.00  0.00     0.060 A 
BRANCH  74  75
ATOM     75  S   UNL A   1      41.756  19.382  26.411  1.00  0.00     0.124 S 
ATOM     76  O   UNL A   1      42.411  18.984  25.169  1.00  0.00    -0.237 OA
ATOM     77  O   UNL A   1      42.242  18.725  27.621  1.00  0.00    -0.237 OA
ATOM     78  O   UNL A   1      40.308  19.550  26.332  1.00  0.00    -0.744 OA
ENDBRANCH  74  75
ENDBRANCH  53  67
BRANCH  54  79
ATOM     79  C   UNL A   1      46.675  33.023  28.081  1.00  0.00     0.058 A 
ATOM     80  C   UNL A   1      47.338  33.477  29.230  1.00  0.00     0.135 A 
ATOM     81  C   UNL A   1      46.539  33.916  27.005  1.00  0.00     0.135 A 
ATOM     82  F   UNL A   1      47.484  32.661  30.286  1.00  0.00    -0.206 F 
ATOM     83  C   UNL A   1      47.870  34.760  29.303  1.00  0.00     0.059 A 
ATOM     84  C   UNL A   1      47.082  35.195  27.046  1.00  0.00     0.059 A 
ATOM     85  F   UNL A   1      45.924  33.522  25.880  1.00  0.00    -0.206 F 
ATOM     86  C   UNL A   1      47.750  35.606  28.199  1.00  0.00     0.060 A 
BRANCH  86  87
ATOM     87  S   UNL A   1      48.545  37.227  28.262  1.00  0.00     0.124 S 
ATOM     88  O   UNL A   1      49.484  37.051  29.364  1.00  0.00    -0.237 OA
ATOM     89  O   UNL A   1      49.134  37.329  26.930  1.00  0.00    -0.237 OA
ATOM     90  O   UNL A   1      47.432  38.137  28.518  1.00  0.00    -0.744 OA
ENDBRANCH  86  87
ENDBRANCH  54  79
BRANCH  66  91
ATOM     91  C   UNL A   1      49.691  27.065  26.048  1.00  0.00     0.058 A 
ATOM     92  C   UNL A   1      50.621  26.539  26.958  1.00  0.00     0.135 A 
ATOM     93  C   UNL A   1      50.087  27.206  24.708  1.00  0.00     0.135 A 
ATOM     94  F   UNL A   1      50.294  26.394  28.251  1.00  0.00    -0.206 F 
ATOM     95  C   UNL A   1      51.903  26.176  26.556  1.00  0.00     0.059 A 
ATOM     96  C   UNL A   1      51.356  26.829  24.280  1.00  0.00     0.059 A 
ATOM     97  F   UNL A   1      49.231  27.697  23.799  1.00  0.00    -0.206 F 
ATOM     98  C   UNL A   1      52.259  26.321  25.213  1.00  0.00     0.060 A 
BRANCH  98  99
ATOM     99  S   UNL A   1      53.910  25.802  24.699  1.00  0.00     0.124 S 
ATOM    100  O   UNL A   1      54.757  26.606  25.574  1.00  0.00    -0.237 OA
ATOM    101  O   UNL A   1      53.889  24.370  24.977  1.00  0.00    -0.237 OA
ATOM    102  O   UNL A   1      53.953  26.159  23.283  1.00  0.00    -0.744 OA
ENDBRANCH  98  99
ENDBRANCH  66  91
ENDBRANCH  40  41
ENDBRANCH  32  35
ENDBRANCH  30  31
ENDBRANCH   1  30
TORSDOF 15
ENDMDL
