MODEL 1
REMARK VINA RESULT:     -12.8      0.000      0.000
REMARK SMILES O=C(Cn1nnnc1[C@H]1Cc2ccccc2S1)NCCCCNC(=O)c1ccc(-c2c3nc(c(-c4c(F)cc(S(=O)(=O)[O-])cc4F)c4ccc([nH]4)c(-c4c(F)cc(S(=O)(=O)[O-])cc4F)c4nc(c(-c5c(F)cc(S(=O)(=O)[O-])cc5F)c5ccc2[nH]5)C=C4)C=C3)cc1
REMARK SMILES IDX 21 1 20 2 19 3 18 4 1 5 2 6 3 8 4 9 5 10 8 11 6 12 7 13 9 14
REMARK SMILES IDX 10 15 17 16 11 17 16 18 12 19 15 20 13 21 14 22 22 23 23 24
REMARK SMILES IDX 24 25 25 27 26 28 27 29 91 30 28 31 90 32 29 33 30 34 31 35
REMARK SMILES IDX 84 36 32 37 89 38 83 39 85 40 33 41 88 42 82 43 81 44 34 46
REMARK SMILES IDX 68 47 47 48 67 49 48 50 51 51 66 52 86 53 49 54 50 55 65 57
REMARK SMILES IDX 87 58 52 59 35 60 36 61 45 62 37 63 38 64 44 65 46 66 39 67
REMARK SMILES IDX 40 68 41 69 42 70 43 71 69 72 70 73 79 74 71 75 72 76 78 77
REMARK SMILES IDX 80 78 73 79 74 80 75 81 76 82 77 83 53 84 54 85 63 86 55 87
REMARK SMILES IDX 56 88 62 89 64 90 57 91 58 92 59 93 60 94 61 95
REMARK H PARENT 18 7 23 26 85 45 51 56
REMARK Flexibility Score: inf
ROOT
ATOM      1  C   UNL A   1      37.194  23.302  24.421  1.00  0.00     0.023 C 
ENDROOT
BRANCH   1   2
ATOM      2  C   UNL A   1      36.080  22.645  23.560  1.00  0.00     0.023 C 
BRANCH   2   3
ATOM      3  C   UNL A   1      34.573  22.636  23.955  1.00  0.00     0.116 C 
BRANCH   3   4
ATOM      4  N   UNL A   1      33.836  23.843  23.600  1.00  0.00    -0.354 N 
ATOM      5  O   UNL A   1      33.393  23.541  21.375  1.00  0.00    -0.273 OA
ATOM      6  C   UNL A   1      33.203  24.159  22.416  1.00  0.00     0.241 C 
ATOM      7  H   UNL A   1      33.783  24.527  24.304  1.00  0.00     0.163 HD
BRANCH   6   8
ATOM      8  C   UNL A   1      32.240  25.352  22.526  1.00  0.00     0.248 C 
BRANCH   8   9
ATOM      9  N   UNL A   1      32.909  26.642  22.575  1.00  0.00    -0.219 N 
ATOM     10  N   UNL A   1      33.597  27.009  21.472  1.00  0.00    -0.044 NA
ATOM     11  C   UNL A   1      33.167  27.553  23.591  1.00  0.00     0.165 A 
ATOM     12  N   UNL A   1      34.240  28.116  21.792  1.00  0.00    -0.024 NA
ATOM     13  N   UNL A   1      33.984  28.465  23.082  1.00  0.00    -0.113 NA
BRANCH  11  14
ATOM     14  C   UNL A   1      32.581  27.714  24.969  1.00  0.00     0.126 C 
ATOM     15  C   UNL A   1      33.503  27.482  26.151  1.00  0.00     0.059 C 
ATOM     16  S   UNL A   1      31.816  29.335  25.322  1.00  0.00    -0.114 SA
ATOM     17  C   UNL A   1      34.052  28.818  26.603  1.00  0.00    -0.033 A 
ATOM     18  C   UNL A   1      33.077  29.801  26.482  1.00  0.00     0.011 A 
ATOM     19  C   UNL A   1      35.247  29.140  27.263  1.00  0.00     0.005 A 
ATOM     20  C   UNL A   1      33.165  30.975  27.215  1.00  0.00     0.015 A 
ATOM     21  C   UNL A   1      35.388  30.354  27.921  1.00  0.00     0.000 A 
ATOM     22  C   UNL A   1      34.319  31.238  27.958  1.00  0.00     0.001 A 
ENDBRANCH  11  14
ENDBRANCH   8   9
ENDBRANCH   6   8
ENDBRANCH   3   4
ENDBRANCH   2   3
ENDBRANCH   1   2
BRANCH   1  23
ATOM     23  C   UNL A   1      37.567  22.718  25.777  1.00  0.00     0.116 C 
BRANCH  23  24
ATOM     24  N   UNL A   1      38.875  22.116  25.817  1.00  0.00    -0.352 N 
ATOM     25  C   UNL A   1      40.088  22.435  26.366  1.00  0.00     0.251 C 
ATOM     26  H   UNL A   1      38.904  21.262  25.328  1.00  0.00     0.163 HD
ATOM     27  O   UNL A   1      40.936  21.539  26.280  1.00  0.00    -0.269 OA
BRANCH  25  28
ATOM     28  C   UNL A   1      40.500  23.737  26.977  1.00  0.00     0.039 A 
ATOM     29  C   UNL A   1      41.531  23.967  27.890  1.00  0.00     0.014 A 
ATOM     30  C   UNL A   1      39.718  24.843  26.579  1.00  0.00     0.014 A 
ATOM     31  C   UNL A   1      41.691  25.237  28.470  1.00  0.00     0.010 A 
ATOM     32  C   UNL A   1      39.881  26.105  27.142  1.00  0.00     0.010 A 
ATOM     33  C   UNL A   1      40.826  26.290  28.140  1.00  0.00    -0.014 A 
BRANCH  33  34
ATOM     34  C   UNL A   1      40.956  27.583  28.821  1.00  0.00     0.031 A 
ATOM     35  C   UNL A   1      42.035  28.480  28.311  1.00  0.00     0.074 A 
ATOM     36  C   UNL A   1      40.093  28.023  29.766  1.00  0.00     0.049 A 
ATOM     37  N   UNL A   1      43.111  28.862  28.919  1.00  0.00    -0.248 NA
ATOM     38  C   UNL A   1      41.954  28.927  26.912  1.00  0.00     0.031 C 
ATOM     39  C   UNL A   1      38.821  27.426  30.187  1.00  0.00     0.029 A 
ATOM     40  N   UNL A   1      40.138  29.169  30.505  1.00  0.00    -0.354 N 
ATOM     41  C   UNL A   1      43.750  29.757  28.058  1.00  0.00     0.074 A 
ATOM     42  C   UNL A   1      43.077  29.637  26.790  1.00  0.00     0.031 C 
ATOM     43  C   UNL A   1      38.125  28.316  30.931  1.00  0.00     0.029 A 
ATOM     44  C   UNL A   1      38.956  29.484  31.168  1.00  0.00     0.049 A 
ATOM     45  H   UNL A   1      40.946  29.729  30.567  1.00  0.00     0.167 HD
ATOM     46  C   UNL A   1      44.658  30.670  28.507  1.00  0.00     0.037 A 
ATOM     47  C   UNL A   1      38.670  30.639  31.828  1.00  0.00     0.037 A 
ATOM     48  C   UNL A   1      45.133  30.334  29.825  1.00  0.00     0.049 A 
ATOM     49  C   UNL A   1      39.968  31.273  32.173  1.00  0.00     0.074 A 
ATOM     50  C   UNL A   1      45.800  29.255  30.372  1.00  0.00     0.029 A 
ATOM     51  N   UNL A   1      44.619  31.027  30.894  1.00  0.00    -0.354 N 
ATOM     52  N   UNL A   1      40.822  30.770  33.021  1.00  0.00    -0.248 NA
ATOM     53  C   UNL A   1      40.513  32.243  31.237  1.00  0.00     0.031 C 
ATOM     54  C   UNL A   1      45.220  29.078  31.661  1.00  0.00     0.029 A 
ATOM     55  C   UNL A   1      44.285  30.098  31.847  1.00  0.00     0.049 A 
ATOM     56  H   UNL A   1      44.511  32.003  30.963  1.00  0.00     0.167 HD
ATOM     57  C   UNL A   1      42.064  31.020  32.460  1.00  0.00     0.074 A 
ATOM     58  C   UNL A   1      41.814  31.999  31.404  1.00  0.00     0.031 C 
ATOM     59  C   UNL A   1      43.136  30.214  32.717  1.00  0.00     0.037 A 
BRANCH  46  60
ATOM     60  C   UNL A   1      44.880  32.041  27.904  1.00  0.00     0.058 A 
ATOM     61  C   UNL A   1      46.073  32.309  27.197  1.00  0.00     0.135 A 
ATOM     62  C   UNL A   1      44.105  33.175  28.234  1.00  0.00     0.135 A 
ATOM     63  F   UNL A   1      46.891  31.310  26.831  1.00  0.00    -0.206 F 
ATOM     64  C   UNL A   1      46.502  33.607  26.914  1.00  0.00     0.059 A 
ATOM     65  C   UNL A   1      44.488  34.474  27.915  1.00  0.00     0.059 A 
ATOM     66  F   UNL A   1      42.991  33.086  28.969  1.00  0.00    -0.206 F 
ATOM     67  C   UNL A   1      45.709  34.685  27.296  1.00  0.00     0.060 A 
BRANCH  67  68
ATOM     68  S   UNL A   1      46.318  36.363  27.045  1.00  0.00     0.124 S 
ATOM     69  O   UNL A   1      47.276  36.165  25.965  1.00  0.00    -0.237 OA
ATOM     70  O   UNL A   1      45.096  37.078  26.695  1.00  0.00    -0.237 OA
ATOM     71  O   UNL A   1      46.891  36.709  28.343  1.00  0.00    -0.744 OA
ENDBRANCH  67  68
ENDBRANCH  46  60
BRANCH  47  72
ATOM     72  C   UNL A   1      37.396  31.416  31.817  1.00  0.00     0.058 A 
ATOM     73  C   UNL A   1      36.705  31.696  33.013  1.00  0.00     0.135 A 
ATOM     74  C   UNL A   1      37.005  32.170  30.692  1.00  0.00     0.135 A 
ATOM     75  F   UNL A   1      37.013  31.033  34.140  1.00  0.00    -0.206 F 
ATOM     76  C   UNL A   1      35.746  32.712  33.107  1.00  0.00     0.059 A 
ATOM     77  C   UNL A   1      36.046  33.181  30.759  1.00  0.00     0.059 A 
ATOM     78  F   UNL A   1      37.616  32.012  29.508  1.00  0.00    -0.206 F 
ATOM     79  C   UNL A   1      35.446  33.471  31.977  1.00  0.00     0.060 A 
BRANCH  79  80
ATOM     80  S   UNL A   1      34.372  34.919  32.138  1.00  0.00     0.124 S 
ATOM     81  O   UNL A   1      34.118  35.263  30.744  1.00  0.00    -0.237 OA
ATOM     82  O   UNL A   1      33.237  34.380  32.879  1.00  0.00    -0.237 OA
ATOM     83  O   UNL A   1      35.198  35.873  32.875  1.00  0.00    -0.744 OA
ENDBRANCH  79  80
ENDBRANCH  47  72
BRANCH  59  84
ATOM     84  C   UNL A   1      43.030  29.214  33.841  1.00  0.00     0.058 A 
ATOM     85  C   UNL A   1      43.262  29.508  35.196  1.00  0.00     0.135 A 
ATOM     86  C   UNL A   1      42.522  27.941  33.542  1.00  0.00     0.135 A 
ATOM     87  F   UNL A   1      43.648  30.732  35.581  1.00  0.00    -0.206 F 
ATOM     88  C   UNL A   1      43.037  28.567  36.203  1.00  0.00     0.059 A 
ATOM     89  C   UNL A   1      42.259  26.997  34.531  1.00  0.00     0.059 A 
ATOM     90  F   UNL A   1      42.221  27.617  32.274  1.00  0.00    -0.206 F 
ATOM     91  C   UNL A   1      42.530  27.314  35.861  1.00  0.00     0.060 A 
BRANCH  91  92
ATOM     92  S   UNL A   1      42.158  26.123  37.168  1.00  0.00     0.124 S 
ATOM     93  O   UNL A   1      40.744  26.397  37.438  1.00  0.00    -0.237 OA
ATOM     94  O   UNL A   1      42.433  24.843  36.512  1.00  0.00    -0.237 OA
ATOM     95  O   UNL A   1      43.077  26.478  38.233  1.00  0.00    -0.744 OA
ENDBRANCH  91  92
ENDBRANCH  59  84
ENDBRANCH  33  34
ENDBRANCH  25  28
ENDBRANCH  23  24
ENDBRANCH   1  23
TORSDOF 16
ENDMDL
MODEL 2
REMARK VINA RESULT:     -12.8      1.658      2.444
REMARK SMILES O=C(Cn1nnnc1[C@H]1Cc2ccccc2S1)NCCCCNC(=O)c1ccc(-c2c3nc(c(-c4c(F)cc(S(=O)(=O)[O-])cc4F)c4ccc([nH]4)c(-c4c(F)cc(S(=O)(=O)[O-])cc4F)c4nc(c(-c5c(F)cc(S(=O)(=O)[O-])cc5F)c5ccc2[nH]5)C=C4)C=C3)cc1
REMARK SMILES IDX 21 1 20 2 19 3 18 4 1 5 2 6 3 8 4 9 5 10 8 11 6 12 7 13 9 14
REMARK SMILES IDX 10 15 17 16 11 17 16 18 12 19 15 20 13 21 14 22 22 23 23 24
REMARK SMILES IDX 24 25 25 27 26 28 27 29 91 30 28 31 90 32 29 33 30 34 31 35
REMARK SMILES IDX 84 36 32 37 89 38 83 39 85 40 33 41 88 42 82 43 81 44 34 46
REMARK SMILES IDX 68 47 47 48 67 49 48 50 51 51 66 52 86 53 49 54 50 55 65 57
REMARK SMILES IDX 87 58 52 59 35 60 36 61 45 62 37 63 38 64 44 65 46 66 39 67
REMARK SMILES IDX 40 68 41 69 42 70 43 71 69 72 70 73 79 74 71 75 72 76 78 77
REMARK SMILES IDX 80 78 73 79 74 80 75 81 76 82 77 83 53 84 54 85 63 86 55 87
REMARK SMILES IDX 56 88 62 89 64 90 57 91 58 92 59 93 60 94 61 95
REMARK H PARENT 18 7 23 26 85 45 51 56
REMARK Flexibility Score: inf
ROOT
ATOM      1  C   UNL A   1      39.518  22.863  27.025  1.00  0.00     0.023 C 
ENDROOT
BRANCH   1   2
ATOM      2  C   UNL A   1      38.525  23.611  26.094  1.00  0.00     0.023 C 
BRANCH   2   3
ATOM      3  C   UNL A   1      37.378  22.906  25.308  1.00  0.00     0.116 C 
BRANCH   3   4
ATOM      4  N   UNL A   1      36.323  23.792  24.833  1.00  0.00    -0.354 N 
ATOM      5  O   UNL A   1      34.630  23.430  26.330  1.00  0.00    -0.273 OA
ATOM      6  C   UNL A   1      35.108  24.090  25.415  1.00  0.00     0.241 C 
ATOM      7  H   UNL A   1      36.503  24.241  23.976  1.00  0.00     0.163 HD
BRANCH   6   8
ATOM      8  C   UNL A   1      34.416  25.323  24.811  1.00  0.00     0.248 C 
BRANCH   8   9
ATOM      9  N   UNL A   1      33.823  25.081  23.507  1.00  0.00    -0.219 N 
ATOM     10  N   UNL A   1      34.178  23.935  22.883  1.00  0.00    -0.044 NA
ATOM     11  C   UNL A   1      33.079  25.859  22.629  1.00  0.00     0.165 A 
ATOM     12  N   UNL A   1      33.656  23.999  21.673  1.00  0.00    -0.024 NA
ATOM     13  N   UNL A   1      32.976  25.166  21.503  1.00  0.00    -0.113 NA
BRANCH  11  14
ATOM     14  C   UNL A   1      32.326  27.149  22.821  1.00  0.00     0.126 C 
ATOM     15  C   UNL A   1      31.221  27.165  23.860  1.00  0.00     0.059 C 
ATOM     16  S   UNL A   1      33.345  28.606  23.245  1.00  0.00    -0.114 SA
ATOM     17  C   UNL A   1      31.787  27.700  25.158  1.00  0.00    -0.033 A 
ATOM     18  C   UNL A   1      32.706  28.710  24.897  1.00  0.00     0.011 A 
ATOM     19  C   UNL A   1      31.399  27.477  26.486  1.00  0.00     0.005 A 
ATOM     20  C   UNL A   1      33.027  29.640  25.875  1.00  0.00     0.015 A 
ATOM     21  C   UNL A   1      31.792  28.345  27.496  1.00  0.00     0.000 A 
ATOM     22  C   UNL A   1      32.544  29.467  27.175  1.00  0.00     0.001 A 
ENDBRANCH  11  14
ENDBRANCH   8   9
ENDBRANCH   6   8
ENDBRANCH   3   4
ENDBRANCH   2   3
ENDBRANCH   1   2
BRANCH   1  23
ATOM     23  C   UNL A   1      40.315  21.673  26.509  1.00  0.00     0.116 C 
BRANCH  23  24
ATOM     24  N   UNL A   1      41.365  22.024  25.588  1.00  0.00    -0.352 N 
ATOM     25  C   UNL A   1      42.272  23.043  25.473  1.00  0.00     0.251 C 
ATOM     26  H   UNL A   1      41.453  21.369  24.859  1.00  0.00     0.163 HD
ATOM     27  O   UNL A   1      43.116  22.875  24.584  1.00  0.00    -0.269 OA
BRANCH  25  28
ATOM     28  C   UNL A   1      42.305  24.327  26.241  1.00  0.00     0.039 A 
ATOM     29  C   UNL A   1      42.859  24.557  27.503  1.00  0.00     0.014 A 
ATOM     30  C   UNL A   1      41.672  25.411  25.596  1.00  0.00     0.014 A 
ATOM     31  C   UNL A   1      42.677  25.797  28.138  1.00  0.00     0.010 A 
ATOM     32  C   UNL A   1      41.500  26.644  26.217  1.00  0.00     0.010 A 
ATOM     33  C   UNL A   1      41.945  26.820  27.519  1.00  0.00    -0.014 A 
BRANCH  33  34
ATOM     34  C   UNL A   1      41.694  28.075  28.236  1.00  0.00     0.031 A 
ATOM     35  C   UNL A   1      42.736  29.133  28.078  1.00  0.00     0.074 A 
ATOM     36  C   UNL A   1      40.545  28.342  28.900  1.00  0.00     0.049 A 
ATOM     37  N   UNL A   1      43.530  29.613  28.979  1.00  0.00    -0.248 NA
ATOM     38  C   UNL A   1      42.992  29.650  26.725  1.00  0.00     0.031 C 
ATOM     39  C   UNL A   1      39.303  27.562  28.923  1.00  0.00     0.029 A 
ATOM     40  N   UNL A   1      40.218  29.437  29.646  1.00  0.00    -0.354 N 
ATOM     41  C   UNL A   1      44.254  30.633  28.359  1.00  0.00     0.074 A 
ATOM     42  C   UNL A   1      43.992  30.505  26.948  1.00  0.00     0.031 C 
ATOM     43  C   UNL A   1      38.307  28.308  29.454  1.00  0.00     0.029 A 
ATOM     44  C   UNL A   1      38.864  29.557  29.945  1.00  0.00     0.049 A 
ATOM     45  H   UNL A   1      40.888  30.092  29.950  1.00  0.00     0.167 HD
ATOM     46  C   UNL A   1      44.860  31.626  29.070  1.00  0.00     0.037 A 
ATOM     47  C   UNL A   1      38.243  30.623  30.518  1.00  0.00     0.037 A 
ATOM     48  C   UNL A   1      44.985  31.275  30.462  1.00  0.00     0.049 A 
ATOM     49  C   UNL A   1      39.288  31.397  31.237  1.00  0.00     0.074 A 
ATOM     50  C   UNL A   1      45.615  30.259  31.154  1.00  0.00     0.029 A 
ATOM     51  N   UNL A   1      44.097  31.829  31.351  1.00  0.00    -0.354 N 
ATOM     52  N   UNL A   1      39.929  30.957  32.285  1.00  0.00    -0.248 NA
ATOM     53  C   UNL A   1      39.934  32.484  30.519  1.00  0.00     0.031 C 
ATOM     54  C   UNL A   1      44.724  29.931  32.217  1.00  0.00     0.029 A 
ATOM     55  C   UNL A   1      43.641  30.809  32.146  1.00  0.00     0.049 A 
ATOM     56  H   UNL A   1      43.838  32.777  31.406  1.00  0.00     0.167 HD
ATOM     57  C   UNL A   1      41.231  31.399  32.112  1.00  0.00     0.074 A 
ATOM     58  C   UNL A   1      41.155  32.400  31.049  1.00  0.00     0.031 C 
ATOM     59  C   UNL A   1      42.289  30.723  32.650  1.00  0.00     0.037 A 
BRANCH  46  60
ATOM     60  C   UNL A   1      45.049  33.048  28.586  1.00  0.00     0.058 A 
ATOM     61  C   UNL A   1      46.350  33.587  28.487  1.00  0.00     0.135 A 
ATOM     62  C   UNL A   1      43.998  33.987  28.489  1.00  0.00     0.135 A 
ATOM     63  F   UNL A   1      47.429  32.791  28.567  1.00  0.00    -0.206 F 
ATOM     64  C   UNL A   1      46.589  34.959  28.385  1.00  0.00     0.059 A 
ATOM     65  C   UNL A   1      44.212  35.353  28.334  1.00  0.00     0.059 A 
ATOM     66  F   UNL A   1      42.715  33.638  28.642  1.00  0.00    -0.206 F 
ATOM     67  C   UNL A   1      45.510  35.836  28.328  1.00  0.00     0.060 A 
BRANCH  67  68
ATOM     68  S   UNL A   1      45.814  37.612  28.323  1.00  0.00     0.124 S 
ATOM     69  O   UNL A   1      47.193  37.671  28.792  1.00  0.00    -0.237 OA
ATOM     70  O   UNL A   1      45.601  37.951  26.920  1.00  0.00    -0.237 OA
ATOM     71  O   UNL A   1      44.809  38.127  29.248  1.00  0.00    -0.744 OA
ENDBRANCH  67  68
ENDBRANCH  46  60
BRANCH  47  72
ATOM     72  C   UNL A   1      36.928  31.229  30.156  1.00  0.00     0.058 A 
ATOM     73  C   UNL A   1      36.122  31.849  31.132  1.00  0.00     0.135 A 
ATOM     74  C   UNL A   1      36.588  31.499  28.816  1.00  0.00     0.135 A 
ATOM     75  F   UNL A   1      36.373  31.656  32.437  1.00  0.00    -0.206 F 
ATOM     76  C   UNL A   1      35.096  32.743  30.800  1.00  0.00     0.059 A 
ATOM     77  C   UNL A   1      35.565  32.378  28.461  1.00  0.00     0.059 A 
ATOM     78  F   UNL A   1      37.307  30.990  27.804  1.00  0.00    -0.206 F 
ATOM     79  C   UNL A   1      34.846  33.024  29.458  1.00  0.00     0.060 A 
BRANCH  79  80
ATOM     80  S   UNL A   1      33.672  34.334  29.027  1.00  0.00     0.124 S 
ATOM     81  O   UNL A   1      33.097  34.664  30.326  1.00  0.00    -0.237 OA
ATOM     82  O   UNL A   1      34.543  35.346  28.439  1.00  0.00    -0.237 OA
ATOM     83  O   UNL A   1      32.762  33.678  28.091  1.00  0.00    -0.744 OA
ENDBRANCH  79  80
ENDBRANCH  47  72
BRANCH  59  84
ATOM     84  C   UNL A   1      42.011  29.651  33.674  1.00  0.00     0.058 A 
ATOM     85  C   UNL A   1      41.686  28.318  33.366  1.00  0.00     0.135 A 
ATOM     86  C   UNL A   1      42.235  29.958  35.024  1.00  0.00     0.135 A 
ATOM     87  F   UNL A   1      41.556  27.914  32.095  1.00  0.00    -0.206 F 
ATOM     88  C   UNL A   1      41.551  27.345  34.359  1.00  0.00     0.059 A 
ATOM     89  C   UNL A   1      42.138  28.998  36.028  1.00  0.00     0.059 A 
ATOM     90  F   UNL A   1      42.608  31.198  35.380  1.00  0.00    -0.206 F 
ATOM     91  C   UNL A   1      41.784  27.694  35.688  1.00  0.00     0.060 A 
BRANCH  91  92
ATOM     92  S   UNL A   1      41.693  26.420  36.966  1.00  0.00     0.124 S 
ATOM     93  O   UNL A   1      41.728  25.188  36.173  1.00  0.00    -0.237 OA
ATOM     94  O   UNL A   1      42.894  26.687  37.761  1.00  0.00    -0.237 OA
ATOM     95  O   UNL A   1      40.437  26.693  37.640  1.00  0.00    -0.744 OA
ENDBRANCH  91  92
ENDBRANCH  59  84
ENDBRANCH  33  34
ENDBRANCH  25  28
ENDBRANCH  23  24
ENDBRANCH   1  23
TORSDOF 16
ENDMDL
MODEL 3
REMARK VINA RESULT:     -12.6      1.643      2.285
REMARK SMILES O=C(Cn1nnnc1[C@H]1Cc2ccccc2S1)NCCCCNC(=O)c1ccc(-c2c3nc(c(-c4c(F)cc(S(=O)(=O)[O-])cc4F)c4ccc([nH]4)c(-c4c(F)cc(S(=O)(=O)[O-])cc4F)c4nc(c(-c5c(F)cc(S(=O)(=O)[O-])cc5F)c5ccc2[nH]5)C=C4)C=C3)cc1
REMARK SMILES IDX 21 1 20 2 19 3 18 4 1 5 2 6 3 8 4 9 5 10 8 11 6 12 7 13 9 14
REMARK SMILES IDX 10 15 17 16 11 17 16 18 12 19 15 20 13 21 14 22 22 23 23 24
REMARK SMILES IDX 24 25 25 27 26 28 27 29 91 30 28 31 90 32 29 33 30 34 31 35
REMARK SMILES IDX 84 36 32 37 89 38 83 39 85 40 33 41 88 42 82 43 81 44 34 46
REMARK SMILES IDX 68 47 47 48 67 49 48 50 51 51 66 52 86 53 49 54 50 55 65 57
REMARK SMILES IDX 87 58 52 59 35 60 36 61 45 62 37 63 38 64 44 65 46 66 39 67
REMARK SMILES IDX 40 68 41 69 42 70 43 71 69 72 70 73 79 74 71 75 72 76 78 77
REMARK SMILES IDX 80 78 73 79 74 80 75 81 76 82 77 83 53 84 54 85 63 86 55 87
REMARK SMILES IDX 56 88 62 89 64 90 57 91 58 92 59 93 60 94 61 95
REMARK H PARENT 18 7 23 26 85 45 51 56
REMARK Flexibility Score: inf
ROOT
ATOM      1  C   UNL A   1      37.038  22.802  24.182  1.00  0.00     0.023 C 
ENDROOT
BRANCH   1   2
ATOM      2  C   UNL A   1      35.573  22.824  23.666  1.00  0.00     0.023 C 
BRANCH   2   3
ATOM      3  C   UNL A   1      34.336  22.507  24.560  1.00  0.00     0.116 C 
BRANCH   3   4
ATOM      4  N   UNL A   1      33.157  23.322  24.292  1.00  0.00    -0.354 N 
ATOM      5  O   UNL A   1      32.292  22.370  22.399  1.00  0.00    -0.273 OA
ATOM      6  C   UNL A   1      32.172  23.141  23.344  1.00  0.00     0.241 C 
ATOM      7  H   UNL A   1      33.050  24.112  24.868  1.00  0.00     0.163 HD
BRANCH   6   8
ATOM      8  C   UNL A   1      30.913  23.991  23.586  1.00  0.00     0.248 C 
BRANCH   8   9
ATOM      9  N   UNL A   1      31.045  24.929  24.688  1.00  0.00    -0.219 N 
ATOM     10  N   UNL A   1      30.951  24.417  25.935  1.00  0.00    -0.044 NA
ATOM     11  C   UNL A   1      31.072  26.316  24.772  1.00  0.00     0.165 A 
ATOM     12  N   UNL A   1      30.940  25.449  26.756  1.00  0.00    -0.024 NA
ATOM     13  N   UNL A   1      31.019  26.618  26.063  1.00  0.00    -0.113 NA
BRANCH  11  14
ATOM     14  C   UNL A   1      31.297  27.381  23.731  1.00  0.00     0.126 C 
ATOM     15  C   UNL A   1      30.223  27.562  22.675  1.00  0.00     0.059 C 
ATOM     16  S   UNL A   1      31.570  29.071  24.371  1.00  0.00    -0.114 SA
ATOM     17  C   UNL A   1      29.295  28.673  23.116  1.00  0.00    -0.033 A 
ATOM     18  C   UNL A   1      30.018  29.673  23.756  1.00  0.00     0.011 A 
ATOM     19  C   UNL A   1      27.946  28.911  22.819  1.00  0.00     0.005 A 
ATOM     20  C   UNL A   1      29.505  30.958  23.858  1.00  0.00     0.015 A 
ATOM     21  C   UNL A   1      27.389  30.169  23.007  1.00  0.00     0.000 A 
ATOM     22  C   UNL A   1      28.190  31.209  23.456  1.00  0.00     0.001 A 
ENDBRANCH  11  14
ENDBRANCH   8   9
ENDBRANCH   6   8
ENDBRANCH   3   4
ENDBRANCH   2   3
ENDBRANCH   1   2
BRANCH   1  23
ATOM     23  C   UNL A   1      37.331  22.701  25.673  1.00  0.00     0.116 C 
BRANCH  23  24
ATOM     24  N   UNL A   1      38.562  22.022  25.985  1.00  0.00    -0.352 N 
ATOM     25  C   UNL A   1      39.702  22.324  26.682  1.00  0.00     0.251 C 
ATOM     26  H   UNL A   1      38.594  21.117  25.602  1.00  0.00     0.163 HD
ATOM     27  O   UNL A   1      40.475  21.370  26.829  1.00  0.00    -0.269 OA
BRANCH  25  28
ATOM     28  C   UNL A   1      40.125  23.660  27.206  1.00  0.00     0.039 A 
ATOM     29  C   UNL A   1      41.319  23.990  27.851  1.00  0.00     0.014 A 
ATOM     30  C   UNL A   1      39.171  24.686  27.031  1.00  0.00     0.014 A 
ATOM     31  C   UNL A   1      41.494  25.269  28.404  1.00  0.00     0.010 A 
ATOM     32  C   UNL A   1      39.345  25.959  27.565  1.00  0.00     0.010 A 
ATOM     33  C   UNL A   1      40.481  26.234  28.314  1.00  0.00    -0.014 A 
BRANCH  33  34
ATOM     34  C   UNL A   1      40.649  27.535  28.972  1.00  0.00     0.031 A 
ATOM     35  C   UNL A   1      41.721  28.411  28.414  1.00  0.00     0.074 A 
ATOM     36  C   UNL A   1      39.823  27.998  29.939  1.00  0.00     0.049 A 
ATOM     37  N   UNL A   1      42.821  28.788  28.981  1.00  0.00    -0.248 NA
ATOM     38  C   UNL A   1      41.599  28.840  27.013  1.00  0.00     0.031 C 
ATOM     39  C   UNL A   1      38.559  27.422  30.410  1.00  0.00     0.029 A 
ATOM     40  N   UNL A   1      39.907  29.153  30.661  1.00  0.00    -0.354 N 
ATOM     41  C   UNL A   1      43.441  29.663  28.087  1.00  0.00     0.074 A 
ATOM     42  C   UNL A   1      42.726  29.535  26.843  1.00  0.00     0.031 C 
ATOM     43  C   UNL A   1      37.899  28.330  31.165  1.00  0.00     0.029 A 
ATOM     44  C   UNL A   1      38.751  29.491  31.358  1.00  0.00     0.049 A 
ATOM     45  H   UNL A   1      40.723  29.704  30.687  1.00  0.00     0.167 HD
ATOM     46  C   UNL A   1      44.375  30.571  28.493  1.00  0.00     0.037 A 
ATOM     47  C   UNL A   1      38.501  30.658  32.011  1.00  0.00     0.037 A 
ATOM     48  C   UNL A   1      44.890  30.246  29.799  1.00  0.00     0.049 A 
ATOM     49  C   UNL A   1      39.818  31.280  32.304  1.00  0.00     0.074 A 
ATOM     50  C   UNL A   1      45.562  29.166  30.338  1.00  0.00     0.029 A 
ATOM     51  N   UNL A   1      44.421  30.959  30.875  1.00  0.00    -0.354 N 
ATOM     52  N   UNL A   1      40.694  30.779  33.130  1.00  0.00    -0.248 NA
ATOM     53  C   UNL A   1      40.343  32.231  31.337  1.00  0.00     0.031 C 
ATOM     54  C   UNL A   1      45.023  29.014  31.648  1.00  0.00     0.029 A 
ATOM     55  C   UNL A   1      44.107  30.048  31.850  1.00  0.00     0.049 A 
ATOM     56  H   UNL A   1      44.326  31.937  30.934  1.00  0.00     0.167 HD
ATOM     57  C   UNL A   1      41.920  31.006  32.525  1.00  0.00     0.074 A 
ATOM     58  C   UNL A   1      41.646  31.973  31.464  1.00  0.00     0.031 C 
ATOM     59  C   UNL A   1      42.989  30.190  32.757  1.00  0.00     0.037 A 
BRANCH  46  60
ATOM     60  C   UNL A   1      44.594  31.930  27.864  1.00  0.00     0.058 A 
ATOM     61  C   UNL A   1      45.768  32.177  27.120  1.00  0.00     0.135 A 
ATOM     62  C   UNL A   1      43.839  33.077  28.199  1.00  0.00     0.135 A 
ATOM     63  F   UNL A   1      46.567  31.164  26.746  1.00  0.00    -0.206 F 
ATOM     64  C   UNL A   1      46.201  33.467  26.807  1.00  0.00     0.059 A 
ATOM     65  C   UNL A   1      44.224  34.367  27.851  1.00  0.00     0.059 A 
ATOM     66  F   UNL A   1      42.744  33.010  28.966  1.00  0.00    -0.206 F 
ATOM     67  C   UNL A   1      45.430  34.558  27.195  1.00  0.00     0.060 A 
BRANCH  67  68
ATOM     68  S   UNL A   1      46.047  36.225  26.903  1.00  0.00     0.124 S 
ATOM     69  O   UNL A   1      46.847  36.452  28.101  1.00  0.00    -0.237 OA
ATOM     70  O   UNL A   1      46.790  36.059  25.659  1.00  0.00    -0.237 OA
ATOM     71  O   UNL A   1      44.827  37.021  26.798  1.00  0.00    -0.744 OA
ENDBRANCH  67  68
ENDBRANCH  46  60
BRANCH  47  72
ATOM     72  C   UNL A   1      37.237  31.451  32.032  1.00  0.00     0.058 A 
ATOM     73  C   UNL A   1      36.710  31.945  33.242  1.00  0.00     0.135 A 
ATOM     74  C   UNL A   1      36.702  32.011  30.854  1.00  0.00     0.135 A 
ATOM     75  F   UNL A   1      37.163  31.477  34.416  1.00  0.00    -0.206 F 
ATOM     76  C   UNL A   1      35.772  32.985  33.283  1.00  0.00     0.059 A 
ATOM     77  C   UNL A   1      35.760  33.040  30.870  1.00  0.00     0.059 A 
ATOM     78  F   UNL A   1      37.152  31.640  29.646  1.00  0.00    -0.206 F 
ATOM     79  C   UNL A   1      35.326  33.546  32.088  1.00  0.00     0.060 A 
BRANCH  79  80
ATOM     80  S   UNL A   1      34.282  35.025  32.135  1.00  0.00     0.124 S 
ATOM     81  O   UNL A   1      34.146  35.345  30.719  1.00  0.00    -0.237 OA
ATOM     82  O   UNL A   1      33.079  34.531  32.797  1.00  0.00    -0.237 OA
ATOM     83  O   UNL A   1      35.074  35.974  32.916  1.00  0.00    -0.744 OA
ENDBRANCH  79  80
ENDBRANCH  47  72
BRANCH  59  84
ATOM     84  C   UNL A   1      42.909  29.206  33.897  1.00  0.00     0.058 A 
ATOM     85  C   UNL A   1      43.166  29.521  35.243  1.00  0.00     0.135 A 
ATOM     86  C   UNL A   1      42.400  27.927  33.627  1.00  0.00     0.135 A 
ATOM     87  F   UNL A   1      43.555  30.752  35.603  1.00  0.00    -0.206 F 
ATOM     88  C   UNL A   1      42.964  28.593  36.268  1.00  0.00     0.059 A 
ATOM     89  C   UNL A   1      42.160  26.997  34.635  1.00  0.00     0.059 A 
ATOM     90  F   UNL A   1      42.076  27.583  32.370  1.00  0.00    -0.206 F 
ATOM     91  C   UNL A   1      42.455  27.334  35.954  1.00  0.00     0.060 A 
BRANCH  91  92
ATOM     92  S   UNL A   1      42.114  26.161  37.285  1.00  0.00     0.124 S 
ATOM     93  O   UNL A   1      40.737  26.507  37.652  1.00  0.00    -0.237 OA
ATOM     94  O   UNL A   1      42.277  24.870  36.615  1.00  0.00    -0.237 OA
ATOM     95  O   UNL A   1      43.121  26.466  38.284  1.00  0.00    -0.744 OA
ENDBRANCH  91  92
ENDBRANCH  59  84
ENDBRANCH  33  34
ENDBRANCH  25  28
ENDBRANCH  23  24
ENDBRANCH   1  23
TORSDOF 16
ENDMDL
