MODEL 1
REMARK VINA RESULT:      -9.4      0.000      0.000
REMARK SMILES CCN(CCC(=O)NCCCCNC(=O)c1ccc(-c2c3nc(c(-c4c(F)cc(S(=O)(=O)[O-])cc4F)c4ccc([nH]4)c(-c4c(F)cc(S(=O)(=O)[O-])cc4F)c4nc(c(-c5c(F)cc(S(=O)(=O)[O-])cc5F)c5ccc2[nH]5)C=C4)C=C3)cc1)C(=O)N(C)CCc1cccs1
REMARK SMILES IDX 6 1 7 2 8 3 5 5 4 6 3 7 2 8 1 9 82 10 83 11 84 12 85 13
REMARK SMILES IDX 86 14 87 15 88 16 89 17 92 18 90 19 91 20 9 21 10 22 11 23
REMARK SMILES IDX 12 24 13 25 14 26 15 28 16 29 17 30 81 31 18 32 80 33 19 34
REMARK SMILES IDX 20 35 21 36 74 37 22 38 79 39 73 40 75 41 23 42 78 43 72 44
REMARK SMILES IDX 71 45 24 47 58 48 37 49 57 50 38 51 41 52 56 53 76 54 39 55
REMARK SMILES IDX 40 56 55 58 77 59 42 60 25 61 26 62 35 63 27 64 28 65 34 66
REMARK SMILES IDX 36 67 29 68 30 69 31 70 32 71 33 72 59 73 60 74 69 75 61 76
REMARK SMILES IDX 62 77 68 78 70 79 63 80 64 81 65 82 66 83 67 84 43 85 44 86
REMARK SMILES IDX 53 87 45 88 46 89 52 90 54 91 47 92 48 93 49 94 50 95 51 96
REMARK H PARENT 8 4 13 27 75 46 41 57
REMARK Flexibility Score: inf
ROOT
ATOM      1  C   UNL A   1      33.372  28.463  25.018  1.00  0.00     0.221 C 
ATOM      2  O   UNL A   1      33.401  28.254  23.800  1.00  0.00    -0.275 OA
ATOM      3  N   UNL A   1      33.308  29.748  25.468  1.00  0.00    -0.356 N 
ATOM      4  H   UNL A   1      33.327  30.400  24.732  1.00  0.00     0.163 HD
ENDROOT
BRANCH   1   5
ATOM      5  C   UNL A   1      33.415  27.320  25.975  1.00  0.00     0.121 C 
BRANCH   5   6
ATOM      6  C   UNL A   1      32.034  26.736  26.172  1.00  0.00     0.131 C 
BRANCH   6   7
ATOM      7  N   UNL A   1      31.671  25.713  25.187  1.00  0.00    -0.324 N 
BRANCH   7   8
ATOM      8  C   UNL A   1      30.331  25.969  24.583  1.00  0.00     0.118 C 
ATOM      9  C   UNL A   1      29.947  27.231  23.823  1.00  0.00     0.027 C 
ENDBRANCH   7   8
BRANCH   7  10
ATOM     10  C   UNL A   1      32.491  24.581  24.924  1.00  0.00     0.319 C 
ATOM     11  O   UNL A   1      33.189  24.501  23.914  1.00  0.00    -0.248 OA
BRANCH  10  12
ATOM     12  N   UNL A   1      32.488  23.544  25.922  1.00  0.00    -0.327 N 
ATOM     13  C   UNL A   1      33.833  23.517  26.508  1.00  0.00     0.148 C 
BRANCH  12  14
ATOM     14  C   UNL A   1      31.954  22.100  25.680  1.00  0.00     0.126 C 
BRANCH  14  15
ATOM     15  C   UNL A   1      32.222  20.798  24.638  1.00  0.00     0.068 C 
BRANCH  15  16
ATOM     16  C   UNL A   1      32.521  19.205  24.646  1.00  0.00     0.006 A 
ATOM     17  C   UNL A   1      32.887  18.437  25.762  1.00  0.00     0.015 A 
ATOM     18  S   UNL A   1      32.715  18.129  23.328  1.00  0.00    -0.149 S 
ATOM     19  C   UNL A   1      33.091  17.027  25.511  1.00  0.00     0.012 A 
ATOM     20  C   UNL A   1      32.902  16.711  24.194  1.00  0.00     0.065 A 
ENDBRANCH  15  16
ENDBRANCH  14  15
ENDBRANCH  12  14
ENDBRANCH  10  12
ENDBRANCH   7  10
ENDBRANCH   6   7
ENDBRANCH   5   6
ENDBRANCH   1   5
BRANCH   3  21
ATOM     21  C   UNL A   1      33.218  30.402  26.789  1.00  0.00     0.116 C 
BRANCH  21  22
ATOM     22  C   UNL A   1      34.360  31.256  27.601  1.00  0.00     0.023 C 
BRANCH  22  23
ATOM     23  C   UNL A   1      34.914  31.651  29.046  1.00  0.00     0.023 C 
BRANCH  23  24
ATOM     24  C   UNL A   1      35.705  30.803  30.071  1.00  0.00     0.116 C 
BRANCH  24  25
ATOM     25  N   UNL A   1      36.138  31.546  31.238  1.00  0.00    -0.352 N 
ATOM     26  C   UNL A   1      37.418  31.809  31.702  1.00  0.00     0.251 C 
ATOM     27  H   UNL A   1      35.411  31.923  31.785  1.00  0.00     0.163 HD
ATOM     28  O   UNL A   1      37.590  32.562  32.624  1.00  0.00    -0.269 OA
BRANCH  26  29
ATOM     29  C   UNL A   1      38.568  31.072  31.116  1.00  0.00     0.039 A 
ATOM     30  C   UNL A   1      38.724  31.172  29.732  1.00  0.00     0.014 A 
ATOM     31  C   UNL A   1      39.472  30.323  31.872  1.00  0.00     0.014 A 
ATOM     32  C   UNL A   1      39.845  30.617  29.121  1.00  0.00     0.010 A 
ATOM     33  C   UNL A   1      40.623  29.812  31.268  1.00  0.00     0.010 A 
ATOM     34  C   UNL A   1      40.833  29.986  29.894  1.00  0.00    -0.014 A 
BRANCH  34  35
ATOM     35  C   UNL A   1      42.113  29.591  29.255  1.00  0.00     0.031 A 
ATOM     36  C   UNL A   1      43.246  30.565  29.143  1.00  0.00     0.074 A 
ATOM     37  C   UNL A   1      42.229  28.332  28.782  1.00  0.00     0.049 A 
ATOM     38  N   UNL A   1      44.451  30.372  28.675  1.00  0.00    -0.248 NA
ATOM     39  C   UNL A   1      42.989  31.941  29.593  1.00  0.00     0.031 C 
ATOM     40  C   UNL A   1      41.157  27.330  28.789  1.00  0.00     0.029 A 
ATOM     41  N   UNL A   1      43.291  27.673  28.221  1.00  0.00    -0.354 N 
ATOM     42  C   UNL A   1      45.097  31.598  28.776  1.00  0.00     0.074 A 
ATOM     43  C   UNL A   1      44.133  32.541  29.299  1.00  0.00     0.031 C 
ATOM     44  C   UNL A   1      41.629  26.175  28.295  1.00  0.00     0.029 A 
ATOM     45  C   UNL A   1      43.024  26.357  27.914  1.00  0.00     0.049 A 
ATOM     46  H   UNL A   1      44.162  28.099  28.051  1.00  0.00     0.167 HD
ATOM     47  C   UNL A   1      46.386  31.897  28.479  1.00  0.00     0.037 A 
ATOM     48  C   UNL A   1      43.823  25.403  27.397  1.00  0.00     0.037 A 
ATOM     49  C   UNL A   1      47.331  30.933  27.978  1.00  0.00     0.049 A 
ATOM     50  C   UNL A   1      45.259  25.750  27.118  1.00  0.00     0.074 A 
ATOM     51  C   UNL A   1      48.669  31.112  27.677  1.00  0.00     0.029 A 
ATOM     52  N   UNL A   1      47.034  29.604  27.704  1.00  0.00    -0.354 N 
ATOM     53  N   UNL A   1      45.873  26.899  27.278  1.00  0.00    -0.248 NA
ATOM     54  C   UNL A   1      46.117  24.675  26.603  1.00  0.00     0.031 C 
ATOM     55  C   UNL A   1      49.173  29.899  27.193  1.00  0.00     0.029 A 
ATOM     56  C   UNL A   1      48.160  28.954  27.231  1.00  0.00     0.049 A 
ATOM     57  H   UNL A   1      46.151  29.187  27.829  1.00  0.00     0.167 HD
ATOM     58  C   UNL A   1      47.191  26.684  26.901  1.00  0.00     0.074 A 
ATOM     59  C   UNL A   1      47.291  25.288  26.522  1.00  0.00     0.031 C 
ATOM     60  C   UNL A   1      48.226  27.559  26.866  1.00  0.00     0.037 A 
BRANCH  47  61
ATOM     61  C   UNL A   1      46.838  33.314  28.696  1.00  0.00     0.058 A 
ATOM     62  C   UNL A   1      46.752  34.279  27.679  1.00  0.00     0.135 A 
ATOM     63  C   UNL A   1      47.348  33.723  29.939  1.00  0.00     0.135 A 
ATOM     64  F   UNL A   1      46.285  33.940  26.466  1.00  0.00    -0.206 F 
ATOM     65  C   UNL A   1      47.187  35.586  27.873  1.00  0.00     0.059 A 
ATOM     66  C   UNL A   1      47.765  35.033  30.165  1.00  0.00     0.059 A 
ATOM     67  F   UNL A   1      47.454  32.845  30.949  1.00  0.00    -0.206 F 
ATOM     68  C   UNL A   1      47.696  35.953  29.119  1.00  0.00     0.060 A 
BRANCH  68  69
ATOM     69  S   UNL A   1      48.261  37.652  29.353  1.00  0.00     0.124 S 
ATOM     70  O   UNL A   1      47.316  38.391  28.521  1.00  0.00    -0.237 OA
ATOM     71  O   UNL A   1      48.117  37.835  30.792  1.00  0.00    -0.237 OA
ATOM     72  O   UNL A   1      49.636  37.623  28.862  1.00  0.00    -0.744 OA
ENDBRANCH  68  69
ENDBRANCH  47  61
BRANCH  48  73
ATOM     73  C   UNL A   1      43.289  24.035  27.150  1.00  0.00     0.058 A 
ATOM     74  C   UNL A   1      43.173  23.098  28.189  1.00  0.00     0.135 A 
ATOM     75  C   UNL A   1      42.854  23.645  25.873  1.00  0.00     0.135 A 
ATOM     76  F   UNL A   1      43.577  23.419  29.428  1.00  0.00    -0.206 F 
ATOM     77  C   UNL A   1      42.662  21.823  27.969  1.00  0.00     0.059 A 
ATOM     78  C   UNL A   1      42.315  22.384  25.633  1.00  0.00     0.059 A 
ATOM     79  F   UNL A   1      42.922  24.509  24.848  1.00  0.00    -0.206 F 
ATOM     80  C   UNL A   1      42.232  21.475  26.687  1.00  0.00     0.060 A 
BRANCH  80  81
ATOM     81  S   UNL A   1      41.521  19.835  26.423  1.00  0.00     0.124 S 
ATOM     82  O   UNL A   1      42.331  19.338  25.316  1.00  0.00    -0.237 OA
ATOM     83  O   UNL A   1      41.742  19.193  27.715  1.00  0.00    -0.237 OA
ATOM     84  O   UNL A   1      40.126  20.121  26.106  1.00  0.00    -0.744 OA
ENDBRANCH  80  81
ENDBRANCH  48  73
BRANCH  60  85
ATOM     85  C   UNL A   1      49.557  27.027  26.419  1.00  0.00     0.058 A 
ATOM     86  C   UNL A   1      50.455  26.444  27.326  1.00  0.00     0.135 A 
ATOM     87  C   UNL A   1      49.909  27.043  25.060  1.00  0.00     0.135 A 
ATOM     88  F   UNL A   1      50.167  26.411  28.637  1.00  0.00    -0.206 F 
ATOM     89  C   UNL A   1      51.666  25.909  26.903  1.00  0.00     0.059 A 
ATOM     90  C   UNL A   1      51.104  26.492  24.611  1.00  0.00     0.059 A 
ATOM     91  F   UNL A   1      49.079  27.582  24.153  1.00  0.00    -0.206 F 
ATOM     92  C   UNL A   1      51.980  25.935  25.542  1.00  0.00     0.060 A 
BRANCH  92  93
ATOM     93  S   UNL A   1      53.536  25.197  25.000  1.00  0.00     0.124 S 
ATOM     94  O   UNL A   1      53.286  23.779  25.238  1.00  0.00    -0.237 OA
ATOM     95  O   UNL A   1      53.604  25.603  23.600  1.00  0.00    -0.237 OA
ATOM     96  O   UNL A   1      54.527  25.816  25.874  1.00  0.00    -0.744 OA
ENDBRANCH  92  93
ENDBRANCH  60  85
ENDBRANCH  34  35
ENDBRANCH  26  29
ENDBRANCH  24  25
ENDBRANCH  23  24
ENDBRANCH  22  23
ENDBRANCH  21  22
ENDBRANCH   3  21
TORSDOF 22
ENDMDL
MODEL 2
REMARK VINA RESULT:      -8.9      6.611     13.622
REMARK SMILES CCN(CCC(=O)NCCCCNC(=O)c1ccc(-c2c3nc(c(-c4c(F)cc(S(=O)(=O)[O-])cc4F)c4ccc([nH]4)c(-c4c(F)cc(S(=O)(=O)[O-])cc4F)c4nc(c(-c5c(F)cc(S(=O)(=O)[O-])cc5F)c5ccc2[nH]5)C=C4)C=C3)cc1)C(=O)N(C)CCc1cccs1
REMARK SMILES IDX 6 1 7 2 8 3 5 5 4 6 3 7 2 8 1 9 82 10 83 11 84 12 85 13
REMARK SMILES IDX 86 14 87 15 88 16 89 17 92 18 90 19 91 20 9 21 10 22 11 23
REMARK SMILES IDX 12 24 13 25 14 26 15 28 16 29 17 30 81 31 18 32 80 33 19 34
REMARK SMILES IDX 20 35 21 36 74 37 22 38 79 39 73 40 75 41 23 42 78 43 72 44
REMARK SMILES IDX 71 45 24 47 58 48 37 49 57 50 38 51 41 52 56 53 76 54 39 55
REMARK SMILES IDX 40 56 55 58 77 59 42 60 25 61 26 62 35 63 27 64 28 65 34 66
REMARK SMILES IDX 36 67 29 68 30 69 31 70 32 71 33 72 59 73 60 74 69 75 61 76
REMARK SMILES IDX 62 77 68 78 70 79 63 80 64 81 65 82 66 83 67 84 43 85 44 86
REMARK SMILES IDX 53 87 45 88 46 89 52 90 54 91 47 92 48 93 49 94 50 95 51 96
REMARK H PARENT 8 4 13 27 75 46 41 57
REMARK Flexibility Score: inf
ROOT
ATOM      1  C   UNL A   1      47.556  26.146  30.072  1.00  0.00     0.221 C 
ATOM      2  O   UNL A   1      48.628  26.405  30.629  1.00  0.00    -0.275 OA
ATOM      3  N   UNL A   1      46.549  25.587  30.801  1.00  0.00    -0.356 N 
ATOM      4  H   UNL A   1      46.818  25.411  31.731  1.00  0.00     0.163 HD
ENDROOT
BRANCH   1   5
ATOM      5  C   UNL A   1      47.375  26.439  28.621  1.00  0.00     0.121 C 
BRANCH   5   6
ATOM      6  C   UNL A   1      47.787  25.251  27.780  1.00  0.00     0.131 C 
BRANCH   6   7
ATOM      7  N   UNL A   1      48.502  25.608  26.551  1.00  0.00    -0.324 N 
BRANCH   7   8
ATOM      8  C   UNL A   1      49.982  25.567  26.733  1.00  0.00     0.118 C 
ATOM      9  C   UNL A   1      50.836  26.744  27.185  1.00  0.00     0.027 C 
ENDBRANCH   7   8
BRANCH   7  10
ATOM     10  C   UNL A   1      47.829  26.017  25.367  1.00  0.00     0.319 C 
ATOM     11  O   UNL A   1      48.288  26.879  24.620  1.00  0.00    -0.248 OA
BRANCH  10  12
ATOM     12  N   UNL A   1      46.593  25.341  25.068  1.00  0.00    -0.327 N 
ATOM     13  C   UNL A   1      45.512  26.187  25.583  1.00  0.00     0.148 C 
BRANCH  12  14
ATOM     14  C   UNL A   1      46.324  23.837  25.375  1.00  0.00     0.126 C 
BRANCH  14  15
ATOM     15  C   UNL A   1      45.080  22.705  25.218  1.00  0.00     0.068 C 
BRANCH  15  16
ATOM     16  C   UNL A   1      44.813  21.106  25.189  1.00  0.00     0.006 A 
ATOM     17  C   UNL A   1      43.570  20.472  25.330  1.00  0.00     0.015 A 
ATOM     18  S   UNL A   1      45.939  19.817  25.236  1.00  0.00    -0.149 S 
ATOM     19  C   UNL A   1      43.595  19.027  25.259  1.00  0.00     0.012 A 
ATOM     20  C   UNL A   1      44.862  18.546  25.085  1.00  0.00     0.065 A 
ENDBRANCH  15  16
ENDBRANCH  14  15
ENDBRANCH  12  14
ENDBRANCH  10  12
ENDBRANCH   7  10
ENDBRANCH   6   7
ENDBRANCH   5   6
ENDBRANCH   1   5
BRANCH   3  21
ATOM     21  C   UNL A   1      45.155  25.177  30.538  1.00  0.00     0.116 C 
BRANCH  21  22
ATOM     22  C   UNL A   1      44.596  23.840  29.769  1.00  0.00     0.023 C 
BRANCH  22  23
ATOM     23  C   UNL A   1      43.741  23.307  28.528  1.00  0.00     0.023 C 
BRANCH  23  24
ATOM     24  C   UNL A   1      42.239  23.492  28.206  1.00  0.00     0.116 C 
BRANCH  24  25
ATOM     25  N   UNL A   1      41.980  23.934  26.850  1.00  0.00    -0.352 N 
ATOM     26  C   UNL A   1      41.699  25.202  26.365  1.00  0.00     0.251 C 
ATOM     27  H   UNL A   1      42.008  23.224  26.168  1.00  0.00     0.163 HD
ATOM     28  O   UNL A   1      41.641  25.404  25.181  1.00  0.00    -0.269 OA
BRANCH  26  29
ATOM     29  C   UNL A   1      41.368  26.289  27.324  1.00  0.00     0.039 A 
ATOM     30  C   UNL A   1      40.281  26.055  28.169  1.00  0.00     0.014 A 
ATOM     31  C   UNL A   1      42.084  27.484  27.414  1.00  0.00     0.014 A 
ATOM     32  C   UNL A   1      39.983  26.967  29.178  1.00  0.00     0.010 A 
ATOM     33  C   UNL A   1      41.819  28.373  28.459  1.00  0.00     0.010 A 
ATOM     34  C   UNL A   1      40.789  28.102  29.368  1.00  0.00    -0.014 A 
BRANCH  34  35
ATOM     35  C   UNL A   1      40.584  28.944  30.573  1.00  0.00     0.031 A 
ATOM     36  C   UNL A   1      41.454  28.778  31.781  1.00  0.00     0.074 A 
ATOM     37  C   UNL A   1      39.596  29.863  30.549  1.00  0.00     0.049 A 
ATOM     38  N   UNL A   1      41.459  29.469  32.890  1.00  0.00    -0.248 NA
ATOM     39  C   UNL A   1      42.435  27.682  31.750  1.00  0.00     0.031 C 
ATOM     40  C   UNL A   1      38.654  30.056  29.440  1.00  0.00     0.029 A 
ATOM     41  N   UNL A   1      39.224  30.814  31.463  1.00  0.00    -0.354 N 
ATOM     42  C   UNL A   1      42.439  28.895  33.690  1.00  0.00     0.074 A 
ATOM     43  C   UNL A   1      42.972  27.766  32.959  1.00  0.00     0.031 C 
ATOM     44  C   UNL A   1      37.842  31.086  29.724  1.00  0.00     0.029 A 
ATOM     45  C   UNL A   1      38.185  31.612  31.040  1.00  0.00     0.049 A 
ATOM     46  H   UNL A   1      39.658  30.916  32.341  1.00  0.00     0.167 HD
ATOM     47  C   UNL A   1      42.868  29.293  34.912  1.00  0.00     0.037 A 
ATOM     48  C   UNL A   1      37.588  32.659  31.641  1.00  0.00     0.037 A 
ATOM     49  C   UNL A   1      42.333  30.434  35.610  1.00  0.00     0.049 A 
ATOM     50  C   UNL A   1      38.112  33.107  32.978  1.00  0.00     0.074 A 
ATOM     51  C   UNL A   1      42.714  30.953  36.835  1.00  0.00     0.029 A 
ATOM     52  N   UNL A   1      41.300  31.234  35.140  1.00  0.00    -0.354 N 
ATOM     53  N   UNL A   1      39.084  32.591  33.694  1.00  0.00    -0.248 NA
ATOM     54  C   UNL A   1      37.474  34.282  33.584  1.00  0.00     0.031 C 
ATOM     55  C   UNL A   1      41.890  32.049  37.119  1.00  0.00     0.029 A 
ATOM     56  C   UNL A   1      41.025  32.238  36.052  1.00  0.00     0.049 A 
ATOM     57  H   UNL A   1      40.833  31.106  34.283  1.00  0.00     0.167 HD
ATOM     58  C   UNL A   1      39.187  33.387  34.826  1.00  0.00     0.074 A 
ATOM     59  C   UNL A   1      38.191  34.432  34.692  1.00  0.00     0.031 C 
ATOM     60  C   UNL A   1      40.026  33.266  35.885  1.00  0.00     0.037 A 
BRANCH  47  61
ATOM     61  C   UNL A   1      43.966  28.494  35.559  1.00  0.00     0.058 A 
ATOM     62  C   UNL A   1      43.685  27.426  36.427  1.00  0.00     0.135 A 
ATOM     63  C   UNL A   1      45.315  28.783  35.297  1.00  0.00     0.135 A 
ATOM     64  F   UNL A   1      42.413  27.114  36.724  1.00  0.00    -0.206 F 
ATOM     65  C   UNL A   1      44.699  26.697  37.040  1.00  0.00     0.059 A 
ATOM     66  C   UNL A   1      46.347  28.050  35.879  1.00  0.00     0.059 A 
ATOM     67  F   UNL A   1      45.644  29.793  34.476  1.00  0.00    -0.206 F 
ATOM     68  C   UNL A   1      46.028  27.019  36.762  1.00  0.00     0.060 A 
BRANCH  68  69
ATOM     69  S   UNL A   1      47.333  26.067  37.570  1.00  0.00     0.124 S 
ATOM     70  O   UNL A   1      46.888  26.084  38.959  1.00  0.00    -0.237 OA
ATOM     71  O   UNL A   1      47.247  24.779  36.892  1.00  0.00    -0.237 OA
ATOM     72  O   UNL A   1      48.540  26.840  37.290  1.00  0.00    -0.744 OA
ENDBRANCH  68  69
ENDBRANCH  47  61
BRANCH  48  73
ATOM     73  C   UNL A   1      36.463  33.366  30.968  1.00  0.00     0.058 A 
ATOM     74  C   UNL A   1      35.166  33.346  31.502  1.00  0.00     0.135 A 
ATOM     75  C   UNL A   1      36.670  34.104  29.792  1.00  0.00     0.135 A 
ATOM     76  F   UNL A   1      34.913  32.654  32.623  1.00  0.00    -0.206 F 
ATOM     77  C   UNL A   1      34.112  34.016  30.887  1.00  0.00     0.059 A 
ATOM     78  C   UNL A   1      35.639  34.804  29.172  1.00  0.00     0.059 A 
ATOM     79  F   UNL A   1      37.896  34.174  29.249  1.00  0.00    -0.206 F 
ATOM     80  C   UNL A   1      34.358  34.746  29.723  1.00  0.00     0.060 A 
BRANCH  80  81
ATOM     81  S   UNL A   1      32.997  35.656  28.961  1.00  0.00     0.124 S 
ATOM     82  O   UNL A   1      32.463  34.665  28.032  1.00  0.00    -0.237 OA
ATOM     83  O   UNL A   1      32.155  35.970  30.112  1.00  0.00    -0.237 OA
ATOM     84  O   UNL A   1      33.659  36.802  28.349  1.00  0.00    -0.744 OA
ENDBRANCH  80  81
ENDBRANCH  48  73
BRANCH  60  85
ATOM     85  C   UNL A   1      39.912  34.298  36.970  1.00  0.00     0.058 A 
ATOM     86  C   UNL A   1      40.618  35.508  36.907  1.00  0.00     0.135 A 
ATOM     87  C   UNL A   1      39.037  34.099  38.050  1.00  0.00     0.135 A 
ATOM     88  F   UNL A   1      41.471  35.742  35.897  1.00  0.00    -0.206 F 
ATOM     89  C   UNL A   1      40.474  36.482  37.888  1.00  0.00     0.059 A 
ATOM     90  C   UNL A   1      38.858  35.070  39.030  1.00  0.00     0.059 A 
ATOM     91  F   UNL A   1      38.332  32.961  38.149  1.00  0.00    -0.206 F 
ATOM     92  C   UNL A   1      39.589  36.254  38.945  1.00  0.00     0.060 A 
BRANCH  92  93
ATOM     93  S   UNL A   1      39.378  37.545  40.189  1.00  0.00     0.124 S 
ATOM     94  O   UNL A   1      40.698  38.167  40.193  1.00  0.00    -0.237 OA
ATOM     95  O   UNL A   1      38.299  38.351  39.624  1.00  0.00    -0.237 OA
ATOM     96  O   UNL A   1      39.030  36.801  41.395  1.00  0.00    -0.744 OA
ENDBRANCH  92  93
ENDBRANCH  60  85
ENDBRANCH  34  35
ENDBRANCH  26  29
ENDBRANCH  24  25
ENDBRANCH  23  24
ENDBRANCH  22  23
ENDBRANCH  21  22
ENDBRANCH   3  21
TORSDOF 22
ENDMDL
MODEL 3
REMARK VINA RESULT:      -8.6      7.867     15.978
REMARK SMILES CCN(CCC(=O)NCCCCNC(=O)c1ccc(-c2c3nc(c(-c4c(F)cc(S(=O)(=O)[O-])cc4F)c4ccc([nH]4)c(-c4c(F)cc(S(=O)(=O)[O-])cc4F)c4nc(c(-c5c(F)cc(S(=O)(=O)[O-])cc5F)c5ccc2[nH]5)C=C4)C=C3)cc1)C(=O)N(C)CCc1cccs1
REMARK SMILES IDX 6 1 7 2 8 3 5 5 4 6 3 7 2 8 1 9 82 10 83 11 84 12 85 13
REMARK SMILES IDX 86 14 87 15 88 16 89 17 92 18 90 19 91 20 9 21 10 22 11 23
REMARK SMILES IDX 12 24 13 25 14 26 15 28 16 29 17 30 81 31 18 32 80 33 19 34
REMARK SMILES IDX 20 35 21 36 74 37 22 38 79 39 73 40 75 41 23 42 78 43 72 44
REMARK SMILES IDX 71 45 24 47 58 48 37 49 57 50 38 51 41 52 56 53 76 54 39 55
REMARK SMILES IDX 40 56 55 58 77 59 42 60 25 61 26 62 35 63 27 64 28 65 34 66
REMARK SMILES IDX 36 67 29 68 30 69 31 70 32 71 33 72 59 73 60 74 69 75 61 76
REMARK SMILES IDX 62 77 68 78 70 79 63 80 64 81 65 82 66 83 67 84 43 85 44 86
REMARK SMILES IDX 53 87 45 88 46 89 52 90 54 91 47 92 48 93 49 94 50 95 51 96
REMARK H PARENT 8 4 13 27 75 46 41 57
REMARK Flexibility Score: inf
ROOT
ATOM      1  C   UNL A   1      50.613  21.946  33.316  1.00  0.00     0.221 C 
ATOM      2  O   UNL A   1      51.070  20.844  32.990  1.00  0.00    -0.275 OA
ATOM      3  N   UNL A   1      50.903  23.036  32.550  1.00  0.00    -0.356 N 
ATOM      4  H   UNL A   1      51.506  22.815  31.803  1.00  0.00     0.163 HD
ENDROOT
BRANCH   1   5
ATOM      5  C   UNL A   1      49.762  22.074  34.533  1.00  0.00     0.121 C 
BRANCH   5   6
ATOM      6  C   UNL A   1      50.601  22.447  35.735  1.00  0.00     0.131 C 
BRANCH   6   7
ATOM      7  N   UNL A   1      51.365  21.330  36.300  1.00  0.00    -0.324 N 
BRANCH   7   8
ATOM      8  C   UNL A   1      52.833  21.494  36.088  1.00  0.00     0.118 C 
ATOM      9  C   UNL A   1      53.565  22.830  36.071  1.00  0.00     0.027 C 
ENDBRANCH   7   8
BRANCH   7  10
ATOM     10  C   UNL A   1      50.741  20.203  36.900  1.00  0.00     0.319 C 
ATOM     11  O   UNL A   1      50.945  19.056  36.505  1.00  0.00    -0.248 OA
BRANCH  10  12
ATOM     12  N   UNL A   1      49.880  20.471  38.023  1.00  0.00    -0.327 N 
ATOM     13  C   UNL A   1      50.636  21.331  38.940  1.00  0.00     0.148 C 
BRANCH  12  14
ATOM     14  C   UNL A   1      49.095  19.373  38.802  1.00  0.00     0.126 C 
BRANCH  14  15
ATOM     15  C   UNL A   1      47.506  18.830  38.989  1.00  0.00     0.068 C 
BRANCH  15  16
ATOM     16  C   UNL A   1      46.361  18.617  40.116  1.00  0.00     0.006 A 
ATOM     17  C   UNL A   1      46.025  19.520  41.136  1.00  0.00     0.015 A 
ATOM     18  S   UNL A   1      45.475  17.206  40.510  1.00  0.00    -0.149 S 
ATOM     19  C   UNL A   1      44.955  19.099  42.015  1.00  0.00     0.012 A 
ATOM     20  C   UNL A   1      44.481  17.860  41.686  1.00  0.00     0.065 A 
ENDBRANCH  15  16
ENDBRANCH  14  15
ENDBRANCH  12  14
ENDBRANCH  10  12
ENDBRANCH   7  10
ENDBRANCH   6   7
ENDBRANCH   5   6
ENDBRANCH   1   5
BRANCH   3  21
ATOM     21  C   UNL A   1      50.538  24.467  32.566  1.00  0.00     0.116 C 
BRANCH  21  22
ATOM     22  C   UNL A   1      49.103  25.164  32.948  1.00  0.00     0.023 C 
BRANCH  22  23
ATOM     23  C   UNL A   1      48.175  25.671  34.146  1.00  0.00     0.023 C 
BRANCH  23  24
ATOM     24  C   UNL A   1      47.408  24.861  35.219  1.00  0.00     0.116 C 
BRANCH  24  25
ATOM     25  N   UNL A   1      47.757  25.214  36.580  1.00  0.00    -0.352 N 
ATOM     26  C   UNL A   1      47.091  26.024  37.489  1.00  0.00     0.251 C 
ATOM     27  H   UNL A   1      48.595  24.818  36.912  1.00  0.00     0.163 HD
ATOM     28  O   UNL A   1      47.466  26.098  38.629  1.00  0.00    -0.269 OA
BRANCH  26  29
ATOM     29  C   UNL A   1      45.972  26.879  37.015  1.00  0.00     0.039 A 
ATOM     30  C   UNL A   1      46.332  28.070  36.381  1.00  0.00     0.014 A 
ATOM     31  C   UNL A   1      44.625  26.542  37.164  1.00  0.00     0.014 A 
ATOM     32  C   UNL A   1      45.350  28.866  35.797  1.00  0.00     0.010 A 
ATOM     33  C   UNL A   1      43.644  27.312  36.533  1.00  0.00     0.010 A 
ATOM     34  C   UNL A   1      44.006  28.461  35.816  1.00  0.00    -0.014 A 
BRANCH  34  35
ATOM     35  C   UNL A   1      43.010  29.210  35.011  1.00  0.00     0.031 A 
ATOM     36  C   UNL A   1      42.715  28.815  33.596  1.00  0.00     0.074 A 
ATOM     37  C   UNL A   1      42.376  30.253  35.588  1.00  0.00     0.049 A 
ATOM     38  N   UNL A   1      41.833  29.314  32.771  1.00  0.00    -0.248 NA
ATOM     39  C   UNL A   1      43.529  27.732  33.024  1.00  0.00     0.031 C 
ATOM     40  C   UNL A   1      42.642  30.754  36.941  1.00  0.00     0.029 A 
ATOM     41  N   UNL A   1      41.376  31.069  35.127  1.00  0.00    -0.354 N 
ATOM     42  C   UNL A   1      41.983  28.609  31.584  1.00  0.00     0.074 A 
ATOM     43  C   UNL A   1      43.077  27.683  31.778  1.00  0.00     0.031 C 
ATOM     44  C   UNL A   1      41.799  31.762  37.213  1.00  0.00     0.029 A 
ATOM     45  C   UNL A   1      40.951  31.997  36.051  1.00  0.00     0.049 A 
ATOM     46  H   UNL A   1      40.998  30.999  34.221  1.00  0.00     0.167 HD
ATOM     47  C   UNL A   1      41.254  28.712  30.445  1.00  0.00     0.037 A 
ATOM     48  C   UNL A   1      39.976  32.923  35.972  1.00  0.00     0.037 A 
ATOM     49  C   UNL A   1      40.156  29.630  30.285  1.00  0.00     0.049 A 
ATOM     50  C   UNL A   1      39.155  32.988  34.714  1.00  0.00     0.074 A 
ATOM     51  C   UNL A   1      39.324  29.797  29.192  1.00  0.00     0.029 A 
ATOM     52  N   UNL A   1      39.737  30.537  31.249  1.00  0.00    -0.354 N 
ATOM     53  N   UNL A   1      39.268  32.269  33.621  1.00  0.00    -0.248 NA
ATOM     54  C   UNL A   1      38.067  33.973  34.677  1.00  0.00     0.031 C 
ATOM     55  C   UNL A   1      38.421  30.827  29.486  1.00  0.00     0.029 A 
ATOM     56  C   UNL A   1      38.664  31.271  30.776  1.00  0.00     0.049 A 
ATOM     57  H   UNL A   1      40.144  30.640  32.140  1.00  0.00     0.167 HD
ATOM     58  C   UNL A   1      38.258  32.702  32.774  1.00  0.00     0.074 A 
ATOM     59  C   UNL A   1      37.530  33.732  33.488  1.00  0.00     0.031 C 
ATOM     60  C   UNL A   1      37.959  32.290  31.517  1.00  0.00     0.037 A 
BRANCH  47  61
ATOM     61  C   UNL A   1      41.622  27.810  29.300  1.00  0.00     0.058 A 
ATOM     62  C   UNL A   1      40.815  26.721  28.932  1.00  0.00     0.135 A 
ATOM     63  C   UNL A   1      42.785  28.042  28.548  1.00  0.00     0.135 A 
ATOM     64  F   UNL A   1      39.699  26.443  29.626  1.00  0.00    -0.206 F 
ATOM     65  C   UNL A   1      41.164  25.874  27.885  1.00  0.00     0.059 A 
ATOM     66  C   UNL A   1      43.140  27.223  27.478  1.00  0.00     0.059 A 
ATOM     67  F   UNL A   1      43.595  29.068  28.853  1.00  0.00    -0.206 F 
ATOM     68  C   UNL A   1      42.331  26.131  27.165  1.00  0.00     0.060 A 
BRANCH  68  69
ATOM     69  S   UNL A   1      42.772  25.020  25.812  1.00  0.00     0.124 S 
ATOM     70  O   UNL A   1      41.981  23.838  26.137  1.00  0.00    -0.237 OA
ATOM     71  O   UNL A   1      42.339  25.769  24.638  1.00  0.00    -0.237 OA
ATOM     72  O   UNL A   1      44.217  24.866  25.956  1.00  0.00    -0.744 OA
ENDBRANCH  68  69
ENDBRANCH  47  61
BRANCH  48  73
ATOM     73  C   UNL A   1      39.708  33.827  37.125  1.00  0.00     0.058 A 
ATOM     74  C   UNL A   1      38.926  33.410  38.213  1.00  0.00     0.135 A 
ATOM     75  C   UNL A   1      40.256  35.119  37.177  1.00  0.00     0.135 A 
ATOM     76  F   UNL A   1      38.376  32.185  38.212  1.00  0.00    -0.206 F 
ATOM     77  C   UNL A   1      38.682  34.243  39.300  1.00  0.00     0.059 A 
ATOM     78  C   UNL A   1      40.048  35.962  38.265  1.00  0.00     0.059 A 
ATOM     79  F   UNL A   1      41.029  35.562  36.173  1.00  0.00    -0.206 F 
ATOM     80  C   UNL A   1      39.251  35.518  39.320  1.00  0.00     0.060 A 
BRANCH  80  81
ATOM     81  S   UNL A   1      38.973  36.573  40.760  1.00  0.00     0.124 S 
ATOM     82  O   UNL A   1      38.550  37.821  40.134  1.00  0.00    -0.237 OA
ATOM     83  O   UNL A   1      37.939  35.838  41.483  1.00  0.00    -0.237 OA
ATOM     84  O   UNL A   1      40.279  36.604  41.410  1.00  0.00    -0.744 OA
ENDBRANCH  80  81
ENDBRANCH  48  73
BRANCH  60  85
ATOM     85  C   UNL A   1      36.785  32.942  30.844  1.00  0.00     0.058 A 
ATOM     86  C   UNL A   1      35.468  32.659  31.232  1.00  0.00     0.135 A 
ATOM     87  C   UNL A   1      36.986  33.907  29.844  1.00  0.00     0.135 A 
ATOM     88  F   UNL A   1      35.224  31.739  32.179  1.00  0.00    -0.206 F 
ATOM     89  C   UNL A   1      34.385  33.299  30.640  1.00  0.00     0.059 A 
ATOM     90  C   UNL A   1      35.920  34.578  29.256  1.00  0.00     0.059 A 
ATOM     91  F   UNL A   1      38.229  34.219  29.445  1.00  0.00    -0.206 F 
ATOM     92  C   UNL A   1      34.622  34.260  29.654  1.00  0.00     0.060 A 
BRANCH  92  93
ATOM     93  S   UNL A   1      33.210  35.117  28.925  1.00  0.00     0.124 S 
ATOM     94  O   UNL A   1      32.354  35.314  30.091  1.00  0.00    -0.237 OA
ATOM     95  O   UNL A   1      33.823  36.322  28.378  1.00  0.00    -0.237 OA
ATOM     96  O   UNL A   1      32.713  34.168  27.934  1.00  0.00    -0.744 OA
ENDBRANCH  92  93
ENDBRANCH  60  85
ENDBRANCH  34  35
ENDBRANCH  26  29
ENDBRANCH  24  25
ENDBRANCH  23  24
ENDBRANCH  22  23
ENDBRANCH  21  22
ENDBRANCH   3  21
TORSDOF 22
ENDMDL
