MODEL 1
REMARK VINA RESULT:     -12.1      0.000      0.000
REMARK SMILES O=C(NCCCCNC(=O)[C@@H]1CCC[N@@H+](Cc2ccc(F)cc2Cl)C1)c1ccc(-c2c3nc(c(-c4c(F)cc(S(=O)(=O)[O-])cc4F)c4ccc([nH]4)c(-c4c(F)cc(S(=O)(=O)[O-])cc4F)c4nc(c(-c5c(F)cc(S(=O)(=O)[O-])cc5F)c5ccc2[nH]5)C=C4)C=C3)cc1
REMARK SMILES IDX 5 1 4 2 3 3 1 4 2 5 26 7 27 8 91 9 28 10 90 11 29 12 30 13
REMARK SMILES IDX 31 14 84 15 32 16 89 17 83 18 85 19 33 20 88 21 82 22 81 23
REMARK SMILES IDX 34 25 68 26 47 27 67 28 48 29 51 30 66 31 86 32 49 33 50 34
REMARK SMILES IDX 65 36 87 37 52 38 35 39 36 40 45 41 37 42 38 43 44 44 46 45
REMARK SMILES IDX 39 46 40 47 41 48 42 49 43 50 69 51 70 52 79 53 71 54 72 55
REMARK SMILES IDX 78 56 80 57 73 58 74 59 75 60 76 61 77 62 53 63 54 64 63 65
REMARK SMILES IDX 55 66 56 67 62 68 64 69 57 70 58 71 59 72 60 73 61 74 6 75
REMARK SMILES IDX 7 76 8 77 9 78 10 80 11 81 12 82 25 83 13 84 15 85 14 86
REMARK SMILES IDX 16 88 17 89 18 90 23 91 19 92 22 93 24 94 20 95 21 96
REMARK H PARENT 3 6 85 24 51 35 8 79 15 87
REMARK Flexibility Score: inf
ROOT
ATOM      1  C   UNL A   1      39.721  21.862  26.739  1.00  0.00     0.023 C 
ENDROOT
BRANCH   1   2
ATOM      2  C   UNL A   1      40.170  23.269  27.112  1.00  0.00     0.116 C 
BRANCH   2   3
ATOM      3  N   UNL A   1      40.814  24.012  26.035  1.00  0.00    -0.352 N 
ATOM      4  O   UNL A   1      41.850  25.828  25.144  1.00  0.00    -0.269 OA
ATOM      5  C   UNL A   1      41.391  25.264  26.127  1.00  0.00     0.251 C 
ATOM      6  H   UNL A   1      40.843  23.577  25.153  1.00  0.00     0.163 HD
BRANCH   5   7
ATOM      7  C   UNL A   1      41.384  25.926  27.450  1.00  0.00     0.039 A 
ATOM      8  C   UNL A   1      40.257  25.815  28.265  1.00  0.00     0.014 A 
ATOM      9  C   UNL A   1      42.442  26.768  27.801  1.00  0.00     0.014 A 
ATOM     10  C   UNL A   1      40.108  26.687  29.334  1.00  0.00     0.010 A 
ATOM     11  C   UNL A   1      42.326  27.579  28.933  1.00  0.00     0.010 A 
ATOM     12  C   UNL A   1      41.135  27.582  29.678  1.00  0.00    -0.014 A 
BRANCH  12  13
ATOM     13  C   UNL A   1      40.929  28.493  30.833  1.00  0.00     0.031 A 
ATOM     14  C   UNL A   1      41.852  28.472  32.022  1.00  0.00     0.074 A 
ATOM     15  C   UNL A   1      39.938  29.402  30.758  1.00  0.00     0.049 A 
ATOM     16  N   UNL A   1      41.833  29.232  33.088  1.00  0.00    -0.248 NA
ATOM     17  C   UNL A   1      42.929  27.469  32.024  1.00  0.00     0.031 C 
ATOM     18  C   UNL A   1      38.977  29.507  29.656  1.00  0.00     0.029 A 
ATOM     19  N   UNL A   1      39.596  30.431  31.595  1.00  0.00    -0.354 N 
ATOM     20  C   UNL A   1      42.874  28.788  33.896  1.00  0.00     0.074 A 
ATOM     21  C   UNL A   1      43.498  27.681  33.204  1.00  0.00     0.031 C 
ATOM     22  C   UNL A   1      38.197  30.580  29.854  1.00  0.00     0.029 A 
ATOM     23  C   UNL A   1      38.563  31.202  31.121  1.00  0.00     0.049 A 
ATOM     24  H   UNL A   1      40.049  30.602  32.453  1.00  0.00     0.167 HD
ATOM     25  C   UNL A   1      43.271  29.264  35.102  1.00  0.00     0.037 A 
ATOM     26  C   UNL A   1      37.966  32.285  31.649  1.00  0.00     0.037 A 
ATOM     27  C   UNL A   1      42.658  30.382  35.774  1.00  0.00     0.049 A 
ATOM     28  C   UNL A   1      38.450  32.813  32.965  1.00  0.00     0.074 A 
ATOM     29  C   UNL A   1      42.977  30.931  37.004  1.00  0.00     0.029 A 
ATOM     30  N   UNL A   1      41.607  31.131  35.265  1.00  0.00    -0.354 N 
ATOM     31  N   UNL A   1      39.419  32.360  33.725  1.00  0.00    -0.248 NA
ATOM     32  C   UNL A   1      37.759  33.992  33.501  1.00  0.00     0.031 C 
ATOM     33  C   UNL A   1      42.108  32.003  37.246  1.00  0.00     0.029 A 
ATOM     34  C   UNL A   1      41.267  32.138  36.155  1.00  0.00     0.049 A 
ATOM     35  H   UNL A   1      41.168  30.972  34.399  1.00  0.00     0.167 HD
ATOM     36  C   UNL A   1      39.446  33.191  34.836  1.00  0.00     0.074 A 
ATOM     37  C   UNL A   1      38.422  34.196  34.631  1.00  0.00     0.031 C 
ATOM     38  C   UNL A   1      40.235  33.119  35.935  1.00  0.00     0.037 A 
BRANCH  25  39
ATOM     39  C   UNL A   1      44.420  28.573  35.784  1.00  0.00     0.058 A 
ATOM     40  C   UNL A   1      44.216  27.484  36.647  1.00  0.00     0.135 A 
ATOM     41  C   UNL A   1      45.743  28.970  35.531  1.00  0.00     0.135 A 
ATOM     42  F   UNL A   1      42.971  27.075  36.936  1.00  0.00    -0.206 F 
ATOM     43  C   UNL A   1      45.284  26.821  37.245  1.00  0.00     0.059 A 
ATOM     44  C   UNL A   1      46.826  28.309  36.105  1.00  0.00     0.059 A 
ATOM     45  F   UNL A   1      45.994  30.006  34.715  1.00  0.00    -0.206 F 
ATOM     46  C   UNL A   1      46.586  27.242  36.970  1.00  0.00     0.060 A 
BRANCH  46  47
ATOM     47  S   UNL A   1      47.963  26.366  37.742  1.00  0.00     0.124 S 
ATOM     48  O   UNL A   1      47.583  24.974  37.519  1.00  0.00    -0.237 OA
ATOM     49  O   UNL A   1      49.109  26.839  36.972  1.00  0.00    -0.237 OA
ATOM     50  O   UNL A   1      47.917  26.816  39.129  1.00  0.00    -0.744 OA
ENDBRANCH  46  47
ENDBRANCH  25  39
BRANCH  26  51
ATOM     51  C   UNL A   1      36.838  32.922  30.926  1.00  0.00     0.058 A 
ATOM     52  C   UNL A   1      35.512  32.731  31.339  1.00  0.00     0.135 A 
ATOM     53  C   UNL A   1      37.072  33.777  29.839  1.00  0.00     0.135 A 
ATOM     54  F   UNL A   1      35.241  31.921  32.374  1.00  0.00    -0.206 F 
ATOM     55  C   UNL A   1      34.453  33.362  30.694  1.00  0.00     0.059 A 
ATOM     56  C   UNL A   1      36.033  34.438  29.194  1.00  0.00     0.059 A 
ATOM     57  F   UNL A   1      38.327  34.008  29.423  1.00  0.00    -0.206 F 
ATOM     58  C   UNL A   1      34.726  34.216  29.623  1.00  0.00     0.060 A 
BRANCH  58  59
ATOM     59  S   UNL A   1      33.360  35.094  28.831  1.00  0.00     0.124 S 
ATOM     60  O   UNL A   1      34.066  36.163  28.136  1.00  0.00    -0.237 OA
ATOM     61  O   UNL A   1      32.770  34.061  27.985  1.00  0.00    -0.237 OA
ATOM     62  O   UNL A   1      32.536  35.509  29.963  1.00  0.00    -0.744 OA
ENDBRANCH  58  59
ENDBRANCH  26  51
BRANCH  38  63
ATOM     63  C   UNL A   1      40.007  34.157  36.994  1.00  0.00     0.058 A 
ATOM     64  C   UNL A   1      39.156  33.910  38.082  1.00  0.00     0.135 A 
ATOM     65  C   UNL A   1      40.643  35.405  36.921  1.00  0.00     0.135 A 
ATOM     66  F   UNL A   1      38.521  32.732  38.189  1.00  0.00    -0.206 F 
ATOM     67  C   UNL A   1      38.916  34.879  39.048  1.00  0.00     0.059 A 
ATOM     68  C   UNL A   1      40.431  36.384  37.887  1.00  0.00     0.059 A 
ATOM     69  F   UNL A   1      41.470  35.685  35.902  1.00  0.00    -0.206 F 
ATOM     70  C   UNL A   1      39.552  36.118  38.937  1.00  0.00     0.060 A 
BRANCH  70  71
ATOM     71  S   UNL A   1      39.236  37.374  40.193  1.00  0.00     0.124 S 
ATOM     72  O   UNL A   1      38.397  38.316  39.459  1.00  0.00    -0.237 OA
ATOM     73  O   UNL A   1      38.565  36.613  41.243  1.00  0.00    -0.237 OA
ATOM     74  O   UNL A   1      40.571  37.854  40.533  1.00  0.00    -0.744 OA
ENDBRANCH  70  71
ENDBRANCH  38  63
ENDBRANCH  12  13
ENDBRANCH   5   7
ENDBRANCH   2   3
ENDBRANCH   1   2
BRANCH   1  75
ATOM     75  C   UNL A   1      40.677  20.750  27.160  1.00  0.00     0.023 C 
BRANCH  75  76
ATOM     76  C   UNL A   1      40.850  19.617  26.151  1.00  0.00     0.116 C 
BRANCH  76  77
ATOM     77  N   UNL A   1      41.845  18.646  26.552  1.00  0.00    -0.356 N 
ATOM     78  C   UNL A   1      43.130  18.474  26.157  1.00  0.00     0.228 C 
ATOM     79  H   UNL A   1      41.536  18.000  27.227  1.00  0.00     0.163 HD
ATOM     80  O   UNL A   1      43.770  17.585  26.733  1.00  0.00    -0.275 OA
BRANCH  78  81
ATOM     81  C   UNL A   1      43.819  19.297  25.063  1.00  0.00     0.133 C 
ATOM     82  C   UNL A   1      45.231  18.848  24.671  1.00  0.00     0.025 C 
ATOM     83  C   UNL A   1      43.636  20.810  25.189  1.00  0.00     0.276 C 
ATOM     84  C   UNL A   1      46.374  19.739  25.151  1.00  0.00     0.062 C 
ATOM     85  N   UNL A   1      44.757  21.488  25.836  1.00  0.00    -0.330 N 
ATOM     86  C   UNL A   1      46.034  21.228  25.176  1.00  0.00     0.262 C 
ATOM     87  H   UNL A   1      44.853  21.058  26.757  1.00  0.00     0.348 HD
BRANCH  85  88
ATOM     88  C   UNL A   1      44.494  22.905  26.148  1.00  0.00     0.300 C 
BRANCH  88  89
ATOM     89  C   UNL A   1      44.442  23.283  27.613  1.00  0.00     0.025 A 
ATOM     90  C   UNL A   1      43.374  22.818  28.405  1.00  0.00     0.014 A 
ATOM     91  C   UNL A   1      45.410  24.109  28.218  1.00  0.00     0.052 A 
ATOM     92  C   UNL A   1      43.253  23.202  29.739  1.00  0.00     0.040 A 
ATOM     93  C   UNL A   1      45.291  24.486  29.555  1.00  0.00     0.060 A 
ATOM     94  Cl  UNL A   1      46.789  24.706  27.361  1.00  0.00    -0.084 Cl
ATOM     95  C   UNL A   1      44.209  24.038  30.299  1.00  0.00     0.124 A 
ATOM     96  F   UNL A   1      44.087  24.418  31.577  1.00  0.00    -0.207 F 
ENDBRANCH  88  89
ENDBRANCH  85  88
ENDBRANCH  78  81
ENDBRANCH  76  77
ENDBRANCH  75  76
ENDBRANCH   1  75
TORSDOF 16
ENDMDL
MODEL 2
REMARK VINA RESULT:     -11.9      6.138     13.992
REMARK SMILES O=C(NCCCCNC(=O)[C@@H]1CCC[N@@H+](Cc2ccc(F)cc2Cl)C1)c1ccc(-c2c3nc(c(-c4c(F)cc(S(=O)(=O)[O-])cc4F)c4ccc([nH]4)c(-c4c(F)cc(S(=O)(=O)[O-])cc4F)c4nc(c(-c5c(F)cc(S(=O)(=O)[O-])cc5F)c5ccc2[nH]5)C=C4)C=C3)cc1
REMARK SMILES IDX 5 1 4 2 3 3 1 4 2 5 26 7 27 8 91 9 28 10 90 11 29 12 30 13
REMARK SMILES IDX 31 14 84 15 32 16 89 17 83 18 85 19 33 20 88 21 82 22 81 23
REMARK SMILES IDX 34 25 68 26 47 27 67 28 48 29 51 30 66 31 86 32 49 33 50 34
REMARK SMILES IDX 65 36 87 37 52 38 35 39 36 40 45 41 37 42 38 43 44 44 46 45
REMARK SMILES IDX 39 46 40 47 41 48 42 49 43 50 69 51 70 52 79 53 71 54 72 55
REMARK SMILES IDX 78 56 80 57 73 58 74 59 75 60 76 61 77 62 53 63 54 64 63 65
REMARK SMILES IDX 55 66 56 67 62 68 64 69 57 70 58 71 59 72 60 73 61 74 6 75
REMARK SMILES IDX 7 76 8 77 9 78 10 80 11 81 12 82 25 83 13 84 15 85 14 86
REMARK SMILES IDX 16 88 17 89 18 90 23 91 19 92 22 93 24 94 20 95 21 96
REMARK H PARENT 3 6 85 24 51 35 8 79 15 87
REMARK Flexibility Score: inf
ROOT
ATOM      1  C   UNL A   1      34.368  31.780  27.881  1.00  0.00     0.023 C 
ENDROOT
BRANCH   1   2
ATOM      2  C   UNL A   1      35.660  31.640  28.676  1.00  0.00     0.116 C 
BRANCH   2   3
ATOM      3  N   UNL A   1      35.512  31.002  29.979  1.00  0.00    -0.352 N 
ATOM      4  O   UNL A   1      36.254  29.802  31.760  1.00  0.00    -0.269 OA
ATOM      5  C   UNL A   1      36.499  30.362  30.701  1.00  0.00     0.251 C 
ATOM      6  H   UNL A   1      34.617  31.032  30.386  1.00  0.00     0.163 HD
BRANCH   5   7
ATOM      7  C   UNL A   1      37.860  30.328  30.121  1.00  0.00     0.039 A 
ATOM      8  C   UNL A   1      38.038  29.857  28.820  1.00  0.00     0.014 A 
ATOM      9  C   UNL A   1      38.958  30.630  30.930  1.00  0.00     0.014 A 
ATOM     10  C   UNL A   1      39.312  29.511  28.395  1.00  0.00     0.010 A 
ATOM     11  C   UNL A   1      40.248  30.366  30.461  1.00  0.00     0.010 A 
ATOM     12  C   UNL A   1      40.431  29.755  29.210  1.00  0.00    -0.014 A 
BRANCH  12  13
ATOM     13  C   UNL A   1      41.775  29.371  28.708  1.00  0.00     0.031 A 
ATOM     14  C   UNL A   1      42.929  30.338  28.736  1.00  0.00     0.074 A 
ATOM     15  C   UNL A   1      41.962  28.101  28.300  1.00  0.00     0.049 A 
ATOM     16  N   UNL A   1      44.172  30.141  28.376  1.00  0.00    -0.248 NA
ATOM     17  C   UNL A   1      42.656  31.700  29.220  1.00  0.00     0.031 C 
ATOM     18  C   UNL A   1      40.913  27.080  28.222  1.00  0.00     0.029 A 
ATOM     19  N   UNL A   1      43.097  27.439  27.912  1.00  0.00    -0.354 N 
ATOM     20  C   UNL A   1      44.824  31.354  28.567  1.00  0.00     0.074 A 
ATOM     21  C   UNL A   1      43.836  32.288  29.062  1.00  0.00     0.031 C 
ATOM     22  C   UNL A   1      41.464  25.908  27.874  1.00  0.00     0.029 A 
ATOM     23  C   UNL A   1      42.891  26.107  27.648  1.00  0.00     0.049 A 
ATOM     24  H   UNL A   1      43.976  27.876  27.831  1.00  0.00     0.167 HD
ATOM     25  C   UNL A   1      46.128  31.656  28.351  1.00  0.00     0.037 A 
ATOM     26  C   UNL A   1      43.750  25.149  27.259  1.00  0.00     0.037 A 
ATOM     27  C   UNL A   1      47.111  30.714  27.879  1.00  0.00     0.049 A 
ATOM     28  C   UNL A   1      45.194  25.502  27.064  1.00  0.00     0.074 A 
ATOM     29  C   UNL A   1      48.454  30.926  27.615  1.00  0.00     0.029 A 
ATOM     30  N   UNL A   1      46.861  29.375  27.615  1.00  0.00    -0.354 N 
ATOM     31  N   UNL A   1      45.783  26.663  27.224  1.00  0.00    -0.248 NA
ATOM     32  C   UNL A   1      46.088  24.422  26.630  1.00  0.00     0.031 C 
ATOM     33  C   UNL A   1      49.011  29.719  27.175  1.00  0.00     0.029 A 
ATOM     34  C   UNL A   1      48.023  28.749  27.192  1.00  0.00     0.049 A 
ATOM     35  H   UNL A   1      45.986  28.934  27.714  1.00  0.00     0.167 HD
ATOM     36  C   UNL A   1      47.116  26.456  26.897  1.00  0.00     0.074 A 
ATOM     37  C   UNL A   1      47.253  25.052  26.568  1.00  0.00     0.031 C 
ATOM     38  C   UNL A   1      48.132  27.352  26.857  1.00  0.00     0.037 A 
BRANCH  25  39
ATOM     39  C   UNL A   1      46.572  33.069  28.612  1.00  0.00     0.058 A 
ATOM     40  C   UNL A   1      47.087  33.460  29.858  1.00  0.00     0.135 A 
ATOM     41  C   UNL A   1      46.533  34.031  27.589  1.00  0.00     0.135 A 
ATOM     42  F   UNL A   1      47.132  32.586  30.875  1.00  0.00    -0.206 F 
ATOM     43  C   UNL A   1      47.535  34.759  30.085  1.00  0.00     0.059 A 
ATOM     44  C   UNL A   1      46.992  35.330  27.788  1.00  0.00     0.059 A 
ATOM     45  F   UNL A   1      46.049  33.709  26.378  1.00  0.00    -0.206 F 
ATOM     46  C   UNL A   1      47.482  35.687  29.044  1.00  0.00     0.060 A 
BRANCH  46  47
ATOM     47  S   UNL A   1      48.077  37.365  29.346  1.00  0.00     0.124 S 
ATOM     48  O   UNL A   1      47.371  38.115  28.311  1.00  0.00    -0.237 OA
ATOM     49  O   UNL A   1      47.640  37.614  30.716  1.00  0.00    -0.237 OA
ATOM     50  O   UNL A   1      49.521  37.251  29.164  1.00  0.00    -0.744 OA
ENDBRANCH  46  47
ENDBRANCH  25  39
BRANCH  26  51
ATOM     51  C   UNL A   1      43.250  23.773  27.018  1.00  0.00     0.058 A 
ATOM     52  C   UNL A   1      43.008  23.306  25.718  1.00  0.00     0.135 A 
ATOM     53  C   UNL A   1      43.055  22.882  28.084  1.00  0.00     0.135 A 
ATOM     54  F   UNL A   1      43.180  24.124  24.669  1.00  0.00    -0.206 F 
ATOM     55  C   UNL A   1      42.583  22.003  25.483  1.00  0.00     0.059 A 
ATOM     56  C   UNL A   1      42.654  21.568  27.873  1.00  0.00     0.059 A 
ATOM     57  F   UNL A   1      43.296  23.278  29.344  1.00  0.00    -0.206 F 
ATOM     58  C   UNL A   1      42.411  21.141  26.568  1.00  0.00     0.060 A 
BRANCH  58  59
ATOM     59  S   UNL A   1      41.931  19.427  26.261  1.00  0.00     0.124 S 
ATOM     60  O   UNL A   1      40.500  19.563  26.027  1.00  0.00    -0.237 OA
ATOM     61  O   UNL A   1      42.740  19.077  25.097  1.00  0.00    -0.237 OA
ATOM     62  O   UNL A   1      42.311  18.752  27.499  1.00  0.00    -0.744 OA
ENDBRANCH  58  59
ENDBRANCH  26  51
BRANCH  38  63
ATOM     63  C   UNL A   1      49.472  26.827  26.435  1.00  0.00     0.058 A 
ATOM     64  C   UNL A   1      49.898  26.910  25.100  1.00  0.00     0.135 A 
ATOM     65  C   UNL A   1      50.337  26.238  27.369  1.00  0.00     0.135 A 
ATOM     66  F   UNL A   1      49.100  27.459  24.170  1.00  0.00    -0.206 F 
ATOM     67  C   UNL A   1      51.124  26.397  24.698  1.00  0.00     0.059 A 
ATOM     68  C   UNL A   1      51.578  25.734  26.991  1.00  0.00     0.059 A 
ATOM     69  F   UNL A   1      49.976  26.142  28.658  1.00  0.00    -0.206 F 
ATOM     70  C   UNL A   1      51.954  25.802  25.650  1.00  0.00     0.060 A 
BRANCH  70  71
ATOM     71  S   UNL A   1      53.546  25.134  25.122  1.00  0.00     0.124 S 
ATOM     72  O   UNL A   1      53.599  25.571  23.731  1.00  0.00    -0.237 OA
ATOM     73  O   UNL A   1      54.484  25.791  26.029  1.00  0.00    -0.237 OA
ATOM     74  O   UNL A   1      53.392  23.697  25.325  1.00  0.00    -0.744 OA
ENDBRANCH  70  71
ENDBRANCH  38  63
ENDBRANCH  12  13
ENDBRANCH   5   7
ENDBRANCH   2   3
ENDBRANCH   1   2
BRANCH   1  75
ATOM     75  C   UNL A   1      33.754  33.176  27.896  1.00  0.00     0.023 C 
BRANCH  75  76
ATOM     76  C   UNL A   1      34.738  34.324  28.111  1.00  0.00     0.116 C 
BRANCH  76  77
ATOM     77  N   UNL A   1      34.105  35.625  28.107  1.00  0.00    -0.356 N 
ATOM     78  C   UNL A   1      33.466  36.306  29.090  1.00  0.00     0.228 C 
ATOM     79  H   UNL A   1      34.146  36.096  27.244  1.00  0.00     0.163 HD
ATOM     80  O   UNL A   1      33.078  37.446  28.807  1.00  0.00    -0.275 OA
BRANCH  78  81
ATOM     81  C   UNL A   1      33.201  35.757  30.496  1.00  0.00     0.133 C 
ATOM     82  C   UNL A   1      32.948  36.800  31.589  1.00  0.00     0.025 C 
ATOM     83  C   UNL A   1      34.105  34.595  30.910  1.00  0.00     0.276 C 
ATOM     84  C   UNL A   1      34.081  37.007  32.592  1.00  0.00     0.062 C 
ATOM     85  N   UNL A   1      35.248  35.000  31.726  1.00  0.00    -0.330 N 
ATOM     86  C   UNL A   1      34.857  35.734  32.925  1.00  0.00     0.262 C 
ATOM     87  H   UNL A   1      35.767  35.679  31.167  1.00  0.00     0.348 HD
BRANCH  85  88
ATOM     88  C   UNL A   1      36.230  33.922  31.947  1.00  0.00     0.300 C 
BRANCH  88  89
ATOM     89  C   UNL A   1      37.621  34.140  31.392  1.00  0.00     0.025 A 
ATOM     90  C   UNL A   1      37.814  34.125  29.997  1.00  0.00     0.014 A 
ATOM     91  C   UNL A   1      38.745  34.335  32.219  1.00  0.00     0.052 A 
ATOM     92  C   UNL A   1      39.090  34.252  29.450  1.00  0.00     0.040 A 
ATOM     93  C   UNL A   1      40.021  34.470  31.669  1.00  0.00     0.060 A 
ATOM     94  Cl  UNL A   1      38.630  34.417  33.942  1.00  0.00    -0.084 Cl
ATOM     95  C   UNL A   1      40.180  34.416  30.292  1.00  0.00     0.124 A 
ATOM     96  F   UNL A   1      41.408  34.526  29.767  1.00  0.00    -0.207 F 
ENDBRANCH  88  89
ENDBRANCH  85  88
ENDBRANCH  78  81
ENDBRANCH  76  77
ENDBRANCH  75  76
ENDBRANCH   1  75
TORSDOF 16
ENDMDL
MODEL 3
REMARK VINA RESULT:     -11.7      3.238      5.270
REMARK SMILES O=C(NCCCCNC(=O)[C@@H]1CCC[N@@H+](Cc2ccc(F)cc2Cl)C1)c1ccc(-c2c3nc(c(-c4c(F)cc(S(=O)(=O)[O-])cc4F)c4ccc([nH]4)c(-c4c(F)cc(S(=O)(=O)[O-])cc4F)c4nc(c(-c5c(F)cc(S(=O)(=O)[O-])cc5F)c5ccc2[nH]5)C=C4)C=C3)cc1
REMARK SMILES IDX 5 1 4 2 3 3 1 4 2 5 26 7 27 8 91 9 28 10 90 11 29 12 30 13
REMARK SMILES IDX 31 14 84 15 32 16 89 17 83 18 85 19 33 20 88 21 82 22 81 23
REMARK SMILES IDX 34 25 68 26 47 27 67 28 48 29 51 30 66 31 86 32 49 33 50 34
REMARK SMILES IDX 65 36 87 37 52 38 35 39 36 40 45 41 37 42 38 43 44 44 46 45
REMARK SMILES IDX 39 46 40 47 41 48 42 49 43 50 69 51 70 52 79 53 71 54 72 55
REMARK SMILES IDX 78 56 80 57 73 58 74 59 75 60 76 61 77 62 53 63 54 64 63 65
REMARK SMILES IDX 55 66 56 67 62 68 64 69 57 70 58 71 59 72 60 73 61 74 6 75
REMARK SMILES IDX 7 76 8 77 9 78 10 80 11 81 12 82 25 83 13 84 15 85 14 86
REMARK SMILES IDX 16 88 17 89 18 90 23 91 19 92 22 93 24 94 20 95 21 96
REMARK H PARENT 3 6 85 24 51 35 8 79 15 87
REMARK Flexibility Score: inf
ROOT
ATOM      1  C   UNL A   1      41.721  22.279  27.639  1.00  0.00     0.023 C 
ENDROOT
BRANCH   1   2
ATOM      2  C   UNL A   1      42.710  23.277  27.050  1.00  0.00     0.116 C 
BRANCH   2   3
ATOM      3  N   UNL A   1      42.194  24.072  25.942  1.00  0.00    -0.352 N 
ATOM      4  O   UNL A   1      41.208  25.906  25.031  1.00  0.00    -0.269 OA
ATOM      5  C   UNL A   1      41.675  25.350  26.014  1.00  0.00     0.251 C 
ATOM      6  H   UNL A   1      42.217  23.655  25.051  1.00  0.00     0.163 HD
BRANCH   5   7
ATOM      7  C   UNL A   1      41.654  26.006  27.340  1.00  0.00     0.039 A 
ATOM      8  C   UNL A   1      40.567  25.799  28.189  1.00  0.00     0.014 A 
ATOM      9  C   UNL A   1      42.647  26.934  27.661  1.00  0.00     0.014 A 
ATOM     10  C   UNL A   1      40.378  26.652  29.266  1.00  0.00     0.010 A 
ATOM     11  C   UNL A   1      42.498  27.730  28.801  1.00  0.00     0.010 A 
ATOM     12  C   UNL A   1      41.336  27.631  29.582  1.00  0.00    -0.014 A 
BRANCH  12  13
ATOM     13  C   UNL A   1      41.090  28.518  30.748  1.00  0.00     0.031 A 
ATOM     14  C   UNL A   1      42.004  28.513  31.944  1.00  0.00     0.074 A 
ATOM     15  C   UNL A   1      40.069  29.394  30.676  1.00  0.00     0.049 A 
ATOM     16  N   UNL A   1      41.950  29.258  33.019  1.00  0.00    -0.248 NA
ATOM     17  C   UNL A   1      43.115  27.548  31.941  1.00  0.00     0.031 C 
ATOM     18  C   UNL A   1      39.113  29.481  29.568  1.00  0.00     0.029 A 
ATOM     19  N   UNL A   1      39.686  30.399  31.524  1.00  0.00    -0.354 N 
ATOM     20  C   UNL A   1      43.000  28.839  33.830  1.00  0.00     0.074 A 
ATOM     21  C   UNL A   1      43.667  27.764  33.128  1.00  0.00     0.031 C 
ATOM     22  C   UNL A   1      38.295  30.523  29.773  1.00  0.00     0.029 A 
ATOM     23  C   UNL A   1      38.630  31.141  31.052  1.00  0.00     0.049 A 
ATOM     24  H   UNL A   1      40.125  30.574  32.388  1.00  0.00     0.167 HD
ATOM     25  C   UNL A   1      43.371  29.312  35.045  1.00  0.00     0.037 A 
ATOM     26  C   UNL A   1      37.992  32.196  31.589  1.00  0.00     0.037 A 
ATOM     27  C   UNL A   1      42.715  30.399  35.726  1.00  0.00     0.049 A 
ATOM     28  C   UNL A   1      38.448  32.723  32.916  1.00  0.00     0.074 A 
ATOM     29  C   UNL A   1      43.006  30.943  36.966  1.00  0.00     0.029 A 
ATOM     30  N   UNL A   1      41.643  31.119  35.219  1.00  0.00    -0.354 N 
ATOM     31  N   UNL A   1      39.426  32.293  33.677  1.00  0.00    -0.248 NA
ATOM     32  C   UNL A   1      37.712  33.869  33.461  1.00  0.00     0.031 C 
ATOM     33  C   UNL A   1      42.099  31.981  37.215  1.00  0.00     0.029 A 
ATOM     34  C   UNL A   1      41.261  32.102  36.119  1.00  0.00     0.049 A 
ATOM     35  H   UNL A   1      41.216  30.956  34.347  1.00  0.00     0.167 HD
ATOM     36  C   UNL A   1      39.415  33.109  34.799  1.00  0.00     0.074 A 
ATOM     37  C   UNL A   1      38.359  34.082  34.599  1.00  0.00     0.031 C 
ATOM     38  C   UNL A   1      40.199  33.050  35.904  1.00  0.00     0.037 A 
BRANCH  25  39
ATOM     39  C   UNL A   1      44.538  28.652  35.727  1.00  0.00     0.058 A 
ATOM     40  C   UNL A   1      45.854  29.098  35.528  1.00  0.00     0.135 A 
ATOM     41  C   UNL A   1      44.333  27.597  36.632  1.00  0.00     0.135 A 
ATOM     42  F   UNL A   1      46.108  30.091  34.663  1.00  0.00    -0.206 F 
ATOM     43  C   UNL A   1      46.929  28.511  36.193  1.00  0.00     0.059 A 
ATOM     44  C   UNL A   1      45.390  27.009  37.320  1.00  0.00     0.059 A 
ATOM     45  F   UNL A   1      43.094  27.133  36.857  1.00  0.00    -0.206 F 
ATOM     46  C   UNL A   1      46.686  27.465  37.085  1.00  0.00     0.060 A 
BRANCH  46  47
ATOM     47  S   UNL A   1      48.086  26.721  37.950  1.00  0.00     0.124 S 
ATOM     48  O   UNL A   1      48.655  25.874  36.906  1.00  0.00    -0.237 OA
ATOM     49  O   UNL A   1      48.882  27.886  38.323  1.00  0.00    -0.237 OA
ATOM     50  O   UNL A   1      47.460  26.012  39.062  1.00  0.00    -0.744 OA
ENDBRANCH  46  47
ENDBRANCH  25  39
BRANCH  26  51
ATOM     51  C   UNL A   1      36.848  32.803  30.865  1.00  0.00     0.058 A 
ATOM     52  C   UNL A   1      35.526  32.559  31.263  1.00  0.00     0.135 A 
ATOM     53  C   UNL A   1      37.061  33.683  29.793  1.00  0.00     0.135 A 
ATOM     54  F   UNL A   1      35.276  31.725  32.284  1.00  0.00    -0.206 F 
ATOM     55  C   UNL A   1      34.451  33.162  30.618  1.00  0.00     0.059 A 
ATOM     56  C   UNL A   1      36.005  34.315  29.148  1.00  0.00     0.059 A 
ATOM     57  F   UNL A   1      38.310  33.963  29.391  1.00  0.00    -0.206 F 
ATOM     58  C   UNL A   1      34.702  34.041  29.562  1.00  0.00     0.060 A 
BRANCH  58  59
ATOM     59  S   UNL A   1      33.314  34.882  28.771  1.00  0.00     0.124 S 
ATOM     60  O   UNL A   1      32.442  35.139  29.910  1.00  0.00    -0.237 OA
ATOM     61  O   UNL A   1      33.952  36.053  28.176  1.00  0.00    -0.237 OA
ATOM     62  O   UNL A   1      32.831  33.891  27.813  1.00  0.00    -0.744 OA
ENDBRANCH  58  59
ENDBRANCH  26  51
BRANCH  38  63
ATOM     63  C   UNL A   1      39.927  34.065  36.974  1.00  0.00     0.058 A 
ATOM     64  C   UNL A   1      40.453  35.364  36.894  1.00  0.00     0.135 A 
ATOM     65  C   UNL A   1      39.136  33.740  38.085  1.00  0.00     0.135 A 
ATOM     66  F   UNL A   1      41.223  35.717  35.851  1.00  0.00    -0.206 F 
ATOM     67  C   UNL A   1      40.231  36.298  37.897  1.00  0.00     0.059 A 
ATOM     68  C   UNL A   1      38.885  34.666  39.093  1.00  0.00     0.059 A 
ATOM     69  F   UNL A   1      38.606  32.512  38.203  1.00  0.00    -0.206 F 
ATOM     70  C   UNL A   1      39.452  35.936  38.999  1.00  0.00     0.060 A 
BRANCH  70  71
ATOM     71  S   UNL A   1      39.169  37.153  40.301  1.00  0.00     0.124 S 
ATOM     72  O   UNL A   1      38.344  36.394  41.235  1.00  0.00    -0.237 OA
ATOM     73  O   UNL A   1      40.523  37.457  40.754  1.00  0.00    -0.237 OA
ATOM     74  O   UNL A   1      38.491  38.241  39.603  1.00  0.00    -0.744 OA
ENDBRANCH  70  71
ENDBRANCH  38  63
ENDBRANCH  12  13
ENDBRANCH   5   7
ENDBRANCH   2   3
ENDBRANCH   1   2
BRANCH   1  75
ATOM     75  C   UNL A   1      41.281  21.172  26.686  1.00  0.00     0.023 C 
BRANCH  75  76
ATOM     76  C   UNL A   1      39.852  21.290  26.159  1.00  0.00     0.116 C 
BRANCH  76  77
ATOM     77  N   UNL A   1      39.303  22.621  26.293  1.00  0.00    -0.356 N 
ATOM     78  C   UNL A   1      38.070  23.108  26.009  1.00  0.00     0.228 C 
ATOM     79  H   UNL A   1      39.932  23.287  26.654  1.00  0.00     0.163 HD
ATOM     80  O   UNL A   1      37.867  24.294  26.296  1.00  0.00    -0.275 OA
BRANCH  78  81
ATOM     81  C   UNL A   1      36.942  22.293  25.366  1.00  0.00     0.133 C 
ATOM     82  C   UNL A   1      36.886  22.312  23.835  1.00  0.00     0.025 C 
ATOM     83  C   UNL A   1      35.587  22.416  26.063  1.00  0.00     0.276 C 
ATOM     84  C   UNL A   1      35.759  23.137  23.218  1.00  0.00     0.062 C 
ATOM     85  N   UNL A   1      34.690  23.387  25.439  1.00  0.00    -0.330 N 
ATOM     86  C   UNL A   1      34.461  23.118  24.022  1.00  0.00     0.262 C 
ATOM     87  H   UNL A   1      35.185  24.280  25.454  1.00  0.00     0.348 HD
BRANCH  85  88
ATOM     88  C   UNL A   1      33.473  23.661  26.226  1.00  0.00     0.300 C 
BRANCH  88  89
ATOM     89  C   UNL A   1      32.868  25.043  26.089  1.00  0.00     0.025 A 
ATOM     90  C   UNL A   1      33.718  26.146  25.873  1.00  0.00     0.014 A 
ATOM     91  C   UNL A   1      31.483  25.278  26.194  1.00  0.00     0.052 A 
ATOM     92  C   UNL A   1      33.206  27.441  25.812  1.00  0.00     0.040 A 
ATOM     93  C   UNL A   1      30.972  26.574  26.126  1.00  0.00     0.060 A 
ATOM     94  Cl  UNL A   1      30.337  24.001  26.415  1.00  0.00    -0.084 Cl
ATOM     95  C   UNL A   1      31.839  27.642  25.946  1.00  0.00     0.124 A 
ATOM     96  F   UNL A   1      31.349  28.888  25.900  1.00  0.00    -0.207 F 
ENDBRANCH  88  89
ENDBRANCH  85  88
ENDBRANCH  78  81
ENDBRANCH  76  77
ENDBRANCH  75  76
ENDBRANCH   1  75
TORSDOF 16
ENDMDL
