MODEL 1
REMARK VINA RESULT:     -12.7      0.000      0.000
REMARK SMILES O=C(N[C@@H]1C=C[C@@H](C(=O)NCCCCNC(=O)c2ccc(-c3c4nc(c(-c5c(F)cc(S(=O)(=O)[O-])cc5F)c5ccc([nH]5)c(-c5c(F)cc(S(=O)(=O)[O-])cc5F)c5nc(c(-c6c(F)cc(S(=O)(=O)[O-])cc6F)c6ccc3[nH]6)C=C5)C=C4)cc2)C1)N[C@H]1CCCc2sccc21
REMARK SMILES IDX 13 1 12 2 11 3 10 4 8 5 9 6 7 8 4 9 5 10 84 11 6 12 3 13
REMARK SMILES IDX 1 14 2 15 85 16 86 19 87 20 94 21 88 22 90 23 93 24 89 25
REMARK SMILES IDX 91 26 92 27 14 28 15 29 16 30 17 32 18 33 19 34 83 35 20 36
REMARK SMILES IDX 82 37 21 38 22 39 23 40 76 41 24 42 81 43 75 44 77 45 25 46
REMARK SMILES IDX 80 47 74 48 73 49 26 51 60 52 39 53 59 54 40 55 43 56 58 57
REMARK SMILES IDX 78 58 41 59 42 60 57 62 79 63 44 64 27 65 28 66 37 67 29 68
REMARK SMILES IDX 30 69 36 70 38 71 31 72 32 73 33 74 34 75 35 76 61 77 62 78
REMARK SMILES IDX 71 79 63 80 64 81 70 82 72 83 65 84 66 85 67 86 68 87 69 88
REMARK SMILES IDX 45 89 46 90 55 91 47 92 48 93 54 94 56 95 49 96 50 97 51 98
REMARK SMILES IDX 52 99 53 100
REMARK H PARENT 10 7 3 17 85 18 15 31 77 50 43 61
REMARK Flexibility Score: inf
ROOT
ATOM      1  C   UNL A   1      40.763  21.888  27.588  1.00  0.00     0.023 C 
ENDROOT
BRANCH   1   2
ATOM      2  C   UNL A   1      39.969  21.568  26.321  1.00  0.00     0.023 C 
BRANCH   2   3
ATOM      3  C   UNL A   1      38.593  22.226  26.246  1.00  0.00     0.116 C 
BRANCH   3   4
ATOM      4  N   UNL A   1      38.124  22.362  24.881  1.00  0.00    -0.356 N 
ATOM      5  C   UNL A   1      36.868  22.387  24.361  1.00  0.00     0.227 C 
ATOM      6  O   UNL A   1      36.767  22.584  23.145  1.00  0.00    -0.274 OA
ATOM      7  H   UNL A   1      38.842  22.450  24.214  1.00  0.00     0.163 HD
BRANCH   5   8
ATOM      8  C   UNL A   1      35.604  22.195  25.207  1.00  0.00     0.103 C 
ATOM      9  C   UNL A   1      33.279  22.927  24.842  1.00  0.00     0.107 C 
ATOM     10  C   UNL A   1      33.463  21.471  24.565  1.00  0.00    -0.006 C 
ATOM     11  C   UNL A   1      34.671  23.409  25.284  1.00  0.00     0.047 C 
ATOM     12  C   UNL A   1      34.727  21.073  24.745  1.00  0.00    -0.016 C 
BRANCH   9  13
ATOM     13  N   UNL A   1      32.293  23.050  25.892  1.00  0.00    -0.332 N 
ATOM     14  O   UNL A   1      30.792  24.003  27.240  1.00  0.00    -0.249 OA
ATOM     15  C   UNL A   1      31.534  24.105  26.267  1.00  0.00     0.315 C 
ATOM     16  N   UNL A   1      31.658  25.243  25.542  1.00  0.00    -0.331 N 
ATOM     17  H   UNL A   1      32.150  22.231  26.419  1.00  0.00     0.165 HD
ATOM     18  H   UNL A   1      32.237  25.238  24.747  1.00  0.00     0.166 HD
BRANCH  16  19
ATOM     19  C   UNL A   1      30.966  26.470  25.894  1.00  0.00     0.115 C 
ATOM     20  C   UNL A   1      31.757  27.304  26.929  1.00  0.00     0.030 C 
ATOM     21  C   UNL A   1      30.813  27.265  24.629  1.00  0.00    -0.012 A 
ATOM     22  C   UNL A   1      32.975  28.094  26.381  1.00  0.00     0.008 C 
ATOM     23  C   UNL A   1      31.875  28.009  24.159  1.00  0.00     0.010 A 
ATOM     24  C   UNL A   1      29.672  27.398  23.787  1.00  0.00     0.018 A 
ATOM     25  C   UNL A   1      33.193  28.060  24.859  1.00  0.00     0.047 C 
ATOM     26  S   UNL A   1      31.527  28.836  22.723  1.00  0.00    -0.149 S 
ATOM     27  C   UNL A   1      29.923  28.229  22.713  1.00  0.00     0.065 A 
ENDBRANCH  16  19
ENDBRANCH   9  13
ENDBRANCH   5   8
ENDBRANCH   3   4
ENDBRANCH   2   3
ENDBRANCH   1   2
BRANCH   1  28
ATOM     28  C   UNL A   1      41.881  22.912  27.419  1.00  0.00     0.116 C 
BRANCH  28  29
ATOM     29  N   UNL A   1      41.737  23.728  26.223  1.00  0.00    -0.352 N 
ATOM     30  C   UNL A   1      41.468  25.072  26.122  1.00  0.00     0.251 C 
ATOM     31  H   UNL A   1      41.849  23.251  25.368  1.00  0.00     0.163 HD
ATOM     32  O   UNL A   1      41.268  25.576  25.021  1.00  0.00    -0.269 OA
BRANCH  30  33
ATOM     33  C   UNL A   1      41.387  25.894  27.349  1.00  0.00     0.039 A 
ATOM     34  C   UNL A   1      42.434  26.769  27.646  1.00  0.00     0.014 A 
ATOM     35  C   UNL A   1      40.268  25.823  28.183  1.00  0.00     0.014 A 
ATOM     36  C   UNL A   1      42.325  27.630  28.741  1.00  0.00     0.010 A 
ATOM     37  C   UNL A   1      40.130  26.730  29.230  1.00  0.00     0.010 A 
ATOM     38  C   UNL A   1      41.155  27.644  29.517  1.00  0.00    -0.014 A 
BRANCH  38  39
ATOM     39  C   UNL A   1      40.975  28.616  30.626  1.00  0.00     0.031 A 
ATOM     40  C   UNL A   1      41.841  28.533  31.852  1.00  0.00     0.074 A 
ATOM     41  C   UNL A   1      39.979  29.522  30.563  1.00  0.00     0.049 A 
ATOM     42  N   UNL A   1      41.789  29.242  32.950  1.00  0.00    -0.248 NA
ATOM     43  C   UNL A   1      42.885  27.496  31.856  1.00  0.00     0.031 C 
ATOM     44  C   UNL A   1      39.039  29.669  29.449  1.00  0.00     0.029 A 
ATOM     45  N   UNL A   1      39.585  30.484  31.457  1.00  0.00    -0.354 N 
ATOM     46  C   UNL A   1      42.775  28.723  33.782  1.00  0.00     0.074 A 
ATOM     47  C   UNL A   1      43.375  27.609  33.081  1.00  0.00     0.031 C 
ATOM     48  C   UNL A   1      38.197  30.681  29.715  1.00  0.00     0.029 A 
ATOM     49  C   UNL A   1      38.512  31.228  31.031  1.00  0.00     0.049 A 
ATOM     50  H   UNL A   1      40.029  30.628  32.324  1.00  0.00     0.167 HD
ATOM     51  C   UNL A   1      43.157  29.150  35.011  1.00  0.00     0.037 A 
ATOM     52  C   UNL A   1      37.853  32.239  31.633  1.00  0.00     0.037 A 
ATOM     53  C   UNL A   1      42.575  30.277  35.690  1.00  0.00     0.049 A 
ATOM     54  C   UNL A   1      38.298  32.701  32.992  1.00  0.00     0.074 A 
ATOM     55  C   UNL A   1      42.940  30.835  36.902  1.00  0.00     0.029 A 
ATOM     56  N   UNL A   1      41.498  31.016  35.219  1.00  0.00    -0.354 N 
ATOM     57  N   UNL A   1      39.278  32.245  33.736  1.00  0.00    -0.248 NA
ATOM     58  C   UNL A   1      37.555  33.817  33.591  1.00  0.00     0.031 C 
ATOM     59  C   UNL A   1      42.059  31.886  37.184  1.00  0.00     0.029 A 
ATOM     60  C   UNL A   1      41.173  32.012  36.125  1.00  0.00     0.049 A 
ATOM     61  H   UNL A   1      41.035  30.857  34.365  1.00  0.00     0.167 HD
ATOM     62  C   UNL A   1      39.285  33.035  34.880  1.00  0.00     0.074 A 
ATOM     63  C   UNL A   1      38.216  34.001  34.726  1.00  0.00     0.031 C 
ATOM     64  C   UNL A   1      40.107  32.969  35.957  1.00  0.00     0.037 A 
BRANCH  51  65
ATOM     65  C   UNL A   1      44.256  28.383  35.695  1.00  0.00     0.058 A 
ATOM     66  C   UNL A   1      43.982  27.315  36.565  1.00  0.00     0.135 A 
ATOM     67  C   UNL A   1      45.602  28.720  35.478  1.00  0.00     0.135 A 
ATOM     68  F   UNL A   1      42.713  26.959  36.819  1.00  0.00    -0.206 F 
ATOM     69  C   UNL A   1      44.998  26.642  37.234  1.00  0.00     0.059 A 
ATOM     70  C   UNL A   1      46.637  28.040  36.114  1.00  0.00     0.059 A 
ATOM     71  F   UNL A   1      45.922  29.730  34.653  1.00  0.00    -0.206 F 
ATOM     72  C   UNL A   1      46.323  27.018  37.007  1.00  0.00     0.060 A 
BRANCH  72  73
ATOM     73  S   UNL A   1      47.631  26.157  37.906  1.00  0.00     0.124 S 
ATOM     74  O   UNL A   1      48.784  26.401  37.043  1.00  0.00    -0.237 OA
ATOM     75  O   UNL A   1      47.643  26.854  39.189  1.00  0.00    -0.237 OA
ATOM     76  O   UNL A   1      47.161  24.777  37.950  1.00  0.00    -0.744 OA
ENDBRANCH  72  73
ENDBRANCH  51  65
BRANCH  52  77
ATOM     77  C   UNL A   1      36.729  32.908  30.925  1.00  0.00     0.058 A 
ATOM     78  C   UNL A   1      35.400  32.659  31.300  1.00  0.00     0.135 A 
ATOM     79  C   UNL A   1      36.957  33.838  29.899  1.00  0.00     0.135 A 
ATOM     80  F   UNL A   1      35.133  31.773  32.272  1.00  0.00    -0.206 F 
ATOM     81  C   UNL A   1      34.335  33.306  30.682  1.00  0.00     0.059 A 
ATOM     82  C   UNL A   1      35.910  34.513  29.280  1.00  0.00     0.059 A 
ATOM     83  F   UNL A   1      38.211  34.122  29.515  1.00  0.00    -0.206 F 
ATOM     84  C   UNL A   1      34.601  34.237  29.678  1.00  0.00     0.060 A 
BRANCH  84  85
ATOM     85  S   UNL A   1      33.215  35.128  28.937  1.00  0.00     0.124 S 
ATOM     86  O   UNL A   1      32.387  35.409  30.104  1.00  0.00    -0.237 OA
ATOM     87  O   UNL A   1      33.880  36.279  28.333  1.00  0.00    -0.237 OA
ATOM     88  O   UNL A   1      32.666  34.164  27.988  1.00  0.00    -0.744 OA
ENDBRANCH  84  85
ENDBRANCH  52  77
BRANCH  64  89
ATOM     89  C   UNL A   1      39.905  33.987  37.044  1.00  0.00     0.058 A 
ATOM     90  C   UNL A   1      40.485  35.264  36.975  1.00  0.00     0.135 A 
ATOM     91  C   UNL A   1      39.076  33.700  38.140  1.00  0.00     0.135 A 
ATOM     92  F   UNL A   1      41.291  35.586  35.952  1.00  0.00    -0.206 F 
ATOM     93  C   UNL A   1      40.266  36.214  37.969  1.00  0.00     0.059 A 
ATOM     94  C   UNL A   1      38.823  34.644  39.131  1.00  0.00     0.059 A 
ATOM     95  F   UNL A   1      38.489  32.498  38.247  1.00  0.00    -0.206 F 
ATOM     96  C   UNL A   1      39.431  35.895  39.041  1.00  0.00     0.060 A 
BRANCH  96  97
ATOM     97  S   UNL A   1      39.124  37.148  40.303  1.00  0.00     0.124 S 
ATOM     98  O   UNL A   1      38.268  36.422  41.236  1.00  0.00    -0.237 OA
ATOM     99  O   UNL A   1      40.470  37.449  40.782  1.00  0.00    -0.237 OA
ATOM    100  O   UNL A   1      38.475  38.225  39.563  1.00  0.00    -0.744 OA
ENDBRANCH  96  97
ENDBRANCH  64  89
ENDBRANCH  38  39
ENDBRANCH  30  33
ENDBRANCH  28  29
ENDBRANCH   1  28
TORSDOF 16
ENDMDL
MODEL 2
REMARK VINA RESULT:     -12.4      0.509      8.177
REMARK SMILES O=C(N[C@@H]1C=C[C@@H](C(=O)NCCCCNC(=O)c2ccc(-c3c4nc(c(-c5c(F)cc(S(=O)(=O)[O-])cc5F)c5ccc([nH]5)c(-c5c(F)cc(S(=O)(=O)[O-])cc5F)c5nc(c(-c6c(F)cc(S(=O)(=O)[O-])cc6F)c6ccc3[nH]6)C=C5)C=C4)cc2)C1)N[C@H]1CCCc2sccc21
REMARK SMILES IDX 13 1 12 2 11 3 10 4 8 5 9 6 7 8 4 9 5 10 84 11 6 12 3 13
REMARK SMILES IDX 1 14 2 15 85 16 86 19 87 20 94 21 88 22 90 23 93 24 89 25
REMARK SMILES IDX 91 26 92 27 14 28 15 29 16 30 17 32 18 33 19 34 83 35 20 36
REMARK SMILES IDX 82 37 21 38 22 39 23 40 76 41 24 42 81 43 75 44 77 45 25 46
REMARK SMILES IDX 80 47 74 48 73 49 26 51 60 52 39 53 59 54 40 55 43 56 58 57
REMARK SMILES IDX 78 58 41 59 42 60 57 62 79 63 44 64 27 65 28 66 37 67 29 68
REMARK SMILES IDX 30 69 36 70 38 71 31 72 32 73 33 74 34 75 35 76 61 77 62 78
REMARK SMILES IDX 71 79 63 80 64 81 70 82 72 83 65 84 66 85 67 86 68 87 69 88
REMARK SMILES IDX 45 89 46 90 55 91 47 92 48 93 54 94 56 95 49 96 50 97 51 98
REMARK SMILES IDX 52 99 53 100
REMARK H PARENT 10 7 3 17 85 18 15 31 77 50 43 61
REMARK Flexibility Score: inf
ROOT
ATOM      1  C   UNL A   1      40.399  22.196  27.179  1.00  0.00     0.023 C 
ENDROOT
BRANCH   1   2
ATOM      2  C   UNL A   1      39.145  22.725  26.480  1.00  0.00     0.023 C 
BRANCH   2   3
ATOM      3  C   UNL A   1      38.369  21.680  25.683  1.00  0.00     0.116 C 
BRANCH   3   4
ATOM      4  N   UNL A   1      37.825  22.221  24.453  1.00  0.00    -0.356 N 
ATOM      5  C   UNL A   1      36.553  22.551  24.102  1.00  0.00     0.227 C 
ATOM      6  O   UNL A   1      36.392  23.062  22.989  1.00  0.00    -0.274 OA
ATOM      7  H   UNL A   1      38.495  22.377  23.749  1.00  0.00     0.163 HD
BRANCH   5   8
ATOM      8  C   UNL A   1      35.343  22.325  25.016  1.00  0.00     0.103 C 
ATOM      9  C   UNL A   1      32.939  22.731  24.658  1.00  0.00     0.107 C 
ATOM     10  C   UNL A   1      33.288  21.283  24.557  1.00  0.00    -0.006 C 
ATOM     11  C   UNL A   1      34.275  23.423  24.979  1.00  0.00     0.047 C 
ATOM     12  C   UNL A   1      34.594  21.060  24.734  1.00  0.00    -0.016 C 
BRANCH   9  13
ATOM     13  N   UNL A   1      31.973  22.874  25.723  1.00  0.00    -0.332 N 
ATOM     14  O   UNL A   1      30.529  23.861  27.108  1.00  0.00    -0.249 OA
ATOM     15  C   UNL A   1      31.261  23.952  26.127  1.00  0.00     0.315 C 
ATOM     16  N   UNL A   1      31.421  25.097  25.420  1.00  0.00    -0.331 N 
ATOM     17  H   UNL A   1      31.805  22.052  26.237  1.00  0.00     0.165 HD
ATOM     18  H   UNL A   1      31.989  25.083  24.617  1.00  0.00     0.166 HD
BRANCH  16  19
ATOM     19  C   UNL A   1      30.782  26.343  25.804  1.00  0.00     0.115 C 
ATOM     20  C   UNL A   1      31.596  27.103  26.877  1.00  0.00     0.030 C 
ATOM     21  C   UNL A   1      30.688  27.186  24.564  1.00  0.00    -0.012 A 
ATOM     22  C   UNL A   1      32.858  27.852  26.374  1.00  0.00     0.008 C 
ATOM     23  C   UNL A   1      31.792  27.893  24.135  1.00  0.00     0.010 A 
ATOM     24  C   UNL A   1      29.568  27.402  23.710  1.00  0.00     0.018 A 
ATOM     25  C   UNL A   1      33.099  27.857  24.855  1.00  0.00     0.047 C 
ATOM     26  S   UNL A   1      31.507  28.783  22.722  1.00  0.00    -0.149 S 
ATOM     27  C   UNL A   1      29.876  28.255  22.668  1.00  0.00     0.065 A 
ENDBRANCH  16  19
ENDBRANCH   9  13
ENDBRANCH   5   8
ENDBRANCH   3   4
ENDBRANCH   2   3
ENDBRANCH   1   2
BRANCH   1  28
ATOM     28  C   UNL A   1      41.587  23.153  27.206  1.00  0.00     0.116 C 
BRANCH  28  29
ATOM     29  N   UNL A   1      41.605  24.078  26.083  1.00  0.00    -0.352 N 
ATOM     30  C   UNL A   1      41.466  25.446  26.090  1.00  0.00     0.251 C 
ATOM     31  H   UNL A   1      41.735  23.668  25.197  1.00  0.00     0.163 HD
ATOM     32  O   UNL A   1      41.394  26.060  25.029  1.00  0.00    -0.269 OA
BRANCH  30  33
ATOM     33  C   UNL A   1      41.370  26.164  27.378  1.00  0.00     0.039 A 
ATOM     34  C   UNL A   1      42.371  27.077  27.720  1.00  0.00     0.014 A 
ATOM     35  C   UNL A   1      40.281  25.960  28.230  1.00  0.00     0.014 A 
ATOM     36  C   UNL A   1      42.242  27.841  28.881  1.00  0.00     0.010 A 
ATOM     37  C   UNL A   1      40.118  26.773  29.348  1.00  0.00     0.010 A 
ATOM     38  C   UNL A   1      41.095  27.723  29.683  1.00  0.00    -0.014 A 
BRANCH  38  39
ATOM     39  C   UNL A   1      40.888  28.593  30.869  1.00  0.00     0.031 A 
ATOM     40  C   UNL A   1      39.810  29.642  30.858  1.00  0.00     0.074 A 
ATOM     41  C   UNL A   1      41.721  28.492  31.923  1.00  0.00     0.049 A 
ATOM     42  N   UNL A   1      39.523  30.540  31.764  1.00  0.00    -0.248 NA
ATOM     43  C   UNL A   1      38.963  29.708  29.657  1.00  0.00     0.031 C 
ATOM     44  C   UNL A   1      42.837  27.549  32.032  1.00  0.00     0.029 A 
ATOM     45  N   UNL A   1      41.767  29.195  33.101  1.00  0.00    -0.354 N 
ATOM     46  C   UNL A   1      38.479  31.291  31.235  1.00  0.00     0.074 A 
ATOM     47  C   UNL A   1      38.219  30.774  29.909  1.00  0.00     0.031 C 
ATOM     48  C   UNL A   1      43.437  27.713  33.222  1.00  0.00     0.029 A 
ATOM     49  C   UNL A   1      42.775  28.796  33.944  1.00  0.00     0.049 A 
ATOM     50  H   UNL A   1      41.135  29.918  33.321  1.00  0.00     0.167 HD
ATOM     51  C   UNL A   1      37.790  32.307  31.809  1.00  0.00     0.037 A 
ATOM     52  C   UNL A   1      43.130  29.252  35.162  1.00  0.00     0.037 A 
ATOM     53  C   UNL A   1      38.035  32.797  33.139  1.00  0.00     0.049 A 
ATOM     54  C   UNL A   1      42.346  30.374  35.784  1.00  0.00     0.074 A 
ATOM     55  C   UNL A   1      37.345  33.769  33.841  1.00  0.00     0.029 A 
ATOM     56  N   UNL A   1      39.057  32.356  33.970  1.00  0.00    -0.354 N 
ATOM     57  N   UNL A   1      41.317  31.027  35.298  1.00  0.00    -0.248 NA
ATOM     58  C   UNL A   1      42.766  30.817  37.120  1.00  0.00     0.031 C 
ATOM     59  C   UNL A   1      37.973  33.946  35.079  1.00  0.00     0.029 A 
ATOM     60  C   UNL A   1      39.028  33.051  35.168  1.00  0.00     0.049 A 
ATOM     61  H   UNL A   1      39.706  31.652  33.741  1.00  0.00     0.167 HD
ATOM     62  C   UNL A   1      40.949  31.941  36.279  1.00  0.00     0.074 A 
ATOM     63  C   UNL A   1      41.863  31.751  37.388  1.00  0.00     0.031 C 
ATOM     64  C   UNL A   1      39.944  32.850  36.264  1.00  0.00     0.037 A 
BRANCH  51  65
ATOM     65  C   UNL A   1      36.706  32.953  30.990  1.00  0.00     0.058 A 
ATOM     66  C   UNL A   1      36.997  33.899  29.992  1.00  0.00     0.135 A 
ATOM     67  C   UNL A   1      35.358  32.625  31.204  1.00  0.00     0.135 A 
ATOM     68  F   UNL A   1      38.268  34.260  29.754  1.00  0.00    -0.206 F 
ATOM     69  C   UNL A   1      35.990  34.531  29.272  1.00  0.00     0.059 A 
ATOM     70  C   UNL A   1      34.334  33.223  30.474  1.00  0.00     0.059 A 
ATOM     71  F   UNL A   1      35.022  31.725  32.142  1.00  0.00    -0.206 F 
ATOM     72  C   UNL A   1      34.660  34.191  29.526  1.00  0.00     0.060 A 
BRANCH  72  73
ATOM     73  S   UNL A   1      33.360  35.042  28.607  1.00  0.00     0.124 S 
ATOM     74  O   UNL A   1      32.754  33.936  27.872  1.00  0.00    -0.237 OA
ATOM     75  O   UNL A   1      32.544  35.616  29.673  1.00  0.00    -0.237 OA
ATOM     76  O   UNL A   1      34.095  36.007  27.795  1.00  0.00    -0.744 OA
ENDBRANCH  72  73
ENDBRANCH  51  65
BRANCH  52  77
ATOM     77  C   UNL A   1      44.257  28.609  35.888  1.00  0.00     0.058 A 
ATOM     78  C   UNL A   1      45.571  29.066  35.713  1.00  0.00     0.135 A 
ATOM     79  C   UNL A   1      44.042  27.564  36.800  1.00  0.00     0.135 A 
ATOM     80  F   UNL A   1      45.826  30.059  34.847  1.00  0.00    -0.206 F 
ATOM     81  C   UNL A   1      46.636  28.509  36.414  1.00  0.00     0.059 A 
ATOM     82  C   UNL A   1      45.088  27.005  37.528  1.00  0.00     0.059 A 
ATOM     83  F   UNL A   1      42.800  27.103  37.014  1.00  0.00    -0.206 F 
ATOM     84  C   UNL A   1      46.382  27.483  37.325  1.00  0.00     0.060 A 
BRANCH  84  85
ATOM     85  S   UNL A   1      47.761  26.822  38.287  1.00  0.00     0.124 S 
ATOM     86  O   UNL A   1      47.669  25.396  37.993  1.00  0.00    -0.237 OA
ATOM     87  O   UNL A   1      48.902  27.522  37.706  1.00  0.00    -0.237 OA
ATOM     88  O   UNL A   1      47.431  27.208  39.655  1.00  0.00    -0.744 OA
ENDBRANCH  84  85
ENDBRANCH  52  77
BRANCH  64  89
ATOM     89  C   UNL A   1      39.755  33.692  37.495  1.00  0.00     0.058 A 
ATOM     90  C   UNL A   1      40.361  34.951  37.628  1.00  0.00     0.135 A 
ATOM     91  C   UNL A   1      38.912  33.256  38.530  1.00  0.00     0.135 A 
ATOM     92  F   UNL A   1      41.180  35.411  36.670  1.00  0.00    -0.206 F 
ATOM     93  C   UNL A   1      40.154  35.741  38.755  1.00  0.00     0.059 A 
ATOM     94  C   UNL A   1      38.672  34.040  39.655  1.00  0.00     0.059 A 
ATOM     95  F   UNL A   1      38.301  32.064  38.448  1.00  0.00    -0.206 F 
ATOM     96  C   UNL A   1      39.306  35.277  39.762  1.00  0.00     0.060 A 
BRANCH  96  97
ATOM     97  S   UNL A   1      39.014  36.326  41.202  1.00  0.00     0.124 S 
ATOM     98  O   UNL A   1      37.807  35.728  41.762  1.00  0.00    -0.237 OA
ATOM     99  O   UNL A   1      40.235  36.136  41.981  1.00  0.00    -0.237 OA
ATOM    100  O   UNL A   1      38.848  37.656  40.626  1.00  0.00    -0.744 OA
ENDBRANCH  96  97
ENDBRANCH  64  89
ENDBRANCH  38  39
ENDBRANCH  30  33
ENDBRANCH  28  29
ENDBRANCH   1  28
TORSDOF 16
ENDMDL
MODEL 3
REMARK VINA RESULT:     -12.3      6.440     12.007
REMARK SMILES O=C(N[C@@H]1C=C[C@@H](C(=O)NCCCCNC(=O)c2ccc(-c3c4nc(c(-c5c(F)cc(S(=O)(=O)[O-])cc5F)c5ccc([nH]5)c(-c5c(F)cc(S(=O)(=O)[O-])cc5F)c5nc(c(-c6c(F)cc(S(=O)(=O)[O-])cc6F)c6ccc3[nH]6)C=C5)C=C4)cc2)C1)N[C@H]1CCCc2sccc21
REMARK SMILES IDX 13 1 12 2 11 3 10 4 8 5 9 6 7 8 4 9 5 10 84 11 6 12 3 13
REMARK SMILES IDX 1 14 2 15 85 16 86 19 87 20 94 21 88 22 90 23 93 24 89 25
REMARK SMILES IDX 91 26 92 27 14 28 15 29 16 30 17 32 18 33 19 34 83 35 20 36
REMARK SMILES IDX 82 37 21 38 22 39 23 40 76 41 24 42 81 43 75 44 77 45 25 46
REMARK SMILES IDX 80 47 74 48 73 49 26 51 60 52 39 53 59 54 40 55 43 56 58 57
REMARK SMILES IDX 78 58 41 59 42 60 57 62 79 63 44 64 27 65 28 66 37 67 29 68
REMARK SMILES IDX 30 69 36 70 38 71 31 72 32 73 33 74 34 75 35 76 61 77 62 78
REMARK SMILES IDX 71 79 63 80 64 81 70 82 72 83 65 84 66 85 67 86 68 87 69 88
REMARK SMILES IDX 45 89 46 90 55 91 47 92 48 93 54 94 56 95 49 96 50 97 51 98
REMARK SMILES IDX 52 99 53 100
REMARK H PARENT 10 7 3 17 85 18 15 31 77 50 43 61
REMARK Flexibility Score: inf
ROOT
ATOM      1  C   UNL A   1      35.009  32.348  28.065  1.00  0.00     0.023 C 
ENDROOT
BRANCH   1   2
ATOM      2  C   UNL A   1      34.545  30.961  27.619  1.00  0.00     0.023 C 
BRANCH   2   3
ATOM      3  C   UNL A   1      33.118  30.907  27.080  1.00  0.00     0.116 C 
BRANCH   3   4
ATOM      4  N   UNL A   1      32.398  29.740  27.550  1.00  0.00    -0.356 N 
ATOM      5  C   UNL A   1      32.009  28.605  26.909  1.00  0.00     0.227 C 
ATOM      6  O   UNL A   1      31.457  27.736  27.591  1.00  0.00    -0.274 OA
ATOM      7  H   UNL A   1      32.147  29.776  28.501  1.00  0.00     0.163 HD
BRANCH   5   8
ATOM      8  C   UNL A   1      32.233  28.367  25.411  1.00  0.00     0.103 C 
ATOM      9  C   UNL A   1      31.513  26.531  23.934  1.00  0.00     0.107 C 
ATOM     10  C   UNL A   1      30.694  27.765  23.741  1.00  0.00    -0.006 C 
ATOM     11  C   UNL A   1      32.538  26.919  25.012  1.00  0.00     0.047 C 
ATOM     12  C   UNL A   1      31.071  28.758  24.552  1.00  0.00    -0.016 C 
BRANCH   9  13
ATOM     13  N   UNL A   1      32.134  26.217  22.668  1.00  0.00    -0.332 N 
ATOM     14  O   UNL A   1      33.374  25.124  21.169  1.00  0.00    -0.249 OA
ATOM     15  C   UNL A   1      32.892  25.159  22.297  1.00  0.00     0.315 C 
ATOM     16  N   UNL A   1      33.094  24.190  23.223  1.00  0.00    -0.331 N 
ATOM     17  H   UNL A   1      31.980  26.882  21.958  1.00  0.00     0.165 HD
ATOM     18  H   UNL A   1      32.638  24.263  24.092  1.00  0.00     0.166 HD
BRANCH  16  19
ATOM     19  C   UNL A   1      33.958  23.049  22.980  1.00  0.00     0.115 C 
ATOM     20  C   UNL A   1      35.445  23.384  23.240  1.00  0.00     0.030 C 
ATOM     21  C   UNL A   1      33.523  21.962  23.921  1.00  0.00    -0.012 A 
ATOM     22  C   UNL A   1      35.880  23.453  24.728  1.00  0.00     0.008 C 
ATOM     23  C   UNL A   1      33.942  21.989  25.235  1.00  0.00     0.010 A 
ATOM     24  C   UNL A   1      32.706  20.825  23.660  1.00  0.00     0.018 A 
ATOM     25  C   UNL A   1      34.821  23.068  25.775  1.00  0.00     0.047 C 
ATOM     26  S   UNL A   1      33.353  20.692  26.151  1.00  0.00    -0.149 S 
ATOM     27  C   UNL A   1      32.536  20.047  24.788  1.00  0.00     0.065 A 
ENDBRANCH  16  19
ENDBRANCH   9  13
ENDBRANCH   5   8
ENDBRANCH   3   4
ENDBRANCH   2   3
ENDBRANCH   1   2
BRANCH   1  28
ATOM     28  C   UNL A   1      36.062  32.364  29.169  1.00  0.00     0.116 C 
BRANCH  28  29
ATOM     29  N   UNL A   1      35.753  31.465  30.271  1.00  0.00    -0.352 N 
ATOM     30  C   UNL A   1      36.527  30.468  30.814  1.00  0.00     0.251 C 
ATOM     31  H   UNL A   1      34.868  31.589  30.684  1.00  0.00     0.163 HD
ATOM     32  O   UNL A   1      36.058  29.727  31.674  1.00  0.00    -0.269 OA
BRANCH  30  33
ATOM     33  C   UNL A   1      37.911  30.272  30.332  1.00  0.00     0.039 A 
ATOM     34  C   UNL A   1      38.953  30.247  31.261  1.00  0.00     0.014 A 
ATOM     35  C   UNL A   1      38.173  30.084  28.972  1.00  0.00     0.014 A 
ATOM     36  C   UNL A   1      40.251  29.957  30.835  1.00  0.00     0.010 A 
ATOM     37  C   UNL A   1      39.453  29.724  28.560  1.00  0.00     0.010 A 
ATOM     38  C   UNL A   1      40.504  29.655  29.487  1.00  0.00    -0.014 A 
BRANCH  38  39
ATOM     39  C   UNL A   1      41.856  29.249  29.026  1.00  0.00     0.031 A 
ATOM     40  C   UNL A   1      42.968  30.259  28.962  1.00  0.00     0.074 A 
ATOM     41  C   UNL A   1      42.061  27.990  28.591  1.00  0.00     0.049 A 
ATOM     42  N   UNL A   1      44.191  30.114  28.521  1.00  0.00    -0.248 NA
ATOM     43  C   UNL A   1      42.654  31.619  29.426  1.00  0.00     0.031 C 
ATOM     44  C   UNL A   1      41.049  26.931  28.556  1.00  0.00     0.029 A 
ATOM     45  N   UNL A   1      43.186  27.388  28.086  1.00  0.00    -0.354 N 
ATOM     46  C   UNL A   1      44.785  31.366  28.634  1.00  0.00     0.074 A 
ATOM     47  C   UNL A   1      43.772  32.268  29.138  1.00  0.00     0.031 C 
ATOM     48  C   UNL A   1      41.607  25.805  28.083  1.00  0.00     0.029 A 
ATOM     49  C   UNL A   1      43.003  26.069  27.747  1.00  0.00     0.049 A 
ATOM     50  H   UNL A   1      44.045  27.858  27.977  1.00  0.00     0.167 HD
ATOM     51  C   UNL A   1      46.062  31.726  28.361  1.00  0.00     0.037 A 
ATOM     52  C   UNL A   1      43.862  25.173  27.222  1.00  0.00     0.037 A 
ATOM     53  C   UNL A   1      47.072  30.817  27.888  1.00  0.00     0.049 A 
ATOM     54  C   UNL A   1      45.277  25.591  26.935  1.00  0.00     0.074 A 
ATOM     55  C   UNL A   1      48.413  31.065  27.652  1.00  0.00     0.029 A 
ATOM     56  N   UNL A   1      46.852  29.484  27.570  1.00  0.00    -0.354 N 
ATOM     57  N   UNL A   1      45.841  26.762  27.112  1.00  0.00    -0.248 NA
ATOM     58  C   UNL A   1      46.173  24.567  26.380  1.00  0.00     0.031 C 
ATOM     59  C   UNL A   1      48.994  29.893  27.154  1.00  0.00     0.029 A 
ATOM     60  C   UNL A   1      48.026  28.902  27.122  1.00  0.00     0.049 A 
ATOM     61  H   UNL A   1      45.988  29.019  27.654  1.00  0.00     0.167 HD
ATOM     62  C   UNL A   1      47.165  26.610  26.717  1.00  0.00     0.074 A 
ATOM     63  C   UNL A   1      47.318  25.231  26.296  1.00  0.00     0.031 C 
ATOM     64  C   UNL A   1      48.164  27.527  26.708  1.00  0.00     0.037 A 
BRANCH  51  65
ATOM     65  C   UNL A   1      46.430  33.171  28.566  1.00  0.00     0.058 A 
ATOM     66  C   UNL A   1      46.895  33.647  29.803  1.00  0.00     0.135 A 
ATOM     67  C   UNL A   1      46.314  34.092  27.513  1.00  0.00     0.135 A 
ATOM     68  F   UNL A   1      47.012  32.813  30.848  1.00  0.00    -0.206 F 
ATOM     69  C   UNL A   1      47.185  34.993  30.002  1.00  0.00     0.059 A 
ATOM     70  C   UNL A   1      46.628  35.438  27.681  1.00  0.00     0.059 A 
ATOM     71  F   UNL A   1      45.878  33.691  26.308  1.00  0.00    -0.206 F 
ATOM     72  C   UNL A   1      47.041  35.882  28.936  1.00  0.00     0.060 A 
BRANCH  72  73
ATOM     73  S   UNL A   1      47.390  37.630  29.216  1.00  0.00     0.124 S 
ATOM     74  O   UNL A   1      46.899  38.226  27.977  1.00  0.00    -0.237 OA
ATOM     75  O   UNL A   1      46.605  37.921  30.412  1.00  0.00    -0.237 OA
ATOM     76  O   UNL A   1      48.838  37.662  29.397  1.00  0.00    -0.744 OA
ENDBRANCH  72  73
ENDBRANCH  51  65
BRANCH  52  77
ATOM     77  C   UNL A   1      43.411  23.776  26.981  1.00  0.00     0.058 A 
ATOM     78  C   UNL A   1      43.291  22.871  28.045  1.00  0.00     0.135 A 
ATOM     79  C   UNL A   1      43.049  23.333  25.699  1.00  0.00     0.135 A 
ATOM     80  F   UNL A   1      43.631  23.248  29.287  1.00  0.00    -0.206 F 
ATOM     81  C   UNL A   1      42.830  21.573  27.850  1.00  0.00     0.059 A 
ATOM     82  C   UNL A   1      42.566  22.046  25.481  1.00  0.00     0.059 A 
ATOM     83  F   UNL A   1      43.131  24.167  24.651  1.00  0.00    -0.206 F 
ATOM     84  C   UNL A   1      42.463  21.173  26.564  1.00  0.00     0.060 A 
BRANCH  84  85
ATOM     85  S   UNL A   1      41.793  19.511  26.336  1.00  0.00     0.124 S 
ATOM     86  O   UNL A   1      42.499  19.070  25.138  1.00  0.00    -0.237 OA
ATOM     87  O   UNL A   1      42.174  18.854  27.582  1.00  0.00    -0.237 OA
ATOM     88  O   UNL A   1      40.361  19.747  26.175  1.00  0.00    -0.744 OA
ENDBRANCH  84  85
ENDBRANCH  52  77
BRANCH  64  89
ATOM     89  C   UNL A   1      49.522  27.066  26.258  1.00  0.00     0.058 A 
ATOM     90  C   UNL A   1      50.446  26.508  27.155  1.00  0.00     0.135 A 
ATOM     91  C   UNL A   1      49.880  27.133  24.902  1.00  0.00     0.135 A 
ATOM     92  F   UNL A   1      50.155  26.428  28.462  1.00  0.00    -0.206 F 
ATOM     93  C   UNL A   1      51.689  26.052  26.726  1.00  0.00     0.059 A 
ATOM     94  C   UNL A   1      51.107  26.660  24.447  1.00  0.00     0.059 A 
ATOM     95  F   UNL A   1      49.028  27.649  24.002  1.00  0.00    -0.206 F 
ATOM     96  C   UNL A   1      52.009  26.130  25.369  1.00  0.00     0.060 A 
BRANCH  96  97
ATOM     97  S   UNL A   1      53.608  25.500  24.817  1.00  0.00     0.124 S 
ATOM     98  O   UNL A   1      53.610  25.892  23.412  1.00  0.00    -0.237 OA
ATOM     99  O   UNL A   1      54.543  26.219  25.677  1.00  0.00    -0.237 OA
ATOM    100  O   UNL A   1      53.514  24.065  25.069  1.00  0.00    -0.744 OA
ENDBRANCH  96  97
ENDBRANCH  64  89
ENDBRANCH  38  39
ENDBRANCH  30  33
ENDBRANCH  28  29
ENDBRANCH   1  28
TORSDOF 16
ENDMDL
