MODEL 1
REMARK VINA RESULT:     -11.7      0.000      0.000
REMARK SMILES O=C(CC[N@H+]1CCC[C@@H](C(=O)NCCCCNC(=O)c2ccc(-c3c4nc(c(-c5c(F)cc(S(=O)(=O)[O-])cc5F)c5ccc([nH]5)c(-c5c(F)cc(S(=O)(=O)[O-])cc5F)c5nc(c(-c6c(F)cc(S(=O)(=O)[O-])cc6F)c6ccc3[nH]6)C=C5)C=C4)cc2)C1)Nc1cccc(F)c1
REMARK SMILES IDX 14 1 13 2 12 3 10 4 11 5 9 7 5 8 6 9 86 10 7 12 8 13 4 14
REMARK SMILES IDX 3 15 2 16 1 17 87 18 88 20 89 21 94 22 90 23 92 24 91 25
REMARK SMILES IDX 93 26 15 27 16 28 17 29 18 30 19 32 20 33 21 34 85 35 22 36
REMARK SMILES IDX 84 37 23 38 24 39 25 40 78 41 26 42 83 43 77 44 79 45 27 46
REMARK SMILES IDX 82 47 76 48 75 49 28 51 62 52 41 53 61 54 42 55 45 56 60 57
REMARK SMILES IDX 80 58 43 59 44 60 59 62 81 63 46 64 29 65 30 66 39 67 31 68
REMARK SMILES IDX 32 69 38 70 40 71 33 72 34 73 35 74 36 75 37 76 63 77 64 78
REMARK SMILES IDX 73 79 65 80 66 81 72 82 74 83 67 84 68 85 69 86 70 87 71 88
REMARK SMILES IDX 47 89 48 90 57 91 49 92 50 93 56 94 58 95 51 96 52 97 53 98
REMARK SMILES IDX 54 99 55 100
REMARK H PARENT 12 6 5 11 87 19 17 31 79 50 45 61
REMARK Flexibility Score: inf
ROOT
ATOM      1  C   UNL A   1      39.076  22.897  26.550  1.00  0.00     0.023 C 
ENDROOT
BRANCH   1   2
ATOM      2  C   UNL A   1      38.045  21.977  25.895  1.00  0.00     0.116 C 
BRANCH   2   3
ATOM      3  N   UNL A   1      37.749  22.349  24.525  1.00  0.00    -0.356 N 
ATOM      4  C   UNL A   1      36.556  22.540  23.899  1.00  0.00     0.228 C 
ATOM      5  O   UNL A   1      36.573  22.929  22.730  1.00  0.00    -0.275 OA
ATOM      6  H   UNL A   1      38.540  22.489  23.956  1.00  0.00     0.163 HD
BRANCH   4   7
ATOM      7  C   UNL A   1      35.248  22.300  24.637  1.00  0.00     0.133 C 
ATOM      8  N   UNL A   1      32.785  22.722  24.448  1.00  0.00    -0.334 N 
ATOM      9  C   UNL A   1      32.536  21.266  24.386  1.00  0.00     0.262 C 
ATOM     10  C   UNL A   1      34.121  23.010  23.867  1.00  0.00     0.275 C 
ATOM     11  H   UNL A   1      32.750  23.013  25.424  1.00  0.00     0.348 HD
ATOM     12  C   UNL A   1      33.573  20.513  25.218  1.00  0.00     0.062 C 
ATOM     13  C   UNL A   1      34.986  20.793  24.725  1.00  0.00     0.025 C 
BRANCH   8  14
ATOM     14  C   UNL A   1      31.749  23.480  23.704  1.00  0.00     0.272 C 
BRANCH  14  15
ATOM     15  C   UNL A   1      30.873  24.387  24.575  1.00  0.00     0.161 C 
BRANCH  15  16
ATOM     16  C   UNL A   1      31.618  25.348  25.488  1.00  0.00     0.230 C 
ATOM     17  O   UNL A   1      32.376  24.907  26.350  1.00  0.00    -0.275 OA
ATOM     18  N   UNL A   1      31.412  26.683  25.205  1.00  0.00    -0.326 N 
ATOM     19  H   UNL A   1      30.718  26.886  24.536  1.00  0.00     0.169 HD
BRANCH  18  20
ATOM     20  C   UNL A   1      32.083  27.785  25.764  1.00  0.00     0.044 A 
ATOM     21  C   UNL A   1      33.314  27.545  26.393  1.00  0.00     0.026 A 
ATOM     22  C   UNL A   1      31.577  29.085  25.741  1.00  0.00     0.065 A 
ATOM     23  C   UNL A   1      34.045  28.597  26.956  1.00  0.00     0.005 A 
ATOM     24  C   UNL A   1      32.302  30.122  26.322  1.00  0.00     0.125 A 
ATOM     25  C   UNL A   1      33.535  29.892  26.919  1.00  0.00     0.039 A 
ATOM     26  F   UNL A   1      31.799  31.364  26.312  1.00  0.00    -0.207 F 
ENDBRANCH  18  20
ENDBRANCH  15  16
ENDBRANCH  14  15
ENDBRANCH   8  14
ENDBRANCH   4   7
ENDBRANCH   2   3
ENDBRANCH   1   2
BRANCH   1  27
ATOM     27  C   UNL A   1      40.343  22.202  27.061  1.00  0.00     0.023 C 
BRANCH  27  28
ATOM     28  C   UNL A   1      41.582  23.084  27.199  1.00  0.00     0.116 C 
BRANCH  28  29
ATOM     29  N   UNL A   1      41.781  23.976  26.069  1.00  0.00    -0.352 N 
ATOM     30  C   UNL A   1      41.750  25.350  26.019  1.00  0.00     0.251 C 
ATOM     31  H   UNL A   1      41.965  23.530  25.210  1.00  0.00     0.163 HD
ATOM     32  O   UNL A   1      41.814  25.915  24.928  1.00  0.00    -0.269 OA
BRANCH  30  33
ATOM     33  C   UNL A   1      41.605  26.151  27.259  1.00  0.00     0.039 A 
ATOM     34  C   UNL A   1      42.613  27.061  27.594  1.00  0.00     0.014 A 
ATOM     35  C   UNL A   1      40.494  26.010  28.094  1.00  0.00     0.014 A 
ATOM     36  C   UNL A   1      42.469  27.878  28.720  1.00  0.00     0.010 A 
ATOM     37  C   UNL A   1      40.318  26.877  29.173  1.00  0.00     0.010 A 
ATOM     38  C   UNL A   1      41.300  27.825  29.497  1.00  0.00    -0.014 A 
BRANCH  38  39
ATOM     39  C   UNL A   1      41.083  28.762  30.633  1.00  0.00     0.031 A 
ATOM     40  C   UNL A   1      41.901  28.641  31.892  1.00  0.00     0.074 A 
ATOM     41  C   UNL A   1      40.104  29.686  30.558  1.00  0.00     0.049 A 
ATOM     42  N   UNL A   1      41.807  29.320  33.007  1.00  0.00    -0.248 NA
ATOM     43  C   UNL A   1      42.946  27.606  31.909  1.00  0.00     0.031 C 
ATOM     44  C   UNL A   1      39.211  29.880  29.413  1.00  0.00     0.029 A 
ATOM     45  N   UNL A   1      39.684  30.630  31.464  1.00  0.00    -0.354 N 
ATOM     46  C   UNL A   1      42.770  28.790  33.859  1.00  0.00     0.074 A 
ATOM     47  C   UNL A   1      43.400  27.697  33.151  1.00  0.00     0.031 C 
ATOM     48  C   UNL A   1      38.367  30.891  29.677  1.00  0.00     0.029 A 
ATOM     49  C   UNL A   1      38.624  31.390  31.024  1.00  0.00     0.049 A 
ATOM     50  H   UNL A   1      40.103  30.751  32.348  1.00  0.00     0.167 HD
ATOM     51  C   UNL A   1      43.114  29.190  35.107  1.00  0.00     0.037 A 
ATOM     52  C   UNL A   1      37.929  32.368  31.638  1.00  0.00     0.037 A 
ATOM     53  C   UNL A   1      42.494  30.290  35.803  1.00  0.00     0.049 A 
ATOM     54  C   UNL A   1      38.316  32.782  33.032  1.00  0.00     0.074 A 
ATOM     55  C   UNL A   1      42.808  30.805  37.049  1.00  0.00     0.029 A 
ATOM     56  N   UNL A   1      41.432  31.041  35.318  1.00  0.00    -0.354 N 
ATOM     57  N   UNL A   1      39.272  32.310  33.798  1.00  0.00    -0.248 NA
ATOM     58  C   UNL A   1      37.534  33.864  33.647  1.00  0.00     0.031 C 
ATOM     59  C   UNL A   1      41.902  31.831  37.341  1.00  0.00     0.029 A 
ATOM     60  C   UNL A   1      41.063  31.997  36.251  1.00  0.00     0.049 A 
ATOM     61  H   UNL A   1      41.004  30.913  34.441  1.00  0.00     0.167 HD
ATOM     62  C   UNL A   1      39.227  33.059  34.969  1.00  0.00     0.074 A 
ATOM     63  C   UNL A   1      38.158  34.023  34.806  1.00  0.00     0.031 C 
ATOM     64  C   UNL A   1      40.003  32.959  36.076  1.00  0.00     0.037 A 
BRANCH  51  65
ATOM     65  C   UNL A   1      44.212  28.436  35.808  1.00  0.00     0.058 A 
ATOM     66  C   UNL A   1      43.938  27.338  36.641  1.00  0.00     0.135 A 
ATOM     67  C   UNL A   1      45.559  28.782  35.607  1.00  0.00     0.135 A 
ATOM     68  F   UNL A   1      42.670  26.970  36.880  1.00  0.00    -0.206 F 
ATOM     69  C   UNL A   1      44.956  26.632  37.273  1.00  0.00     0.059 A 
ATOM     70  C   UNL A   1      46.595  28.069  36.205  1.00  0.00     0.059 A 
ATOM     71  F   UNL A   1      45.880  29.820  34.820  1.00  0.00    -0.206 F 
ATOM     72  C   UNL A   1      46.283  27.004  37.048  1.00  0.00     0.060 A 
BRANCH  72  73
ATOM     73  S   UNL A   1      47.590  26.070  37.870  1.00  0.00     0.124 S 
ATOM     74  O   UNL A   1      47.455  26.533  39.248  1.00  0.00    -0.237 OA
ATOM     75  O   UNL A   1      47.189  24.689  37.624  1.00  0.00    -0.237 OA
ATOM     76  O   UNL A   1      48.802  26.502  37.181  1.00  0.00    -0.744 OA
ENDBRANCH  72  73
ENDBRANCH  51  65
BRANCH  52  77
ATOM     77  C   UNL A   1      36.800  33.035  30.932  1.00  0.00     0.058 A 
ATOM     78  C   UNL A   1      35.468  32.724  31.242  1.00  0.00     0.135 A 
ATOM     79  C   UNL A   1      37.030  33.997  29.935  1.00  0.00     0.135 A 
ATOM     80  F   UNL A   1      35.194  31.805  32.181  1.00  0.00    -0.206 F 
ATOM     81  C   UNL A   1      34.404  33.326  30.577  1.00  0.00     0.059 A 
ATOM     82  C   UNL A   1      35.982  34.634  29.277  1.00  0.00     0.059 A 
ATOM     83  F   UNL A   1      38.285  34.342  29.610  1.00  0.00    -0.206 F 
ATOM     84  C   UNL A   1      34.672  34.284  29.598  1.00  0.00     0.060 A 
BRANCH  84  85
ATOM     85  S   UNL A   1      33.283  35.090  28.773  1.00  0.00     0.124 S 
ATOM     86  O   UNL A   1      33.959  36.138  28.015  1.00  0.00    -0.237 OA
ATOM     87  O   UNL A   1      32.718  33.997  27.987  1.00  0.00    -0.237 OA
ATOM     88  O   UNL A   1      32.453  35.548  29.883  1.00  0.00    -0.744 OA
ENDBRANCH  84  85
ENDBRANCH  52  77
BRANCH  64  89
ATOM     89  C   UNL A   1      39.757  33.941  37.191  1.00  0.00     0.058 A 
ATOM     90  C   UNL A   1      38.947  33.626  38.294  1.00  0.00     0.135 A 
ATOM     91  C   UNL A   1      40.384  35.199  37.178  1.00  0.00     0.135 A 
ATOM     92  F   UNL A   1      38.319  32.441  38.354  1.00  0.00    -0.206 F 
ATOM     93  C   UNL A   1      38.748  34.531  39.332  1.00  0.00     0.059 A 
ATOM     94  C   UNL A   1      40.224  36.106  38.220  1.00  0.00     0.059 A 
ATOM     95  F   UNL A   1      41.176  35.548  36.153  1.00  0.00    -0.206 F 
ATOM     96  C   UNL A   1      39.394  35.768  39.288  1.00  0.00     0.060 A 
BRANCH  96  97
ATOM     97  S   UNL A   1      39.154  36.918  40.658  1.00  0.00     0.124 S 
ATOM     98  O   UNL A   1      40.525  37.334  40.937  1.00  0.00    -0.237 OA
ATOM     99  O   UNL A   1      38.291  37.936  40.064  1.00  0.00    -0.237 OA
ATOM    100  O   UNL A   1      38.527  36.096  41.688  1.00  0.00    -0.744 OA
ENDBRANCH  96  97
ENDBRANCH  64  89
ENDBRANCH  38  39
ENDBRANCH  30  33
ENDBRANCH  28  29
ENDBRANCH  27  28
ENDBRANCH   1  27
TORSDOF 18
ENDMDL
MODEL 2
REMARK VINA RESULT:     -11.7      4.886     10.540
REMARK SMILES O=C(CC[N@H+]1CCC[C@@H](C(=O)NCCCCNC(=O)c2ccc(-c3c4nc(c(-c5c(F)cc(S(=O)(=O)[O-])cc5F)c5ccc([nH]5)c(-c5c(F)cc(S(=O)(=O)[O-])cc5F)c5nc(c(-c6c(F)cc(S(=O)(=O)[O-])cc6F)c6ccc3[nH]6)C=C5)C=C4)cc2)C1)Nc1cccc(F)c1
REMARK SMILES IDX 14 1 13 2 12 3 10 4 11 5 9 7 5 8 6 9 86 10 7 12 8 13 4 14
REMARK SMILES IDX 3 15 2 16 1 17 87 18 88 20 89 21 94 22 90 23 92 24 91 25
REMARK SMILES IDX 93 26 15 27 16 28 17 29 18 30 19 32 20 33 21 34 85 35 22 36
REMARK SMILES IDX 84 37 23 38 24 39 25 40 78 41 26 42 83 43 77 44 79 45 27 46
REMARK SMILES IDX 82 47 76 48 75 49 28 51 62 52 41 53 61 54 42 55 45 56 60 57
REMARK SMILES IDX 80 58 43 59 44 60 59 62 81 63 46 64 29 65 30 66 39 67 31 68
REMARK SMILES IDX 32 69 38 70 40 71 33 72 34 73 35 74 36 75 37 76 63 77 64 78
REMARK SMILES IDX 73 79 65 80 66 81 72 82 74 83 67 84 68 85 69 86 70 87 71 88
REMARK SMILES IDX 47 89 48 90 57 91 49 92 50 93 56 94 58 95 51 96 52 97 53 98
REMARK SMILES IDX 54 99 55 100
REMARK H PARENT 12 6 5 11 87 19 17 31 79 50 45 61
REMARK Flexibility Score: inf
ROOT
ATOM      1  C   UNL A   1      31.511  28.971  26.011  1.00  0.00     0.023 C 
ENDROOT
BRANCH   1   2
ATOM      2  C   UNL A   1      32.084  29.525  24.706  1.00  0.00     0.116 C 
BRANCH   2   3
ATOM      3  N   UNL A   1      31.225  29.275  23.564  1.00  0.00    -0.356 N 
ATOM      4  C   UNL A   1      31.076  28.161  22.797  1.00  0.00     0.228 C 
ATOM      5  O   UNL A   1      30.215  28.177  21.916  1.00  0.00    -0.275 OA
ATOM      6  H   UNL A   1      30.655  30.034  23.303  1.00  0.00     0.163 HD
BRANCH   4   7
ATOM      7  C   UNL A   1      31.935  26.930  23.045  1.00  0.00     0.133 C 
ATOM      8  N   UNL A   1      31.794  24.584  23.913  1.00  0.00    -0.334 N 
ATOM      9  C   UNL A   1      32.166  24.064  22.580  1.00  0.00     0.262 C 
ATOM     10  C   UNL A   1      31.070  25.870  23.747  1.00  0.00     0.275 C 
ATOM     11  H   UNL A   1      32.647  24.723  24.454  1.00  0.00     0.348 HD
ATOM     12  C   UNL A   1      33.109  25.037  21.874  1.00  0.00     0.062 C 
ATOM     13  C   UNL A   1      32.466  26.407  21.706  1.00  0.00     0.025 C 
BRANCH   8  14
ATOM     14  C   UNL A   1      30.934  23.624  24.648  1.00  0.00     0.272 C 
BRANCH  14  15
ATOM     15  C   UNL A   1      31.672  22.768  25.683  1.00  0.00     0.161 C 
BRANCH  15  16
ATOM     16  C   UNL A   1      33.150  23.076  25.864  1.00  0.00     0.230 C 
ATOM     17  O   UNL A   1      33.497  23.972  26.631  1.00  0.00    -0.275 OA
ATOM     18  N   UNL A   1      33.998  22.239  25.169  1.00  0.00    -0.326 N 
ATOM     19  H   UNL A   1      33.575  21.616  24.535  1.00  0.00     0.169 HD
BRANCH  18  20
ATOM     20  C   UNL A   1      35.400  22.176  25.266  1.00  0.00     0.044 A 
ATOM     21  C   UNL A   1      36.010  20.928  25.069  1.00  0.00     0.026 A 
ATOM     22  C   UNL A   1      36.199  23.280  25.568  1.00  0.00     0.065 A 
ATOM     23  C   UNL A   1      37.402  20.796  25.134  1.00  0.00     0.005 A 
ATOM     24  C   UNL A   1      37.581  23.133  25.651  1.00  0.00     0.125 A 
ATOM     25  C   UNL A   1      38.190  21.905  25.426  1.00  0.00     0.039 A 
ATOM     26  F   UNL A   1      38.339  24.194  25.960  1.00  0.00    -0.207 F 
ENDBRANCH  18  20
ENDBRANCH  15  16
ENDBRANCH  14  15
ENDBRANCH   8  14
ENDBRANCH   4   7
ENDBRANCH   2   3
ENDBRANCH   1   2
BRANCH   1  27
ATOM     27  C   UNL A   1      32.410  27.973  26.750  1.00  0.00     0.023 C 
BRANCH  27  28
ATOM     28  C   UNL A   1      33.749  28.515  27.245  1.00  0.00     0.116 C 
BRANCH  28  29
ATOM     29  N   UNL A   1      33.679  29.896  27.695  1.00  0.00    -0.352 N 
ATOM     30  C   UNL A   1      34.630  30.662  28.328  1.00  0.00     0.251 C 
ATOM     31  H   UNL A   1      32.822  30.350  27.522  1.00  0.00     0.163 HD
ATOM     32  O   UNL A   1      34.324  31.778  28.747  1.00  0.00    -0.269 OA
BRANCH  30  33
ATOM     33  C   UNL A   1      36.003  30.144  28.540  1.00  0.00     0.039 A 
ATOM     34  C   UNL A   1      36.912  30.193  27.479  1.00  0.00     0.014 A 
ATOM     35  C   UNL A   1      36.400  29.607  29.767  1.00  0.00     0.014 A 
ATOM     36  C   UNL A   1      38.234  29.776  27.671  1.00  0.00     0.010 A 
ATOM     37  C   UNL A   1      37.735  29.262  29.979  1.00  0.00     0.010 A 
ATOM     38  C   UNL A   1      38.670  29.346  28.936  1.00  0.00    -0.014 A 
BRANCH  38  39
ATOM     39  C   UNL A   1      40.097  29.002  29.186  1.00  0.00     0.031 A 
ATOM     40  C   UNL A   1      41.044  30.029  29.751  1.00  0.00     0.074 A 
ATOM     41  C   UNL A   1      40.558  27.781  28.847  1.00  0.00     0.049 A 
ATOM     42  N   UNL A   1      42.330  29.932  29.971  1.00  0.00    -0.248 NA
ATOM     43  C   UNL A   1      40.475  31.342  30.091  1.00  0.00     0.031 C 
ATOM     44  C   UNL A   1      39.755  26.710  28.251  1.00  0.00     0.029 A 
ATOM     45  N   UNL A   1      41.815  27.235  28.941  1.00  0.00    -0.354 N 
ATOM     46  C   UNL A   1      42.726  31.171  30.465  1.00  0.00     0.074 A 
ATOM     47  C   UNL A   1      41.553  32.018  30.459  1.00  0.00     0.031 C 
ATOM     48  C   UNL A   1      40.533  25.632  28.054  1.00  0.00     0.029 A 
ATOM     49  C   UNL A   1      41.898  25.946  28.465  1.00  0.00     0.049 A 
ATOM     50  H   UNL A   1      42.586  27.721  29.314  1.00  0.00     0.167 HD
ATOM     51  C   UNL A   1      43.948  31.560  30.902  1.00  0.00     0.037 A 
ATOM     52  C   UNL A   1      42.953  25.114  28.359  1.00  0.00     0.037 A 
ATOM     53  C   UNL A   1      45.110  30.708  30.920  1.00  0.00     0.049 A 
ATOM     54  C   UNL A   1      44.304  25.576  28.833  1.00  0.00     0.074 A 
ATOM     55  C   UNL A   1      46.379  30.994  31.393  1.00  0.00     0.029 A 
ATOM     56  N   UNL A   1      45.149  29.406  30.440  1.00  0.00    -0.354 N 
ATOM     57  N   UNL A   1      44.645  26.731  29.355  1.00  0.00    -0.248 NA
ATOM     58  C   UNL A   1      45.416  24.622  28.709  1.00  0.00     0.031 C 
ATOM     59  C   UNL A   1      47.199  29.887  31.150  1.00  0.00     0.029 A 
ATOM     60  C   UNL A   1      46.426  28.887  30.582  1.00  0.00     0.049 A 
ATOM     61  H   UNL A   1      44.383  28.923  30.055  1.00  0.00     0.167 HD
ATOM     62  C   UNL A   1      46.001  26.629  29.651  1.00  0.00     0.074 A 
ATOM     63  C   UNL A   1      46.414  25.297  29.261  1.00  0.00     0.031 C 
ATOM     64  C   UNL A   1      46.826  27.555  30.199  1.00  0.00     0.037 A 
BRANCH  51  65
ATOM     65  C   UNL A   1      44.097  32.974  31.400  1.00  0.00     0.058 A 
ATOM     66  C   UNL A   1      43.937  33.299  32.757  1.00  0.00     0.135 A 
ATOM     67  C   UNL A   1      44.452  34.009  30.519  1.00  0.00     0.135 A 
ATOM     68  F   UNL A   1      43.585  32.354  33.642  1.00  0.00    -0.206 F 
ATOM     69  C   UNL A   1      44.094  34.602  33.217  1.00  0.00     0.059 A 
ATOM     70  C   UNL A   1      44.644  35.315  30.962  1.00  0.00     0.059 A 
ATOM     71  F   UNL A   1      44.621  33.756  29.211  1.00  0.00    -0.206 F 
ATOM     72  C   UNL A   1      44.448  35.604  32.311  1.00  0.00     0.060 A 
BRANCH  72  73
ATOM     73  S   UNL A   1      44.654  37.288  32.929  1.00  0.00     0.124 S 
ATOM     74  O   UNL A   1      46.108  37.393  33.005  1.00  0.00    -0.237 OA
ATOM     75  O   UNL A   1      44.015  38.083  31.885  1.00  0.00    -0.237 OA
ATOM     76  O   UNL A   1      43.960  37.267  34.212  1.00  0.00    -0.744 OA
ENDBRANCH  72  73
ENDBRANCH  51  65
BRANCH  52  77
ATOM     77  C   UNL A   1      42.771  23.750  27.790  1.00  0.00     0.058 A 
ATOM     78  C   UNL A   1      42.811  23.533  26.404  1.00  0.00     0.135 A 
ATOM     79  C   UNL A   1      42.556  22.637  28.618  1.00  0.00     0.135 A 
ATOM     80  F   UNL A   1      43.004  24.565  25.569  1.00  0.00    -0.206 F 
ATOM     81  C   UNL A   1      42.624  22.267  25.858  1.00  0.00     0.059 A 
ATOM     82  C   UNL A   1      42.396  21.356  28.097  1.00  0.00     0.059 A 
ATOM     83  F   UNL A   1      42.525  22.786  29.951  1.00  0.00    -0.206 F 
ATOM     84  C   UNL A   1      42.421  21.183  26.714  1.00  0.00     0.060 A 
BRANCH  84  85
ATOM     85  S   UNL A   1      42.224  19.538  25.997  1.00  0.00     0.124 S 
ATOM     86  O   UNL A   1      42.647  18.683  27.100  1.00  0.00    -0.237 OA
ATOM     87  O   UNL A   1      40.799  19.512  25.679  1.00  0.00    -0.237 OA
ATOM     88  O   UNL A   1      43.115  19.566  24.841  1.00  0.00    -0.744 OA
ENDBRANCH  84  85
ENDBRANCH  52  77
BRANCH  64  89
ATOM     89  C   UNL A   1      48.256  27.153  30.450  1.00  0.00     0.058 A 
ATOM     90  C   UNL A   1      49.281  27.443  29.536  1.00  0.00     0.135 A 
ATOM     91  C   UNL A   1      48.611  26.512  31.649  1.00  0.00     0.135 A 
ATOM     92  F   UNL A   1      48.996  28.049  28.371  1.00  0.00    -0.206 F 
ATOM     93  C   UNL A   1      50.603  27.092  29.790  1.00  0.00     0.059 A 
ATOM     94  C   UNL A   1      49.931  26.181  31.937  1.00  0.00     0.059 A 
ATOM     95  F   UNL A   1      47.672  26.220  32.563  1.00  0.00    -0.206 F 
ATOM     96  C   UNL A   1      50.919  26.463  30.996  1.00  0.00     0.060 A 
BRANCH  96  97
ATOM     97  S   UNL A   1      52.643  26.044  31.327  1.00  0.00     0.124 S 
ATOM     98  O   UNL A   1      52.514  24.723  31.932  1.00  0.00    -0.237 OA
ATOM     99  O   UNL A   1      53.234  26.076  29.992  1.00  0.00    -0.237 OA
ATOM    100  O   UNL A   1      53.085  27.105  32.228  1.00  0.00    -0.744 OA
ENDBRANCH  96  97
ENDBRANCH  64  89
ENDBRANCH  38  39
ENDBRANCH  30  33
ENDBRANCH  28  29
ENDBRANCH  27  28
ENDBRANCH   1  27
TORSDOF 18
ENDMDL
MODEL 3
REMARK VINA RESULT:     -11.7      1.298      2.312
REMARK SMILES O=C(CC[N@H+]1CCC[C@@H](C(=O)NCCCCNC(=O)c2ccc(-c3c4nc(c(-c5c(F)cc(S(=O)(=O)[O-])cc5F)c5ccc([nH]5)c(-c5c(F)cc(S(=O)(=O)[O-])cc5F)c5nc(c(-c6c(F)cc(S(=O)(=O)[O-])cc6F)c6ccc3[nH]6)C=C5)C=C4)cc2)C1)Nc1cccc(F)c1
REMARK SMILES IDX 14 1 13 2 12 3 10 4 11 5 9 7 5 8 6 9 86 10 7 12 8 13 4 14
REMARK SMILES IDX 3 15 2 16 1 17 87 18 88 20 89 21 94 22 90 23 92 24 91 25
REMARK SMILES IDX 93 26 15 27 16 28 17 29 18 30 19 32 20 33 21 34 85 35 22 36
REMARK SMILES IDX 84 37 23 38 24 39 25 40 78 41 26 42 83 43 77 44 79 45 27 46
REMARK SMILES IDX 82 47 76 48 75 49 28 51 62 52 41 53 61 54 42 55 45 56 60 57
REMARK SMILES IDX 80 58 43 59 44 60 59 62 81 63 46 64 29 65 30 66 39 67 31 68
REMARK SMILES IDX 32 69 38 70 40 71 33 72 34 73 35 74 36 75 37 76 63 77 64 78
REMARK SMILES IDX 73 79 65 80 66 81 72 82 74 83 67 84 68 85 69 86 70 87 71 88
REMARK SMILES IDX 47 89 48 90 57 91 49 92 50 93 56 94 58 95 51 96 52 97 53 98
REMARK SMILES IDX 54 99 55 100
REMARK H PARENT 12 6 5 11 87 19 17 31 79 50 45 61
REMARK Flexibility Score: inf
ROOT
ATOM      1  C   UNL A   1      39.040  22.860  26.395  1.00  0.00     0.023 C 
ENDROOT
BRANCH   1   2
ATOM      2  C   UNL A   1      37.928  22.011  25.778  1.00  0.00     0.116 C 
BRANCH   2   3
ATOM      3  N   UNL A   1      37.596  22.416  24.426  1.00  0.00    -0.356 N 
ATOM      4  C   UNL A   1      36.413  22.820  23.889  1.00  0.00     0.228 C 
ATOM      5  O   UNL A   1      36.407  23.185  22.713  1.00  0.00    -0.275 OA
ATOM      6  H   UNL A   1      38.351  22.397  23.793  1.00  0.00     0.163 HD
BRANCH   4   7
ATOM      7  C   UNL A   1      35.147  22.839  24.733  1.00  0.00     0.133 C 
ATOM      8  N   UNL A   1      33.340  24.386  25.519  1.00  0.00    -0.334 N 
ATOM      9  C   UNL A   1      32.335  23.596  24.775  1.00  0.00     0.262 C 
ATOM     10  C   UNL A   1      34.646  24.290  24.819  1.00  0.00     0.275 C 
ATOM     11  H   UNL A   1      33.413  24.006  26.463  1.00  0.00     0.348 HD
ATOM     12  C   UNL A   1      32.734  22.122  24.742  1.00  0.00     0.062 C 
ATOM     13  C   UNL A   1      34.095  21.933  24.085  1.00  0.00     0.025 C 
BRANCH   8  14
ATOM     14  C   UNL A   1      32.939  25.810  25.626  1.00  0.00     0.272 C 
BRANCH  14  15
ATOM     15  C   UNL A   1      32.493  26.449  24.307  1.00  0.00     0.161 C 
BRANCH  15  16
ATOM     16  C   UNL A   1      31.091  27.036  24.296  1.00  0.00     0.230 C 
ATOM     17  O   UNL A   1      30.222  26.553  25.020  1.00  0.00    -0.275 OA
ATOM     18  N   UNL A   1      30.940  28.146  23.489  1.00  0.00    -0.326 N 
ATOM     19  H   UNL A   1      31.703  28.371  22.910  1.00  0.00     0.169 HD
BRANCH  18  20
ATOM     20  C   UNL A   1      29.818  28.989  23.404  1.00  0.00     0.044 A 
ATOM     21  C   UNL A   1      28.603  28.416  22.999  1.00  0.00     0.026 A 
ATOM     22  C   UNL A   1      29.863  30.357  23.678  1.00  0.00     0.065 A 
ATOM     23  C   UNL A   1      27.443  29.192  22.909  1.00  0.00     0.005 A 
ATOM     24  C   UNL A   1      28.707  31.125  23.564  1.00  0.00     0.125 A 
ATOM     25  C   UNL A   1      27.496  30.554  23.194  1.00  0.00     0.039 A 
ATOM     26  F   UNL A   1      28.763  32.441  23.811  1.00  0.00    -0.207 F 
ENDBRANCH  18  20
ENDBRANCH  15  16
ENDBRANCH  14  15
ENDBRANCH   8  14
ENDBRANCH   4   7
ENDBRANCH   2   3
ENDBRANCH   1   2
BRANCH   1  27
ATOM     27  C   UNL A   1      40.289  22.086  26.831  1.00  0.00     0.023 C 
BRANCH  27  28
ATOM     28  C   UNL A   1      41.540  22.923  27.090  1.00  0.00     0.116 C 
BRANCH  28  29
ATOM     29  N   UNL A   1      41.879  23.806  25.986  1.00  0.00    -0.352 N 
ATOM     30  C   UNL A   1      41.941  25.180  25.949  1.00  0.00     0.251 C 
ATOM     31  H   UNL A   1      42.096  23.353  25.139  1.00  0.00     0.163 HD
ATOM     32  O   UNL A   1      42.122  25.745  24.871  1.00  0.00    -0.269 OA
BRANCH  30  33
ATOM     33  C   UNL A   1      41.759  25.982  27.183  1.00  0.00     0.039 A 
ATOM     34  C   UNL A   1      42.852  26.689  27.694  1.00  0.00     0.014 A 
ATOM     35  C   UNL A   1      40.529  26.038  27.842  1.00  0.00     0.014 A 
ATOM     36  C   UNL A   1      42.691  27.508  28.816  1.00  0.00     0.010 A 
ATOM     37  C   UNL A   1      40.351  26.912  28.915  1.00  0.00     0.010 A 
ATOM     38  C   UNL A   1      41.428  27.662  29.412  1.00  0.00    -0.014 A 
BRANCH  38  39
ATOM     39  C   UNL A   1      41.215  28.612  30.539  1.00  0.00     0.031 A 
ATOM     40  C   UNL A   1      42.046  28.512  31.792  1.00  0.00     0.074 A 
ATOM     41  C   UNL A   1      40.229  29.529  30.460  1.00  0.00     0.049 A 
ATOM     42  N   UNL A   1      41.957  29.205  32.899  1.00  0.00    -0.248 NA
ATOM     43  C   UNL A   1      43.097  27.484  31.812  1.00  0.00     0.031 C 
ATOM     44  C   UNL A   1      39.324  29.702  29.322  1.00  0.00     0.029 A 
ATOM     45  N   UNL A   1      39.811  30.481  31.359  1.00  0.00    -0.354 N 
ATOM     46  C   UNL A   1      42.931  28.692  33.748  1.00  0.00     0.074 A 
ATOM     47  C   UNL A   1      43.562  27.594  33.048  1.00  0.00     0.031 C 
ATOM     48  C   UNL A   1      38.476  30.711  29.580  1.00  0.00     0.029 A 
ATOM     49  C   UNL A   1      38.742  31.228  30.919  1.00  0.00     0.049 A 
ATOM     50  H   UNL A   1      40.237  30.616  32.237  1.00  0.00     0.167 HD
ATOM     51  C   UNL A   1      43.283  29.111  34.988  1.00  0.00     0.037 A 
ATOM     52  C   UNL A   1      38.046  32.209  31.527  1.00  0.00     0.037 A 
ATOM     53  C   UNL A   1      42.662  30.215  35.675  1.00  0.00     0.049 A 
ATOM     54  C   UNL A   1      38.443  32.643  32.912  1.00  0.00     0.074 A 
ATOM     55  C   UNL A   1      42.984  30.748  36.912  1.00  0.00     0.029 A 
ATOM     56  N   UNL A   1      41.591  30.953  35.191  1.00  0.00    -0.354 N 
ATOM     57  N   UNL A   1      39.409  32.188  33.674  1.00  0.00    -0.248 NA
ATOM     58  C   UNL A   1      37.660  33.729  33.520  1.00  0.00     0.031 C 
ATOM     59  C   UNL A   1      42.075  31.771  37.199  1.00  0.00     0.029 A 
ATOM     60  C   UNL A   1      41.224  31.918  36.115  1.00  0.00     0.049 A 
ATOM     61  H   UNL A   1      41.156  30.811  34.319  1.00  0.00     0.167 HD
ATOM     62  C   UNL A   1      39.369  32.952  34.837  1.00  0.00     0.074 A 
ATOM     63  C   UNL A   1      38.293  33.907  34.671  1.00  0.00     0.031 C 
ATOM     64  C   UNL A   1      40.156  32.871  35.938  1.00  0.00     0.037 A 
BRANCH  51  65
ATOM     65  C   UNL A   1      44.393  28.372  35.689  1.00  0.00     0.058 A 
ATOM     66  C   UNL A   1      45.737  28.757  35.551  1.00  0.00     0.135 A 
ATOM     67  C   UNL A   1      44.107  27.298  36.547  1.00  0.00     0.135 A 
ATOM     68  F   UNL A   1      46.071  29.768  34.734  1.00  0.00    -0.206 F 
ATOM     69  C   UNL A   1      46.759  28.085  36.214  1.00  0.00     0.059 A 
ATOM     70  C   UNL A   1      45.111  26.630  37.245  1.00  0.00     0.059 A 
ATOM     71  F   UNL A   1      42.840  26.888  36.719  1.00  0.00    -0.206 F 
ATOM     72  C   UNL A   1      46.435  27.022  37.060  1.00  0.00     0.060 A 
BRANCH  72  73
ATOM     73  S   UNL A   1      47.774  26.167  37.917  1.00  0.00     0.124 S 
ATOM     74  O   UNL A   1      48.948  26.810  37.336  1.00  0.00    -0.237 OA
ATOM     75  O   UNL A   1      47.503  26.486  39.315  1.00  0.00    -0.237 OA
ATOM     76  O   UNL A   1      47.578  24.769  37.545  1.00  0.00    -0.744 OA
ENDBRANCH  72  73
ENDBRANCH  51  65
BRANCH  52  77
ATOM     77  C   UNL A   1      36.907  32.860  30.822  1.00  0.00     0.058 A 
ATOM     78  C   UNL A   1      37.121  33.914  29.921  1.00  0.00     0.135 A 
ATOM     79  C   UNL A   1      35.583  32.442  31.033  1.00  0.00     0.135 A 
ATOM     80  F   UNL A   1      38.366  34.358  29.691  1.00  0.00    -0.206 F 
ATOM     81  C   UNL A   1      36.065  34.544  29.270  1.00  0.00     0.059 A 
ATOM     82  C   UNL A   1      34.513  33.037  30.372  1.00  0.00     0.059 A 
ATOM     83  F   UNL A   1      35.324  31.428  31.873  1.00  0.00    -0.206 F 
ATOM     84  C   UNL A   1      34.763  34.095  29.499  1.00  0.00     0.060 A 
BRANCH  84  85
ATOM     85  S   UNL A   1      33.405  34.890  28.616  1.00  0.00     0.124 S 
ATOM     86  O   UNL A   1      34.117  35.852  27.783  1.00  0.00    -0.237 OA
ATOM     87  O   UNL A   1      32.797  33.764  27.913  1.00  0.00    -0.237 OA
ATOM     88  O   UNL A   1      32.594  35.460  29.688  1.00  0.00    -0.744 OA
ENDBRANCH  84  85
ENDBRANCH  52  77
BRANCH  64  89
ATOM     89  C   UNL A   1      39.913  33.865  37.042  1.00  0.00     0.058 A 
ATOM     90  C   UNL A   1      40.441  35.165  37.001  1.00  0.00     0.135 A 
ATOM     91  C   UNL A   1      39.097  33.525  38.134  1.00  0.00     0.135 A 
ATOM     92  F   UNL A   1      41.232  35.542  35.983  1.00  0.00    -0.206 F 
ATOM     93  C   UNL A   1      40.188  36.086  38.013  1.00  0.00     0.059 A 
ATOM     94  C   UNL A   1      38.806  34.439  39.142  1.00  0.00     0.059 A 
ATOM     95  F   UNL A   1      38.559  32.298  38.220  1.00  0.00    -0.206 F 
ATOM     96  C   UNL A   1      39.366  35.714  39.079  1.00  0.00     0.060 A 
BRANCH  96  97
ATOM     97  S   UNL A   1      39.018  36.929  40.368  1.00  0.00     0.124 S 
ATOM     98  O   UNL A   1      38.490  38.043  39.587  1.00  0.00    -0.237 OA
ATOM     99  O   UNL A   1      38.049  36.226  41.205  1.00  0.00    -0.237 OA
ATOM    100  O   UNL A   1      40.322  37.156  40.983  1.00  0.00    -0.744 OA
ENDBRANCH  96  97
ENDBRANCH  64  89
ENDBRANCH  38  39
ENDBRANCH  30  33
ENDBRANCH  28  29
ENDBRANCH  27  28
ENDBRANCH   1  27
TORSDOF 18
ENDMDL
