MODEL 1
REMARK VINA RESULT:     -12.6      0.000      0.000
REMARK SMILES CN1C(=O)C[C@@H](C(=O)NCCCCNC(=O)c2ccc(-c3c4nc(c(-c5c(F)cc(S(=O)(=O)[O-])cc5F)c5ccc([nH]5)c(-c5c(F)cc(S(=O)(=O)[O-])cc5F)c5nc(c(-c6c(F)cc(S(=O)(=O)[O-])cc6F)c6ccc3[nH]6)C=C5)C=C4)cc2)C12CCN(S(=O)(=O)c1ccccc1F)CC2
REMARK SMILES IDX 12 1 11 2 10 3 9 4 7 5 8 6 6 8 1 9 2 10 3 11 83 12 4 13 5 14
REMARK SMILES IDX 84 15 98 16 85 17 97 18 86 19 87 20 88 21 89 22 90 23 91 24
REMARK SMILES IDX 95 25 92 26 94 27 96 28 93 29 13 30 14 31 15 32 16 34 17 35
REMARK SMILES IDX 18 36 82 37 19 38 81 39 20 40 21 41 22 42 75 43 23 44 80 45
REMARK SMILES IDX 74 46 76 47 24 48 79 49 73 50 72 51 25 53 59 54 38 55 58 56
REMARK SMILES IDX 39 57 42 58 57 59 77 60 40 61 41 62 56 64 78 65 43 66 26 67
REMARK SMILES IDX 27 68 36 69 28 70 29 71 35 72 37 73 30 74 31 75 32 76 33 77
REMARK SMILES IDX 34 78 60 79 61 80 70 81 62 82 63 83 69 84 71 85 64 86 65 87
REMARK SMILES IDX 66 88 67 89 68 90 44 91 45 92 54 93 46 94 47 95 53 96 55 97
REMARK SMILES IDX 48 98 49 99 50 100 51 101 52 102
REMARK H PARENT 9 7 14 33 76 52 42 63
REMARK Flexibility Score: inf
ROOT
ATOM      1  C   UNL A   1      34.015  28.247  25.790  1.00  0.00     0.023 C 
ENDROOT
BRANCH   1   2
ATOM      2  C   UNL A   1      33.233  29.168  24.854  1.00  0.00     0.023 C 
BRANCH   2   3
ATOM      3  C   UNL A   1      32.311  28.447  23.865  1.00  0.00     0.116 C 
BRANCH   3   4
ATOM      4  N   UNL A   1      33.004  27.796  22.762  1.00  0.00    -0.356 N 
ATOM      5  C   UNL A   1      32.888  26.585  22.158  1.00  0.00     0.226 C 
ATOM      6  O   UNL A   1      33.653  26.372  21.210  1.00  0.00    -0.275 OA
ATOM      7  H   UNL A   1      33.712  28.356  22.368  1.00  0.00     0.163 HD
BRANCH   5   8
ATOM      8  C   UNL A   1      31.939  25.459  22.587  1.00  0.00     0.113 C 
ATOM      9  C   UNL A   1      31.451  25.097  26.283  1.00  0.00     0.147 C 
ATOM     10  N   UNL A   1      31.412  25.322  24.850  1.00  0.00    -0.339 N 
ATOM     11  C   UNL A   1      30.302  25.918  24.264  1.00  0.00     0.223 C 
ATOM     12  C   UNL A   1      32.300  24.670  23.871  1.00  0.00     0.057 C 
ATOM     13  O   UNL A   1      29.327  26.366  24.843  1.00  0.00    -0.275 OA
ATOM     14  C   UNL A   1      30.502  25.941  22.774  1.00  0.00     0.116 C 
ATOM     15  C   UNL A   1      33.803  24.755  24.208  1.00  0.00     0.046 C 
ATOM     16  C   UNL A   1      31.854  23.174  23.774  1.00  0.00     0.046 C 
ATOM     17  C   UNL A   1      34.657  23.801  23.393  1.00  0.00     0.105 C 
ATOM     18  C   UNL A   1      32.847  22.232  23.091  1.00  0.00     0.105 C 
ATOM     19  N   UNL A   1      34.231  22.407  23.612  1.00  0.00    -0.198 NA
BRANCH  19  20
ATOM     20  S   UNL A   1      34.549  21.656  25.123  1.00  0.00     0.245 S 
ATOM     21  O   UNL A   1      33.633  22.174  26.114  1.00  0.00    -0.207 OA
ATOM     22  O   UNL A   1      34.569  20.228  24.861  1.00  0.00    -0.207 OA
BRANCH  20  23
ATOM     23  C   UNL A   1      36.189  22.129  25.589  1.00  0.00     0.118 A 
ATOM     24  C   UNL A   1      36.425  23.399  26.127  1.00  0.00     0.025 A 
ATOM     25  C   UNL A   1      37.270  21.299  25.304  1.00  0.00     0.143 A 
ATOM     26  C   UNL A   1      37.733  23.804  26.410  1.00  0.00     0.002 A 
ATOM     27  C   UNL A   1      38.571  21.687  25.614  1.00  0.00     0.041 A 
ATOM     28  F   UNL A   1      37.106  20.094  24.745  1.00  0.00    -0.206 F 
ATOM     29  C   UNL A   1      38.805  22.944  26.166  1.00  0.00     0.003 A 
ENDBRANCH  20  23
ENDBRANCH  19  20
ENDBRANCH   5   8
ENDBRANCH   3   4
ENDBRANCH   2   3
ENDBRANCH   1   2
BRANCH   1  30
ATOM     30  C   UNL A   1      33.700  28.444  27.267  1.00  0.00     0.116 C 
BRANCH  30  31
ATOM     31  N   UNL A   1      33.613  29.848  27.646  1.00  0.00    -0.352 N 
ATOM     32  C   UNL A   1      34.568  30.644  28.226  1.00  0.00     0.251 C 
ATOM     33  H   UNL A   1      32.751  30.286  27.459  1.00  0.00     0.163 HD
ATOM     34  O   UNL A   1      34.290  31.780  28.594  1.00  0.00    -0.269 OA
BRANCH  32  35
ATOM     35  C   UNL A   1      35.922  30.099  28.429  1.00  0.00     0.039 A 
ATOM     36  C   UNL A   1      36.831  30.137  27.370  1.00  0.00     0.014 A 
ATOM     37  C   UNL A   1      36.299  29.600  29.679  1.00  0.00     0.014 A 
ATOM     38  C   UNL A   1      38.147  29.732  27.585  1.00  0.00     0.010 A 
ATOM     39  C   UNL A   1      37.627  29.270  29.910  1.00  0.00     0.010 A 
ATOM     40  C   UNL A   1      38.560  29.329  28.865  1.00  0.00    -0.014 A 
BRANCH  40  41
ATOM     41  C   UNL A   1      39.967  28.957  29.139  1.00  0.00     0.031 A 
ATOM     42  C   UNL A   1      40.909  29.977  29.711  1.00  0.00     0.074 A 
ATOM     43  C   UNL A   1      40.413  27.739  28.781  1.00  0.00     0.049 A 
ATOM     44  N   UNL A   1      42.194  29.882  29.932  1.00  0.00    -0.248 NA
ATOM     45  C   UNL A   1      40.336  31.292  30.041  1.00  0.00     0.031 C 
ATOM     46  C   UNL A   1      39.606  26.697  28.141  1.00  0.00     0.029 A 
ATOM     47  N   UNL A   1      41.660  27.180  28.881  1.00  0.00    -0.354 N 
ATOM     48  C   UNL A   1      42.588  31.131  30.394  1.00  0.00     0.074 A 
ATOM     49  C   UNL A   1      41.417  31.980  30.375  1.00  0.00     0.031 C 
ATOM     50  C   UNL A   1      40.377  25.621  27.917  1.00  0.00     0.029 A 
ATOM     51  C   UNL A   1      41.735  25.906  28.372  1.00  0.00     0.049 A 
ATOM     52  H   UNL A   1      42.429  27.646  29.280  1.00  0.00     0.167 HD
ATOM     53  C   UNL A   1      43.812  31.528  30.820  1.00  0.00     0.037 A 
ATOM     54  C   UNL A   1      42.782  25.064  28.279  1.00  0.00     0.037 A 
ATOM     55  C   UNL A   1      44.960  30.663  30.872  1.00  0.00     0.049 A 
ATOM     56  C   UNL A   1      44.114  25.496  28.821  1.00  0.00     0.074 A 
ATOM     57  C   UNL A   1      46.224  30.935  31.362  1.00  0.00     0.029 A 
ATOM     58  N   UNL A   1      44.979  29.352  30.417  1.00  0.00    -0.354 N 
ATOM     59  N   UNL A   1      44.455  26.655  29.332  1.00  0.00    -0.248 NA
ATOM     60  C   UNL A   1      45.197  24.506  28.789  1.00  0.00     0.031 C 
ATOM     61  C   UNL A   1      47.017  29.795  31.180  1.00  0.00     0.029 A 
ATOM     62  C   UNL A   1      46.236  28.803  30.605  1.00  0.00     0.049 A 
ATOM     63  H   UNL A   1      44.212  28.881  30.019  1.00  0.00     0.167 HD
ATOM     64  C   UNL A   1      45.791  26.532  29.694  1.00  0.00     0.074 A 
ATOM     65  C   UNL A   1      46.191  25.180  29.357  1.00  0.00     0.031 C 
ATOM     66  C   UNL A   1      46.612  27.454  30.256  1.00  0.00     0.037 A 
BRANCH  53  67
ATOM     67  C   UNL A   1      43.950  32.958  31.258  1.00  0.00     0.058 A 
ATOM     68  C   UNL A   1      43.778  33.336  32.601  1.00  0.00     0.135 A 
ATOM     69  C   UNL A   1      44.216  33.970  30.322  1.00  0.00     0.135 A 
ATOM     70  F   UNL A   1      43.504  32.409  33.533  1.00  0.00    -0.206 F 
ATOM     71  C   UNL A   1      43.808  34.670  32.991  1.00  0.00     0.059 A 
ATOM     72  C   UNL A   1      44.279  35.310  30.695  1.00  0.00     0.059 A 
ATOM     73  F   UNL A   1      44.391  33.664  29.027  1.00  0.00    -0.206 F 
ATOM     74  C   UNL A   1      44.046  35.651  32.027  1.00  0.00     0.060 A 
BRANCH  74  75
ATOM     75  S   UNL A   1      44.034  37.385  32.532  1.00  0.00     0.124 S 
ATOM     76  O   UNL A   1      42.947  37.392  33.507  1.00  0.00    -0.237 OA
ATOM     77  O   UNL A   1      45.375  37.566  33.078  1.00  0.00    -0.237 OA
ATOM     78  O   UNL A   1      43.766  38.096  31.286  1.00  0.00    -0.744 OA
ENDBRANCH  74  75
ENDBRANCH  53  67
BRANCH  54  79
ATOM     79  C   UNL A   1      42.580  23.720  27.681  1.00  0.00     0.058 A 
ATOM     80  C   UNL A   1      42.672  23.529  26.296  1.00  0.00     0.135 A 
ATOM     81  C   UNL A   1      42.375  22.591  28.488  1.00  0.00     0.135 A 
ATOM     82  F   UNL A   1      42.866  24.581  25.486  1.00  0.00    -0.206 F 
ATOM     83  C   UNL A   1      42.577  22.263  25.729  1.00  0.00     0.059 A 
ATOM     84  C   UNL A   1      42.292  21.313  27.946  1.00  0.00     0.059 A 
ATOM     85  F   UNL A   1      42.300  22.722  29.822  1.00  0.00    -0.206 F 
ATOM     86  C   UNL A   1      42.396  21.159  26.563  1.00  0.00     0.060 A 
BRANCH  86  87
ATOM     87  S   UNL A   1      42.380  19.508  25.829  1.00  0.00     0.124 S 
ATOM     88  O   UNL A   1      42.779  18.678  26.959  1.00  0.00    -0.237 OA
ATOM     89  O   UNL A   1      40.992  19.376  25.396  1.00  0.00    -0.237 OA
ATOM     90  O   UNL A   1      43.356  19.615  24.746  1.00  0.00    -0.744 OA
ENDBRANCH  86  87
ENDBRANCH  54  79
BRANCH  66  91
ATOM     91  C   UNL A   1      48.022  27.029  30.548  1.00  0.00     0.058 A 
ATOM     92  C   UNL A   1      49.063  27.281  29.643  1.00  0.00     0.135 A 
ATOM     93  C   UNL A   1      48.342  26.415  31.769  1.00  0.00     0.135 A 
ATOM     94  F   UNL A   1      48.806  27.861  28.460  1.00  0.00    -0.206 F 
ATOM     95  C   UNL A   1      50.376  26.924  29.932  1.00  0.00     0.059 A 
ATOM     96  C   UNL A   1      49.650  26.068  32.087  1.00  0.00     0.059 A 
ATOM     97  F   UNL A   1      47.379  26.160  32.670  1.00  0.00    -0.206 F 
ATOM     98  C   UNL A   1      50.659  26.318  31.158  1.00  0.00     0.060 A 
BRANCH  98  99
ATOM     99  S   UNL A   1      52.371  25.892  31.541  1.00  0.00     0.124 S 
ATOM    100  O   UNL A   1      52.231  24.524  32.026  1.00  0.00    -0.237 OA
ATOM    101  O   UNL A   1      53.030  26.042  30.247  1.00  0.00    -0.237 OA
ATOM    102  O   UNL A   1      52.748  26.881  32.546  1.00  0.00    -0.744 OA
ENDBRANCH  98  99
ENDBRANCH  66  91
ENDBRANCH  40  41
ENDBRANCH  32  35
ENDBRANCH  30  31
ENDBRANCH   1  30
TORSDOF 16
ENDMDL
MODEL 2
REMARK VINA RESULT:     -12.3      3.130      9.294
REMARK SMILES CN1C(=O)C[C@@H](C(=O)NCCCCNC(=O)c2ccc(-c3c4nc(c(-c5c(F)cc(S(=O)(=O)[O-])cc5F)c5ccc([nH]5)c(-c5c(F)cc(S(=O)(=O)[O-])cc5F)c5nc(c(-c6c(F)cc(S(=O)(=O)[O-])cc6F)c6ccc3[nH]6)C=C5)C=C4)cc2)C12CCN(S(=O)(=O)c1ccccc1F)CC2
REMARK SMILES IDX 12 1 11 2 10 3 9 4 7 5 8 6 6 8 1 9 2 10 3 11 83 12 4 13 5 14
REMARK SMILES IDX 84 15 98 16 85 17 97 18 86 19 87 20 88 21 89 22 90 23 91 24
REMARK SMILES IDX 95 25 92 26 94 27 96 28 93 29 13 30 14 31 15 32 16 34 17 35
REMARK SMILES IDX 18 36 82 37 19 38 81 39 20 40 21 41 22 42 75 43 23 44 80 45
REMARK SMILES IDX 74 46 76 47 24 48 79 49 73 50 72 51 25 53 59 54 38 55 58 56
REMARK SMILES IDX 39 57 42 58 57 59 77 60 40 61 41 62 56 64 78 65 43 66 26 67
REMARK SMILES IDX 27 68 36 69 28 70 29 71 35 72 37 73 30 74 31 75 32 76 33 77
REMARK SMILES IDX 34 78 60 79 61 80 70 81 62 82 63 83 69 84 71 85 64 86 65 87
REMARK SMILES IDX 66 88 67 89 68 90 44 91 45 92 54 93 46 94 47 95 53 96 55 97
REMARK SMILES IDX 48 98 49 99 50 100 51 101 52 102
REMARK H PARENT 9 7 14 33 76 52 42 63
REMARK Flexibility Score: inf
ROOT
ATOM      1  C   UNL A   1      35.633  23.687  25.733  1.00  0.00     0.023 C 
ENDROOT
BRANCH   1   2
ATOM      2  C   UNL A   1      35.332  22.256  26.181  1.00  0.00     0.023 C 
BRANCH   2   3
ATOM      3  C   UNL A   1      33.902  21.783  25.902  1.00  0.00     0.116 C 
BRANCH   3   4
ATOM      4  N   UNL A   1      32.896  22.357  26.784  1.00  0.00    -0.356 N 
ATOM      5  C   UNL A   1      31.736  23.033  26.579  1.00  0.00     0.226 C 
ATOM      6  O   UNL A   1      31.108  23.362  27.593  1.00  0.00    -0.275 OA
ATOM      7  H   UNL A   1      33.102  22.228  27.739  1.00  0.00     0.163 HD
BRANCH   5   8
ATOM      8  C   UNL A   1      31.181  23.463  25.216  1.00  0.00     0.113 C 
ATOM      9  C   UNL A   1      33.734  24.670  22.755  1.00  0.00     0.147 C 
ATOM     10  N   UNL A   1      32.729  24.007  23.565  1.00  0.00    -0.339 N 
ATOM     11  C   UNL A   1      32.299  22.725  23.239  1.00  0.00     0.223 C 
ATOM     12  C   UNL A   1      31.842  24.684  24.527  1.00  0.00     0.057 C 
ATOM     13  O   UNL A   1      32.736  22.017  22.348  1.00  0.00    -0.275 OA
ATOM     14  C   UNL A   1      31.203  22.332  24.190  1.00  0.00     0.116 C 
ATOM     15  C   UNL A   1      32.564  25.604  25.533  1.00  0.00     0.046 C 
ATOM     16  C   UNL A   1      30.806  25.507  23.694  1.00  0.00     0.046 C 
ATOM     17  C   UNL A   1      31.627  26.540  26.272  1.00  0.00     0.105 C 
ATOM     18  C   UNL A   1      30.016  26.559  24.475  1.00  0.00     0.105 C 
ATOM     19  N   UNL A   1      30.901  27.403  25.324  1.00  0.00    -0.198 NA
BRANCH  19  20
ATOM     20  S   UNL A   1      31.749  28.646  24.497  1.00  0.00     0.245 S 
ATOM     21  O   UNL A   1      32.575  28.055  23.468  1.00  0.00    -0.207 OA
ATOM     22  O   UNL A   1      30.748  29.627  24.118  1.00  0.00    -0.207 OA
BRANCH  20  23
ATOM     23  C   UNL A   1      32.814  29.412  25.684  1.00  0.00     0.118 A 
ATOM     24  C   UNL A   1      34.058  28.843  25.977  1.00  0.00     0.025 A 
ATOM     25  C   UNL A   1      32.372  30.503  26.428  1.00  0.00     0.143 A 
ATOM     26  C   UNL A   1      34.859  29.397  26.980  1.00  0.00     0.002 A 
ATOM     27  C   UNL A   1      33.181  31.076  27.406  1.00  0.00     0.041 A 
ATOM     28  F   UNL A   1      31.171  31.056  26.223  1.00  0.00    -0.206 F 
ATOM     29  C   UNL A   1      34.427  30.521  27.686  1.00  0.00     0.003 A 
ENDBRANCH  20  23
ENDBRANCH  19  20
ENDBRANCH   5   8
ENDBRANCH   3   4
ENDBRANCH   2   3
ENDBRANCH   1   2
BRANCH   1  30
ATOM     30  C   UNL A   1      36.932  23.838  24.954  1.00  0.00     0.116 C 
BRANCH  30  31
ATOM     31  N   UNL A   1      37.916  22.815  25.287  1.00  0.00    -0.352 N 
ATOM     32  C   UNL A   1      39.050  22.929  26.051  1.00  0.00     0.251 C 
ATOM     33  H   UNL A   1      37.742  21.921  24.914  1.00  0.00     0.163 HD
ATOM     34  O   UNL A   1      39.839  21.994  26.132  1.00  0.00    -0.269 OA
BRANCH  32  35
ATOM     35  C   UNL A   1      39.319  24.202  26.742  1.00  0.00     0.039 A 
ATOM     36  C   UNL A   1      38.813  24.391  28.030  1.00  0.00     0.014 A 
ATOM     37  C   UNL A   1      40.109  25.179  26.133  1.00  0.00     0.014 A 
ATOM     38  C   UNL A   1      39.159  25.541  28.737  1.00  0.00     0.010 A 
ATOM     39  C   UNL A   1      40.513  26.286  26.866  1.00  0.00     0.010 A 
ATOM     40  C   UNL A   1      40.038  26.478  28.172  1.00  0.00    -0.014 A 
BRANCH  40  41
ATOM     41  C   UNL A   1      40.475  27.676  28.925  1.00  0.00     0.031 A 
ATOM     42  C   UNL A   1      41.802  27.671  29.628  1.00  0.00     0.074 A 
ATOM     43  C   UNL A   1      39.636  28.721  29.054  1.00  0.00     0.049 A 
ATOM     44  N   UNL A   1      42.323  28.575  30.415  1.00  0.00    -0.248 NA
ATOM     45  C   UNL A   1      42.635  26.470  29.454  1.00  0.00     0.031 C 
ATOM     46  C   UNL A   1      38.290  28.801  28.483  1.00  0.00     0.029 A 
ATOM     47  N   UNL A   1      39.784  29.905  29.728  1.00  0.00    -0.354 N 
ATOM     48  C   UNL A   1      43.527  28.040  30.855  1.00  0.00     0.074 A 
ATOM     49  C   UNL A   1      43.635  26.714  30.287  1.00  0.00     0.031 C 
ATOM     50  C   UNL A   1      37.739  29.978  28.822  1.00  0.00     0.029 A 
ATOM     51  C   UNL A   1      38.681  30.722  29.653  1.00  0.00     0.049 A 
ATOM     52  H   UNL A   1      40.601  30.148  30.219  1.00  0.00     0.167 HD
ATOM     53  C   UNL A   1      44.470  28.613  31.642  1.00  0.00     0.037 A 
ATOM     54  C   UNL A   1      38.454  31.932  30.197  1.00  0.00     0.037 A 
ATOM     55  C   UNL A   1      44.370  29.948  32.168  1.00  0.00     0.049 A 
ATOM     56  C   UNL A   1      39.539  32.582  31.008  1.00  0.00     0.074 A 
ATOM     57  C   UNL A   1      45.300  30.657  32.905  1.00  0.00     0.029 A 
ATOM     58  N   UNL A   1      43.267  30.776  32.008  1.00  0.00    -0.354 N 
ATOM     59  N   UNL A   1      40.709  32.097  31.350  1.00  0.00    -0.248 NA
ATOM     60  C   UNL A   1      39.281  33.942  31.494  1.00  0.00     0.031 C 
ATOM     61  C   UNL A   1      44.749  31.907  33.214  1.00  0.00     0.029 A 
ATOM     62  C   UNL A   1      43.489  31.987  32.641  1.00  0.00     0.049 A 
ATOM     63  H   UNL A   1      42.449  30.538  31.516  1.00  0.00     0.167 HD
ATOM     64  C   UNL A   1      41.335  33.098  32.083  1.00  0.00     0.074 A 
ATOM     65  C   UNL A   1      40.418  34.221  32.121  1.00  0.00     0.031 C 
ATOM     66  C   UNL A   1      42.558  33.089  32.670  1.00  0.00     0.037 A 
BRANCH  53  67
ATOM     67  C   UNL A   1      45.680  27.784  31.968  1.00  0.00     0.058 A 
ATOM     68  C   UNL A   1      45.735  26.987  33.124  1.00  0.00     0.135 A 
ATOM     69  C   UNL A   1      46.812  27.816  31.139  1.00  0.00     0.135 A 
ATOM     70  F   UNL A   1      44.686  26.934  33.960  1.00  0.00    -0.206 F 
ATOM     71  C   UNL A   1      46.890  26.297  33.476  1.00  0.00     0.059 A 
ATOM     72  C   UNL A   1      47.969  27.110  31.458  1.00  0.00     0.059 A 
ATOM     73  F   UNL A   1      46.812  28.559  30.021  1.00  0.00    -0.206 F 
ATOM     74  C   UNL A   1      48.007  26.376  32.643  1.00  0.00     0.060 A 
BRANCH  74  75
ATOM     75  S   UNL A   1      49.519  25.519  33.133  1.00  0.00     0.124 S 
ATOM     76  O   UNL A   1      50.295  26.613  33.712  1.00  0.00    -0.237 OA
ATOM     77  O   UNL A   1      49.026  24.523  34.080  1.00  0.00    -0.237 OA
ATOM     78  O   UNL A   1      50.026  24.985  31.874  1.00  0.00    -0.744 OA
ENDBRANCH  74  75
ENDBRANCH  53  67
BRANCH  54  79
ATOM     79  C   UNL A   1      37.156  32.607  29.947  1.00  0.00     0.058 A 
ATOM     80  C   UNL A   1      36.050  32.367  30.774  1.00  0.00     0.135 A 
ATOM     81  C   UNL A   1      37.020  33.565  28.930  1.00  0.00     0.135 A 
ATOM     82  F   UNL A   1      36.134  31.459  31.758  1.00  0.00    -0.206 F 
ATOM     83  C   UNL A   1      34.855  33.058  30.609  1.00  0.00     0.059 A 
ATOM     84  C   UNL A   1      35.841  34.281  28.755  1.00  0.00     0.059 A 
ATOM     85  F   UNL A   1      38.058  33.843  28.126  1.00  0.00    -0.206 F 
ATOM     86  C   UNL A   1      34.762  34.021  29.602  1.00  0.00     0.060 A 
BRANCH  86  87
ATOM     87  S   UNL A   1      33.244  34.990  29.463  1.00  0.00     0.124 S 
ATOM     88  O   UNL A   1      32.518  34.254  28.435  1.00  0.00    -0.237 OA
ATOM     89  O   UNL A   1      32.699  34.906  30.815  1.00  0.00    -0.237 OA
ATOM     90  O   UNL A   1      33.727  36.313  29.074  1.00  0.00    -0.744 OA
ENDBRANCH  86  87
ENDBRANCH  54  79
BRANCH  66  91
ATOM     91  C   UNL A   1      42.979  34.334  33.396  1.00  0.00     0.058 A 
ATOM     92  C   UNL A   1      42.770  34.480  34.775  1.00  0.00     0.135 A 
ATOM     93  C   UNL A   1      43.646  35.364  32.716  1.00  0.00     0.135 A 
ATOM     94  F   UNL A   1      42.130  33.524  35.468  1.00  0.00    -0.206 F 
ATOM     95  C   UNL A   1      43.197  35.616  35.456  1.00  0.00     0.059 A 
ATOM     96  C   UNL A   1      44.099  36.499  33.379  1.00  0.00     0.059 A 
ATOM     97  F   UNL A   1      43.875  35.265  31.396  1.00  0.00    -0.206 F 
ATOM     98  C   UNL A   1      43.861  36.620  34.748  1.00  0.00     0.060 A 
BRANCH  98  99
ATOM     99  S   UNL A   1      44.445  38.073  35.645  1.00  0.00     0.124 S 
ATOM    100  O   UNL A   1      45.888  37.858  35.645  1.00  0.00    -0.237 OA
ATOM    101  O   UNL A   1      43.968  39.172  34.811  1.00  0.00    -0.237 OA
ATOM    102  O   UNL A   1      43.791  37.953  36.945  1.00  0.00    -0.744 OA
ENDBRANCH  98  99
ENDBRANCH  66  91
ENDBRANCH  40  41
ENDBRANCH  32  35
ENDBRANCH  30  31
ENDBRANCH   1  30
TORSDOF 16
ENDMDL
MODEL 3
REMARK VINA RESULT:     -12.2      2.520      3.080
REMARK SMILES CN1C(=O)C[C@@H](C(=O)NCCCCNC(=O)c2ccc(-c3c4nc(c(-c5c(F)cc(S(=O)(=O)[O-])cc5F)c5ccc([nH]5)c(-c5c(F)cc(S(=O)(=O)[O-])cc5F)c5nc(c(-c6c(F)cc(S(=O)(=O)[O-])cc6F)c6ccc3[nH]6)C=C5)C=C4)cc2)C12CCN(S(=O)(=O)c1ccccc1F)CC2
REMARK SMILES IDX 12 1 11 2 10 3 9 4 7 5 8 6 6 8 1 9 2 10 3 11 83 12 4 13 5 14
REMARK SMILES IDX 84 15 98 16 85 17 97 18 86 19 87 20 88 21 89 22 90 23 91 24
REMARK SMILES IDX 95 25 92 26 94 27 96 28 93 29 13 30 14 31 15 32 16 34 17 35
REMARK SMILES IDX 18 36 82 37 19 38 81 39 20 40 21 41 22 42 75 43 23 44 80 45
REMARK SMILES IDX 74 46 76 47 24 48 79 49 73 50 72 51 25 53 59 54 38 55 58 56
REMARK SMILES IDX 39 57 42 58 57 59 77 60 40 61 41 62 56 64 78 65 43 66 26 67
REMARK SMILES IDX 27 68 36 69 28 70 29 71 35 72 37 73 30 74 31 75 32 76 33 77
REMARK SMILES IDX 34 78 60 79 61 80 70 81 62 82 63 83 69 84 71 85 64 86 65 87
REMARK SMILES IDX 66 88 67 89 68 90 44 91 45 92 54 93 46 94 47 95 53 96 55 97
REMARK SMILES IDX 48 98 49 99 50 100 51 101 52 102
REMARK H PARENT 9 7 14 33 76 52 42 63
REMARK Flexibility Score: inf
ROOT
ATOM      1  C   UNL A   1      34.165  29.325  26.877  1.00  0.00     0.023 C 
ENDROOT
BRANCH   1   2
ATOM      2  C   UNL A   1      34.005  28.097  25.981  1.00  0.00     0.023 C 
BRANCH   2   3
ATOM      3  C   UNL A   1      33.018  28.270  24.823  1.00  0.00     0.116 C 
BRANCH   3   4
ATOM      4  N   UNL A   1      33.548  27.894  23.520  1.00  0.00    -0.356 N 
ATOM      5  C   UNL A   1      33.324  26.856  22.674  1.00  0.00     0.226 C 
ATOM      6  O   UNL A   1      33.957  26.870  21.611  1.00  0.00    -0.275 OA
ATOM      7  H   UNL A   1      34.215  28.532  23.177  1.00  0.00     0.163 HD
BRANCH   5   8
ATOM      8  C   UNL A   1      32.407  25.658  22.951  1.00  0.00     0.113 C 
ATOM      9  C   UNL A   1      31.829  24.887  26.571  1.00  0.00     0.147 C 
ATOM     10  N   UNL A   1      31.822  25.262  25.169  1.00  0.00    -0.339 N 
ATOM     11  C   UNL A   1      30.707  25.878  24.613  1.00  0.00     0.223 C 
ATOM     12  C   UNL A   1      32.761  24.750  24.155  1.00  0.00     0.057 C 
ATOM     13  O   UNL A   1      29.700  26.229  25.205  1.00  0.00    -0.275 OA
ATOM     14  C   UNL A   1      30.948  26.067  23.141  1.00  0.00     0.116 C 
ATOM     15  C   UNL A   1      34.250  24.851  24.547  1.00  0.00     0.046 C 
ATOM     16  C   UNL A   1      32.376  23.258  23.887  1.00  0.00     0.046 C 
ATOM     17  C   UNL A   1      35.162  24.019  23.664  1.00  0.00     0.105 C 
ATOM     18  C   UNL A   1      33.422  22.429  23.140  1.00  0.00     0.105 C 
ATOM     19  N   UNL A   1      34.783  22.596  23.721  1.00  0.00    -0.198 NA
BRANCH  19  20
ATOM     20  S   UNL A   1      35.087  21.700  25.153  1.00  0.00     0.245 S 
ATOM     21  O   UNL A   1      34.155  22.111  26.179  1.00  0.00    -0.207 OA
ATOM     22  O   UNL A   1      35.120  20.305  24.751  1.00  0.00    -0.207 OA
BRANCH  20  23
ATOM     23  C   UNL A   1      36.717  22.133  25.687  1.00  0.00     0.118 A 
ATOM     24  C   UNL A   1      36.965  23.402  26.221  1.00  0.00     0.025 A 
ATOM     25  C   UNL A   1      37.786  21.270  25.459  1.00  0.00     0.143 A 
ATOM     26  C   UNL A   1      38.270  23.774  26.557  1.00  0.00     0.002 A 
ATOM     27  C   UNL A   1      39.083  21.626  25.822  1.00  0.00     0.041 A 
ATOM     28  F   UNL A   1      37.614  20.064  24.906  1.00  0.00    -0.206 F 
ATOM     29  C   UNL A   1      39.327  22.882  26.370  1.00  0.00     0.003 A 
ENDBRANCH  20  23
ENDBRANCH  19  20
ENDBRANCH   5   8
ENDBRANCH   3   4
ENDBRANCH   2   3
ENDBRANCH   1   2
BRANCH   1  30
ATOM     30  C   UNL A   1      35.456  29.345  27.684  1.00  0.00     0.116 C 
BRANCH  30  31
ATOM     31  N   UNL A   1      35.289  29.929  29.009  1.00  0.00    -0.352 N 
ATOM     32  C   UNL A   1      36.238  30.172  29.969  1.00  0.00     0.251 C 
ATOM     33  H   UNL A   1      34.368  30.185  29.247  1.00  0.00     0.163 HD
ATOM     34  O   UNL A   1      35.908  30.558  31.084  1.00  0.00    -0.269 OA
BRANCH  32  35
ATOM     35  C   UNL A   1      37.655  29.927  29.647  1.00  0.00     0.039 A 
ATOM     36  C   UNL A   1      38.519  29.526  30.667  1.00  0.00     0.014 A 
ATOM     37  C   UNL A   1      38.108  30.048  28.331  1.00  0.00     0.014 A 
ATOM     38  C   UNL A   1      39.833  29.179  30.353  1.00  0.00     0.010 A 
ATOM     39  C   UNL A   1      39.392  29.630  28.010  1.00  0.00     0.010 A 
ATOM     40  C   UNL A   1      40.266  29.197  29.018  1.00  0.00    -0.014 A 
BRANCH  40  41
ATOM     41  C   UNL A   1      41.634  28.770  28.647  1.00  0.00     0.031 A 
ATOM     42  C   UNL A   1      42.733  29.788  28.555  1.00  0.00     0.074 A 
ATOM     43  C   UNL A   1      41.857  27.489  28.299  1.00  0.00     0.049 A 
ATOM     44  N   UNL A   1      43.968  29.636  28.154  1.00  0.00    -0.248 NA
ATOM     45  C   UNL A   1      42.384  31.170  28.923  1.00  0.00     0.031 C 
ATOM     46  C   UNL A   1      40.845  26.431  28.272  1.00  0.00     0.029 A 
ATOM     47  N   UNL A   1      43.002  26.865  27.879  1.00  0.00    -0.354 N 
ATOM     48  C   UNL A   1      44.534  30.905  28.192  1.00  0.00     0.074 A 
ATOM     49  C   UNL A   1      43.493  31.821  28.606  1.00  0.00     0.031 C 
ATOM     50  C   UNL A   1      41.418  25.286  27.868  1.00  0.00     0.029 A 
ATOM     51  C   UNL A   1      42.828  25.535  27.583  1.00  0.00     0.049 A 
ATOM     52  H   UNL A   1      43.868  27.326  27.796  1.00  0.00     0.167 HD
ATOM     53  C   UNL A   1      45.812  31.269  27.929  1.00  0.00     0.037 A 
ATOM     54  C   UNL A   1      43.705  24.620  27.129  1.00  0.00     0.037 A 
ATOM     55  C   UNL A   1      46.848  30.343  27.557  1.00  0.00     0.049 A 
ATOM     56  C   UNL A   1      45.134  25.026  26.911  1.00  0.00     0.074 A 
ATOM     57  C   UNL A   1      48.192  30.590  27.349  1.00  0.00     0.029 A 
ATOM     58  N   UNL A   1      46.649  28.987  27.340  1.00  0.00    -0.354 N 
ATOM     59  N   UNL A   1      45.676  26.215  27.029  1.00  0.00    -0.248 NA
ATOM     60  C   UNL A   1      46.073  23.970  26.514  1.00  0.00     0.031 C 
ATOM     61  C   UNL A   1      48.804  29.385  26.980  1.00  0.00     0.029 A 
ATOM     62  C   UNL A   1      47.845  28.383  26.989  1.00  0.00     0.049 A 
ATOM     63  H   UNL A   1      45.786  28.522  27.423  1.00  0.00     0.167 HD
ATOM     64  C   UNL A   1      47.023  26.050  26.732  1.00  0.00     0.074 A 
ATOM     65  C   UNL A   1      47.216  24.643  26.444  1.00  0.00     0.031 C 
ATOM     66  C   UNL A   1      48.012  26.979  26.702  1.00  0.00     0.037 A 
BRANCH  53  67
ATOM     67  C   UNL A   1      46.139  32.731  28.041  1.00  0.00     0.058 A 
ATOM     68  C   UNL A   1      46.635  33.285  29.234  1.00  0.00     0.135 A 
ATOM     69  C   UNL A   1      45.919  33.598  26.959  1.00  0.00     0.135 A 
ATOM     70  F   UNL A   1      46.847  32.503  30.304  1.00  0.00    -0.206 F 
ATOM     71  C   UNL A   1      46.846  34.652  29.368  1.00  0.00     0.059 A 
ATOM     72  C   UNL A   1      46.150  34.967  27.062  1.00  0.00     0.059 A 
ATOM     73  F   UNL A   1      45.449  33.121  25.796  1.00  0.00    -0.206 F 
ATOM     74  C   UNL A   1      46.586  35.487  28.280  1.00  0.00     0.060 A 
BRANCH  74  75
ATOM     75  S   UNL A   1      46.814  37.268  28.478  1.00  0.00     0.124 S 
ATOM     76  O   UNL A   1      46.149  37.777  27.282  1.00  0.00    -0.237 OA
ATOM     77  O   UNL A   1      46.135  37.536  29.742  1.00  0.00    -0.237 OA
ATOM     78  O   UNL A   1      48.265  37.421  28.506  1.00  0.00    -0.744 OA
ENDBRANCH  74  75
ENDBRANCH  53  67
BRANCH  54  79
ATOM     79  C   UNL A   1      43.246  23.228  26.896  1.00  0.00     0.058 A 
ATOM     80  C   UNL A   1      43.122  22.720  25.595  1.00  0.00     0.135 A 
ATOM     81  C   UNL A   1      43.001  22.356  27.968  1.00  0.00     0.135 A 
ATOM     82  F   UNL A   1      43.344  23.519  24.540  1.00  0.00    -0.206 F 
ATOM     83  C   UNL A   1      42.781  21.393  25.362  1.00  0.00     0.059 A 
ATOM     84  C   UNL A   1      42.674  21.020  27.761  1.00  0.00     0.059 A 
ATOM     85  F   UNL A   1      43.126  22.791  29.231  1.00  0.00    -0.206 F 
ATOM     86  C   UNL A   1      42.568  20.546  26.452  1.00  0.00     0.060 A 
BRANCH  86  87
ATOM     87  S   UNL A   1      42.230  18.799  26.143  1.00  0.00     0.124 S 
ATOM     88  O   UNL A   1      42.543  18.204  27.437  1.00  0.00    -0.237 OA
ATOM     89  O   UNL A   1      40.819  18.817  25.772  1.00  0.00    -0.237 OA
ATOM     90  O   UNL A   1      43.149  18.469  25.055  1.00  0.00    -0.744 OA
ENDBRANCH  86  87
ENDBRANCH  54  79
BRANCH  66  91
ATOM     91  C   UNL A   1      49.391  26.501  26.353  1.00  0.00     0.058 A 
ATOM     92  C   UNL A   1      49.919  26.673  25.065  1.00  0.00     0.135 A 
ATOM     93  C   UNL A   1      50.211  25.917  27.331  1.00  0.00     0.135 A 
ATOM     94  F   UNL A   1      49.171  27.221  24.094  1.00  0.00    -0.206 F 
ATOM     95  C   UNL A   1      51.213  26.267  24.752  1.00  0.00     0.059 A 
ATOM     96  C   UNL A   1      51.513  25.522  27.046  1.00  0.00     0.059 A 
ATOM     97  F   UNL A   1      49.751  25.739  28.580  1.00  0.00    -0.206 F 
ATOM     98  C   UNL A   1      52.002  25.693  25.751  1.00  0.00     0.060 A 
BRANCH  98  99
ATOM     99  S   UNL A   1      53.692  25.204  25.347  1.00  0.00     0.124 S 
ATOM    100  O   UNL A   1      54.455  25.918  26.365  1.00  0.00    -0.237 OA
ATOM    101  O   UNL A   1      53.644  23.752  25.494  1.00  0.00    -0.237 OA
ATOM    102  O   UNL A   1      53.865  25.682  23.979  1.00  0.00    -0.744 OA
ENDBRANCH  98  99
ENDBRANCH  66  91
ENDBRANCH  40  41
ENDBRANCH  32  35
ENDBRANCH  30  31
ENDBRANCH   1  30
TORSDOF 16
ENDMDL
