MODEL 1
REMARK VINA RESULT:      -9.7      0.000      0.000
REMARK SMILES C[C@H](C(=O)NCCCCNC(=O)c1ccc(-c2c3nc(c(-c4c(F)cc(S(=O)(=O)[O-])cc4F)c4ccc([nH]4)c(-c4c(F)cc(S(=O)(=O)[O-])cc4F)c4nc(c(-c5c(F)cc(S(=O)(=O)[O-])cc5F)c5ccc2[nH]5)C=C4)C=C3)cc1)c1ccc(-c2ccccc2)c(F)c1
REMARK SMILES IDX 8 1 7 2 6 3 5 4 3 5 4 6 2 8 1 9 79 10 80 11 91 12 81 13
REMARK SMILES IDX 89 14 82 15 90 16 83 17 84 18 88 19 85 20 87 21 86 22 9 23
REMARK SMILES IDX 10 24 11 25 12 27 13 28 14 29 78 30 15 31 77 32 16 33 17 34
REMARK SMILES IDX 18 35 71 36 19 37 76 38 70 39 72 40 20 41 75 42 69 43 68 44
REMARK SMILES IDX 21 46 55 47 34 48 54 49 35 50 38 51 53 52 73 53 36 54 37 55
REMARK SMILES IDX 52 57 74 58 39 59 22 60 23 61 32 62 24 63 25 64 31 65 33 66
REMARK SMILES IDX 26 67 27 68 28 69 29 70 30 71 56 72 57 73 66 74 58 75 59 76
REMARK SMILES IDX 65 77 67 78 60 79 61 80 62 81 63 82 64 83 40 84 41 85 50 86
REMARK SMILES IDX 42 87 43 88 49 89 51 90 44 91 45 92 46 93 47 94 48 95
REMARK H PARENT 5 7 10 26 72 45 38 56
REMARK Flexibility Score: inf
ROOT
ATOM      1  C   UNL A   1      34.419  33.330  30.356  1.00  0.00     0.023 C 
ENDROOT
BRANCH   1   2
ATOM      2  C   UNL A   1      35.026  32.658  31.587  1.00  0.00     0.023 C 
BRANCH   2   3
ATOM      3  C   UNL A   1      35.632  33.621  32.603  1.00  0.00     0.116 C 
BRANCH   3   4
ATOM      4  N   UNL A   1      36.016  32.957  33.834  1.00  0.00    -0.356 N 
ATOM      5  C   UNL A   1      37.208  32.412  34.210  1.00  0.00     0.227 C 
ATOM      6  O   UNL A   1      37.295  31.981  35.364  1.00  0.00    -0.274 OA
ATOM      7  H   UNL A   1      35.300  32.888  34.507  1.00  0.00     0.163 HD
BRANCH   5   8
ATOM      8  C   UNL A   1      38.408  32.343  33.262  1.00  0.00     0.105 C 
ATOM      9  C   UNL A   1      39.156  33.680  33.196  1.00  0.00     0.023 C 
BRANCH   8  10
ATOM     10  C   UNL A   1      39.337  31.147  33.446  1.00  0.00    -0.033 A 
ATOM     11  C   UNL A   1      40.541  31.214  34.159  1.00  0.00     0.005 A 
ATOM     12  C   UNL A   1      38.981  29.908  32.889  1.00  0.00     0.044 A 
ATOM     13  C   UNL A   1      41.392  30.107  34.249  1.00  0.00     0.012 A 
ATOM     14  C   UNL A   1      39.827  28.802  32.999  1.00  0.00     0.131 A 
ATOM     15  C   UNL A   1      41.056  28.876  33.666  1.00  0.00     0.017 A 
ATOM     16  F   UNL A   1      39.426  27.648  32.441  1.00  0.00    -0.206 F 
BRANCH  15  17
ATOM     17  C   UNL A   1      41.976  27.732  33.759  1.00  0.00    -0.015 A 
ATOM     18  C   UNL A   1      41.865  26.801  34.807  1.00  0.00     0.009 A 
ATOM     19  C   UNL A   1      43.013  27.553  32.829  1.00  0.00     0.009 A 
ATOM     20  C   UNL A   1      42.762  25.738  34.927  1.00  0.00     0.001 A 
ATOM     21  C   UNL A   1      43.912  26.490  32.948  1.00  0.00     0.001 A 
ATOM     22  C   UNL A   1      43.788  25.585  33.999  1.00  0.00     0.000 A 
ENDBRANCH  15  17
ENDBRANCH   8  10
ENDBRANCH   5   8
ENDBRANCH   3   4
ENDBRANCH   2   3
ENDBRANCH   1   2
BRANCH   1  23
ATOM     23  C   UNL A   1      34.918  32.800  29.017  1.00  0.00     0.116 C 
BRANCH  23  24
ATOM     24  N   UNL A   1      34.084  31.732  28.488  1.00  0.00    -0.352 N 
ATOM     25  C   UNL A   1      34.443  30.470  28.081  1.00  0.00     0.251 C 
ATOM     26  H   UNL A   1      33.126  31.943  28.410  1.00  0.00     0.163 HD
ATOM     27  O   UNL A   1      33.620  29.758  27.510  1.00  0.00    -0.269 OA
BRANCH  25  28
ATOM     28  C   UNL A   1      35.822  29.984  28.305  1.00  0.00     0.039 A 
ATOM     29  C   UNL A   1      36.746  30.077  27.262  1.00  0.00     0.014 A 
ATOM     30  C   UNL A   1      36.208  29.451  29.537  1.00  0.00     0.014 A 
ATOM     31  C   UNL A   1      38.072  29.694  27.477  1.00  0.00     0.010 A 
ATOM     32  C   UNL A   1      37.547  29.150  29.776  1.00  0.00     0.010 A 
ATOM     33  C   UNL A   1      38.493  29.263  28.747  1.00  0.00    -0.014 A 
BRANCH  33  34
ATOM     34  C   UNL A   1      39.918  28.926  29.007  1.00  0.00     0.031 A 
ATOM     35  C   UNL A   1      40.845  29.953  29.602  1.00  0.00     0.074 A 
ATOM     36  C   UNL A   1      40.385  27.706  28.672  1.00  0.00     0.049 A 
ATOM     37  N   UNL A   1      42.121  29.853  29.875  1.00  0.00    -0.248 NA
ATOM     38  C   UNL A   1      40.270  31.273  29.907  1.00  0.00     0.031 C 
ATOM     39  C   UNL A   1      39.601  26.645  28.035  1.00  0.00     0.029 A 
ATOM     40  N   UNL A   1      41.633  27.152  28.813  1.00  0.00    -0.354 N 
ATOM     41  C   UNL A   1      42.498  31.089  30.386  1.00  0.00     0.074 A 
ATOM     42  C   UNL A   1      41.336  31.947  30.316  1.00  0.00     0.031 C 
ATOM     43  C   UNL A   1      40.376  25.561  27.869  1.00  0.00     0.029 A 
ATOM     44  C   UNL A   1      41.721  25.860  28.349  1.00  0.00     0.049 A 
ATOM     45  H   UNL A   1      42.393  27.635  29.211  1.00  0.00     0.167 HD
ATOM     46  C   UNL A   1      43.693  31.466  30.900  1.00  0.00     0.037 A 
ATOM     47  C   UNL A   1      42.769  25.014  28.308  1.00  0.00     0.037 A 
ATOM     48  C   UNL A   1      44.845  30.605  30.975  1.00  0.00     0.049 A 
ATOM     49  C   UNL A   1      44.093  25.464  28.868  1.00  0.00     0.074 A 
ATOM     50  C   UNL A   1      46.094  30.882  31.504  1.00  0.00     0.029 A 
ATOM     51  N   UNL A   1      44.891  29.299  30.509  1.00  0.00    -0.354 N 
ATOM     52  N   UNL A   1      44.412  26.618  29.405  1.00  0.00    -0.248 NA
ATOM     53  C   UNL A   1      45.194  24.493  28.830  1.00  0.00     0.031 C 
ATOM     54  C   UNL A   1      46.908  29.760  31.317  1.00  0.00     0.029 A 
ATOM     55  C   UNL A   1      46.150  28.763  30.724  1.00  0.00     0.049 A 
ATOM     56  H   UNL A   1      44.139  28.823  30.088  1.00  0.00     0.167 HD
ATOM     57  C   UNL A   1      45.743  26.500  29.795  1.00  0.00     0.074 A 
ATOM     58  C   UNL A   1      46.160  25.156  29.450  1.00  0.00     0.031 C 
ATOM     59  C   UNL A   1      46.548  27.419  30.383  1.00  0.00     0.037 A 
BRANCH  46  60
ATOM     60  C   UNL A   1      43.810  32.868  31.439  1.00  0.00     0.058 A 
ATOM     61  C   UNL A   1      43.955  33.972  30.583  1.00  0.00     0.135 A 
ATOM     62  C   UNL A   1      43.738  33.117  32.819  1.00  0.00     0.135 A 
ATOM     63  F   UNL A   1      44.046  33.792  29.255  1.00  0.00    -0.206 F 
ATOM     64  C   UNL A   1      44.050  35.270  31.076  1.00  0.00     0.059 A 
ATOM     65  C   UNL A   1      43.800  34.410  33.333  1.00  0.00     0.059 A 
ATOM     66  F   UNL A   1      43.602  32.100  33.685  1.00  0.00    -0.206 F 
ATOM     67  C   UNL A   1      43.970  35.479  32.454  1.00  0.00     0.060 A 
BRANCH  67  68
ATOM     68  S   UNL A   1      44.082  37.170  33.072  1.00  0.00     0.124 S 
ATOM     69  O   UNL A   1      44.057  37.936  31.830  1.00  0.00    -0.237 OA
ATOM     70  O   UNL A   1      42.889  37.277  33.906  1.00  0.00    -0.237 OA
ATOM     71  O   UNL A   1      45.351  37.186  33.793  1.00  0.00    -0.744 OA
ENDBRANCH  67  68
ENDBRANCH  46  60
BRANCH  47  72
ATOM     72  C   UNL A   1      42.611  23.653  27.726  1.00  0.00     0.058 A 
ATOM     73  C   UNL A   1      42.388  22.534  28.543  1.00  0.00     0.135 A 
ATOM     74  C   UNL A   1      42.695  23.440  26.341  1.00  0.00     0.135 A 
ATOM     75  F   UNL A   1      42.303  22.682  29.875  1.00  0.00    -0.206 F 
ATOM     76  C   UNL A   1      42.287  21.251  28.015  1.00  0.00     0.059 A 
ATOM     77  C   UNL A   1      42.565  22.172  25.785  1.00  0.00     0.059 A 
ATOM     78  F   UNL A   1      42.887  24.477  25.511  1.00  0.00    -0.206 F 
ATOM     79  C   UNL A   1      42.379  21.080  26.633  1.00  0.00     0.060 A 
BRANCH  79  80
ATOM     80  S   UNL A   1      42.226  19.414  25.954  1.00  0.00     0.124 S 
ATOM     81  O   UNL A   1      42.753  18.603  27.046  1.00  0.00    -0.237 OA
ATOM     82  O   UNL A   1      40.791  19.310  25.714  1.00  0.00    -0.237 OA
ATOM     83  O   UNL A   1      43.052  19.466  24.751  1.00  0.00    -0.744 OA
ENDBRANCH  79  80
ENDBRANCH  47  72
BRANCH  59  84
ATOM     84  C   UNL A   1      47.948  26.990  30.730  1.00  0.00     0.058 A 
ATOM     85  C   UNL A   1      49.013  27.132  29.827  1.00  0.00     0.135 A 
ATOM     86  C   UNL A   1      48.234  26.461  32.000  1.00  0.00     0.135 A 
ATOM     87  F   UNL A   1      48.796  27.627  28.598  1.00  0.00    -0.206 F 
ATOM     88  C   UNL A   1      50.303  26.728  30.156  1.00  0.00     0.059 A 
ATOM     89  C   UNL A   1      49.522  26.083  32.362  1.00  0.00     0.059 A 
ATOM     90  F   UNL A   1      47.256  26.316  32.909  1.00  0.00    -0.206 F 
ATOM     91  C   UNL A   1      50.548  26.205  31.427  1.00  0.00     0.060 A 
BRANCH  91  92
ATOM     92  S   UNL A   1      52.230  25.701  31.845  1.00  0.00     0.124 S 
ATOM     93  O   UNL A   1      52.054  24.277  32.108  1.00  0.00    -0.237 OA
ATOM     94  O   UNL A   1      52.967  26.036  30.630  1.00  0.00    -0.237 OA
ATOM     95  O   UNL A   1      52.551  26.521  33.010  1.00  0.00    -0.744 OA
ENDBRANCH  91  92
ENDBRANCH  59  84
ENDBRANCH  33  34
ENDBRANCH  25  28
ENDBRANCH  23  24
ENDBRANCH   1  23
TORSDOF 16
ENDMDL
MODEL 2
REMARK VINA RESULT:      -9.5      3.122      6.090
REMARK SMILES C[C@H](C(=O)NCCCCNC(=O)c1ccc(-c2c3nc(c(-c4c(F)cc(S(=O)(=O)[O-])cc4F)c4ccc([nH]4)c(-c4c(F)cc(S(=O)(=O)[O-])cc4F)c4nc(c(-c5c(F)cc(S(=O)(=O)[O-])cc5F)c5ccc2[nH]5)C=C4)C=C3)cc1)c1ccc(-c2ccccc2)c(F)c1
REMARK SMILES IDX 8 1 7 2 6 3 5 4 3 5 4 6 2 8 1 9 79 10 80 11 91 12 81 13
REMARK SMILES IDX 89 14 82 15 90 16 83 17 84 18 88 19 85 20 87 21 86 22 9 23
REMARK SMILES IDX 10 24 11 25 12 27 13 28 14 29 78 30 15 31 77 32 16 33 17 34
REMARK SMILES IDX 18 35 71 36 19 37 76 38 70 39 72 40 20 41 75 42 69 43 68 44
REMARK SMILES IDX 21 46 55 47 34 48 54 49 35 50 38 51 53 52 73 53 36 54 37 55
REMARK SMILES IDX 52 57 74 58 39 59 22 60 23 61 32 62 24 63 25 64 31 65 33 66
REMARK SMILES IDX 26 67 27 68 28 69 29 70 30 71 56 72 57 73 66 74 58 75 59 76
REMARK SMILES IDX 65 77 67 78 60 79 61 80 62 81 63 82 64 83 40 84 41 85 50 86
REMARK SMILES IDX 42 87 43 88 49 89 51 90 44 91 45 92 46 93 47 94 48 95
REMARK H PARENT 5 7 10 26 72 45 38 56
REMARK Flexibility Score: inf
ROOT
ATOM      1  C   UNL A   1      33.696  28.192  25.773  1.00  0.00     0.023 C 
ENDROOT
BRANCH   1   2
ATOM      2  C   UNL A   1      33.251  29.370  24.906  1.00  0.00     0.023 C 
BRANCH   2   3
ATOM      3  C   UNL A   1      31.750  29.638  24.920  1.00  0.00     0.116 C 
BRANCH   3   4
ATOM      4  N   UNL A   1      31.126  29.353  23.642  1.00  0.00    -0.356 N 
ATOM      5  C   UNL A   1      30.337  28.310  23.258  1.00  0.00     0.227 C 
ATOM      6  O   UNL A   1      29.854  28.353  22.122  1.00  0.00    -0.274 OA
ATOM      7  H   UNL A   1      31.299  30.020  22.939  1.00  0.00     0.163 HD
BRANCH   5   8
ATOM      8  C   UNL A   1      30.034  27.130  24.186  1.00  0.00     0.105 C 
ATOM      9  C   UNL A   1      28.726  26.429  23.803  1.00  0.00     0.023 C 
BRANCH   8  10
ATOM     10  C   UNL A   1      31.185  26.159  24.429  1.00  0.00    -0.033 A 
ATOM     11  C   UNL A   1      31.329  25.422  25.612  1.00  0.00     0.005 A 
ATOM     12  C   UNL A   1      32.153  25.975  23.429  1.00  0.00     0.044 A 
ATOM     13  C   UNL A   1      32.436  24.591  25.817  1.00  0.00     0.012 A 
ATOM     14  C   UNL A   1      33.245  25.129  23.633  1.00  0.00     0.131 A 
ATOM     15  C   UNL A   1      33.422  24.430  24.832  1.00  0.00     0.017 A 
ATOM     16  F   UNL A   1      34.134  25.000  22.635  1.00  0.00    -0.206 F 
BRANCH  15  17
ATOM     17  C   UNL A   1      34.585  23.563  25.079  1.00  0.00    -0.015 A 
ATOM     18  C   UNL A   1      35.811  24.105  25.503  1.00  0.00     0.009 A 
ATOM     19  C   UNL A   1      34.519  22.177  24.865  1.00  0.00     0.009 A 
ATOM     20  C   UNL A   1      36.931  23.295  25.697  1.00  0.00     0.001 A 
ATOM     21  C   UNL A   1      35.640  21.364  25.058  1.00  0.00     0.001 A 
ATOM     22  C   UNL A   1      36.846  21.924  25.470  1.00  0.00     0.000 A 
ENDBRANCH  15  17
ENDBRANCH   8  10
ENDBRANCH   5   8
ENDBRANCH   3   4
ENDBRANCH   2   3
ENDBRANCH   1   2
BRANCH   1  23
ATOM     23  C   UNL A   1      33.626  28.432  27.276  1.00  0.00     0.116 C 
BRANCH  23  24
ATOM     24  N   UNL A   1      33.540  29.843  27.618  1.00  0.00    -0.352 N 
ATOM     25  C   UNL A   1      34.479  30.654  28.210  1.00  0.00     0.251 C 
ATOM     26  H   UNL A   1      32.687  30.282  27.393  1.00  0.00     0.163 HD
ATOM     27  O   UNL A   1      34.165  31.787  28.566  1.00  0.00    -0.269 OA
BRANCH  25  28
ATOM     28  C   UNL A   1      35.850  30.150  28.440  1.00  0.00     0.039 A 
ATOM     29  C   UNL A   1      36.768  30.192  27.389  1.00  0.00     0.014 A 
ATOM     30  C   UNL A   1      36.234  29.650  29.687  1.00  0.00     0.014 A 
ATOM     31  C   UNL A   1      38.088  29.791  27.609  1.00  0.00     0.010 A 
ATOM     32  C   UNL A   1      37.569  29.332  29.927  1.00  0.00     0.010 A 
ATOM     33  C   UNL A   1      38.510  29.393  28.889  1.00  0.00    -0.014 A 
BRANCH  33  34
ATOM     34  C   UNL A   1      39.930  29.039  29.151  1.00  0.00     0.031 A 
ATOM     35  C   UNL A   1      40.865  30.049  29.761  1.00  0.00     0.074 A 
ATOM     36  C   UNL A   1      40.386  27.818  28.804  1.00  0.00     0.049 A 
ATOM     37  N   UNL A   1      42.139  29.933  30.038  1.00  0.00    -0.248 NA
ATOM     38  C   UNL A   1      40.304  31.372  30.079  1.00  0.00     0.031 C 
ATOM     39  C   UNL A   1      39.593  26.772  28.152  1.00  0.00     0.029 A 
ATOM     40  N   UNL A   1      41.627  27.250  28.944  1.00  0.00    -0.354 N 
ATOM     41  C   UNL A   1      42.527  31.159  30.565  1.00  0.00     0.074 A 
ATOM     42  C   UNL A   1      41.375  32.030  30.500  1.00  0.00     0.031 C 
ATOM     43  C   UNL A   1      40.358  25.683  27.977  1.00  0.00     0.029 A 
ATOM     44  C   UNL A   1      41.704  25.962  28.466  1.00  0.00     0.049 A 
ATOM     45  H   UNL A   1      42.391  27.720  29.351  1.00  0.00     0.167 HD
ATOM     46  C   UNL A   1      43.724  31.518  31.088  1.00  0.00     0.037 A 
ATOM     47  C   UNL A   1      42.743  25.106  28.419  1.00  0.00     0.037 A 
ATOM     48  C   UNL A   1      44.867  30.644  31.158  1.00  0.00     0.049 A 
ATOM     49  C   UNL A   1      44.069  25.534  28.990  1.00  0.00     0.074 A 
ATOM     50  C   UNL A   1      46.117  30.901  31.695  1.00  0.00     0.029 A 
ATOM     51  N   UNL A   1      44.901  29.342  30.677  1.00  0.00    -0.354 N 
ATOM     52  N   UNL A   1      44.399  26.679  29.541  1.00  0.00    -0.248 NA
ATOM     53  C   UNL A   1      45.161  24.552  28.944  1.00  0.00     0.031 C 
ATOM     54  C   UNL A   1      46.919  29.772  31.499  1.00  0.00     0.029 A 
ATOM     55  C   UNL A   1      46.153  28.791  30.891  1.00  0.00     0.049 A 
ATOM     56  H   UNL A   1      44.146  28.879  30.248  1.00  0.00     0.167 HD
ATOM     57  C   UNL A   1      45.726  26.543  29.935  1.00  0.00     0.074 A 
ATOM     58  C   UNL A   1      46.130  25.199  29.576  1.00  0.00     0.031 C 
ATOM     59  C   UNL A   1      46.538  27.447  30.536  1.00  0.00     0.037 A 
BRANCH  46  60
ATOM     60  C   UNL A   1      43.853  32.911  31.644  1.00  0.00     0.058 A 
ATOM     61  C   UNL A   1      43.585  33.189  32.994  1.00  0.00     0.135 A 
ATOM     62  C   UNL A   1      44.287  33.973  30.833  1.00  0.00     0.135 A 
ATOM     63  F   UNL A   1      43.151  32.217  33.812  1.00  0.00    -0.206 F 
ATOM     64  C   UNL A   1      43.716  34.473  33.515  1.00  0.00     0.059 A 
ATOM     65  C   UNL A   1      44.455  35.259  31.340  1.00  0.00     0.059 A 
ATOM     66  F   UNL A   1      44.557  33.767  29.534  1.00  0.00    -0.206 F 
ATOM     67  C   UNL A   1      44.154  35.502  32.679  1.00  0.00     0.060 A 
BRANCH  67  68
ATOM     68  S   UNL A   1      44.330  37.156  33.377  1.00  0.00     0.124 S 
ATOM     69  O   UNL A   1      44.893  37.890  32.248  1.00  0.00    -0.237 OA
ATOM     70  O   UNL A   1      42.954  37.494  33.730  1.00  0.00    -0.237 OA
ATOM     71  O   UNL A   1      45.233  36.956  34.506  1.00  0.00    -0.744 OA
ENDBRANCH  67  68
ENDBRANCH  46  60
BRANCH  47  72
ATOM     72  C   UNL A   1      42.573  23.752  27.821  1.00  0.00     0.058 A 
ATOM     73  C   UNL A   1      42.422  22.615  28.628  1.00  0.00     0.135 A 
ATOM     74  C   UNL A   1      42.574  23.567  26.430  1.00  0.00     0.135 A 
ATOM     75  F   UNL A   1      42.418  22.736  29.965  1.00  0.00    -0.206 F 
ATOM     76  C   UNL A   1      42.311  21.340  28.081  1.00  0.00     0.059 A 
ATOM     77  C   UNL A   1      42.432  22.308  25.858  1.00  0.00     0.059 A 
ATOM     78  F   UNL A   1      42.695  24.624  25.610  1.00  0.00    -0.206 F 
ATOM     79  C   UNL A   1      42.319  21.197  26.693  1.00  0.00     0.060 A 
BRANCH  79  80
ATOM     80  S   UNL A   1      42.154  19.541  25.992  1.00  0.00     0.124 S 
ATOM     81  O   UNL A   1      42.588  18.707  27.106  1.00  0.00    -0.237 OA
ATOM     82  O   UNL A   1      40.732  19.486  25.667  1.00  0.00    -0.237 OA
ATOM     83  O   UNL A   1      43.051  19.575  24.840  1.00  0.00    -0.744 OA
ENDBRANCH  79  80
ENDBRANCH  47  72
BRANCH  59  84
ATOM     84  C   UNL A   1      47.932  26.999  30.885  1.00  0.00     0.058 A 
ATOM     85  C   UNL A   1      48.236  26.416  32.126  1.00  0.00     0.135 A 
ATOM     86  C   UNL A   1      48.973  27.125  29.950  1.00  0.00     0.135 A 
ATOM     87  F   UNL A   1      47.280  26.276  33.058  1.00  0.00    -0.206 F 
ATOM     88  C   UNL A   1      49.528  26.009  32.440  1.00  0.00     0.059 A 
ATOM     89  C   UNL A   1      50.265  26.693  30.231  1.00  0.00     0.059 A 
ATOM     90  F   UNL A   1      48.737  27.662  28.742  1.00  0.00    -0.206 F 
ATOM     91  C   UNL A   1      50.537  26.152  31.486  1.00  0.00     0.060 A 
BRANCH  91  92
ATOM     92  S   UNL A   1      52.206  25.605  31.903  1.00  0.00     0.124 S 
ATOM     93  O   UNL A   1      52.945  25.971  30.700  1.00  0.00    -0.237 OA
ATOM     94  O   UNL A   1      52.503  26.394  33.095  1.00  0.00    -0.237 OA
ATOM     95  O   UNL A   1      52.046  24.172  32.132  1.00  0.00    -0.744 OA
ENDBRANCH  91  92
ENDBRANCH  59  84
ENDBRANCH  33  34
ENDBRANCH  25  28
ENDBRANCH  23  24
ENDBRANCH   1  23
TORSDOF 16
ENDMDL
MODEL 3
REMARK VINA RESULT:      -9.3      0.759      8.384
REMARK SMILES C[C@H](C(=O)NCCCCNC(=O)c1ccc(-c2c3nc(c(-c4c(F)cc(S(=O)(=O)[O-])cc4F)c4ccc([nH]4)c(-c4c(F)cc(S(=O)(=O)[O-])cc4F)c4nc(c(-c5c(F)cc(S(=O)(=O)[O-])cc5F)c5ccc2[nH]5)C=C4)C=C3)cc1)c1ccc(-c2ccccc2)c(F)c1
REMARK SMILES IDX 8 1 7 2 6 3 5 4 3 5 4 6 2 8 1 9 79 10 80 11 91 12 81 13
REMARK SMILES IDX 89 14 82 15 90 16 83 17 84 18 88 19 85 20 87 21 86 22 9 23
REMARK SMILES IDX 10 24 11 25 12 27 13 28 14 29 78 30 15 31 77 32 16 33 17 34
REMARK SMILES IDX 18 35 71 36 19 37 76 38 70 39 72 40 20 41 75 42 69 43 68 44
REMARK SMILES IDX 21 46 55 47 34 48 54 49 35 50 38 51 53 52 73 53 36 54 37 55
REMARK SMILES IDX 52 57 74 58 39 59 22 60 23 61 32 62 24 63 25 64 31 65 33 66
REMARK SMILES IDX 26 67 27 68 28 69 29 70 30 71 56 72 57 73 66 74 58 75 59 76
REMARK SMILES IDX 65 77 67 78 60 79 61 80 62 81 63 82 64 83 40 84 41 85 50 86
REMARK SMILES IDX 42 87 43 88 49 89 51 90 44 91 45 92 46 93 47 94 48 95
REMARK H PARENT 5 7 10 26 72 45 38 56
REMARK Flexibility Score: inf
ROOT
ATOM      1  C   UNL A   1      34.383  32.947  29.772  1.00  0.00     0.023 C 
ENDROOT
BRANCH   1   2
ATOM      2  C   UNL A   1      35.240  32.420  30.923  1.00  0.00     0.023 C 
BRANCH   2   3
ATOM      3  C   UNL A   1      35.558  33.450  32.002  1.00  0.00     0.116 C 
BRANCH   3   4
ATOM      4  N   UNL A   1      35.872  32.836  33.278  1.00  0.00    -0.356 N 
ATOM      5  C   UNL A   1      37.070  32.455  33.804  1.00  0.00     0.227 C 
ATOM      6  O   UNL A   1      37.071  32.032  34.964  1.00  0.00    -0.274 OA
ATOM      7  H   UNL A   1      35.094  32.667  33.857  1.00  0.00     0.163 HD
BRANCH   5   8
ATOM      8  C   UNL A   1      38.378  32.554  33.012  1.00  0.00     0.105 C 
ATOM      9  C   UNL A   1      39.044  33.923  33.189  1.00  0.00     0.023 C 
BRANCH   8  10
ATOM     10  C   UNL A   1      39.349  31.389  33.178  1.00  0.00    -0.033 A 
ATOM     11  C   UNL A   1      40.638  31.536  33.707  1.00  0.00     0.005 A 
ATOM     12  C   UNL A   1      38.947  30.099  32.797  1.00  0.00     0.044 A 
ATOM     13  C   UNL A   1      41.518  30.451  33.782  1.00  0.00     0.012 A 
ATOM     14  C   UNL A   1      39.825  29.016  32.893  1.00  0.00     0.131 A 
ATOM     15  C   UNL A   1      41.131  29.166  33.371  1.00  0.00     0.017 A 
ATOM     16  F   UNL A   1      39.376  27.810  32.509  1.00  0.00    -0.206 F 
BRANCH  15  17
ATOM     17  C   UNL A   1      42.081  28.045  33.444  1.00  0.00    -0.015 A 
ATOM     18  C   UNL A   1      43.022  27.830  32.422  1.00  0.00     0.009 A 
ATOM     19  C   UNL A   1      42.054  27.135  34.514  1.00  0.00     0.009 A 
ATOM     20  C   UNL A   1      43.897  26.742  32.462  1.00  0.00     0.001 A 
ATOM     21  C   UNL A   1      42.928  26.046  34.555  1.00  0.00     0.001 A 
ATOM     22  C   UNL A   1      43.847  25.848  33.528  1.00  0.00     0.000 A 
ENDBRANCH  15  17
ENDBRANCH   8  10
ENDBRANCH   5   8
ENDBRANCH   3   4
ENDBRANCH   2   3
ENDBRANCH   1   2
BRANCH   1  23
ATOM     23  C   UNL A   1      34.742  32.402  28.395  1.00  0.00     0.116 C 
BRANCH  23  24
ATOM     24  N   UNL A   1      34.148  31.100  28.133  1.00  0.00    -0.352 N 
ATOM     25  C   UNL A   1      34.761  29.880  27.977  1.00  0.00     0.251 C 
ATOM     26  H   UNL A   1      33.166  31.091  28.055  1.00  0.00     0.163 HD
ATOM     27  O   UNL A   1      34.104  28.913  27.600  1.00  0.00    -0.269 OA
BRANCH  25  28
ATOM     28  C   UNL A   1      36.211  29.742  28.236  1.00  0.00     0.039 A 
ATOM     29  C   UNL A   1      36.633  29.324  29.500  1.00  0.00     0.014 A 
ATOM     30  C   UNL A   1      37.151  30.013  27.238  1.00  0.00     0.014 A 
ATOM     31  C   UNL A   1      37.993  29.116  29.740  1.00  0.00     0.010 A 
ATOM     32  C   UNL A   1      38.496  29.723  27.452  1.00  0.00     0.010 A 
ATOM     33  C   UNL A   1      38.933  29.277  28.708  1.00  0.00    -0.014 A 
BRANCH  33  34
ATOM     34  C   UNL A   1      40.373  28.984  28.932  1.00  0.00     0.031 A 
ATOM     35  C   UNL A   1      40.932  27.624  28.606  1.00  0.00     0.074 A 
ATOM     36  C   UNL A   1      41.170  29.932  29.466  1.00  0.00     0.049 A 
ATOM     37  N   UNL A   1      42.151  27.175  28.758  1.00  0.00    -0.248 NA
ATOM     38  C   UNL A   1      39.993  26.630  28.061  1.00  0.00     0.031 C 
ATOM     39  C   UNL A   1      40.735  31.269  29.879  1.00  0.00     0.029 A 
ATOM     40  N   UNL A   1      42.511  29.918  29.759  1.00  0.00    -0.354 N 
ATOM     41  C   UNL A   1      42.127  25.854  28.325  1.00  0.00     0.074 A 
ATOM     42  C   UNL A   1      40.757  25.551  27.975  1.00  0.00     0.031 C 
ATOM     43  C   UNL A   1      41.793  31.954  30.343  1.00  0.00     0.029 A 
ATOM     44  C   UNL A   1      42.972  31.096  30.298  1.00  0.00     0.049 A 
ATOM     45  H   UNL A   1      43.089  29.137  29.596  1.00  0.00     0.167 HD
ATOM     46  C   UNL A   1      43.156  24.983  28.196  1.00  0.00     0.037 A 
ATOM     47  C   UNL A   1      44.205  31.445  30.717  1.00  0.00     0.037 A 
ATOM     48  C   UNL A   1      44.521  25.293  28.538  1.00  0.00     0.049 A 
ATOM     49  C   UNL A   1      45.330  30.452  30.581  1.00  0.00     0.074 A 
ATOM     50  C   UNL A   1      45.642  24.491  28.418  1.00  0.00     0.029 A 
ATOM     51  N   UNL A   1      44.951  26.502  29.067  1.00  0.00    -0.354 N 
ATOM     52  N   UNL A   1      45.297  29.228  30.110  1.00  0.00    -0.248 NA
ATOM     53  C   UNL A   1      46.660  30.892  31.021  1.00  0.00     0.031 C 
ATOM     54  C   UNL A   1      46.742  25.198  28.916  1.00  0.00     0.029 A 
ATOM     55  C   UNL A   1      46.317  26.461  29.293  1.00  0.00     0.049 A 
ATOM     56  H   UNL A   1      44.371  27.275  29.254  1.00  0.00     0.167 HD
ATOM     57  C   UNL A   1      46.607  28.763  30.170  1.00  0.00     0.074 A 
ATOM     58  C   UNL A   1      47.409  29.845  30.703  1.00  0.00     0.031 C 
ATOM     59  C   UNL A   1      47.103  27.551  29.817  1.00  0.00     0.037 A 
BRANCH  46  60
ATOM     60  C   UNL A   1      42.849  23.616  27.645  1.00  0.00     0.058 A 
ATOM     61  C   UNL A   1      42.934  23.346  26.269  1.00  0.00     0.135 A 
ATOM     62  C   UNL A   1      42.507  22.555  28.498  1.00  0.00     0.135 A 
ATOM     63  F   UNL A   1      43.241  24.326  25.404  1.00  0.00    -0.206 F 
ATOM     64  C   UNL A   1      42.664  22.081  25.756  1.00  0.00     0.059 A 
ATOM     65  C   UNL A   1      42.263  21.273  28.010  1.00  0.00     0.059 A 
ATOM     66  F   UNL A   1      42.409  22.755  29.822  1.00  0.00    -0.206 F 
ATOM     67  C   UNL A   1      42.331  21.050  26.636  1.00  0.00     0.060 A 
BRANCH  67  68
ATOM     68  S   UNL A   1      41.997  19.413  25.953  1.00  0.00     0.124 S 
ATOM     69  O   UNL A   1      42.467  18.547  27.030  1.00  0.00    -0.237 OA
ATOM     70  O   UNL A   1      40.552  19.448  25.752  1.00  0.00    -0.237 OA
ATOM     71  O   UNL A   1      42.797  19.384  24.732  1.00  0.00    -0.744 OA
ENDBRANCH  67  68
ENDBRANCH  46  60
BRANCH  47  72
ATOM     72  C   UNL A   1      44.447  32.796  31.293  1.00  0.00     0.058 A 
ATOM     73  C   UNL A   1      44.700  33.903  30.470  1.00  0.00     0.135 A 
ATOM     74  C   UNL A   1      44.446  33.005  32.681  1.00  0.00     0.135 A 
ATOM     75  F   UNL A   1      44.717  33.757  29.135  1.00  0.00    -0.206 F 
ATOM     76  C   UNL A   1      44.975  35.160  30.999  1.00  0.00     0.059 A 
ATOM     77  C   UNL A   1      44.686  34.258  33.235  1.00  0.00     0.059 A 
ATOM     78  F   UNL A   1      44.189  31.984  33.516  1.00  0.00    -0.206 F 
ATOM     79  C   UNL A   1      44.967  35.327  32.385  1.00  0.00     0.060 A 
BRANCH  79  80
ATOM     80  S   UNL A   1      45.306  36.967  33.062  1.00  0.00     0.124 S 
ATOM     81  O   UNL A   1      45.887  36.634  34.357  1.00  0.00    -0.237 OA
ATOM     82  O   UNL A   1      46.222  37.524  32.073  1.00  0.00    -0.237 OA
ATOM     83  O   UNL A   1      43.986  37.590  33.103  1.00  0.00    -0.744 OA
ENDBRANCH  79  80
ENDBRANCH  47  72
BRANCH  59  84
ATOM     84  C   UNL A   1      48.587  27.345  29.956  1.00  0.00     0.058 A 
ATOM     85  C   UNL A   1      49.155  26.800  31.119  1.00  0.00     0.135 A 
ATOM     86  C   UNL A   1      49.451  27.665  28.895  1.00  0.00     0.135 A 
ATOM     87  F   UNL A   1      48.377  26.481  32.165  1.00  0.00    -0.206 F 
ATOM     88  C   UNL A   1      50.529  26.617  31.239  1.00  0.00     0.059 A 
ATOM     89  C   UNL A   1      50.823  27.458  28.981  1.00  0.00     0.059 A 
ATOM     90  F   UNL A   1      48.961  28.176  27.754  1.00  0.00    -0.206 F 
ATOM     91  C   UNL A   1      51.356  26.949  30.165  1.00  0.00     0.060 A 
BRANCH  91  92
ATOM     92  S   UNL A   1      53.134  26.691  30.330  1.00  0.00     0.124 S 
ATOM     93  O   UNL A   1      53.580  28.001  30.791  1.00  0.00    -0.237 OA
ATOM     94  O   UNL A   1      53.203  25.614  31.313  1.00  0.00    -0.237 OA
ATOM     95  O   UNL A   1      53.551  26.325  28.979  1.00  0.00    -0.744 OA
ENDBRANCH  91  92
ENDBRANCH  59  84
ENDBRANCH  33  34
ENDBRANCH  25  28
ENDBRANCH  23  24
ENDBRANCH   1  23
TORSDOF 16
ENDMDL
