MODEL 1
REMARK VINA RESULT:      -9.6      0.000      0.000
REMARK SMILES CCC[N@H+](CC(=O)NCCCCNC(=O)c1ccc(-c2c3nc(c(-c4c(F)cc(S(=O)(=O)[O-])cc4F)c4ccc([nH]4)c(-c4c(F)cc(S(=O)(=O)[O-])cc4F)c4nc(c(-c5c(F)cc(S(=O)(=O)[O-])cc5F)c5ccc2[nH]5)C=C4)C=C3)cc1)[C@H]1CCOC2(CCCCC2)C1
REMARK SMILES IDX 10 1 9 2 8 3 6 4 7 5 5 7 4 8 3 10 2 11 1 12 82 13 83 14
REMARK SMILES IDX 92 15 84 16 86 17 85 18 87 19 91 20 88 21 90 22 89 23 11 24
REMARK SMILES IDX 12 25 13 26 14 27 15 29 16 30 17 31 81 32 18 33 80 34 19 35
REMARK SMILES IDX 20 36 21 37 74 38 22 39 79 40 73 41 75 42 23 43 78 44 72 45
REMARK SMILES IDX 71 46 24 48 58 49 37 50 57 51 38 52 41 53 56 54 76 55 39 56
REMARK SMILES IDX 40 57 55 59 77 60 42 61 25 62 26 63 35 64 27 65 28 66 34 67
REMARK SMILES IDX 36 68 29 69 30 70 31 71 32 72 33 73 59 74 60 75 69 76 61 77
REMARK SMILES IDX 62 78 68 79 70 80 63 81 64 82 65 83 66 84 67 85 43 86 44 87
REMARK SMILES IDX 53 88 45 89 46 90 52 91 54 92 47 93 48 94 49 95 50 96 51 97
REMARK H PARENT 8 6 4 9 13 28 75 47 41 58
REMARK Flexibility Score: inf
ROOT
ATOM      1  C   UNL A   1      34.280  34.843  28.474  1.00  0.00     0.023 C 
ENDROOT
BRANCH   1   2
ATOM      2  C   UNL A   1      34.093  35.584  29.801  1.00  0.00     0.116 C 
BRANCH   2   3
ATOM      3  N   UNL A   1      33.574  34.703  30.828  1.00  0.00    -0.351 N 
ATOM      4  C   UNL A   1      34.249  34.050  31.824  1.00  0.00     0.275 C 
ATOM      5  O   UNL A   1      33.630  33.234  32.509  1.00  0.00    -0.269 OA
ATOM      6  H   UNL A   1      32.601  34.551  30.806  1.00  0.00     0.163 HD
BRANCH   4   7
ATOM      7  C   UNL A   1      35.728  34.375  32.087  1.00  0.00     0.363 C 
BRANCH   7   8
ATOM      8  N   UNL A   1      36.680  33.312  31.656  1.00  0.00    -0.325 N 
ATOM      9  H   UNL A   1      36.120  32.519  31.344  1.00  0.00     0.348 HD
BRANCH   8  10
ATOM     10  C   UNL A   1      37.468  33.737  30.494  1.00  0.00     0.262 C 
BRANCH  10  11
ATOM     11  C   UNL A   1      38.658  34.691  30.664  1.00  0.00     0.058 C 
ATOM     12  C   UNL A   1      39.447  34.871  29.378  1.00  0.00     0.010 C 
ENDBRANCH  10  11
ENDBRANCH   8  10
BRANCH   8  13
ATOM     13  C   UNL A   1      37.487  32.746  32.767  1.00  0.00     0.189 C 
ATOM     14  C   UNL A   1      36.748  32.424  34.080  1.00  0.00     0.093 C 
ATOM     15  C   UNL A   1      38.269  31.471  32.379  1.00  0.00     0.100 C 
ATOM     16  C   UNL A   1      37.760  32.003  35.138  1.00  0.00     0.167 C 
ATOM     17  C   UNL A   1      39.206  30.973  33.491  1.00  0.00     0.074 C 
ATOM     18  O   UNL A   1      38.500  30.858  34.735  1.00  0.00    -0.375 OA
ATOM     19  C   UNL A   1      40.441  31.892  33.608  1.00  0.00     0.036 C 
ATOM     20  C   UNL A   1      39.657  29.537  33.134  1.00  0.00     0.036 C 
ATOM     21  C   UNL A   1      41.504  31.341  34.553  1.00  0.00     0.003 C 
ATOM     22  C   UNL A   1      40.715  28.998  34.094  1.00  0.00     0.003 C 
ATOM     23  C   UNL A   1      41.919  29.927  34.162  1.00  0.00     0.000 C 
ENDBRANCH   8  13
ENDBRANCH   7   8
ENDBRANCH   4   7
ENDBRANCH   2   3
ENDBRANCH   1   2
BRANCH   1  24
ATOM     24  C   UNL A   1      33.590  33.494  28.407  1.00  0.00     0.023 C 
BRANCH  24  25
ATOM     25  C   UNL A   1      34.544  32.326  28.535  1.00  0.00     0.116 C 
BRANCH  25  26
ATOM     26  N   UNL A   1      33.953  31.059  28.113  1.00  0.00    -0.352 N 
ATOM     27  C   UNL A   1      34.590  29.856  27.918  1.00  0.00     0.251 C 
ATOM     28  H   UNL A   1      32.983  31.067  27.951  1.00  0.00     0.163 HD
ATOM     29  O   UNL A   1      34.003  28.899  27.437  1.00  0.00    -0.269 OA
BRANCH  27  30
ATOM     30  C   UNL A   1      36.018  29.780  28.275  1.00  0.00     0.039 A 
ATOM     31  C   UNL A   1      36.382  29.303  29.533  1.00  0.00     0.014 A 
ATOM     32  C   UNL A   1      36.977  30.037  27.292  1.00  0.00     0.014 A 
ATOM     33  C   UNL A   1      37.722  29.013  29.783  1.00  0.00     0.010 A 
ATOM     34  C   UNL A   1      38.284  29.636  27.505  1.00  0.00     0.010 A 
ATOM     35  C   UNL A   1      38.673  29.136  28.756  1.00  0.00    -0.014 A 
BRANCH  35  36
ATOM     36  C   UNL A   1      40.098  28.794  28.971  1.00  0.00     0.031 A 
ATOM     37  C   UNL A   1      41.025  29.843  29.523  1.00  0.00     0.074 A 
ATOM     38  C   UNL A   1      40.568  27.588  28.598  1.00  0.00     0.049 A 
ATOM     39  N   UNL A   1      42.320  29.800  29.684  1.00  0.00    -0.248 NA
ATOM     40  C   UNL A   1      40.418  31.132  29.900  1.00  0.00     0.031 C 
ATOM     41  C   UNL A   1      39.778  26.519  27.983  1.00  0.00     0.029 A 
ATOM     42  N   UNL A   1      41.832  27.062  28.673  1.00  0.00    -0.354 N 
ATOM     43  C   UNL A   1      42.682  31.058  30.150  1.00  0.00     0.074 A 
ATOM     44  C   UNL A   1      41.484  31.865  30.177  1.00  0.00     0.031 C 
ATOM     45  C   UNL A   1      40.569  25.455  27.766  1.00  0.00     0.029 A 
ATOM     46  C   UNL A   1      41.927  25.776  28.194  1.00  0.00     0.049 A 
ATOM     47  H   UNL A   1      42.602  27.558  29.034  1.00  0.00     0.167 HD
ATOM     48  C   UNL A   1      43.895  31.491  30.560  1.00  0.00     0.037 A 
ATOM     49  C   UNL A   1      42.990  24.954  28.115  1.00  0.00     0.037 A 
ATOM     50  C   UNL A   1      45.069  30.662  30.585  1.00  0.00     0.049 A 
ATOM     51  C   UNL A   1      44.320  25.438  28.623  1.00  0.00     0.074 A 
ATOM     52  C   UNL A   1      46.336  30.976  31.037  1.00  0.00     0.029 A 
ATOM     53  N   UNL A   1      45.110  29.345  30.148  1.00  0.00    -0.354 N 
ATOM     54  N   UNL A   1      44.634  26.613  29.115  1.00  0.00    -0.248 NA
ATOM     55  C   UNL A   1      45.437  24.484  28.578  1.00  0.00     0.031 C 
ATOM     56  C   UNL A   1      47.152  29.854  30.853  1.00  0.00     0.029 A 
ATOM     57  C   UNL A   1      46.383  28.832  30.318  1.00  0.00     0.049 A 
ATOM     58  H   UNL A   1      44.346  28.851  29.773  1.00  0.00     0.167 HD
ATOM     59  C   UNL A   1      45.980  26.535  29.457  1.00  0.00     0.074 A 
ATOM     60  C   UNL A   1      46.414  25.192  29.130  1.00  0.00     0.031 C 
ATOM     61  C   UNL A   1      46.784  27.486  29.993  1.00  0.00     0.037 A 
BRANCH  48  62
ATOM     62  C   UNL A   1      43.997  32.912  31.037  1.00  0.00     0.058 A 
ATOM     63  C   UNL A   1      43.994  33.990  30.136  1.00  0.00     0.135 A 
ATOM     64  C   UNL A   1      44.101  33.205  32.407  1.00  0.00     0.135 A 
ATOM     65  F   UNL A   1      43.921  33.767  28.814  1.00  0.00    -0.206 F 
ATOM     66  C   UNL A   1      44.127  35.304  30.572  1.00  0.00     0.059 A 
ATOM     67  C   UNL A   1      44.205  34.514  32.867  1.00  0.00     0.059 A 
ATOM     68  F   UNL A   1      44.114  32.213  33.310  1.00  0.00    -0.206 F 
ATOM     69  C   UNL A   1      44.236  35.555  31.940  1.00  0.00     0.060 A 
BRANCH  69  70
ATOM     70  S   UNL A   1      44.412  37.266  32.489  1.00  0.00     0.124 S 
ATOM     71  O   UNL A   1      44.193  37.994  31.244  1.00  0.00    -0.237 OA
ATOM     72  O   UNL A   1      43.354  37.385  33.487  1.00  0.00    -0.237 OA
ATOM     73  O   UNL A   1      45.773  37.314  33.013  1.00  0.00    -0.744 OA
ENDBRANCH  69  70
ENDBRANCH  48  62
BRANCH  49  74
ATOM     74  C   UNL A   1      42.827  23.578  27.573  1.00  0.00     0.058 A 
ATOM     75  C   UNL A   1      43.143  23.290  26.237  1.00  0.00     0.135 A 
ATOM     76  C   UNL A   1      42.377  22.523  28.382  1.00  0.00     0.135 A 
ATOM     77  F   UNL A   1      43.574  24.266  25.425  1.00  0.00    -0.206 F 
ATOM     78  C   UNL A   1      43.006  22.007  25.716  1.00  0.00     0.059 A 
ATOM     79  C   UNL A   1      42.253  21.227  27.889  1.00  0.00     0.059 A 
ATOM     80  F   UNL A   1      42.081  22.743  29.671  1.00  0.00    -0.206 F 
ATOM     81  C   UNL A   1      42.561  20.981  26.551  1.00  0.00     0.060 A 
BRANCH  81  82
ATOM     82  S   UNL A   1      42.441  19.308  25.880  1.00  0.00     0.124 S 
ATOM     83  O   UNL A   1      43.200  19.434  24.641  1.00  0.00    -0.237 OA
ATOM     84  O   UNL A   1      43.062  18.509  26.932  1.00  0.00    -0.237 OA
ATOM     85  O   UNL A   1      41.002  19.114  25.723  1.00  0.00    -0.744 OA
ENDBRANCH  81  82
ENDBRANCH  49  74
BRANCH  61  86
ATOM     86  C   UNL A   1      48.205  27.101  30.287  1.00  0.00     0.058 A 
ATOM     87  C   UNL A   1      49.201  27.168  29.303  1.00  0.00     0.135 A 
ATOM     88  C   UNL A   1      48.582  26.723  31.585  1.00  0.00     0.135 A 
ATOM     89  F   UNL A   1      48.886  27.519  28.045  1.00  0.00    -0.206 F 
ATOM     90  C   UNL A   1      50.524  26.855  29.590  1.00  0.00     0.059 A 
ATOM     91  C   UNL A   1      49.904  26.430  31.902  1.00  0.00     0.059 A 
ATOM     92  F   UNL A   1      47.666  26.656  32.564  1.00  0.00    -0.206 F 
ATOM     93  C   UNL A   1      50.866  26.489  30.894  1.00  0.00     0.060 A 
BRANCH  93  94
ATOM     94  S   UNL A   1      52.594  26.125  31.265  1.00  0.00     0.124 S 
ATOM     95  O   UNL A   1      53.230  26.374  29.977  1.00  0.00    -0.237 OA
ATOM     96  O   UNL A   1      52.898  27.087  32.320  1.00  0.00    -0.237 OA
ATOM     97  O   UNL A   1      52.561  24.728  31.691  1.00  0.00    -0.744 OA
ENDBRANCH  93  94
ENDBRANCH  61  86
ENDBRANCH  35  36
ENDBRANCH  27  30
ENDBRANCH  25  26
ENDBRANCH  24  25
ENDBRANCH   1  24
TORSDOF 18
ENDMDL
MODEL 2
REMARK VINA RESULT:      -9.4      3.669      6.345
REMARK SMILES CCC[N@H+](CC(=O)NCCCCNC(=O)c1ccc(-c2c3nc(c(-c4c(F)cc(S(=O)(=O)[O-])cc4F)c4ccc([nH]4)c(-c4c(F)cc(S(=O)(=O)[O-])cc4F)c4nc(c(-c5c(F)cc(S(=O)(=O)[O-])cc5F)c5ccc2[nH]5)C=C4)C=C3)cc1)[C@H]1CCOC2(CCCCC2)C1
REMARK SMILES IDX 10 1 9 2 8 3 6 4 7 5 5 7 4 8 3 10 2 11 1 12 82 13 83 14
REMARK SMILES IDX 92 15 84 16 86 17 85 18 87 19 91 20 88 21 90 22 89 23 11 24
REMARK SMILES IDX 12 25 13 26 14 27 15 29 16 30 17 31 81 32 18 33 80 34 19 35
REMARK SMILES IDX 20 36 21 37 74 38 22 39 79 40 73 41 75 42 23 43 78 44 72 45
REMARK SMILES IDX 71 46 24 48 58 49 37 50 57 51 38 52 41 53 56 54 76 55 39 56
REMARK SMILES IDX 40 57 55 59 77 60 42 61 25 62 26 63 35 64 27 65 28 66 34 67
REMARK SMILES IDX 36 68 29 69 30 70 31 71 32 72 33 73 59 74 60 75 69 76 61 77
REMARK SMILES IDX 62 78 68 79 70 80 63 81 64 82 65 83 66 84 67 85 43 86 44 87
REMARK SMILES IDX 53 88 45 89 46 90 52 91 54 92 47 93 48 94 49 95 50 96 51 97
REMARK H PARENT 8 6 4 9 13 28 75 47 41 58
REMARK Flexibility Score: inf
ROOT
ATOM      1  C   UNL A   1      34.278  28.633  27.077  1.00  0.00     0.023 C 
ENDROOT
BRANCH   1   2
ATOM      2  C   UNL A   1      32.785  28.488  27.378  1.00  0.00     0.116 C 
BRANCH   2   3
ATOM      3  N   UNL A   1      32.065  29.711  27.082  1.00  0.00    -0.351 N 
ATOM      4  C   UNL A   1      31.711  30.228  25.865  1.00  0.00     0.275 C 
ATOM      5  O   UNL A   1      31.222  31.358  25.833  1.00  0.00    -0.269 OA
ATOM      6  H   UNL A   1      31.794  30.244  27.865  1.00  0.00     0.163 HD
BRANCH   4   7
ATOM      7  C   UNL A   1      31.892  29.385  24.593  1.00  0.00     0.363 C 
BRANCH   7   8
ATOM      8  N   UNL A   1      30.743  28.487  24.278  1.00  0.00    -0.325 N 
ATOM      9  H   UNL A   1      30.035  28.647  24.994  1.00  0.00     0.348 HD
BRANCH   8  10
ATOM     10  C   UNL A   1      30.118  28.847  23.000  1.00  0.00     0.262 C 
BRANCH  10  11
ATOM     11  C   UNL A   1      28.703  29.439  22.963  1.00  0.00     0.058 C 
ATOM     12  C   UNL A   1      28.664  30.883  23.436  1.00  0.00     0.010 C 
ENDBRANCH  10  11
ENDBRANCH   8  10
BRANCH   8  13
ATOM     13  C   UNL A   1      31.056  27.042  24.420  1.00  0.00     0.189 C 
ATOM     14  C   UNL A   1      30.355  26.073  23.448  1.00  0.00     0.093 C 
ATOM     15  C   UNL A   1      32.566  26.724  24.347  1.00  0.00     0.100 C 
ATOM     16  C   UNL A   1      30.681  24.638  23.847  1.00  0.00     0.167 C 
ATOM     17  C   UNL A   1      32.889  25.249  24.632  1.00  0.00     0.074 C 
ATOM     18  O   UNL A   1      32.079  24.386  23.819  1.00  0.00    -0.375 OA
ATOM     19  C   UNL A   1      32.731  24.943  26.137  1.00  0.00     0.036 C 
ATOM     20  C   UNL A   1      34.348  24.982  24.195  1.00  0.00     0.036 C 
ATOM     21  C   UNL A   1      33.229  23.552  26.515  1.00  0.00     0.003 C 
ATOM     22  C   UNL A   1      34.829  23.583  24.575  1.00  0.00     0.003 C 
ATOM     23  C   UNL A   1      34.670  23.335  26.069  1.00  0.00     0.000 C 
ENDBRANCH   8  13
ENDBRANCH   7   8
ENDBRANCH   4   7
ENDBRANCH   2   3
ENDBRANCH   1   2
BRANCH   1  24
ATOM     24  C   UNL A   1      34.920  29.873  27.671  1.00  0.00     0.023 C 
BRANCH  24  25
ATOM     25  C   UNL A   1      35.904  29.566  28.779  1.00  0.00     0.116 C 
BRANCH  25  26
ATOM     26  N   UNL A   1      35.685  30.374  29.976  1.00  0.00    -0.352 N 
ATOM     27  C   UNL A   1      36.629  30.859  30.850  1.00  0.00     0.251 C 
ATOM     28  H   UNL A   1      34.749  30.598  30.181  1.00  0.00     0.163 HD
ATOM     29  O   UNL A   1      36.305  31.413  31.888  1.00  0.00    -0.269 OA
BRANCH  27  30
ATOM     30  C   UNL A   1      38.046  30.649  30.501  1.00  0.00     0.039 A 
ATOM     31  C   UNL A   1      38.896  30.051  31.430  1.00  0.00     0.014 A 
ATOM     32  C   UNL A   1      38.467  30.908  29.194  1.00  0.00     0.014 A 
ATOM     33  C   UNL A   1      40.163  29.643  31.019  1.00  0.00     0.010 A 
ATOM     34  C   UNL A   1      39.678  30.394  28.762  1.00  0.00     0.010 A 
ATOM     35  C   UNL A   1      40.545  29.773  29.672  1.00  0.00    -0.014 A 
BRANCH  35  36
ATOM     36  C   UNL A   1      41.866  29.310  29.190  1.00  0.00     0.031 A 
ATOM     37  C   UNL A   1      43.000  30.295  29.110  1.00  0.00     0.074 A 
ATOM     38  C   UNL A   1      42.022  28.044  28.754  1.00  0.00     0.049 A 
ATOM     39  N   UNL A   1      44.199  30.138  28.616  1.00  0.00    -0.248 NA
ATOM     40  C   UNL A   1      42.733  31.656  29.610  1.00  0.00     0.031 C 
ATOM     41  C   UNL A   1      40.973  27.022  28.715  1.00  0.00     0.029 A 
ATOM     42  N   UNL A   1      43.124  27.406  28.247  1.00  0.00    -0.354 N 
ATOM     43  C   UNL A   1      44.812  31.381  28.719  1.00  0.00     0.074 A 
ATOM     44  C   UNL A   1      43.833  32.298  29.254  1.00  0.00     0.031 C 
ATOM     45  C   UNL A   1      41.491  25.877  28.241  1.00  0.00     0.029 A 
ATOM     46  C   UNL A   1      42.897  26.091  27.912  1.00  0.00     0.049 A 
ATOM     47  H   UNL A   1      43.997  27.846  28.133  1.00  0.00     0.167 HD
ATOM     48  C   UNL A   1      46.090  31.719  28.434  1.00  0.00     0.037 A 
ATOM     49  C   UNL A   1      43.733  25.168  27.400  1.00  0.00     0.037 A 
ATOM     50  C   UNL A   1      47.073  30.784  27.958  1.00  0.00     0.049 A 
ATOM     51  C   UNL A   1      45.163  25.551  27.138  1.00  0.00     0.074 A 
ATOM     52  C   UNL A   1      48.412  31.001  27.695  1.00  0.00     0.029 A 
ATOM     53  N   UNL A   1      46.819  29.446  27.688  1.00  0.00    -0.354 N 
ATOM     54  N   UNL A   1      45.744  26.717  27.294  1.00  0.00    -0.248 NA
ATOM     55  C   UNL A   1      46.055  24.495  26.642  1.00  0.00     0.031 C 
ATOM     56  C   UNL A   1      48.965  29.798  27.243  1.00  0.00     0.029 A 
ATOM     57  C   UNL A   1      47.977  28.825  27.259  1.00  0.00     0.049 A 
ATOM     58  H   UNL A   1      45.944  29.006  27.787  1.00  0.00     0.167 HD
ATOM     59  C   UNL A   1      47.075  26.531  26.936  1.00  0.00     0.074 A 
ATOM     60  C   UNL A   1      47.214  25.136  26.569  1.00  0.00     0.031 C 
ATOM     61  C   UNL A   1      48.090  27.430  26.911  1.00  0.00     0.037 A 
BRANCH  48  62
ATOM     62  C   UNL A   1      46.493  33.149  28.659  1.00  0.00     0.058 A 
ATOM     63  C   UNL A   1      46.401  34.106  27.634  1.00  0.00     0.135 A 
ATOM     64  C   UNL A   1      46.978  33.570  29.907  1.00  0.00     0.135 A 
ATOM     65  F   UNL A   1      45.966  33.752  26.414  1.00  0.00    -0.206 F 
ATOM     66  C   UNL A   1      46.810  35.421  27.828  1.00  0.00     0.059 A 
ATOM     67  C   UNL A   1      47.365  34.888  30.131  1.00  0.00     0.059 A 
ATOM     68  F   UNL A   1      47.092  32.697  30.919  1.00  0.00    -0.206 F 
ATOM     69  C   UNL A   1      47.294  35.802  29.080  1.00  0.00     0.060 A 
BRANCH  69  70
ATOM     70  S   UNL A   1      47.824  37.511  29.314  1.00  0.00     0.124 S 
ATOM     71  O   UNL A   1      46.625  38.243  28.918  1.00  0.00    -0.237 OA
ATOM     72  O   UNL A   1      48.149  37.547  30.735  1.00  0.00    -0.237 OA
ATOM     73  O   UNL A   1      48.963  37.638  28.410  1.00  0.00    -0.744 OA
ENDBRANCH  69  70
ENDBRANCH  48  62
BRANCH  49  74
ATOM     74  C   UNL A   1      43.247  23.785  27.145  1.00  0.00     0.058 A 
ATOM     75  C   UNL A   1      42.892  23.375  25.851  1.00  0.00     0.135 A 
ATOM     76  C   UNL A   1      43.151  22.842  28.180  1.00  0.00     0.135 A 
ATOM     77  F   UNL A   1      42.964  24.242  24.831  1.00  0.00    -0.206 F 
ATOM     78  C   UNL A   1      42.446  22.084  25.593  1.00  0.00     0.059 A 
ATOM     79  C   UNL A   1      42.728  21.538  27.942  1.00  0.00     0.059 A 
ATOM     80  F   UNL A   1      43.498  23.180  29.431  1.00  0.00    -0.206 F 
ATOM     81  C   UNL A   1      42.368  21.170  26.646  1.00  0.00     0.060 A 
BRANCH  81  82
ATOM     82  S   UNL A   1      41.840  19.480  26.290  1.00  0.00     0.124 S 
ATOM     83  O   UNL A   1      42.267  18.780  27.496  1.00  0.00    -0.237 OA
ATOM     84  O   UNL A   1      40.399  19.636  26.118  1.00  0.00    -0.237 OA
ATOM     85  O   UNL A   1      42.576  19.150  25.072  1.00  0.00    -0.744 OA
ENDBRANCH  81  82
ENDBRANCH  49  74
BRANCH  61  86
ATOM     86  C   UNL A   1      49.444  26.928  26.503  1.00  0.00     0.058 A 
ATOM     87  C   UNL A   1      50.352  26.422  27.444  1.00  0.00     0.135 A 
ATOM     88  C   UNL A   1      49.808  26.895  25.149  1.00  0.00     0.135 A 
ATOM     89  F   UNL A   1      50.050  26.438  28.752  1.00  0.00    -0.206 F 
ATOM     90  C   UNL A   1      51.587  25.914  27.057  1.00  0.00     0.059 A 
ATOM     91  C   UNL A   1      51.027  26.369  24.736  1.00  0.00     0.059 A 
ATOM     92  F   UNL A   1      48.967  27.358  24.210  1.00  0.00    -0.206 F 
ATOM     93  C   UNL A   1      51.914  25.891  25.700  1.00  0.00     0.060 A 
BRANCH  93  94
ATOM     94  S   UNL A   1      53.503  25.192  25.205  1.00  0.00     0.124 S 
ATOM     95  O   UNL A   1      53.223  23.761  25.255  1.00  0.00    -0.237 OA
ATOM     96  O   UNL A   1      53.693  25.755  23.872  1.00  0.00    -0.237 OA
ATOM     97  O   UNL A   1      54.423  25.688  26.224  1.00  0.00    -0.744 OA
ENDBRANCH  93  94
ENDBRANCH  61  86
ENDBRANCH  35  36
ENDBRANCH  27  30
ENDBRANCH  25  26
ENDBRANCH  24  25
ENDBRANCH   1  24
TORSDOF 18
ENDMDL
MODEL 3
REMARK VINA RESULT:      -9.3      5.278     12.210
REMARK SMILES CCC[N@H+](CC(=O)NCCCCNC(=O)c1ccc(-c2c3nc(c(-c4c(F)cc(S(=O)(=O)[O-])cc4F)c4ccc([nH]4)c(-c4c(F)cc(S(=O)(=O)[O-])cc4F)c4nc(c(-c5c(F)cc(S(=O)(=O)[O-])cc5F)c5ccc2[nH]5)C=C4)C=C3)cc1)[C@H]1CCOC2(CCCCC2)C1
REMARK SMILES IDX 10 1 9 2 8 3 6 4 7 5 5 7 4 8 3 10 2 11 1 12 82 13 83 14
REMARK SMILES IDX 92 15 84 16 86 17 85 18 87 19 91 20 88 21 90 22 89 23 11 24
REMARK SMILES IDX 12 25 13 26 14 27 15 29 16 30 17 31 81 32 18 33 80 34 19 35
REMARK SMILES IDX 20 36 21 37 74 38 22 39 79 40 73 41 75 42 23 43 78 44 72 45
REMARK SMILES IDX 71 46 24 48 58 49 37 50 57 51 38 52 41 53 56 54 76 55 39 56
REMARK SMILES IDX 40 57 55 59 77 60 42 61 25 62 26 63 35 64 27 65 28 66 34 67
REMARK SMILES IDX 36 68 29 69 30 70 31 71 32 72 33 73 59 74 60 75 69 76 61 77
REMARK SMILES IDX 62 78 68 79 70 80 63 81 64 82 65 83 66 84 67 85 43 86 44 87
REMARK SMILES IDX 53 88 45 89 46 90 52 91 54 92 47 93 48 94 49 95 50 96 51 97
REMARK H PARENT 8 6 4 9 13 28 75 47 41 58
REMARK Flexibility Score: inf
ROOT
ATOM      1  C   UNL A   1      37.986  23.789  26.194  1.00  0.00     0.023 C 
ENDROOT
BRANCH   1   2
ATOM      2  C   UNL A   1      36.766  23.245  25.448  1.00  0.00     0.116 C 
BRANCH   2   3
ATOM      3  N   UNL A   1      36.042  22.282  26.252  1.00  0.00    -0.351 N 
ATOM      4  C   UNL A   1      34.725  22.288  26.626  1.00  0.00     0.275 C 
ATOM      5  O   UNL A   1      34.345  21.439  27.434  1.00  0.00    -0.269 OA
ATOM      6  H   UNL A   1      36.571  21.516  26.576  1.00  0.00     0.163 HD
BRANCH   4   7
ATOM      7  C   UNL A   1      33.759  23.312  26.009  1.00  0.00     0.363 C 
BRANCH   7   8
ATOM      8  N   UNL A   1      33.344  23.005  24.610  1.00  0.00    -0.325 N 
ATOM      9  H   UNL A   1      34.161  22.621  24.135  1.00  0.00     0.348 HD
BRANCH   8  10
ATOM     10  C   UNL A   1      32.320  21.956  24.573  1.00  0.00     0.262 C 
BRANCH  10  11
ATOM     11  C   UNL A   1      32.619  20.596  23.928  1.00  0.00     0.058 C 
ATOM     12  C   UNL A   1      32.744  19.481  24.953  1.00  0.00     0.010 C 
ENDBRANCH  10  11
ENDBRANCH   8  10
BRANCH   8  13
ATOM     13  C   UNL A   1      33.013  24.210  23.806  1.00  0.00     0.189 C 
ATOM     14  C   UNL A   1      33.000  24.050  22.274  1.00  0.00     0.093 C 
ATOM     15  C   UNL A   1      31.669  24.864  24.193  1.00  0.00     0.100 C 
ATOM     16  C   UNL A   1      32.794  25.415  21.628  1.00  0.00     0.167 C 
ATOM     17  C   UNL A   1      31.402  26.184  23.453  1.00  0.00     0.074 C 
ATOM     18  O   UNL A   1      31.574  26.016  22.038  1.00  0.00    -0.375 OA
ATOM     19  C   UNL A   1      32.297  27.308  24.016  1.00  0.00     0.036 C 
ATOM     20  C   UNL A   1      29.913  26.555  23.650  1.00  0.00     0.036 C 
ATOM     21  C   UNL A   1      31.939  28.685  23.464  1.00  0.00     0.003 C 
ATOM     22  C   UNL A   1      29.570  27.932  23.085  1.00  0.00     0.003 C 
ATOM     23  C   UNL A   1      30.466  29.008  23.682  1.00  0.00     0.000 C 
ENDBRANCH   8  13
ENDBRANCH   7   8
ENDBRANCH   4   7
ENDBRANCH   2   3
ENDBRANCH   1   2
BRANCH   1  24
ATOM     24  C   UNL A   1      39.062  22.756  26.471  1.00  0.00     0.023 C 
BRANCH  24  25
ATOM     25  C   UNL A   1      40.277  23.328  27.170  1.00  0.00     0.116 C 
BRANCH  25  26
ATOM     26  N   UNL A   1      41.318  23.759  26.242  1.00  0.00    -0.352 N 
ATOM     27  C   UNL A   1      41.858  25.017  26.107  1.00  0.00     0.251 C 
ATOM     28  H   UNL A   1      41.678  23.066  25.643  1.00  0.00     0.163 HD
ATOM     29  O   UNL A   1      42.634  25.278  25.201  1.00  0.00    -0.269 OA
BRANCH  27  30
ATOM     30  C   UNL A   1      41.432  26.044  27.074  1.00  0.00     0.039 A 
ATOM     31  C   UNL A   1      40.438  25.738  28.002  1.00  0.00     0.014 A 
ATOM     32  C   UNL A   1      42.142  27.246  27.143  1.00  0.00     0.014 A 
ATOM     33  C   UNL A   1      40.204  26.619  29.055  1.00  0.00     0.010 A 
ATOM     34  C   UNL A   1      41.988  28.057  28.253  1.00  0.00     0.010 A 
ATOM     35  C   UNL A   1      41.007  27.762  29.211  1.00  0.00    -0.014 A 
BRANCH  35  36
ATOM     36  C   UNL A   1      40.817  28.698  30.343  1.00  0.00     0.031 A 
ATOM     37  C   UNL A   1      41.676  28.545  31.568  1.00  0.00     0.074 A 
ATOM     38  C   UNL A   1      39.833  29.618  30.302  1.00  0.00     0.049 A 
ATOM     39  N   UNL A   1      41.606  29.174  32.711  1.00  0.00    -0.248 NA
ATOM     40  C   UNL A   1      42.725  27.510  31.518  1.00  0.00     0.031 C 
ATOM     41  C   UNL A   1      38.890  29.808  29.197  1.00  0.00     0.029 A 
ATOM     42  N   UNL A   1      39.455  30.559  31.224  1.00  0.00    -0.354 N 
ATOM     43  C   UNL A   1      42.577  28.593  33.518  1.00  0.00     0.074 A 
ATOM     44  C   UNL A   1      43.171  27.514  32.763  1.00  0.00     0.031 C 
ATOM     45  C   UNL A   1      38.064  30.825  29.493  1.00  0.00     0.029 A 
ATOM     46  C   UNL A   1      38.395  31.336  30.820  1.00  0.00     0.049 A 
ATOM     47  H   UNL A   1      39.899  30.669  32.096  1.00  0.00     0.167 HD
ATOM     48  C   UNL A   1      42.967  28.952  34.762  1.00  0.00     0.037 A 
ATOM     49  C   UNL A   1      37.766  32.347  31.450  1.00  0.00     0.037 A 
ATOM     50  C   UNL A   1      42.409  30.064  35.481  1.00  0.00     0.049 A 
ATOM     51  C   UNL A   1      38.251  32.763  32.812  1.00  0.00     0.074 A 
ATOM     52  C   UNL A   1      42.769  30.557  36.721  1.00  0.00     0.029 A 
ATOM     53  N   UNL A   1      41.377  30.865  35.011  1.00  0.00    -0.354 N 
ATOM     54  N   UNL A   1      39.208  32.239  33.540  1.00  0.00    -0.248 NA
ATOM     55  C   UNL A   1      37.579  33.912  33.434  1.00  0.00     0.031 C 
ATOM     56  C   UNL A   1      41.939  31.645  37.013  1.00  0.00     0.029 A 
ATOM     57  C   UNL A   1      41.086  31.849  35.938  1.00  0.00     0.049 A 
ATOM     58  H   UNL A   1      40.921  30.749  34.148  1.00  0.00     0.167 HD
ATOM     59  C   UNL A   1      39.269  33.007  34.698  1.00  0.00     0.074 A 
ATOM     60  C   UNL A   1      38.261  34.040  34.565  1.00  0.00     0.031 C 
ATOM     61  C   UNL A   1      40.083  32.872  35.774  1.00  0.00     0.037 A 
BRANCH  48  62
ATOM     62  C   UNL A   1      44.065  28.148  35.400  1.00  0.00     0.058 A 
ATOM     63  C   UNL A   1      45.418  28.475  35.210  1.00  0.00     0.135 A 
ATOM     64  C   UNL A   1      43.767  27.039  36.207  1.00  0.00     0.135 A 
ATOM     65  F   UNL A   1      45.761  29.511  34.428  1.00  0.00    -0.206 F 
ATOM     66  C   UNL A   1      46.437  27.710  35.766  1.00  0.00     0.059 A 
ATOM     67  C   UNL A   1      44.770  26.277  36.798  1.00  0.00     0.059 A 
ATOM     68  F   UNL A   1      42.491  26.679  36.417  1.00  0.00    -0.206 F 
ATOM     69  C   UNL A   1      46.102  26.609  36.557  1.00  0.00     0.060 A 
BRANCH  69  70
ATOM     70  S   UNL A   1      47.436  25.624  37.270  1.00  0.00     0.124 S 
ATOM     71  O   UNL A   1      47.212  24.330  36.633  1.00  0.00    -0.237 OA
ATOM     72  O   UNL A   1      48.626  26.347  36.834  1.00  0.00    -0.237 OA
ATOM     73  O   UNL A   1      47.165  25.675  38.703  1.00  0.00    -0.744 OA
ENDBRANCH  69  70
ENDBRANCH  48  62
BRANCH  49  74
ATOM     74  C   UNL A   1      36.645  33.058  30.781  1.00  0.00     0.058 A 
ATOM     75  C   UNL A   1      35.320  32.870  31.204  1.00  0.00     0.135 A 
ATOM     76  C   UNL A   1      36.874  33.954  29.725  1.00  0.00     0.135 A 
ATOM     77  F   UNL A   1      35.051  32.022  32.206  1.00  0.00    -0.206 F 
ATOM     78  C   UNL A   1      34.261  33.535  30.596  1.00  0.00     0.059 A 
ATOM     79  C   UNL A   1      35.832  34.647  29.116  1.00  0.00     0.059 A 
ATOM     80  F   UNL A   1      38.125  34.183  29.298  1.00  0.00    -0.206 F 
ATOM     81  C   UNL A   1      34.526  34.423  29.553  1.00  0.00     0.060 A 
BRANCH  81  82
ATOM     82  S   UNL A   1      33.148  35.323  28.808  1.00  0.00     0.124 S 
ATOM     83  O   UNL A   1      33.847  36.357  28.054  1.00  0.00    -0.237 OA
ATOM     84  O   UNL A   1      32.495  34.286  28.016  1.00  0.00    -0.237 OA
ATOM     85  O   UNL A   1      32.388  35.788  29.965  1.00  0.00    -0.744 OA
ENDBRANCH  81  82
ENDBRANCH  49  74
BRANCH  61  86
ATOM     86  C   UNL A   1      39.940  33.880  36.877  1.00  0.00     0.058 A 
ATOM     87  C   UNL A   1      40.553  35.138  36.805  1.00  0.00     0.135 A 
ATOM     88  C   UNL A   1      39.124  33.605  37.986  1.00  0.00     0.135 A 
ATOM     89  F   UNL A   1      41.346  35.445  35.766  1.00  0.00    -0.206 F 
ATOM     90  C   UNL A   1      40.379  36.086  37.806  1.00  0.00     0.059 A 
ATOM     91  C   UNL A   1      38.916  34.546  38.987  1.00  0.00     0.059 A 
ATOM     92  F   UNL A   1      38.506  32.417  38.093  1.00  0.00    -0.206 F 
ATOM     93  C   UNL A   1      39.557  35.781  38.892  1.00  0.00     0.060 A 
BRANCH  93  94
ATOM     94  S   UNL A   1      39.305  37.035  40.166  1.00  0.00     0.124 S 
ATOM     95  O   UNL A   1      40.676  37.303  40.588  1.00  0.00    -0.237 OA
ATOM     96  O   UNL A   1      38.648  38.107  39.426  1.00  0.00    -0.237 OA
ATOM     97  O   UNL A   1      38.466  36.355  41.149  1.00  0.00    -0.744 OA
ENDBRANCH  93  94
ENDBRANCH  61  86
ENDBRANCH  35  36
ENDBRANCH  27  30
ENDBRANCH  25  26
ENDBRANCH  24  25
ENDBRANCH   1  24
TORSDOF 18
ENDMDL
