MODEL 1
REMARK VINA RESULT:     -11.1      0.000      0.000
REMARK SMILES CCC[C@H](Nc1cc(C)c(N)c(C(=O)NCCCCNC(=O)c2ccc(-c3c4nc(c(-c5c(F)cc(S(=O)(=O)[O-])cc5F)c5ccc([nH]5)c(-c5c(F)cc(S(=O)(=O)[O-])cc5F)c5nc(c(-c6c(F)cc(S(=O)(=O)[O-])cc6F)c6ccc3[nH]6)C=C5)C=C4)cc2)c1)c1cccs1
REMARK SMILES IDX 17 1 16 2 15 3 13 4 14 5 12 7 6 8 7 9 89 10 8 11 9 12 10 13
REMARK SMILES IDX 5 14 4 16 3 17 2 18 1 19 90 20 91 21 94 22 92 23 93 24 11 25
REMARK SMILES IDX 18 28 19 29 20 30 21 31 22 33 23 34 24 35 88 36 25 37 87 38
REMARK SMILES IDX 26 39 27 40 28 41 81 42 29 43 86 44 80 45 82 46 30 47 85 48
REMARK SMILES IDX 79 49 78 50 31 52 65 53 44 54 64 55 45 56 48 57 63 58 83 59
REMARK SMILES IDX 46 60 47 61 62 63 84 64 49 65 32 66 33 67 42 68 34 69 35 70
REMARK SMILES IDX 41 71 43 72 36 73 37 74 38 75 39 76 40 77 66 78 67 79 76 80
REMARK SMILES IDX 68 81 69 82 75 83 77 84 70 85 71 86 72 87 73 88 74 89 50 90
REMARK SMILES IDX 51 91 60 92 52 93 53 94 59 95 61 96 54 97 55 98 56 99 57 100
REMARK SMILES IDX 58 101
REMARK H PARENT 15 6 5 15 11 26 11 27 20 32 82 51 48 62
REMARK Flexibility Score: inf
ROOT
ATOM      1  C   UNL A   1      39.246  22.986  26.566  1.00  0.00     0.023 C 
ENDROOT
BRANCH   1   2
ATOM      2  C   UNL A   1      38.341  21.953  25.889  1.00  0.00     0.116 C 
BRANCH   2   3
ATOM      3  N   UNL A   1      37.864  22.478  24.626  1.00  0.00    -0.352 N 
ATOM      4  C   UNL A   1      36.610  22.675  24.099  1.00  0.00     0.253 C 
ATOM      5  O   UNL A   1      36.577  23.064  22.928  1.00  0.00    -0.269 OA
ATOM      6  H   UNL A   1      38.589  22.753  24.019  1.00  0.00     0.163 HD
BRANCH   4   7
ATOM      7  C   UNL A   1      35.336  22.524  24.883  1.00  0.00     0.065 A 
ATOM      8  C   UNL A   1      33.384  23.518  25.988  1.00  0.00     0.036 A 
ATOM      9  C   UNL A   1      32.829  22.248  26.073  1.00  0.00     0.031 A 
ATOM     10  C   UNL A   1      34.666  23.625  25.442  1.00  0.00     0.041 A 
ATOM     11  C   UNL A   1      33.530  21.098  25.673  1.00  0.00    -0.025 A 
ATOM     12  C   UNL A   1      32.909  19.752  25.928  1.00  0.00     0.046 C 
ATOM     13  C   UNL A   1      34.781  21.229  25.043  1.00  0.00     0.047 A 
BRANCH   8  14
ATOM     14  N   UNL A   1      32.710  24.655  26.386  1.00  0.00    -0.377 N 
ATOM     15  H   UNL A   1      32.383  24.660  27.314  1.00  0.00     0.161 HD
BRANCH  14  16
ATOM     16  C   UNL A   1      32.421  25.860  25.593  1.00  0.00     0.119 C 
BRANCH  16  17
ATOM     17  C   UNL A   1      33.179  27.064  26.212  1.00  0.00     0.030 C 
BRANCH  17  18
ATOM     18  C   UNL A   1      32.311  28.308  26.464  1.00  0.00    -0.001 C 
ATOM     19  C   UNL A   1      31.533  28.301  27.768  1.00  0.00     0.004 C 
ENDBRANCH  17  18
ENDBRANCH  16  17
BRANCH  16  20
ATOM     20  C   UNL A   1      32.553  25.819  24.077  1.00  0.00     0.027 A 
ATOM     21  C   UNL A   1      33.568  26.386  23.323  1.00  0.00     0.017 A 
ATOM     22  S   UNL A   1      31.465  24.953  23.064  1.00  0.00    -0.147 S 
ATOM     23  C   UNL A   1      33.371  26.225  21.921  1.00  0.00     0.012 A 
ATOM     24  C   UNL A   1      32.222  25.522  21.644  1.00  0.00     0.065 A 
ENDBRANCH  16  20
ENDBRANCH  14  16
ENDBRANCH   8  14
BRANCH  13  25
ATOM     25  N   UNL A   1      35.456  20.089  24.618  1.00  0.00    -0.398 N 
ATOM     26  H   UNL A   1      35.087  19.196  24.813  1.00  0.00     0.156 HD
ATOM     27  H   UNL A   1      36.303  20.173  24.123  1.00  0.00     0.156 HD
ENDBRANCH  13  25
ENDBRANCH   4   7
ENDBRANCH   2   3
ENDBRANCH   1   2
BRANCH   1  28
ATOM     28  C   UNL A   1      40.413  22.367  27.345  1.00  0.00     0.023 C 
BRANCH  28  29
ATOM     29  C   UNL A   1      41.699  23.186  27.320  1.00  0.00     0.116 C 
BRANCH  29  30
ATOM     30  N   UNL A   1      41.833  23.991  26.115  1.00  0.00    -0.352 N 
ATOM     31  C   UNL A   1      41.777  25.359  25.994  1.00  0.00     0.251 C 
ATOM     32  H   UNL A   1      41.984  23.492  25.280  1.00  0.00     0.163 HD
ATOM     33  O   UNL A   1      41.789  25.882  24.889  1.00  0.00    -0.269 OA
BRANCH  31  34
ATOM     34  C   UNL A   1      41.656  26.180  27.216  1.00  0.00     0.039 A 
ATOM     35  C   UNL A   1      42.622  27.156  27.469  1.00  0.00     0.014 A 
ATOM     36  C   UNL A   1      40.574  26.010  28.085  1.00  0.00     0.014 A 
ATOM     37  C   UNL A   1      42.469  28.007  28.564  1.00  0.00     0.010 A 
ATOM     38  C   UNL A   1      40.391  26.899  29.139  1.00  0.00     0.010 A 
ATOM     39  C   UNL A   1      41.337  27.906  29.388  1.00  0.00    -0.014 A 
BRANCH  39  40
ATOM     40  C   UNL A   1      41.125  28.841  30.521  1.00  0.00     0.031 A 
ATOM     41  C   UNL A   1      42.000  28.750  31.741  1.00  0.00     0.074 A 
ATOM     42  C   UNL A   1      40.111  29.729  30.473  1.00  0.00     0.049 A 
ATOM     43  N   UNL A   1      41.923  29.416  32.863  1.00  0.00    -0.248 NA
ATOM     44  C   UNL A   1      43.091  27.762  31.701  1.00  0.00     0.031 C 
ATOM     45  C   UNL A   1      39.170  29.883  29.361  1.00  0.00     0.029 A 
ATOM     46  N   UNL A   1      39.698  30.664  31.388  1.00  0.00    -0.354 N 
ATOM     47  C   UNL A   1      42.948  28.926  33.664  1.00  0.00     0.074 A 
ATOM     48  C   UNL A   1      43.597  27.868  32.922  1.00  0.00     0.031 C 
ATOM     49  C   UNL A   1      38.305  30.868  29.650  1.00  0.00     0.029 A 
ATOM     50  C   UNL A   1      38.604  31.392  30.979  1.00  0.00     0.049 A 
ATOM     51  H   UNL A   1      40.142  30.801  32.255  1.00  0.00     0.167 HD
ATOM     52  C   UNL A   1      43.330  29.339  34.896  1.00  0.00     0.037 A 
ATOM     53  C   UNL A   1      37.920  32.367  31.609  1.00  0.00     0.037 A 
ATOM     54  C   UNL A   1      42.697  30.409  35.619  1.00  0.00     0.049 A 
ATOM     55  C   UNL A   1      38.361  32.800  32.981  1.00  0.00     0.074 A 
ATOM     56  C   UNL A   1      43.026  30.923  36.861  1.00  0.00     0.029 A 
ATOM     57  N   UNL A   1      41.610  31.139  35.160  1.00  0.00    -0.354 N 
ATOM     58  N   UNL A   1      39.357  32.351  33.707  1.00  0.00    -0.248 NA
ATOM     59  C   UNL A   1      37.591  33.878  33.617  1.00  0.00     0.031 C 
ATOM     60  C   UNL A   1      42.121  31.946  37.166  1.00  0.00     0.029 A 
ATOM     61  C   UNL A   1      41.253  32.095  36.096  1.00  0.00     0.049 A 
ATOM     62  H   UNL A   1      41.157  30.997  34.297  1.00  0.00     0.167 HD
ATOM     63  C   UNL A   1      39.353  33.114  34.870  1.00  0.00     0.074 A 
ATOM     64  C   UNL A   1      38.262  34.059  34.747  1.00  0.00     0.031 C 
ATOM     65  C   UNL A   1      40.178  33.042  35.943  1.00  0.00     0.037 A 
BRANCH  52  66
ATOM     66  C   UNL A   1      44.505  28.648  35.529  1.00  0.00     0.058 A 
ATOM     67  C   UNL A   1      45.818  29.097  35.316  1.00  0.00     0.135 A 
ATOM     68  C   UNL A   1      44.319  27.556  36.391  1.00  0.00     0.135 A 
ATOM     69  F   UNL A   1      46.053  30.126  34.486  1.00  0.00    -0.206 F 
ATOM     70  C   UNL A   1      46.906  28.478  35.918  1.00  0.00     0.059 A 
ATOM     71  C   UNL A   1      45.391  26.936  37.025  1.00  0.00     0.059 A 
ATOM     72  F   UNL A   1      43.084  27.084  36.627  1.00  0.00    -0.206 F 
ATOM     73  C   UNL A   1      46.682  27.397  36.774  1.00  0.00     0.060 A 
BRANCH  73  74
ATOM     74  S   UNL A   1      48.106  26.617  37.563  1.00  0.00     0.124 S 
ATOM     75  O   UNL A   1      47.458  25.608  38.397  1.00  0.00    -0.237 OA
ATOM     76  O   UNL A   1      48.857  26.108  36.422  1.00  0.00    -0.237 OA
ATOM     77  O   UNL A   1      48.738  27.715  38.287  1.00  0.00    -0.744 OA
ENDBRANCH  73  74
ENDBRANCH  52  66
BRANCH  53  78
ATOM     78  C   UNL A   1      36.758  33.019  30.948  1.00  0.00     0.058 A 
ATOM     79  C   UNL A   1      36.949  33.954  29.920  1.00  0.00     0.135 A 
ATOM     80  C   UNL A   1      35.441  32.745  31.346  1.00  0.00     0.135 A 
ATOM     81  F   UNL A   1      38.190  34.252  29.506  1.00  0.00    -0.206 F 
ATOM     82  C   UNL A   1      35.879  34.620  29.331  1.00  0.00     0.059 A 
ATOM     83  C   UNL A   1      34.353  33.380  30.755  1.00  0.00     0.059 A 
ATOM     84  F   UNL A   1      35.204  31.844  32.312  1.00  0.00    -0.206 F 
ATOM     85  C   UNL A   1      34.583  34.330  29.761  1.00  0.00     0.060 A 
BRANCH  85  86
ATOM     86  S   UNL A   1      33.197  35.191  28.986  1.00  0.00     0.124 S 
ATOM     87  O   UNL A   1      32.733  34.195  28.029  1.00  0.00    -0.237 OA
ATOM     88  O   UNL A   1      32.317  35.444  30.122  1.00  0.00    -0.237 OA
ATOM     89  O   UNL A   1      33.822  36.379  28.412  1.00  0.00    -0.744 OA
ENDBRANCH  85  86
ENDBRANCH  53  78
BRANCH  65  90
ATOM     90  C   UNL A   1      39.966  34.039  37.046  1.00  0.00     0.058 A 
ATOM     91  C   UNL A   1      40.612  35.284  37.051  1.00  0.00     0.135 A 
ATOM     92  C   UNL A   1      39.062  33.762  38.085  1.00  0.00     0.135 A 
ATOM     93  F   UNL A   1      41.489  35.593  36.083  1.00  0.00    -0.206 F 
ATOM     94  C   UNL A   1      40.385  36.214  38.059  1.00  0.00     0.059 A 
ATOM     95  C   UNL A   1      38.802  34.688  39.090  1.00  0.00     0.059 A 
ATOM     96  F   UNL A   1      38.411  32.589  38.120  1.00  0.00    -0.206 F 
ATOM     97  C   UNL A   1      39.477  35.907  39.075  1.00  0.00     0.060 A 
BRANCH  97  98
ATOM     98  S   UNL A   1      39.164  37.137  40.359  1.00  0.00     0.124 S 
ATOM     99  O   UNL A   1      38.262  38.055  39.673  1.00  0.00    -0.237 OA
ATOM    100  O   UNL A   1      38.565  36.335  41.422  1.00  0.00    -0.237 OA
ATOM    101  O   UNL A   1      40.494  37.664  40.654  1.00  0.00    -0.744 OA
ENDBRANCH  97  98
ENDBRANCH  65  90
ENDBRANCH  39  40
ENDBRANCH  31  34
ENDBRANCH  29  30
ENDBRANCH  28  29
ENDBRANCH   1  28
TORSDOF 20
ENDMDL
MODEL 2
REMARK VINA RESULT:     -11.1      1.342      2.169
REMARK SMILES CCC[C@H](Nc1cc(C)c(N)c(C(=O)NCCCCNC(=O)c2ccc(-c3c4nc(c(-c5c(F)cc(S(=O)(=O)[O-])cc5F)c5ccc([nH]5)c(-c5c(F)cc(S(=O)(=O)[O-])cc5F)c5nc(c(-c6c(F)cc(S(=O)(=O)[O-])cc6F)c6ccc3[nH]6)C=C5)C=C4)cc2)c1)c1cccs1
REMARK SMILES IDX 17 1 16 2 15 3 13 4 14 5 12 7 6 8 7 9 89 10 8 11 9 12 10 13
REMARK SMILES IDX 5 14 4 16 3 17 2 18 1 19 90 20 91 21 94 22 92 23 93 24 11 25
REMARK SMILES IDX 18 28 19 29 20 30 21 31 22 33 23 34 24 35 88 36 25 37 87 38
REMARK SMILES IDX 26 39 27 40 28 41 81 42 29 43 86 44 80 45 82 46 30 47 85 48
REMARK SMILES IDX 79 49 78 50 31 52 65 53 44 54 64 55 45 56 48 57 63 58 83 59
REMARK SMILES IDX 46 60 47 61 62 63 84 64 49 65 32 66 33 67 42 68 34 69 35 70
REMARK SMILES IDX 41 71 43 72 36 73 37 74 38 75 39 76 40 77 66 78 67 79 76 80
REMARK SMILES IDX 68 81 69 82 75 83 77 84 70 85 71 86 72 87 73 88 74 89 50 90
REMARK SMILES IDX 51 91 60 92 52 93 53 94 59 95 61 96 54 97 55 98 56 99 57 100
REMARK SMILES IDX 58 101
REMARK H PARENT 15 6 5 15 11 26 11 27 20 32 82 51 48 62
REMARK Flexibility Score: inf
ROOT
ATOM      1  C   UNL A   1      38.025  23.940  25.753  1.00  0.00     0.023 C 
ENDROOT
BRANCH   1   2
ATOM      2  C   UNL A   1      36.553  23.697  25.411  1.00  0.00     0.116 C 
BRANCH   2   3
ATOM      3  N   UNL A   1      35.975  22.782  26.374  1.00  0.00    -0.352 N 
ATOM      4  C   UNL A   1      34.710  22.275  26.552  1.00  0.00     0.253 C 
ATOM      5  O   UNL A   1      34.551  21.576  27.557  1.00  0.00    -0.269 OA
ATOM      6  H   UNL A   1      36.623  22.453  27.037  1.00  0.00     0.163 HD
BRANCH   4   7
ATOM      7  C   UNL A   1      33.585  22.458  25.572  1.00  0.00     0.065 A 
ATOM      8  C   UNL A   1      31.835  23.858  24.573  1.00  0.00     0.036 A 
ATOM      9  C   UNL A   1      31.700  22.911  23.567  1.00  0.00     0.031 A 
ATOM     10  C   UNL A   1      32.743  23.582  25.600  1.00  0.00     0.041 A 
ATOM     11  C   UNL A   1      32.406  21.696  23.585  1.00  0.00    -0.025 A 
ATOM     12  C   UNL A   1      32.097  20.669  22.530  1.00  0.00     0.046 C 
ATOM     13  C   UNL A   1      33.381  21.472  24.573  1.00  0.00     0.047 A 
BRANCH   8  14
ATOM     14  N   UNL A   1      31.141  25.051  24.573  1.00  0.00    -0.377 N 
ATOM     15  H   UNL A   1      30.191  24.997  24.824  1.00  0.00     0.161 HD
BRANCH  14  16
ATOM     16  C   UNL A   1      31.646  26.393  24.242  1.00  0.00     0.119 C 
BRANCH  16  17
ATOM     17  C   UNL A   1      30.833  26.957  23.048  1.00  0.00     0.030 C 
BRANCH  17  18
ATOM     18  C   UNL A   1      29.592  27.773  23.446  1.00  0.00    -0.001 C 
ATOM     19  C   UNL A   1      29.528  29.176  22.867  1.00  0.00     0.004 C 
ENDBRANCH  17  18
ENDBRANCH  16  17
BRANCH  16  20
ATOM     20  C   UNL A   1      31.832  27.425  25.345  1.00  0.00     0.027 A 
ATOM     21  C   UNL A   1      31.346  27.344  26.641  1.00  0.00     0.017 A 
ATOM     22  S   UNL A   1      32.783  28.846  25.150  1.00  0.00    -0.147 S 
ATOM     23  C   UNL A   1      31.638  28.504  27.415  1.00  0.00     0.012 A 
ATOM     24  C   UNL A   1      32.356  29.431  26.696  1.00  0.00     0.065 A 
ENDBRANCH  16  20
ENDBRANCH  14  16
ENDBRANCH   8  14
BRANCH  13  25
ATOM     25  N   UNL A   1      34.102  20.281  24.567  1.00  0.00    -0.398 N 
ATOM     26  H   UNL A   1      33.956  19.614  25.276  1.00  0.00     0.156 HD
ATOM     27  H   UNL A   1      34.759  20.106  23.855  1.00  0.00     0.156 HD
ENDBRANCH  13  25
ENDBRANCH   4   7
ENDBRANCH   2   3
ENDBRANCH   1   2
BRANCH   1  28
ATOM     28  C   UNL A   1      38.678  22.783  26.520  1.00  0.00     0.023 C 
BRANCH  28  29
ATOM     29  C   UNL A   1      39.951  23.158  27.272  1.00  0.00     0.116 C 
BRANCH  29  30
ATOM     30  N   UNL A   1      41.052  23.499  26.385  1.00  0.00    -0.352 N 
ATOM     31  C   UNL A   1      41.762  24.674  26.322  1.00  0.00     0.251 C 
ATOM     32  H   UNL A   1      41.323  22.799  25.749  1.00  0.00     0.163 HD
ATOM     33  O   UNL A   1      42.587  24.850  25.436  1.00  0.00    -0.269 OA
BRANCH  31  34
ATOM     34  C   UNL A   1      41.482  25.733  27.313  1.00  0.00     0.039 A 
ATOM     35  C   UNL A   1      40.332  25.633  28.098  1.00  0.00     0.014 A 
ATOM     36  C   UNL A   1      42.371  26.798  27.488  1.00  0.00     0.014 A 
ATOM     37  C   UNL A   1      40.104  26.570  29.106  1.00  0.00     0.010 A 
ATOM     38  C   UNL A   1      42.174  27.694  28.534  1.00  0.00     0.010 A 
ATOM     39  C   UNL A   1      41.039  27.588  29.352  1.00  0.00    -0.014 A 
BRANCH  39  40
ATOM     40  C   UNL A   1      40.846  28.557  30.459  1.00  0.00     0.031 A 
ATOM     41  C   UNL A   1      41.696  28.461  31.697  1.00  0.00     0.074 A 
ATOM     42  C   UNL A   1      39.870  29.484  30.373  1.00  0.00     0.049 A 
ATOM     43  N   UNL A   1      41.627  29.155  32.802  1.00  0.00    -0.248 NA
ATOM     44  C   UNL A   1      42.747  27.429  31.700  1.00  0.00     0.031 C 
ATOM     45  C   UNL A   1      38.956  29.649  29.241  1.00  0.00     0.029 A 
ATOM     46  N   UNL A   1      39.480  30.456  31.258  1.00  0.00    -0.354 N 
ATOM     47  C   UNL A   1      42.617  28.644  33.633  1.00  0.00     0.074 A 
ATOM     48  C   UNL A   1      43.235  27.544  32.927  1.00  0.00     0.031 C 
ATOM     49  C   UNL A   1      38.126  30.675  29.491  1.00  0.00     0.029 A 
ATOM     50  C   UNL A   1      38.424  31.218  30.812  1.00  0.00     0.049 A 
ATOM     51  H   UNL A   1      39.914  30.597  32.129  1.00  0.00     0.167 HD
ATOM     52  C   UNL A   1      42.995  29.071  34.861  1.00  0.00     0.037 A 
ATOM     53  C   UNL A   1      37.769  32.234  31.407  1.00  0.00     0.037 A 
ATOM     54  C   UNL A   1      42.393  30.183  35.548  1.00  0.00     0.049 A 
ATOM     55  C   UNL A   1      38.204  32.683  32.776  1.00  0.00     0.074 A 
ATOM     56  C   UNL A   1      42.721  30.713  36.783  1.00  0.00     0.029 A 
ATOM     57  N   UNL A   1      41.344  30.945  35.053  1.00  0.00    -0.354 N 
ATOM     58  N   UNL A   1      39.169  32.211  33.531  1.00  0.00    -0.248 NA
ATOM     59  C   UNL A   1      37.467  33.805  33.373  1.00  0.00     0.031 C 
ATOM     60  C   UNL A   1      41.854  31.777  37.047  1.00  0.00     0.029 A 
ATOM     61  C   UNL A   1      41.011  31.936  35.959  1.00  0.00     0.049 A 
ATOM     62  H   UNL A   1      40.901  30.800  34.184  1.00  0.00     0.167 HD
ATOM     63  C   UNL A   1      39.175  33.001  34.675  1.00  0.00     0.074 A 
ATOM     64  C   UNL A   1      38.125  33.986  34.511  1.00  0.00     0.031 C 
ATOM     65  C   UNL A   1      39.978  32.921  35.765  1.00  0.00     0.037 A 
BRANCH  52  66
ATOM     66  C   UNL A   1      44.129  28.348  35.532  1.00  0.00     0.058 A 
ATOM     67  C   UNL A   1      45.463  28.737  35.328  1.00  0.00     0.135 A 
ATOM     68  C   UNL A   1      43.883  27.288  36.418  1.00  0.00     0.135 A 
ATOM     69  F   UNL A   1      45.754  29.732  34.476  1.00  0.00    -0.206 F 
ATOM     70  C   UNL A   1      46.515  28.088  35.964  1.00  0.00     0.059 A 
ATOM     71  C   UNL A   1      44.919  26.641  37.086  1.00  0.00     0.059 A 
ATOM     72  F   UNL A   1      42.627  26.875  36.646  1.00  0.00    -0.206 F 
ATOM     73  C   UNL A   1      46.232  27.041  36.844  1.00  0.00     0.060 A 
BRANCH  73  74
ATOM     74  S   UNL A   1      47.609  26.223  37.677  1.00  0.00     0.124 S 
ATOM     75  O   UNL A   1      47.069  24.882  37.882  1.00  0.00    -0.237 OA
ATOM     76  O   UNL A   1      48.679  26.331  36.692  1.00  0.00    -0.237 OA
ATOM     77  O   UNL A   1      47.794  27.017  38.888  1.00  0.00    -0.744 OA
ENDBRANCH  73  74
ENDBRANCH  52  66
BRANCH  53  78
ATOM     78  C   UNL A   1      36.647  32.917  30.710  1.00  0.00     0.058 A 
ATOM     79  C   UNL A   1      36.894  33.893  29.734  1.00  0.00     0.135 A 
ATOM     80  C   UNL A   1      35.309  32.630  31.023  1.00  0.00     0.135 A 
ATOM     81  F   UNL A   1      38.157  34.205  29.403  1.00  0.00    -0.206 F 
ATOM     82  C   UNL A   1      35.859  34.586  29.115  1.00  0.00     0.059 A 
ATOM     83  C   UNL A   1      34.255  33.292  30.399  1.00  0.00     0.059 A 
ATOM     84  F   UNL A   1      35.017  31.691  31.935  1.00  0.00    -0.206 F 
ATOM     85  C   UNL A   1      34.542  34.282  29.460  1.00  0.00     0.060 A 
BRANCH  85  86
ATOM     86  S   UNL A   1      33.202  35.179  28.645  1.00  0.00     0.124 S 
ATOM     87  O   UNL A   1      32.408  35.617  29.787  1.00  0.00    -0.237 OA
ATOM     88  O   UNL A   1      33.922  36.227  27.929  1.00  0.00    -0.237 OA
ATOM     89  O   UNL A   1      32.586  34.163  27.798  1.00  0.00    -0.744 OA
ENDBRANCH  85  86
ENDBRANCH  53  78
BRANCH  65  90
ATOM     90  C   UNL A   1      39.787  33.952  36.840  1.00  0.00     0.058 A 
ATOM     91  C   UNL A   1      38.982  33.709  37.963  1.00  0.00     0.135 A 
ATOM     92  C   UNL A   1      40.463  35.182  36.769  1.00  0.00     0.135 A 
ATOM     93  F   UNL A   1      38.311  32.551  38.074  1.00  0.00    -0.206 F 
ATOM     94  C   UNL A   1      38.836  34.656  38.969  1.00  0.00     0.059 A 
ATOM     95  C   UNL A   1      40.350  36.134  37.777  1.00  0.00     0.059 A 
ATOM     96  F   UNL A   1      41.253  35.460  35.720  1.00  0.00    -0.206 F 
ATOM     97  C   UNL A   1      39.525  35.867  38.867  1.00  0.00     0.060 A 
BRANCH  97  98
ATOM     98  S   UNL A   1      39.356  37.075  40.199  1.00  0.00     0.124 S 
ATOM     99  O   UNL A   1      40.750  37.329  40.545  1.00  0.00    -0.237 OA
ATOM    100  O   UNL A   1      38.656  38.173  39.539  1.00  0.00    -0.237 OA
ATOM    101  O   UNL A   1      38.578  36.360  41.207  1.00  0.00    -0.744 OA
ENDBRANCH  97  98
ENDBRANCH  65  90
ENDBRANCH  39  40
ENDBRANCH  31  34
ENDBRANCH  29  30
ENDBRANCH  28  29
ENDBRANCH   1  28
TORSDOF 20
ENDMDL
MODEL 3
REMARK VINA RESULT:     -11.0      6.446     11.675
REMARK SMILES CCC[C@H](Nc1cc(C)c(N)c(C(=O)NCCCCNC(=O)c2ccc(-c3c4nc(c(-c5c(F)cc(S(=O)(=O)[O-])cc5F)c5ccc([nH]5)c(-c5c(F)cc(S(=O)(=O)[O-])cc5F)c5nc(c(-c6c(F)cc(S(=O)(=O)[O-])cc6F)c6ccc3[nH]6)C=C5)C=C4)cc2)c1)c1cccs1
REMARK SMILES IDX 17 1 16 2 15 3 13 4 14 5 12 7 6 8 7 9 89 10 8 11 9 12 10 13
REMARK SMILES IDX 5 14 4 16 3 17 2 18 1 19 90 20 91 21 94 22 92 23 93 24 11 25
REMARK SMILES IDX 18 28 19 29 20 30 21 31 22 33 23 34 24 35 88 36 25 37 87 38
REMARK SMILES IDX 26 39 27 40 28 41 81 42 29 43 86 44 80 45 82 46 30 47 85 48
REMARK SMILES IDX 79 49 78 50 31 52 65 53 44 54 64 55 45 56 48 57 63 58 83 59
REMARK SMILES IDX 46 60 47 61 62 63 84 64 49 65 32 66 33 67 42 68 34 69 35 70
REMARK SMILES IDX 41 71 43 72 36 73 37 74 38 75 39 76 40 77 66 78 67 79 76 80
REMARK SMILES IDX 68 81 69 82 75 83 77 84 70 85 71 86 72 87 73 88 74 89 50 90
REMARK SMILES IDX 51 91 60 92 52 93 53 94 59 95 61 96 54 97 55 98 56 99 57 100
REMARK SMILES IDX 58 101
REMARK H PARENT 15 6 5 15 11 26 11 27 20 32 82 51 48 62
REMARK Flexibility Score: inf
ROOT
ATOM      1  C   UNL A   1      34.596  29.774  27.288  1.00  0.00     0.023 C 
ENDROOT
BRANCH   1   2
ATOM      2  C   UNL A   1      33.267  29.465  26.593  1.00  0.00     0.116 C 
BRANCH   2   3
ATOM      3  N   UNL A   1      33.427  29.599  25.159  1.00  0.00    -0.352 N 
ATOM      4  C   UNL A   1      33.077  28.806  24.094  1.00  0.00     0.253 C 
ATOM      5  O   UNL A   1      33.462  29.196  22.987  1.00  0.00    -0.269 OA
ATOM      6  H   UNL A   1      33.878  30.432  24.893  1.00  0.00     0.163 HD
BRANCH   4   7
ATOM      7  C   UNL A   1      32.211  27.582  24.204  1.00  0.00     0.065 A 
ATOM      8  C   UNL A   1      31.913  25.232  24.843  1.00  0.00     0.036 A 
ATOM      9  C   UNL A   1      30.543  25.400  24.689  1.00  0.00     0.031 A 
ATOM     10  C   UNL A   1      32.733  26.322  24.537  1.00  0.00     0.041 A 
ATOM     11  C   UNL A   1      29.987  26.595  24.203  1.00  0.00    -0.025 A 
ATOM     12  C   UNL A   1      28.507  26.644  23.936  1.00  0.00     0.046 C 
ATOM     13  C   UNL A   1      30.815  27.711  23.986  1.00  0.00     0.047 A 
BRANCH   8  14
ATOM     14  N   UNL A   1      32.473  24.061  25.310  1.00  0.00    -0.377 N 
ATOM     15  H   UNL A   1      32.253  23.817  26.238  1.00  0.00     0.161 HD
BRANCH  14  16
ATOM     16  C   UNL A   1      33.360  23.132  24.592  1.00  0.00     0.119 C 
BRANCH  16  17
ATOM     17  C   UNL A   1      34.834  23.497  24.909  1.00  0.00     0.030 C 
BRANCH  17  18
ATOM     18  C   UNL A   1      35.723  23.705  23.672  1.00  0.00    -0.001 C 
ATOM     19  C   UNL A   1      36.765  22.626  23.434  1.00  0.00     0.004 C 
ENDBRANCH  17  18
ENDBRANCH  16  17
BRANCH  16  20
ATOM     20  C   UNL A   1      33.113  21.632  24.676  1.00  0.00     0.027 A 
ATOM     21  C   UNL A   1      32.636  20.817  23.662  1.00  0.00     0.017 A 
ATOM     22  S   UNL A   1      33.492  20.696  26.069  1.00  0.00    -0.147 S 
ATOM     23  C   UNL A   1      32.455  19.466  24.076  1.00  0.00     0.012 A 
ATOM     24  C   UNL A   1      32.818  19.282  25.390  1.00  0.00     0.065 A 
ENDBRANCH  16  20
ENDBRANCH  14  16
ENDBRANCH   8  14
BRANCH  13  25
ATOM     25  N   UNL A   1      30.254  28.903  23.537  1.00  0.00    -0.398 N 
ATOM     26  H   UNL A   1      29.277  28.981  23.436  1.00  0.00     0.156 HD
ATOM     27  H   UNL A   1      30.833  29.669  23.320  1.00  0.00     0.156 HD
ENDBRANCH  13  25
ENDBRANCH   4   7
ENDBRANCH   2   3
ENDBRANCH   1   2
BRANCH   1  28
ATOM     28  C   UNL A   1      34.754  31.245  27.691  1.00  0.00     0.023 C 
BRANCH  28  29
ATOM     29  C   UNL A   1      35.897  31.519  28.662  1.00  0.00     0.116 C 
BRANCH  29  30
ATOM     30  N   UNL A   1      35.703  30.884  29.957  1.00  0.00    -0.352 N 
ATOM     31  C   UNL A   1      36.595  30.124  30.675  1.00  0.00     0.251 C 
ATOM     32  H   UNL A   1      34.820  31.016  30.372  1.00  0.00     0.163 HD
ATOM     33  O   UNL A   1      36.240  29.558  31.699  1.00  0.00    -0.269 OA
BRANCH  31  34
ATOM     34  C   UNL A   1      37.973  29.967  30.166  1.00  0.00     0.039 A 
ATOM     35  C   UNL A   1      39.027  29.918  31.081  1.00  0.00     0.014 A 
ATOM     36  C   UNL A   1      38.215  29.832  28.796  1.00  0.00     0.014 A 
ATOM     37  C   UNL A   1      40.322  29.670  30.624  1.00  0.00     0.010 A 
ATOM     38  C   UNL A   1      39.496  29.524  28.350  1.00  0.00     0.010 A 
ATOM     39  C   UNL A   1      40.561  29.439  29.260  1.00  0.00    -0.014 A 
BRANCH  39  40
ATOM     40  C   UNL A   1      41.920  29.113  28.763  1.00  0.00     0.031 A 
ATOM     41  C   UNL A   1      42.242  27.709  28.328  1.00  0.00     0.074 A 
ATOM     42  C   UNL A   1      42.876  30.065  28.758  1.00  0.00     0.049 A 
ATOM     43  N   UNL A   1      43.386  27.206  27.944  1.00  0.00    -0.248 NA
ATOM     44  C   UNL A   1      41.136  26.738  28.353  1.00  0.00     0.031 C 
ATOM     45  C   UNL A   1      42.694  31.451  29.194  1.00  0.00     0.029 A 
ATOM     46  N   UNL A   1      44.193  30.007  28.380  1.00  0.00    -0.354 N 
ATOM     47  C   UNL A   1      43.141  25.863  27.687  1.00  0.00     0.074 A 
ATOM     48  C   UNL A   1      41.754  25.615  28.013  1.00  0.00     0.031 C 
ATOM     49  C   UNL A   1      43.849  32.117  29.038  1.00  0.00     0.029 A 
ATOM     50  C   UNL A   1      44.863  31.200  28.526  1.00  0.00     0.049 A 
ATOM     51  H   UNL A   1      44.619  29.190  28.036  1.00  0.00     0.167 HD
ATOM     52  C   UNL A   1      43.988  24.926  27.198  1.00  0.00     0.037 A 
ATOM     53  C   UNL A   1      46.150  31.514  28.279  1.00  0.00     0.037 A 
ATOM     54  C   UNL A   1      45.360  25.184  26.852  1.00  0.00     0.049 A 
ATOM     55  C   UNL A   1      47.072  30.452  27.744  1.00  0.00     0.074 A 
ATOM     56  C   UNL A   1      46.294  24.311  26.322  1.00  0.00     0.029 A 
ATOM     57  N   UNL A   1      45.994  26.411  26.989  1.00  0.00    -0.354 N 
ATOM     58  N   UNL A   1      46.811  29.195  27.470  1.00  0.00    -0.248 NA
ATOM     59  C   UNL A   1      48.460  30.851  27.477  1.00  0.00     0.031 C 
ATOM     60  C   UNL A   1      47.500  25.002  26.165  1.00  0.00     0.029 A 
ATOM     61  C   UNL A   1      47.307  26.316  26.559  1.00  0.00     0.049 A 
ATOM     62  H   UNL A   1      45.572  27.228  27.342  1.00  0.00     0.167 HD
ATOM     63  C   UNL A   1      47.994  28.664  26.968  1.00  0.00     0.074 A 
ATOM     64  C   UNL A   1      48.968  29.736  26.967  1.00  0.00     0.031 C 
ATOM     65  C   UNL A   1      48.252  27.402  26.544  1.00  0.00     0.037 A 
BRANCH  52  66
ATOM     66  C   UNL A   1      43.447  23.540  26.984  1.00  0.00     0.058 A 
ATOM     67  C   UNL A   1      43.095  23.085  25.704  1.00  0.00     0.135 A 
ATOM     68  C   UNL A   1      43.320  22.644  28.056  1.00  0.00     0.135 A 
ATOM     69  F   UNL A   1      43.179  23.908  24.646  1.00  0.00    -0.206 F 
ATOM     70  C   UNL A   1      42.617  21.796  25.496  1.00  0.00     0.059 A 
ATOM     71  C   UNL A   1      42.868  21.341  27.868  1.00  0.00     0.059 A 
ATOM     72  F   UNL A   1      43.640  23.030  29.302  1.00  0.00    -0.206 F 
ATOM     73  C   UNL A   1      42.509  20.930  26.586  1.00  0.00     0.060 A 
BRANCH  73  74
ATOM     74  S   UNL A   1      41.905  19.254  26.294  1.00  0.00     0.124 S 
ATOM     75  O   UNL A   1      42.070  18.652  27.615  1.00  0.00    -0.237 OA
ATOM     76  O   UNL A   1      40.529  19.485  25.871  1.00  0.00    -0.237 OA
ATOM     77  O   UNL A   1      42.799  18.746  25.259  1.00  0.00    -0.744 OA
ENDBRANCH  73  74
ENDBRANCH  52  66
BRANCH  53  78
ATOM     78  C   UNL A   1      46.645  32.897  28.512  1.00  0.00     0.058 A 
ATOM     79  C   UNL A   1      46.577  33.865  27.499  1.00  0.00     0.135 A 
ATOM     80  C   UNL A   1      47.220  33.272  29.736  1.00  0.00     0.135 A 
ATOM     81  F   UNL A   1      46.040  33.553  26.309  1.00  0.00    -0.206 F 
ATOM     82  C   UNL A   1      47.091  35.145  27.677  1.00  0.00     0.059 A 
ATOM     83  C   UNL A   1      47.718  34.554  29.946  1.00  0.00     0.059 A 
ATOM     84  F   UNL A   1      47.291  32.389  30.744  1.00  0.00    -0.206 F 
ATOM     85  C   UNL A   1      47.666  35.478  28.904  1.00  0.00     0.060 A 
BRANCH  85  86
ATOM     86  S   UNL A   1      48.322  37.146  29.131  1.00  0.00     0.124 S 
ATOM     87  O   UNL A   1      49.360  36.916  30.129  1.00  0.00    -0.237 OA
ATOM     88  O   UNL A   1      48.789  37.479  27.789  1.00  0.00    -0.237 OA
ATOM     89  O   UNL A   1      47.161  37.902  29.588  1.00  0.00    -0.744 OA
ENDBRANCH  85  86
ENDBRANCH  53  78
BRANCH  65  90
ATOM     90  C   UNL A   1      49.624  27.124  25.998  1.00  0.00     0.058 A 
ATOM     91  C   UNL A   1      50.680  26.714  26.827  1.00  0.00     0.135 A 
ATOM     92  C   UNL A   1      49.869  27.220  24.619  1.00  0.00     0.135 A 
ATOM     93  F   UNL A   1      50.496  26.613  28.153  1.00  0.00    -0.206 F 
ATOM     94  C   UNL A   1      51.938  26.429  26.309  1.00  0.00     0.059 A 
ATOM     95  C   UNL A   1      51.113  26.915  24.077  1.00  0.00     0.059 A 
ATOM     96  F   UNL A   1      48.890  27.599  23.782  1.00  0.00    -0.206 F 
ATOM     97  C   UNL A   1      52.145  26.532  24.932  1.00  0.00     0.060 A 
BRANCH  97  98
ATOM     98  S   UNL A   1      53.773  26.122  24.268  1.00  0.00     0.124 S 
ATOM     99  O   UNL A   1      53.569  26.330  22.838  1.00  0.00    -0.237 OA
ATOM    100  O   UNL A   1      54.636  27.094  24.933  1.00  0.00    -0.237 OA
ATOM    101  O   UNL A   1      53.968  24.735  24.680  1.00  0.00    -0.744 OA
ENDBRANCH  97  98
ENDBRANCH  65  90
ENDBRANCH  39  40
ENDBRANCH  31  34
ENDBRANCH  29  30
ENDBRANCH  28  29
ENDBRANCH   1  28
TORSDOF 20
ENDMDL
