MODEL 1
REMARK VINA RESULT:     -11.9      0.000      0.000
REMARK SMILES COC(=O)[C@@H](NC(=O)CCC(=O)NCCCCNC(=O)c1ccc(-c2c3nc(c(-c4c(F)cc(S(=O)(=O)[O-])cc4F)c4ccc([nH]4)c(-c4c(F)cc(S(=O)(=O)[O-])cc4F)c4nc(c(-c5c(F)cc(S(=O)(=O)[O-])cc5F)c5ccc2[nH]5)C=C4)C=C3)cc1)c1cccc2ccccc12
REMARK SMILES IDX 14 1 13 2 11 3 12 4 10 6 9 7 7 8 6 9 8 11 5 12 3 13 4 14
REMARK SMILES IDX 2 15 1 16 87 17 88 18 96 19 89 20 91 21 95 22 90 23 92 24
REMARK SMILES IDX 94 25 93 26 15 27 16 28 17 29 18 30 19 31 20 33 21 34 22 35
REMARK SMILES IDX 86 36 23 37 85 38 24 39 25 40 26 41 79 42 27 43 84 44 78 45
REMARK SMILES IDX 80 46 28 47 83 48 77 49 76 50 29 52 63 53 42 54 62 55 43 56
REMARK SMILES IDX 46 57 61 58 81 59 44 60 45 61 60 63 82 64 47 65 30 66 31 67
REMARK SMILES IDX 40 68 32 69 33 70 39 71 41 72 34 73 35 74 36 75 37 76 38 77
REMARK SMILES IDX 64 78 65 79 74 80 66 81 67 82 73 83 75 84 68 85 69 86 70 87
REMARK SMILES IDX 71 88 72 89 48 90 49 91 58 92 50 93 51 94 57 95 59 96 52 97
REMARK SMILES IDX 53 98 54 99 55 100 56 101
REMARK H PARENT 13 5 6 10 18 32 80 51 46 62
REMARK Flexibility Score: inf
ROOT
ATOM      1  C   UNL A   1      35.847  23.779  24.739  1.00  0.00     0.116 C 
ENDROOT
BRANCH   1   2
ATOM      2  N   UNL A   1      35.200  23.336  23.519  1.00  0.00    -0.356 N 
ATOM      3  C   UNL A   1      34.083  23.784  22.882  1.00  0.00     0.220 C 
ATOM      4  O   UNL A   1      33.854  23.421  21.727  1.00  0.00    -0.275 OA
ATOM      5  H   UNL A   1      35.647  22.580  23.073  1.00  0.00     0.163 HD
BRANCH   3   6
ATOM      6  C   UNL A   1      33.133  24.697  23.588  1.00  0.00     0.110 C 
BRANCH   6   7
ATOM      7  C   UNL A   1      33.427  26.170  23.382  1.00  0.00     0.110 C 
BRANCH   7   8
ATOM      8  C   UNL A   1      32.824  26.860  22.180  1.00  0.00     0.221 C 
ATOM      9  N   UNL A   1      31.658  27.555  22.144  1.00  0.00    -0.339 N 
ATOM     10  H   UNL A   1      31.646  28.202  21.402  1.00  0.00     0.164 HD
ATOM     11  O   UNL A   1      33.428  26.759  21.102  1.00  0.00    -0.275 OA
BRANCH   9  12
ATOM     12  C   UNL A   1      30.381  27.601  22.932  1.00  0.00     0.224 C 
BRANCH  12  13
ATOM     13  C   UNL A   1      29.331  28.642  22.464  1.00  0.00     0.333 C 
ATOM     14  O   UNL A   1      28.134  28.551  22.729  1.00  0.00    -0.249 OA
BRANCH  13  15
ATOM     15  O   UNL A   1      29.852  29.687  21.775  1.00  0.00    -0.467 OA
ATOM     16  C   UNL A   1      28.930  30.711  21.368  1.00  0.00     0.282 C 
ENDBRANCH  13  15
ENDBRANCH  12  13
BRANCH  12  17
ATOM     17  C   UNL A   1      30.616  27.376  24.430  1.00  0.00    -0.007 A 
ATOM     18  C   UNL A   1      30.099  26.159  24.940  1.00  0.00     0.007 A 
ATOM     19  C   UNL A   1      31.411  28.185  25.295  1.00  0.00    -0.013 A 
ATOM     20  C   UNL A   1      30.593  25.603  26.111  1.00  0.00     0.001 A 
ATOM     21  C   UNL A   1      31.963  27.573  26.450  1.00  0.00    -0.018 A 
ATOM     22  C   UNL A   1      31.665  29.570  25.144  1.00  0.00     0.009 A 
ATOM     23  C   UNL A   1      31.584  26.274  26.813  1.00  0.00     0.009 A 
ATOM     24  C   UNL A   1      32.870  28.273  27.261  1.00  0.00     0.009 A 
ATOM     25  C   UNL A   1      32.493  30.282  26.015  1.00  0.00     0.001 A 
ATOM     26  C   UNL A   1      33.135  29.622  27.047  1.00  0.00     0.001 A 
ENDBRANCH  12  17
ENDBRANCH   9  12
ENDBRANCH   7   8
ENDBRANCH   6   7
ENDBRANCH   3   6
ENDBRANCH   1   2
BRANCH   1  27
ATOM     27  C   UNL A   1      36.405  22.677  25.648  1.00  0.00     0.023 C 
BRANCH  27  28
ATOM     28  C   UNL A   1      37.920  22.573  25.815  1.00  0.00     0.023 C 
BRANCH  28  29
ATOM     29  C   UNL A   1      38.576  23.775  26.470  1.00  0.00     0.116 C 
BRANCH  29  30
ATOM     30  N   UNL A   1      39.984  23.842  26.132  1.00  0.00    -0.352 N 
ATOM     31  C   UNL A   1      40.902  24.829  26.370  1.00  0.00     0.251 C 
ATOM     32  H   UNL A   1      40.334  23.054  25.657  1.00  0.00     0.163 HD
ATOM     33  O   UNL A   1      41.925  24.859  25.689  1.00  0.00    -0.269 OA
BRANCH  31  34
ATOM     34  C   UNL A   1      40.691  25.828  27.441  1.00  0.00     0.039 A 
ATOM     35  C   UNL A   1      41.542  26.936  27.493  1.00  0.00     0.014 A 
ATOM     36  C   UNL A   1      39.741  25.634  28.449  1.00  0.00     0.014 A 
ATOM     37  C   UNL A   1      41.431  27.849  28.542  1.00  0.00     0.010 A 
ATOM     38  C   UNL A   1      39.574  26.590  29.449  1.00  0.00     0.010 A 
ATOM     39  C   UNL A   1      40.438  27.690  29.522  1.00  0.00    -0.014 A 
BRANCH  39  40
ATOM     40  C   UNL A   1      40.321  28.654  30.644  1.00  0.00     0.031 A 
ATOM     41  C   UNL A   1      41.200  28.516  31.861  1.00  0.00     0.074 A 
ATOM     42  C   UNL A   1      39.405  29.640  30.572  1.00  0.00     0.049 A 
ATOM     43  N   UNL A   1      41.230  29.248  32.945  1.00  0.00    -0.248 NA
ATOM     44  C   UNL A   1      42.153  27.392  31.873  1.00  0.00     0.031 C 
ATOM     45  C   UNL A   1      38.458  29.835  29.471  1.00  0.00     0.029 A 
ATOM     46  N   UNL A   1      39.118  30.662  31.440  1.00  0.00    -0.354 N 
ATOM     47  C   UNL A   1      42.196  28.675  33.765  1.00  0.00     0.074 A 
ATOM     48  C   UNL A   1      42.685  27.497  33.082  1.00  0.00     0.031 C 
ATOM     49  C   UNL A   1      37.713  30.924  29.718  1.00  0.00     0.029 A 
ATOM     50  C   UNL A   1      38.108  31.487  31.004  1.00  0.00     0.049 A 
ATOM     51  H   UNL A   1      39.590  30.794  32.293  1.00  0.00     0.167 HD
ATOM     52  C   UNL A   1      42.657  29.109  34.963  1.00  0.00     0.037 A 
ATOM     53  C   UNL A   1      37.562  32.576  31.578  1.00  0.00     0.037 A 
ATOM     54  C   UNL A   1      42.182  30.299  35.621  1.00  0.00     0.049 A 
ATOM     55  C   UNL A   1      38.111  33.051  32.897  1.00  0.00     0.074 A 
ATOM     56  C   UNL A   1      42.606  30.849  36.818  1.00  0.00     0.029 A 
ATOM     57  N   UNL A   1      41.183  31.128  35.132  1.00  0.00    -0.354 N 
ATOM     58  N   UNL A   1      39.062  32.525  33.632  1.00  0.00    -0.248 NA
ATOM     59  C   UNL A   1      37.524  34.276  33.456  1.00  0.00     0.031 C 
ATOM     60  C   UNL A   1      41.842  31.995  37.067  1.00  0.00     0.029 A 
ATOM     61  C   UNL A   1      40.972  32.182  36.005  1.00  0.00     0.049 A 
ATOM     62  H   UNL A   1      40.697  30.988  34.287  1.00  0.00     0.167 HD
ATOM     63  C   UNL A   1      39.197  33.363  34.733  1.00  0.00     0.074 A 
ATOM     64  C   UNL A   1      38.251  34.445  34.551  1.00  0.00     0.031 C 
ATOM     65  C   UNL A   1      40.023  33.247  35.802  1.00  0.00     0.037 A 
BRANCH  52  66
ATOM     66  C   UNL A   1      43.747  28.313  35.626  1.00  0.00     0.058 A 
ATOM     67  C   UNL A   1      43.452  27.266  36.515  1.00  0.00     0.135 A 
ATOM     68  C   UNL A   1      45.099  28.557  35.334  1.00  0.00     0.135 A 
ATOM     69  F   UNL A   1      42.178  27.000  36.844  1.00  0.00    -0.206 F 
ATOM     70  C   UNL A   1      44.455  26.503  37.103  1.00  0.00     0.059 A 
ATOM     71  C   UNL A   1      46.118  27.788  35.891  1.00  0.00     0.059 A 
ATOM     72  F   UNL A   1      45.441  29.547  34.494  1.00  0.00    -0.206 F 
ATOM     73  C   UNL A   1      45.787  26.769  36.782  1.00  0.00     0.060 A 
BRANCH  73  74
ATOM     74  S   UNL A   1      47.071  25.748  37.533  1.00  0.00     0.124 S 
ATOM     75  O   UNL A   1      47.628  26.662  38.524  1.00  0.00    -0.237 OA
ATOM     76  O   UNL A   1      46.308  24.624  38.064  1.00  0.00    -0.237 OA
ATOM     77  O   UNL A   1      47.951  25.429  36.411  1.00  0.00    -0.744 OA
ENDBRANCH  73  74
ENDBRANCH  52  66
BRANCH  53  78
ATOM     78  C   UNL A   1      36.449  33.297  30.907  1.00  0.00     0.058 A 
ATOM     79  C   UNL A   1      36.667  34.047  29.742  1.00  0.00     0.135 A 
ATOM     80  C   UNL A   1      35.143  33.255  31.421  1.00  0.00     0.135 A 
ATOM     81  F   UNL A   1      37.897  34.119  29.211  1.00  0.00    -0.206 F 
ATOM     82  C   UNL A   1      35.640  34.756  29.128  1.00  0.00     0.059 A 
ATOM     83  C   UNL A   1      34.094  33.933  30.810  1.00  0.00     0.059 A 
ATOM     84  F   UNL A   1      34.876  32.532  32.520  1.00  0.00    -0.206 F 
ATOM     85  C   UNL A   1      34.356  34.696  29.673  1.00  0.00     0.060 A 
BRANCH  85  86
ATOM     86  S   UNL A   1      33.023  35.602  28.859  1.00  0.00     0.124 S 
ATOM     87  O   UNL A   1      32.442  34.568  28.012  1.00  0.00    -0.237 OA
ATOM     88  O   UNL A   1      32.208  36.036  29.990  1.00  0.00    -0.237 OA
ATOM     89  O   UNL A   1      33.726  36.673  28.158  1.00  0.00    -0.744 OA
ENDBRANCH  85  86
ENDBRANCH  53  78
BRANCH  65  90
ATOM     90  C   UNL A   1      39.947  34.329  36.842  1.00  0.00     0.058 A 
ATOM     91  C   UNL A   1      39.126  34.202  37.974  1.00  0.00     0.135 A 
ATOM     92  C   UNL A   1      40.714  35.497  36.714  1.00  0.00     0.135 A 
ATOM     93  F   UNL A   1      38.368  33.106  38.140  1.00  0.00    -0.206 F 
ATOM     94  C   UNL A   1      39.039  35.214  38.923  1.00  0.00     0.059 A 
ATOM     95  C   UNL A   1      40.664  36.509  37.666  1.00  0.00     0.059 A 
ATOM     96  F   UNL A   1      41.526  35.661  35.657  1.00  0.00    -0.206 F 
ATOM     97  C   UNL A   1      39.809  36.367  38.757  1.00  0.00     0.060 A 
BRANCH  97  98
ATOM     98  S   UNL A   1      39.690  37.672  39.998  1.00  0.00     0.124 S 
ATOM     99  O   UNL A   1      38.472  38.360  39.583  1.00  0.00    -0.237 OA
ATOM    100  O   UNL A   1      39.598  36.916  41.243  1.00  0.00    -0.237 OA
ATOM    101  O   UNL A   1      40.929  38.424  39.818  1.00  0.00    -0.744 OA
ENDBRANCH  97  98
ENDBRANCH  65  90
ENDBRANCH  39  40
ENDBRANCH  31  34
ENDBRANCH  29  30
ENDBRANCH  28  29
ENDBRANCH  27  28
ENDBRANCH   1  27
TORSDOF 20
ENDMDL
MODEL 2
REMARK VINA RESULT:     -11.7      1.390      2.539
REMARK SMILES COC(=O)[C@@H](NC(=O)CCC(=O)NCCCCNC(=O)c1ccc(-c2c3nc(c(-c4c(F)cc(S(=O)(=O)[O-])cc4F)c4ccc([nH]4)c(-c4c(F)cc(S(=O)(=O)[O-])cc4F)c4nc(c(-c5c(F)cc(S(=O)(=O)[O-])cc5F)c5ccc2[nH]5)C=C4)C=C3)cc1)c1cccc2ccccc12
REMARK SMILES IDX 14 1 13 2 11 3 12 4 10 6 9 7 7 8 6 9 8 11 5 12 3 13 4 14
REMARK SMILES IDX 2 15 1 16 87 17 88 18 96 19 89 20 91 21 95 22 90 23 92 24
REMARK SMILES IDX 94 25 93 26 15 27 16 28 17 29 18 30 19 31 20 33 21 34 22 35
REMARK SMILES IDX 86 36 23 37 85 38 24 39 25 40 26 41 79 42 27 43 84 44 78 45
REMARK SMILES IDX 80 46 28 47 83 48 77 49 76 50 29 52 63 53 42 54 62 55 43 56
REMARK SMILES IDX 46 57 61 58 81 59 44 60 45 61 60 63 82 64 47 65 30 66 31 67
REMARK SMILES IDX 40 68 32 69 33 70 39 71 41 72 34 73 35 74 36 75 37 76 38 77
REMARK SMILES IDX 64 78 65 79 74 80 66 81 67 82 73 83 75 84 68 85 69 86 70 87
REMARK SMILES IDX 71 88 72 89 48 90 49 91 58 92 50 93 51 94 57 95 59 96 52 97
REMARK SMILES IDX 53 98 54 99 55 100 56 101
REMARK H PARENT 13 5 6 10 18 32 80 51 46 62
REMARK Flexibility Score: inf
ROOT
ATOM      1  C   UNL A   1      38.776  22.585  26.129  1.00  0.00     0.116 C 
ENDROOT
BRANCH   1   2
ATOM      2  N   UNL A   1      37.628  21.699  26.069  1.00  0.00    -0.356 N 
ATOM      3  C   UNL A   1      36.716  21.477  25.083  1.00  0.00     0.220 C 
ATOM      4  O   UNL A   1      35.968  20.501  25.153  1.00  0.00    -0.275 OA
ATOM      5  H   UNL A   1      37.484  21.165  26.884  1.00  0.00     0.163 HD
BRANCH   3   6
ATOM      6  C   UNL A   1      36.613  22.426  23.931  1.00  0.00     0.110 C 
BRANCH   6   7
ATOM      7  C   UNL A   1      35.901  23.722  24.264  1.00  0.00     0.110 C 
BRANCH   7   8
ATOM      8  C   UNL A   1      34.652  24.074  23.487  1.00  0.00     0.221 C 
ATOM      9  N   UNL A   1      33.753  25.044  23.793  1.00  0.00    -0.339 N 
ATOM     10  H   UNL A   1      33.253  25.336  22.996  1.00  0.00     0.164 HD
ATOM     11  O   UNL A   1      34.394  23.391  22.485  1.00  0.00    -0.275 OA
BRANCH   9  12
ATOM     12  C   UNL A   1      33.316  25.791  25.020  1.00  0.00     0.224 C 
BRANCH  12  13
ATOM     13  C   UNL A   1      32.603  24.948  26.109  1.00  0.00     0.333 C 
ATOM     14  O   UNL A   1      33.027  23.862  26.498  1.00  0.00    -0.249 OA
BRANCH  13  15
ATOM     15  O   UNL A   1      31.496  25.532  26.629  1.00  0.00    -0.467 OA
ATOM     16  C   UNL A   1      30.239  25.165  26.037  1.00  0.00     0.282 C 
ENDBRANCH  13  15
ENDBRANCH  12  13
BRANCH  12  17
ATOM     17  C   UNL A   1      32.808  27.199  24.691  1.00  0.00    -0.007 A 
ATOM     18  C   UNL A   1      32.041  27.295  23.503  1.00  0.00     0.007 A 
ATOM     19  C   UNL A   1      32.909  28.354  25.522  1.00  0.00    -0.013 A 
ATOM     20  C   UNL A   1      31.159  28.346  23.301  1.00  0.00     0.001 A 
ATOM     21  C   UNL A   1      31.951  29.384  25.342  1.00  0.00    -0.018 A 
ATOM     22  C   UNL A   1      33.917  28.603  26.487  1.00  0.00     0.009 A 
ATOM     23  C   UNL A   1      31.058  29.340  24.264  1.00  0.00     0.009 A 
ATOM     24  C   UNL A   1      31.908  30.477  26.222  1.00  0.00     0.009 A 
ATOM     25  C   UNL A   1      33.921  29.743  27.292  1.00  0.00     0.001 A 
ATOM     26  C   UNL A   1      32.888  30.658  27.193  1.00  0.00     0.001 A 
ENDBRANCH  12  17
ENDBRANCH   9  12
ENDBRANCH   7   8
ENDBRANCH   6   7
ENDBRANCH   3   6
ENDBRANCH   1   2
BRANCH   1  27
ATOM     27  C   UNL A   1      40.122  21.926  26.457  1.00  0.00     0.023 C 
BRANCH  27  28
ATOM     28  C   UNL A   1      40.863  22.380  27.713  1.00  0.00     0.023 C 
BRANCH  28  29
ATOM     29  C   UNL A   1      42.171  23.107  27.459  1.00  0.00     0.116 C 
BRANCH  29  30
ATOM     30  N   UNL A   1      42.058  23.985  26.311  1.00  0.00    -0.352 N 
ATOM     31  C   UNL A   1      41.540  25.248  26.214  1.00  0.00     0.251 C 
ATOM     32  H   UNL A   1      42.410  23.614  25.470  1.00  0.00     0.163 HD
ATOM     33  O   UNL A   1      41.201  25.663  25.108  1.00  0.00    -0.269 OA
BRANCH  31  34
ATOM     34  C   UNL A   1      41.411  26.115  27.405  1.00  0.00     0.039 A 
ATOM     35  C   UNL A   1      40.286  25.961  28.221  1.00  0.00     0.014 A 
ATOM     36  C   UNL A   1      42.323  27.143  27.669  1.00  0.00     0.014 A 
ATOM     37  C   UNL A   1      40.085  26.824  29.299  1.00  0.00     0.010 A 
ATOM     38  C   UNL A   1      42.167  27.948  28.795  1.00  0.00     0.010 A 
ATOM     39  C   UNL A   1      41.031  27.817  29.603  1.00  0.00    -0.014 A 
BRANCH  39  40
ATOM     40  C   UNL A   1      40.818  28.741  30.744  1.00  0.00     0.031 A 
ATOM     41  C   UNL A   1      41.652  28.611  31.993  1.00  0.00     0.074 A 
ATOM     42  C   UNL A   1      39.857  29.681  30.660  1.00  0.00     0.049 A 
ATOM     43  N   UNL A   1      41.600  29.312  33.097  1.00  0.00    -0.248 NA
ATOM     44  C   UNL A   1      42.661  27.537  32.016  1.00  0.00     0.031 C 
ATOM     45  C   UNL A   1      38.948  29.860  29.525  1.00  0.00     0.029 A 
ATOM     46  N   UNL A   1      39.482  30.661  31.541  1.00  0.00    -0.354 N 
ATOM     47  C   UNL A   1      42.560  28.764  33.942  1.00  0.00     0.074 A 
ATOM     48  C   UNL A   1      43.136  27.633  33.249  1.00  0.00     0.031 C 
ATOM     49  C   UNL A   1      38.138  30.902  29.769  1.00  0.00     0.029 A 
ATOM     50  C   UNL A   1      38.450  31.446  31.085  1.00  0.00     0.049 A 
ATOM     51  H   UNL A   1      39.911  30.792  32.418  1.00  0.00     0.167 HD
ATOM     52  C   UNL A   1      42.947  29.186  35.169  1.00  0.00     0.037 A 
ATOM     53  C   UNL A   1      37.825  32.489  31.665  1.00  0.00     0.037 A 
ATOM     54  C   UNL A   1      42.384  30.330  35.839  1.00  0.00     0.049 A 
ATOM     55  C   UNL A   1      38.293  32.953  33.018  1.00  0.00     0.074 A 
ATOM     56  C   UNL A   1      42.730  30.866  37.068  1.00  0.00     0.029 A 
ATOM     57  N   UNL A   1      41.366  31.122  35.330  1.00  0.00    -0.354 N 
ATOM     58  N   UNL A   1      39.239  32.454  33.779  1.00  0.00    -0.248 NA
ATOM     59  C   UNL A   1      37.621  34.129  33.585  1.00  0.00     0.031 C 
ATOM     60  C   UNL A   1      41.898  31.965  37.315  1.00  0.00     0.029 A 
ATOM     61  C   UNL A   1      41.065  32.138  36.222  1.00  0.00     0.049 A 
ATOM     62  H   UNL A   1      40.922  30.983  34.462  1.00  0.00     0.167 HD
ATOM     63  C   UNL A   1      39.285  33.265  34.907  1.00  0.00     0.074 A 
ATOM     64  C   UNL A   1      38.292  34.303  34.714  1.00  0.00     0.031 C 
ATOM     65  C   UNL A   1      40.071  33.160  36.007  1.00  0.00     0.037 A 
BRANCH  52  66
ATOM     66  C   UNL A   1      44.049  28.427  35.857  1.00  0.00     0.058 A 
ATOM     67  C   UNL A   1      43.770  27.354  36.721  1.00  0.00     0.135 A 
ATOM     68  C   UNL A   1      45.397  28.733  35.613  1.00  0.00     0.135 A 
ATOM     69  F   UNL A   1      42.499  27.029  37.004  1.00  0.00    -0.206 F 
ATOM     70  C   UNL A   1      44.785  26.626  37.331  1.00  0.00     0.059 A 
ATOM     71  C   UNL A   1      46.430  27.999  36.193  1.00  0.00     0.059 A 
ATOM     72  F   UNL A   1      45.724  29.750  34.799  1.00  0.00    -0.206 F 
ATOM     73  C   UNL A   1      46.114  26.953  37.058  1.00  0.00     0.060 A 
BRANCH  73  74
ATOM     74  S   UNL A   1      47.417  25.977  37.837  1.00  0.00     0.124 S 
ATOM     75  O   UNL A   1      47.228  24.678  37.201  1.00  0.00    -0.237 OA
ATOM     76  O   UNL A   1      48.623  26.702  37.453  1.00  0.00    -0.237 OA
ATOM     77  O   UNL A   1      47.081  26.034  39.258  1.00  0.00    -0.744 OA
ENDBRANCH  73  74
ENDBRANCH  52  66
BRANCH  53  78
ATOM     78  C   UNL A   1      36.705  33.172  30.966  1.00  0.00     0.058 A 
ATOM     79  C   UNL A   1      35.375  32.994  31.377  1.00  0.00     0.135 A 
ATOM     80  C   UNL A   1      36.941  34.014  29.868  1.00  0.00     0.135 A 
ATOM     81  F   UNL A   1      35.097  32.199  32.422  1.00  0.00    -0.206 F 
ATOM     82  C   UNL A   1      34.317  33.598  30.706  1.00  0.00     0.059 A 
ATOM     83  C   UNL A   1      35.902  34.652  29.198  1.00  0.00     0.059 A 
ATOM     84  F   UNL A   1      38.196  34.237  29.450  1.00  0.00    -0.206 F 
ATOM     85  C   UNL A   1      34.591  34.423  29.614  1.00  0.00     0.060 A 
BRANCH  85  86
ATOM     86  S   UNL A   1      33.215  35.221  28.760  1.00  0.00     0.124 S 
ATOM     87  O   UNL A   1      32.459  35.773  29.877  1.00  0.00    -0.237 OA
ATOM     88  O   UNL A   1      33.898  36.190  27.909  1.00  0.00    -0.237 OA
ATOM     89  O   UNL A   1      32.577  34.116  28.049  1.00  0.00    -0.744 OA
ENDBRANCH  85  86
ENDBRANCH  53  78
BRANCH  65  90
ATOM     90  C   UNL A   1      39.896  34.205  37.072  1.00  0.00     0.058 A 
ATOM     91  C   UNL A   1      39.126  33.962  38.220  1.00  0.00     0.135 A 
ATOM     92  C   UNL A   1      40.517  35.458  36.950  1.00  0.00     0.135 A 
ATOM     93  F   UNL A   1      38.507  32.781  38.381  1.00  0.00    -0.206 F 
ATOM     94  C   UNL A   1      38.946  34.938  39.193  1.00  0.00     0.059 A 
ATOM     95  C   UNL A   1      40.374  36.440  37.925  1.00  0.00     0.059 A 
ATOM     96  F   UNL A   1      41.275  35.737  35.878  1.00  0.00    -0.206 F 
ATOM     97  C   UNL A   1      39.571  36.177  39.033  1.00  0.00     0.060 A 
BRANCH  97  98
ATOM     98  S   UNL A   1      39.333  37.436  40.304  1.00  0.00     0.124 S 
ATOM     99  O   UNL A   1      38.493  38.402  39.605  1.00  0.00    -0.237 OA
ATOM    100  O   UNL A   1      38.680  36.685  41.372  1.00  0.00    -0.237 OA
ATOM    101  O   UNL A   1      40.692  37.881  40.599  1.00  0.00    -0.744 OA
ENDBRANCH  97  98
ENDBRANCH  65  90
ENDBRANCH  39  40
ENDBRANCH  31  34
ENDBRANCH  29  30
ENDBRANCH  28  29
ENDBRANCH  27  28
ENDBRANCH   1  27
TORSDOF 20
ENDMDL
MODEL 3
REMARK VINA RESULT:     -11.6      1.505      2.704
REMARK SMILES COC(=O)[C@@H](NC(=O)CCC(=O)NCCCCNC(=O)c1ccc(-c2c3nc(c(-c4c(F)cc(S(=O)(=O)[O-])cc4F)c4ccc([nH]4)c(-c4c(F)cc(S(=O)(=O)[O-])cc4F)c4nc(c(-c5c(F)cc(S(=O)(=O)[O-])cc5F)c5ccc2[nH]5)C=C4)C=C3)cc1)c1cccc2ccccc12
REMARK SMILES IDX 14 1 13 2 11 3 12 4 10 6 9 7 7 8 6 9 8 11 5 12 3 13 4 14
REMARK SMILES IDX 2 15 1 16 87 17 88 18 96 19 89 20 91 21 95 22 90 23 92 24
REMARK SMILES IDX 94 25 93 26 15 27 16 28 17 29 18 30 19 31 20 33 21 34 22 35
REMARK SMILES IDX 86 36 23 37 85 38 24 39 25 40 26 41 79 42 27 43 84 44 78 45
REMARK SMILES IDX 80 46 28 47 83 48 77 49 76 50 29 52 63 53 42 54 62 55 43 56
REMARK SMILES IDX 46 57 61 58 81 59 44 60 45 61 60 63 82 64 47 65 30 66 31 67
REMARK SMILES IDX 40 68 32 69 33 70 39 71 41 72 34 73 35 74 36 75 37 76 38 77
REMARK SMILES IDX 64 78 65 79 74 80 66 81 67 82 73 83 75 84 68 85 69 86 70 87
REMARK SMILES IDX 71 88 72 89 48 90 49 91 58 92 50 93 51 94 57 95 59 96 52 97
REMARK SMILES IDX 53 98 54 99 55 100 56 101
REMARK H PARENT 13 5 6 10 18 32 80 51 46 62
REMARK Flexibility Score: inf
ROOT
ATOM      1  C   UNL A   1      38.014  22.475  25.875  1.00  0.00     0.116 C 
ENDROOT
BRANCH   1   2
ATOM      2  N   UNL A   1      37.609  22.361  24.487  1.00  0.00    -0.356 N 
ATOM      3  C   UNL A   1      36.641  23.005  23.779  1.00  0.00     0.220 C 
ATOM      4  O   UNL A   1      36.634  22.929  22.549  1.00  0.00    -0.275 OA
ATOM      5  H   UNL A   1      38.126  21.704  23.966  1.00  0.00     0.163 HD
BRANCH   3   6
ATOM      6  C   UNL A   1      35.582  23.782  24.493  1.00  0.00     0.110 C 
BRANCH   6   7
ATOM      7  C   UNL A   1      34.458  24.259  23.595  1.00  0.00     0.110 C 
BRANCH   7   8
ATOM      8  C   UNL A   1      33.124  23.551  23.679  1.00  0.00     0.221 C 
ATOM      9  N   UNL A   1      32.103  23.843  24.525  1.00  0.00    -0.339 N 
ATOM     10  H   UNL A   1      31.241  23.524  24.173  1.00  0.00     0.164 HD
ATOM     11  O   UNL A   1      32.946  22.580  22.929  1.00  0.00    -0.275 OA
BRANCH   9  12
ATOM     12  C   UNL A   1      31.936  24.523  25.854  1.00  0.00     0.224 C 
BRANCH  12  13
ATOM     13  C   UNL A   1      31.032  23.792  26.880  1.00  0.00     0.333 C 
ATOM     14  O   UNL A   1      29.814  23.954  26.932  1.00  0.00    -0.249 OA
BRANCH  13  15
ATOM     15  O   UNL A   1      31.692  22.927  27.688  1.00  0.00    -0.467 OA
ATOM     16  C   UNL A   1      33.045  22.612  27.322  1.00  0.00     0.282 C 
ENDBRANCH  13  15
ENDBRANCH  12  13
BRANCH  12  17
ATOM     17  C   UNL A   1      31.859  26.047  25.719  1.00  0.00    -0.007 A 
ATOM     18  C   UNL A   1      32.876  26.759  26.403  1.00  0.00     0.007 A 
ATOM     19  C   UNL A   1      30.974  26.782  24.874  1.00  0.00    -0.013 A 
ATOM     20  C   UNL A   1      33.219  28.052  26.035  1.00  0.00     0.001 A 
ATOM     21  C   UNL A   1      31.381  28.075  24.456  1.00  0.00    -0.018 A 
ATOM     22  C   UNL A   1      29.689  26.366  24.449  1.00  0.00     0.009 A 
ATOM     23  C   UNL A   1      32.524  28.671  25.005  1.00  0.00     0.009 A 
ATOM     24  C   UNL A   1      30.625  28.787  23.511  1.00  0.00     0.009 A 
ATOM     25  C   UNL A   1      28.900  27.128  23.585  1.00  0.00     0.001 A 
ATOM     26  C   UNL A   1      29.389  28.318  23.077  1.00  0.00     0.001 A 
ENDBRANCH  12  17
ENDBRANCH   9  12
ENDBRANCH   7   8
ENDBRANCH   6   7
ENDBRANCH   3   6
ENDBRANCH   1   2
BRANCH   1  27
ATOM     27  C   UNL A   1      39.505  22.266  26.165  1.00  0.00     0.023 C 
BRANCH  27  28
ATOM     28  C   UNL A   1      40.042  22.676  27.535  1.00  0.00     0.023 C 
BRANCH  28  29
ATOM     29  C   UNL A   1      41.509  23.062  27.561  1.00  0.00     0.116 C 
BRANCH  29  30
ATOM     30  N   UNL A   1      41.852  23.864  26.404  1.00  0.00    -0.352 N 
ATOM     31  C   UNL A   1      41.604  25.184  26.140  1.00  0.00     0.251 C 
ATOM     32  H   UNL A   1      42.341  23.384  25.696  1.00  0.00     0.163 HD
ATOM     33  O   UNL A   1      41.641  25.570  24.974  1.00  0.00    -0.269 OA
BRANCH  31  34
ATOM     34  C   UNL A   1      41.322  26.142  27.232  1.00  0.00     0.039 A 
ATOM     35  C   UNL A   1      42.237  27.172  27.466  1.00  0.00     0.014 A 
ATOM     36  C   UNL A   1      40.228  25.977  28.090  1.00  0.00     0.014 A 
ATOM     37  C   UNL A   1      42.051  28.036  28.545  1.00  0.00     0.010 A 
ATOM     38  C   UNL A   1      39.997  26.891  29.115  1.00  0.00     0.010 A 
ATOM     39  C   UNL A   1      40.922  27.911  29.371  1.00  0.00    -0.014 A 
BRANCH  39  40
ATOM     40  C   UNL A   1      40.723  28.824  30.524  1.00  0.00     0.031 A 
ATOM     41  C   UNL A   1      41.573  28.683  31.761  1.00  0.00     0.074 A 
ATOM     42  C   UNL A   1      39.760  29.764  30.461  1.00  0.00     0.049 A 
ATOM     43  N   UNL A   1      41.534  29.373  32.872  1.00  0.00    -0.248 NA
ATOM     44  C   UNL A   1      42.583  27.610  31.760  1.00  0.00     0.031 C 
ATOM     45  C   UNL A   1      38.836  29.953  29.340  1.00  0.00     0.029 A 
ATOM     46  N   UNL A   1      39.395  30.736  31.357  1.00  0.00    -0.354 N 
ATOM     47  C   UNL A   1      42.505  28.819  33.699  1.00  0.00     0.074 A 
ATOM     48  C   UNL A   1      43.074  27.695  32.988  1.00  0.00     0.031 C 
ATOM     49  C   UNL A   1      38.028  30.992  29.604  1.00  0.00     0.029 A 
ATOM     50  C   UNL A   1      38.357  31.524  30.922  1.00  0.00     0.049 A 
ATOM     51  H   UNL A   1      39.835  30.858  32.229  1.00  0.00     0.167 HD
ATOM     52  C   UNL A   1      42.908  29.229  34.926  1.00  0.00     0.037 A 
ATOM     53  C   UNL A   1      37.738  32.561  31.520  1.00  0.00     0.037 A 
ATOM     54  C   UNL A   1      42.353  30.366  35.613  1.00  0.00     0.049 A 
ATOM     55  C   UNL A   1      38.224  33.012  32.871  1.00  0.00     0.074 A 
ATOM     56  C   UNL A   1      42.714  30.890  36.843  1.00  0.00     0.029 A 
ATOM     57  N   UNL A   1      41.327  31.162  35.125  1.00  0.00    -0.354 N 
ATOM     58  N   UNL A   1      39.180  32.507  33.614  1.00  0.00    -0.248 NA
ATOM     59  C   UNL A   1      37.558  34.182  33.458  1.00  0.00     0.031 C 
ATOM     60  C   UNL A   1      41.885  31.986  37.111  1.00  0.00     0.029 A 
ATOM     61  C   UNL A   1      41.037  32.169  36.031  1.00  0.00     0.049 A 
ATOM     62  H   UNL A   1      40.873  31.030  34.262  1.00  0.00     0.167 HD
ATOM     63  C   UNL A   1      39.240  33.307  34.750  1.00  0.00     0.074 A 
ATOM     64  C   UNL A   1      38.244  34.346  34.580  1.00  0.00     0.031 C 
ATOM     65  C   UNL A   1      40.040  33.192  35.839  1.00  0.00     0.037 A 
BRANCH  52  66
ATOM     66  C   UNL A   1      44.019  28.464  35.592  1.00  0.00     0.058 A 
ATOM     67  C   UNL A   1      43.752  27.400  36.469  1.00  0.00     0.135 A 
ATOM     68  C   UNL A   1      45.364  28.756  35.314  1.00  0.00     0.135 A 
ATOM     69  F   UNL A   1      42.485  27.088  36.785  1.00  0.00    -0.206 F 
ATOM     70  C   UNL A   1      44.775  26.666  37.060  1.00  0.00     0.059 A 
ATOM     71  C   UNL A   1      46.404  28.017  35.873  1.00  0.00     0.059 A 
ATOM     72  F   UNL A   1      45.680  29.764  34.485  1.00  0.00    -0.206 F 
ATOM     73  C   UNL A   1      46.099  26.979  36.752  1.00  0.00     0.060 A 
BRANCH  73  74
ATOM     74  S   UNL A   1      47.412  25.996  37.506  1.00  0.00     0.124 S 
ATOM     75  O   UNL A   1      47.853  25.184  36.378  1.00  0.00    -0.237 OA
ATOM     76  O   UNL A   1      48.349  27.018  37.958  1.00  0.00    -0.237 OA
ATOM     77  O   UNL A   1      46.722  25.269  38.571  1.00  0.00    -0.744 OA
ENDBRANCH  73  74
ENDBRANCH  52  66
BRANCH  53  78
ATOM     78  C   UNL A   1      36.609  33.250  30.842  1.00  0.00     0.058 A 
ATOM     79  C   UNL A   1      36.835  34.178  29.814  1.00  0.00     0.135 A 
ATOM     80  C   UNL A   1      35.278  32.998  31.214  1.00  0.00     0.135 A 
ATOM     81  F   UNL A   1      38.089  34.452  29.423  1.00  0.00    -0.206 F 
ATOM     82  C   UNL A   1      35.787  34.855  29.201  1.00  0.00     0.059 A 
ATOM     83  C   UNL A   1      34.212  33.643  30.596  1.00  0.00     0.059 A 
ATOM     84  F   UNL A   1      35.007  32.102  32.174  1.00  0.00    -0.206 F 
ATOM     85  C   UNL A   1      34.478  34.584  29.602  1.00  0.00     0.060 A 
BRANCH  85  86
ATOM     86  S   UNL A   1      33.121  35.453  28.786  1.00  0.00     0.124 S 
ATOM     87  O   UNL A   1      32.463  34.364  28.075  1.00  0.00    -0.237 OA
ATOM     88  O   UNL A   1      32.388  36.013  29.917  1.00  0.00    -0.237 OA
ATOM     89  O   UNL A   1      33.807  36.432  27.949  1.00  0.00    -0.744 OA
ENDBRANCH  85  86
ENDBRANCH  53  78
BRANCH  65  90
ATOM     90  C   UNL A   1      39.878  34.226  36.916  1.00  0.00     0.058 A 
ATOM     91  C   UNL A   1      40.599  35.431  36.891  1.00  0.00     0.135 A 
ATOM     92  C   UNL A   1      38.982  34.018  37.975  1.00  0.00     0.135 A 
ATOM     93  F   UNL A   1      41.473  35.675  35.901  1.00  0.00    -0.206 F 
ATOM     94  C   UNL A   1      40.465  36.377  37.901  1.00  0.00     0.059 A 
ATOM     95  C   UNL A   1      38.811  34.964  38.981  1.00  0.00     0.059 A 
ATOM     96  F   UNL A   1      38.258  32.889  38.039  1.00  0.00    -0.206 F 
ATOM     97  C   UNL A   1      39.571  36.131  38.945  1.00  0.00     0.060 A 
BRANCH  97  98
ATOM     98  S   UNL A   1      39.404  37.368  40.249  1.00  0.00     0.124 S 
ATOM     99  O   UNL A   1      40.778  37.839  40.384  1.00  0.00    -0.237 OA
ATOM    100  O   UNL A   1      38.463  38.318  39.663  1.00  0.00    -0.237 OA
ATOM    101  O   UNL A   1      38.889  36.601  41.379  1.00  0.00    -0.744 OA
ENDBRANCH  97  98
ENDBRANCH  65  90
ENDBRANCH  39  40
ENDBRANCH  31  34
ENDBRANCH  29  30
ENDBRANCH  28  29
ENDBRANCH  27  28
ENDBRANCH   1  27
TORSDOF 20
ENDMDL
