MODEL 1
REMARK VINA RESULT:     -12.4      0.000      0.000
REMARK SMILES O=C(NCCCCNC(=O)c1cc2nn[nH]n2n1)c1ccc(-c2c3nc(c(-c4c(F)cc(S(=O)(=O)[O-])cc4F)c4ccc([nH]4)c(-c4c(F)cc(S(=O)(=O)[O-])cc4F)c4nc(c(-c5c(F)cc(S(=O)(=O)[O-])cc5F)c5ccc2[nH]5)C=C4)C=C3)cc1
REMARK SMILES IDX 4 1 3 2 1 3 2 4 19 6 20 7 84 8 21 9 83 10 22 11 23 12 24 13
REMARK SMILES IDX 77 14 25 15 82 16 76 17 78 18 26 19 81 20 75 21 74 22 27 24
REMARK SMILES IDX 61 25 40 26 60 27 41 28 44 29 59 30 79 31 42 32 43 33 58 35
REMARK SMILES IDX 80 36 45 37 28 38 29 39 38 40 30 41 31 42 37 43 39 44 32 45
REMARK SMILES IDX 33 46 34 47 35 48 36 49 62 50 63 51 72 52 64 53 65 54 71 55
REMARK SMILES IDX 73 56 66 57 67 58 68 59 69 60 70 61 46 62 47 63 56 64 48 65
REMARK SMILES IDX 49 66 55 67 57 68 50 69 51 70 52 71 53 72 54 73 5 74 6 75
REMARK SMILES IDX 7 76 8 77 9 78 10 80 11 81 12 82 18 83 13 84 17 85 14 86
REMARK SMILES IDX 16 87 15 88
REMARK H PARENT 3 5 78 23 44 34 8 79 16 89
REMARK Flexibility Score: inf
ROOT
ATOM      1  C   UNL A   1      33.422  28.987  26.657  1.00  0.00     0.116 C 
ENDROOT
BRANCH   1   2
ATOM      2  N   UNL A   1      33.379  30.135  27.536  1.00  0.00    -0.352 N 
ATOM      3  O   UNL A   1      33.939  31.974  28.633  1.00  0.00    -0.269 OA
ATOM      4  C   UNL A   1      34.336  30.947  28.079  1.00  0.00     0.251 C 
ATOM      5  H   UNL A   1      32.463  30.386  27.801  1.00  0.00     0.163 HD
BRANCH   4   6
ATOM      6  C   UNL A   1      35.779  30.604  28.136  1.00  0.00     0.039 A 
ATOM      7  C   UNL A   1      36.321  29.331  27.930  1.00  0.00     0.014 A 
ATOM      8  C   UNL A   1      36.631  31.656  28.508  1.00  0.00     0.014 A 
ATOM      9  C   UNL A   1      37.642  29.069  28.256  1.00  0.00     0.010 A 
ATOM     10  C   UNL A   1      37.960  31.410  28.799  1.00  0.00     0.010 A 
ATOM     11  C   UNL A   1      38.439  30.101  28.740  1.00  0.00    -0.014 A 
BRANCH  11  12
ATOM     12  C   UNL A   1      39.829  29.819  29.072  1.00  0.00     0.031 A 
ATOM     13  C   UNL A   1      40.107  29.722  30.541  1.00  0.00     0.074 A 
ATOM     14  C   UNL A   1      40.688  29.471  28.091  1.00  0.00     0.049 A 
ATOM     15  N   UNL A   1      41.035  30.294  31.239  1.00  0.00    -0.248 NA
ATOM     16  C   UNL A   1      39.132  28.977  31.364  1.00  0.00     0.031 C 
ATOM     17  C   UNL A   1      40.398  29.309  26.659  1.00  0.00     0.029 A 
ATOM     18  N   UNL A   1      41.973  29.038  28.179  1.00  0.00    -0.354 N 
ATOM     19  C   UNL A   1      40.894  29.803  32.541  1.00  0.00     0.074 A 
ATOM     20  C   UNL A   1      39.623  29.136  32.591  1.00  0.00     0.031 C 
ATOM     21  C   UNL A   1      41.377  28.580  26.081  1.00  0.00     0.029 A 
ATOM     22  C   UNL A   1      42.415  28.333  27.063  1.00  0.00     0.049 A 
ATOM     23  H   UNL A   1      42.543  29.209  28.964  1.00  0.00     0.167 HD
ATOM     24  C   UNL A   1      41.930  29.773  33.424  1.00  0.00     0.037 A 
ATOM     25  C   UNL A   1      43.494  27.508  27.017  1.00  0.00     0.037 A 
ATOM     26  C   UNL A   1      42.956  30.714  33.069  1.00  0.00     0.049 A 
ATOM     27  C   UNL A   1      44.356  27.872  28.175  1.00  0.00     0.074 A 
ATOM     28  C   UNL A   1      43.004  32.089  32.950  1.00  0.00     0.029 A 
ATOM     29  N   UNL A   1      44.067  30.246  32.412  1.00  0.00    -0.354 N 
ATOM     30  N   UNL A   1      44.939  29.037  28.301  1.00  0.00    -0.248 NA
ATOM     31  C   UNL A   1      44.151  27.139  29.417  1.00  0.00     0.031 C 
ATOM     32  C   UNL A   1      43.830  32.328  31.813  1.00  0.00     0.029 A 
ATOM     33  C   UNL A   1      44.289  31.091  31.353  1.00  0.00     0.049 A 
ATOM     34  H   UNL A   1      44.604  29.456  32.654  1.00  0.00     0.167 HD
ATOM     35  C   UNL A   1      44.807  29.362  29.646  1.00  0.00     0.074 A 
ATOM     36  C   UNL A   1      44.351  28.130  30.290  1.00  0.00     0.031 C 
ATOM     37  C   UNL A   1      44.802  30.659  30.073  1.00  0.00     0.037 A 
BRANCH  24  38
ATOM     38  C   UNL A   1      42.168  28.638  34.395  1.00  0.00     0.058 A 
ATOM     39  C   UNL A   1      42.171  28.894  35.781  1.00  0.00     0.135 A 
ATOM     40  C   UNL A   1      42.683  27.379  34.008  1.00  0.00     0.135 A 
ATOM     41  F   UNL A   1      41.706  30.058  36.262  1.00  0.00    -0.206 F 
ATOM     42  C   UNL A   1      42.723  28.002  36.705  1.00  0.00     0.059 A 
ATOM     43  C   UNL A   1      43.190  26.456  34.915  1.00  0.00     0.059 A 
ATOM     44  F   UNL A   1      42.813  27.023  32.725  1.00  0.00    -0.206 F 
ATOM     45  C   UNL A   1      43.250  26.794  36.255  1.00  0.00     0.060 A 
BRANCH  45  46
ATOM     46  S   UNL A   1      44.084  25.702  37.420  1.00  0.00     0.124 S 
ATOM     47  O   UNL A   1      43.598  24.395  36.993  1.00  0.00    -0.237 OA
ATOM     48  O   UNL A   1      45.490  25.985  37.146  1.00  0.00    -0.237 OA
ATOM     49  O   UNL A   1      43.600  26.163  38.719  1.00  0.00    -0.744 OA
ENDBRANCH  45  46
ENDBRANCH  24  38
BRANCH  25  50
ATOM     50  C   UNL A   1      43.551  26.178  26.341  1.00  0.00     0.058 A 
ATOM     51  C   UNL A   1      44.552  25.861  25.406  1.00  0.00     0.135 A 
ATOM     52  C   UNL A   1      42.765  25.095  26.790  1.00  0.00     0.135 A 
ATOM     53  F   UNL A   1      45.374  26.818  24.950  1.00  0.00    -0.206 F 
ATOM     54  C   UNL A   1      44.771  24.549  24.959  1.00  0.00     0.059 A 
ATOM     55  C   UNL A   1      42.955  23.786  26.353  1.00  0.00     0.059 A 
ATOM     56  F   UNL A   1      41.834  25.263  27.741  1.00  0.00    -0.206 F 
ATOM     57  C   UNL A   1      43.973  23.514  25.450  1.00  0.00     0.060 A 
BRANCH  57  58
ATOM     58  S   UNL A   1      44.334  21.800  24.991  1.00  0.00     0.124 S 
ATOM     59  O   UNL A   1      45.551  21.534  25.751  1.00  0.00    -0.237 OA
ATOM     60  O   UNL A   1      43.135  21.101  25.440  1.00  0.00    -0.237 OA
ATOM     61  O   UNL A   1      44.507  21.866  23.542  1.00  0.00    -0.744 OA
ENDBRANCH  57  58
ENDBRANCH  25  50
BRANCH  37  62
ATOM     62  C   UNL A   1      45.121  31.748  29.077  1.00  0.00     0.058 A 
ATOM     63  C   UNL A   1      46.430  32.138  28.735  1.00  0.00     0.135 A 
ATOM     64  C   UNL A   1      44.079  32.272  28.302  1.00  0.00     0.135 A 
ATOM     65  F   UNL A   1      47.490  31.602  29.351  1.00  0.00    -0.206 F 
ATOM     66  C   UNL A   1      46.688  33.032  27.694  1.00  0.00     0.059 A 
ATOM     67  C   UNL A   1      44.313  33.142  27.239  1.00  0.00     0.059 A 
ATOM     68  F   UNL A   1      42.814  31.884  28.530  1.00  0.00    -0.206 F 
ATOM     69  C   UNL A   1      45.620  33.525  26.946  1.00  0.00     0.060 A 
BRANCH  69  70
ATOM     70  S   UNL A   1      45.960  34.606  25.538  1.00  0.00     0.124 S 
ATOM     71  O   UNL A   1      45.671  35.926  26.086  1.00  0.00    -0.237 OA
ATOM     72  O   UNL A   1      47.367  34.330  25.259  1.00  0.00    -0.237 OA
ATOM     73  O   UNL A   1      45.029  34.136  24.515  1.00  0.00    -0.744 OA
ENDBRANCH  69  70
ENDBRANCH  37  62
ENDBRANCH  11  12
ENDBRANCH   4   6
ENDBRANCH   1   2
BRANCH   1  74
ATOM     74  C   UNL A   1      32.079  28.601  26.038  1.00  0.00     0.023 C 
BRANCH  74  75
ATOM     75  C   UNL A   1      31.526  29.608  25.026  1.00  0.00     0.023 C 
BRANCH  75  76
ATOM     76  C   UNL A   1      31.259  29.055  23.629  1.00  0.00     0.116 C 
BRANCH  76  77
ATOM     77  N   UNL A   1      30.087  28.198  23.579  1.00  0.00    -0.351 N 
ATOM     78  C   UNL A   1      28.807  28.505  23.174  1.00  0.00     0.271 C 
ATOM     79  H   UNL A   1      30.227  27.269  23.877  1.00  0.00     0.163 HD
ATOM     80  O   UNL A   1      27.923  27.667  23.308  1.00  0.00    -0.267 OA
BRANCH  78  81
ATOM     81  C   UNL A   1      28.569  29.824  22.573  1.00  0.00     0.154 A 
ATOM     82  C   UNL A   1      28.571  31.103  23.244  1.00  0.00     0.089 A 
ATOM     83  N   UNL A   1      28.302  29.961  21.248  1.00  0.00    -0.143 NA
ATOM     84  C   UNL A   1      28.234  31.987  22.260  1.00  0.00     0.199 A 
ATOM     85  N   UNL A   1      28.109  31.258  21.150  1.00  0.00    -0.135 N 
ATOM     86  N   UNL A   1      27.963  33.282  21.976  1.00  0.00    -0.109 NA
ATOM     87  N   UNL A   1      27.723  32.088  20.209  1.00  0.00    -0.177 N 
ATOM     88  N   UNL A   1      27.672  33.360  20.728  1.00  0.00    -0.050 NA
ATOM     89  H   UNL A   1      27.505  31.840  19.281  1.00  0.00     0.216 HD
ENDBRANCH  78  81
ENDBRANCH  76  77
ENDBRANCH  75  76
ENDBRANCH  74  75
ENDBRANCH   1  74
TORSDOF 14
ENDMDL
MODEL 2
REMARK VINA RESULT:     -12.3      5.002     10.455
REMARK SMILES O=C(NCCCCNC(=O)c1cc2nn[nH]n2n1)c1ccc(-c2c3nc(c(-c4c(F)cc(S(=O)(=O)[O-])cc4F)c4ccc([nH]4)c(-c4c(F)cc(S(=O)(=O)[O-])cc4F)c4nc(c(-c5c(F)cc(S(=O)(=O)[O-])cc5F)c5ccc2[nH]5)C=C4)C=C3)cc1
REMARK SMILES IDX 4 1 3 2 1 3 2 4 19 6 20 7 84 8 21 9 83 10 22 11 23 12 24 13
REMARK SMILES IDX 77 14 25 15 82 16 76 17 78 18 26 19 81 20 75 21 74 22 27 24
REMARK SMILES IDX 61 25 40 26 60 27 41 28 44 29 59 30 79 31 42 32 43 33 58 35
REMARK SMILES IDX 80 36 45 37 28 38 29 39 38 40 30 41 31 42 37 43 39 44 32 45
REMARK SMILES IDX 33 46 34 47 35 48 36 49 62 50 63 51 72 52 64 53 65 54 71 55
REMARK SMILES IDX 73 56 66 57 67 58 68 59 69 60 70 61 46 62 47 63 56 64 48 65
REMARK SMILES IDX 49 66 55 67 57 68 50 69 51 70 52 71 53 72 54 73 5 74 6 75
REMARK SMILES IDX 7 76 8 77 9 78 10 80 11 81 12 82 18 83 13 84 17 85 14 86
REMARK SMILES IDX 16 87 15 88
REMARK H PARENT 3 5 78 23 44 34 8 79 16 89
REMARK Flexibility Score: inf
ROOT
ATOM      1  C   UNL A   1      37.193  23.100  25.126  1.00  0.00     0.116 C 
ENDROOT
BRANCH   1   2
ATOM      2  N   UNL A   1      38.204  22.089  25.343  1.00  0.00    -0.352 N 
ATOM      3  O   UNL A   1      39.876  20.931  26.217  1.00  0.00    -0.269 OA
ATOM      4  C   UNL A   1      39.341  22.036  26.102  1.00  0.00     0.251 C 
ATOM      5  H   UNL A   1      38.039  21.261  24.835  1.00  0.00     0.163 HD
BRANCH   4   6
ATOM      6  C   UNL A   1      40.008  23.229  26.680  1.00  0.00     0.039 A 
ATOM      7  C   UNL A   1      41.159  23.210  27.475  1.00  0.00     0.014 A 
ATOM      8  C   UNL A   1      39.356  24.451  26.452  1.00  0.00     0.014 A 
ATOM      9  C   UNL A   1      41.550  24.343  28.170  1.00  0.00     0.010 A 
ATOM     10  C   UNL A   1      39.763  25.595  27.113  1.00  0.00     0.010 A 
ATOM     11  C   UNL A   1      40.816  25.515  28.024  1.00  0.00    -0.014 A 
BRANCH  11  12
ATOM     12  C   UNL A   1      41.239  26.705  28.752  1.00  0.00     0.031 A 
ATOM     13  C   UNL A   1      42.481  27.350  28.215  1.00  0.00     0.074 A 
ATOM     14  C   UNL A   1      40.417  27.245  29.676  1.00  0.00     0.049 A 
ATOM     15  N   UNL A   1      43.545  27.730  28.846  1.00  0.00    -0.248 NA
ATOM     16  C   UNL A   1      42.595  27.473  26.747  1.00  0.00     0.031 C 
ATOM     17  C   UNL A   1      39.075  26.787  30.061  1.00  0.00     0.029 A 
ATOM     18  N   UNL A   1      40.539  28.408  30.368  1.00  0.00    -0.354 N 
ATOM     19  C   UNL A   1      44.362  28.340  27.888  1.00  0.00     0.074 A 
ATOM     20  C   UNL A   1      43.807  28.007  26.605  1.00  0.00     0.031 C 
ATOM     21  C   UNL A   1      38.424  27.785  30.698  1.00  0.00     0.029 A 
ATOM     22  C   UNL A   1      39.338  28.897  30.876  1.00  0.00     0.049 A 
ATOM     23  H   UNL A   1      41.401  28.866  30.499  1.00  0.00     0.167 HD
ATOM     24  C   UNL A   1      45.301  29.269  28.218  1.00  0.00     0.037 A 
ATOM     25  C   UNL A   1      39.106  30.171  31.289  1.00  0.00     0.037 A 
ATOM     26  C   UNL A   1      45.687  29.164  29.597  1.00  0.00     0.049 A 
ATOM     27  C   UNL A   1      40.439  30.780  31.553  1.00  0.00     0.074 A 
ATOM     28  C   UNL A   1      46.290  28.182  30.359  1.00  0.00     0.029 A 
ATOM     29  N   UNL A   1      45.131  30.039  30.496  1.00  0.00    -0.354 N 
ATOM     30  N   UNL A   1      41.251  30.359  32.488  1.00  0.00    -0.248 NA
ATOM     31  C   UNL A   1      41.070  31.505  30.458  1.00  0.00     0.031 C 
ATOM     32  C   UNL A   1      45.626  28.239  31.619  1.00  0.00     0.029 A 
ATOM     33  C   UNL A   1      44.712  29.294  31.570  1.00  0.00     0.049 A 
ATOM     34  H   UNL A   1      45.046  31.016  30.391  1.00  0.00     0.167 HD
ATOM     35  C   UNL A   1      42.516  30.404  31.915  1.00  0.00     0.074 A 
ATOM     36  C   UNL A   1      42.343  31.162  30.676  1.00  0.00     0.031 C 
ATOM     37  C   UNL A   1      43.526  29.589  32.342  1.00  0.00     0.037 A 
BRANCH  24  38
ATOM     38  C   UNL A   1      45.594  30.494  27.381  1.00  0.00     0.058 A 
ATOM     39  C   UNL A   1      46.927  30.814  27.053  1.00  0.00     0.135 A 
ATOM     40  C   UNL A   1      44.648  31.518  27.144  1.00  0.00     0.135 A 
ATOM     41  F   UNL A   1      47.910  29.917  27.236  1.00  0.00    -0.206 F 
ATOM     42  C   UNL A   1      47.303  32.083  26.605  1.00  0.00     0.059 A 
ATOM     43  C   UNL A   1      44.994  32.770  26.652  1.00  0.00     0.059 A 
ATOM     44  F   UNL A   1      43.357  31.390  27.475  1.00  0.00    -0.206 F 
ATOM     45  C   UNL A   1      46.328  33.060  26.429  1.00  0.00     0.060 A 
BRANCH  45  46
ATOM     46  S   UNL A   1      46.821  34.735  25.984  1.00  0.00     0.124 S 
ATOM     47  O   UNL A   1      47.183  35.287  27.285  1.00  0.00    -0.237 OA
ATOM     48  O   UNL A   1      47.926  34.489  25.062  1.00  0.00    -0.237 OA
ATOM     49  O   UNL A   1      45.616  35.290  25.374  1.00  0.00    -0.744 OA
ENDBRANCH  45  46
ENDBRANCH  24  38
BRANCH  25  50
ATOM     50  C   UNL A   1      37.882  30.974  31.002  1.00  0.00     0.058 A 
ATOM     51  C   UNL A   1      37.321  31.843  31.955  1.00  0.00     0.135 A 
ATOM     52  C   UNL A   1      37.378  31.097  29.689  1.00  0.00     0.135 A 
ATOM     53  F   UNL A   1      37.763  31.826  33.222  1.00  0.00    -0.206 F 
ATOM     54  C   UNL A   1      36.337  32.786  31.623  1.00  0.00     0.059 A 
ATOM     55  C   UNL A   1      36.393  32.017  29.336  1.00  0.00     0.059 A 
ATOM     56  F   UNL A   1      37.893  30.379  28.680  1.00  0.00    -0.206 F 
ATOM     57  C   UNL A   1      35.888  32.874  30.304  1.00  0.00     0.060 A 
BRANCH  57  58
ATOM     58  S   UNL A   1      34.723  34.177  29.832  1.00  0.00     0.124 S 
ATOM     59  O   UNL A   1      34.489  34.848  31.106  1.00  0.00    -0.237 OA
ATOM     60  O   UNL A   1      35.486  34.930  28.843  1.00  0.00    -0.237 OA
ATOM     61  O   UNL A   1      33.581  33.435  29.301  1.00  0.00    -0.744 OA
ENDBRANCH  57  58
ENDBRANCH  25  50
BRANCH  37  62
ATOM     62  C   UNL A   1      43.304  28.751  33.577  1.00  0.00     0.058 A 
ATOM     63  C   UNL A   1      43.357  29.258  34.889  1.00  0.00     0.135 A 
ATOM     64  C   UNL A   1      42.828  27.442  33.421  1.00  0.00     0.135 A 
ATOM     65  F   UNL A   1      43.693  30.532  35.120  1.00  0.00    -0.206 F 
ATOM     66  C   UNL A   1      42.986  28.490  35.995  1.00  0.00     0.059 A 
ATOM     67  C   UNL A   1      42.425  26.668  34.505  1.00  0.00     0.059 A 
ATOM     68  F   UNL A   1      42.686  26.924  32.190  1.00  0.00    -0.206 F 
ATOM     69  C   UNL A   1      42.514  27.195  35.792  1.00  0.00     0.060 A 
BRANCH  69  70
ATOM     70  S   UNL A   1      41.944  26.236  37.213  1.00  0.00     0.124 S 
ATOM     71  O   UNL A   1      43.001  26.474  38.190  1.00  0.00    -0.237 OA
ATOM     72  O   UNL A   1      40.653  26.850  37.513  1.00  0.00    -0.237 OA
ATOM     73  O   UNL A   1      41.868  24.871  36.695  1.00  0.00    -0.744 OA
ENDBRANCH  69  70
ENDBRANCH  37  62
ENDBRANCH  11  12
ENDBRANCH   4   6
ENDBRANCH   1   2
BRANCH   1  74
ATOM     74  C   UNL A   1      35.757  22.578  25.099  1.00  0.00     0.023 C 
BRANCH  74  75
ATOM     75  C   UNL A   1      35.493  21.378  26.013  1.00  0.00     0.023 C 
BRANCH  75  76
ATOM     76  C   UNL A   1      34.025  21.010  26.205  1.00  0.00     0.116 C 
BRANCH  76  77
ATOM     77  N   UNL A   1      33.246  21.156  24.987  1.00  0.00    -0.351 N 
ATOM     78  C   UNL A   1      32.835  20.184  24.101  1.00  0.00     0.271 C 
ATOM     79  H   UNL A   1      32.975  22.076  24.765  1.00  0.00     0.163 HD
ATOM     80  O   UNL A   1      32.273  20.523  23.066  1.00  0.00    -0.267 OA
BRANCH  78  81
ATOM     81  C   UNL A   1      33.071  18.779  24.456  1.00  0.00     0.154 A 
ATOM     82  C   UNL A   1      34.290  18.026  24.276  1.00  0.00     0.089 A 
ATOM     83  N   UNL A   1      32.096  18.015  25.014  1.00  0.00    -0.143 NA
ATOM     84  C   UNL A   1      33.963  16.771  24.700  1.00  0.00     0.199 A 
ATOM     85  N   UNL A   1      32.698  16.851  25.116  1.00  0.00    -0.135 N 
ATOM     86  N   UNL A   1      34.399  15.498  24.845  1.00  0.00    -0.109 NA
ATOM     87  N   UNL A   1      32.351  15.635  25.468  1.00  0.00    -0.177 N 
ATOM     88  N   UNL A   1      33.436  14.803  25.330  1.00  0.00    -0.050 NA
ATOM     89  H   UNL A   1      31.457  15.363  25.780  1.00  0.00     0.216 HD
ENDBRANCH  78  81
ENDBRANCH  76  77
ENDBRANCH  75  76
ENDBRANCH  74  75
ENDBRANCH   1  74
TORSDOF 14
ENDMDL
MODEL 3
REMARK VINA RESULT:     -12.2      5.072     10.415
REMARK SMILES O=C(NCCCCNC(=O)c1cc2nn[nH]n2n1)c1ccc(-c2c3nc(c(-c4c(F)cc(S(=O)(=O)[O-])cc4F)c4ccc([nH]4)c(-c4c(F)cc(S(=O)(=O)[O-])cc4F)c4nc(c(-c5c(F)cc(S(=O)(=O)[O-])cc5F)c5ccc2[nH]5)C=C4)C=C3)cc1
REMARK SMILES IDX 4 1 3 2 1 3 2 4 19 6 20 7 84 8 21 9 83 10 22 11 23 12 24 13
REMARK SMILES IDX 77 14 25 15 82 16 76 17 78 18 26 19 81 20 75 21 74 22 27 24
REMARK SMILES IDX 61 25 40 26 60 27 41 28 44 29 59 30 79 31 42 32 43 33 58 35
REMARK SMILES IDX 80 36 45 37 28 38 29 39 38 40 30 41 31 42 37 43 39 44 32 45
REMARK SMILES IDX 33 46 34 47 35 48 36 49 62 50 63 51 72 52 64 53 65 54 71 55
REMARK SMILES IDX 73 56 66 57 67 58 68 59 69 60 70 61 46 62 47 63 56 64 48 65
REMARK SMILES IDX 49 66 55 67 57 68 50 69 51 70 52 71 53 72 54 73 5 74 6 75
REMARK SMILES IDX 7 76 8 77 9 78 10 80 11 81 12 82 18 83 13 84 17 85 14 86
REMARK SMILES IDX 16 87 15 88
REMARK H PARENT 3 5 78 23 44 34 8 79 16 89
REMARK Flexibility Score: inf
ROOT
ATOM      1  C   UNL A   1      36.988  23.388  24.767  1.00  0.00     0.116 C 
ENDROOT
BRANCH   1   2
ATOM      2  N   UNL A   1      38.095  22.496  25.033  1.00  0.00    -0.352 N 
ATOM      3  O   UNL A   1      39.748  21.431  26.049  1.00  0.00    -0.269 OA
ATOM      4  C   UNL A   1      39.068  22.458  25.994  1.00  0.00     0.251 C 
ATOM      5  H   UNL A   1      38.164  21.759  24.383  1.00  0.00     0.163 HD
BRANCH   4   6
ATOM      6  C   UNL A   1      39.414  23.605  26.871  1.00  0.00     0.039 A 
ATOM      7  C   UNL A   1      38.746  24.834  26.902  1.00  0.00     0.014 A 
ATOM      8  C   UNL A   1      40.559  23.430  27.663  1.00  0.00     0.014 A 
ATOM      9  C   UNL A   1      39.301  25.917  27.565  1.00  0.00     0.010 A 
ATOM     10  C   UNL A   1      41.099  24.496  28.358  1.00  0.00     0.010 A 
ATOM     11  C   UNL A   1      40.503  25.753  28.245  1.00  0.00    -0.014 A 
BRANCH  11  12
ATOM     12  C   UNL A   1      41.076  26.895  28.947  1.00  0.00     0.031 A 
ATOM     13  C   UNL A   1      42.407  27.339  28.423  1.00  0.00     0.074 A 
ATOM     14  C   UNL A   1      40.319  27.576  29.832  1.00  0.00     0.049 A 
ATOM     15  N   UNL A   1      43.501  27.586  29.069  1.00  0.00    -0.248 NA
ATOM     16  C   UNL A   1      42.570  27.395  26.955  1.00  0.00     0.031 C 
ATOM     17  C   UNL A   1      38.917  27.326  30.196  1.00  0.00     0.029 A 
ATOM     18  N   UNL A   1      40.589  28.733  30.492  1.00  0.00    -0.354 N 
ATOM     19  C   UNL A   1      44.416  28.042  28.115  1.00  0.00     0.074 A 
ATOM     20  C   UNL A   1      43.848  27.748  26.829  1.00  0.00     0.031 C 
ATOM     21  C   UNL A   1      38.401  28.426  30.785  1.00  0.00     0.029 A 
ATOM     22  C   UNL A   1      39.459  29.403  30.953  1.00  0.00     0.049 A 
ATOM     23  H   UNL A   1      41.505  29.069  30.631  1.00  0.00     0.167 HD
ATOM     24  C   UNL A   1      45.471  28.839  28.441  1.00  0.00     0.037 A 
ATOM     25  C   UNL A   1      39.402  30.711  31.320  1.00  0.00     0.037 A 
ATOM     26  C   UNL A   1      45.809  28.728  29.832  1.00  0.00     0.049 A 
ATOM     27  C   UNL A   1      40.802  31.134  31.601  1.00  0.00     0.074 A 
ATOM     28  C   UNL A   1      46.249  27.696  30.639  1.00  0.00     0.029 A 
ATOM     29  N   UNL A   1      45.363  29.703  30.689  1.00  0.00    -0.354 N 
ATOM     30  N   UNL A   1      41.526  30.634  32.569  1.00  0.00    -0.248 NA
ATOM     31  C   UNL A   1      41.553  31.725  30.501  1.00  0.00     0.031 C 
ATOM     32  C   UNL A   1      45.573  27.890  31.879  1.00  0.00     0.029 A 
ATOM     33  C   UNL A   1      44.820  29.061  31.775  1.00  0.00     0.049 A 
ATOM     34  H   UNL A   1      45.420  30.677  30.553  1.00  0.00     0.167 HD
ATOM     35  C   UNL A   1      42.796  30.481  32.028  1.00  0.00     0.074 A 
ATOM     36  C   UNL A   1      42.760  31.213  30.762  1.00  0.00     0.031 C 
ATOM     37  C   UNL A   1      43.671  29.547  32.505  1.00  0.00     0.037 A 
BRANCH  24  38
ATOM     38  C   UNL A   1      45.953  29.982  27.575  1.00  0.00     0.058 A 
ATOM     39  C   UNL A   1      47.333  30.145  27.338  1.00  0.00     0.135 A 
ATOM     40  C   UNL A   1      45.141  31.084  27.219  1.00  0.00     0.135 A 
ATOM     41  F   UNL A   1      48.199  29.164  27.638  1.00  0.00    -0.206 F 
ATOM     42  C   UNL A   1      47.873  31.344  26.864  1.00  0.00     0.059 A 
ATOM     43  C   UNL A   1      45.652  32.266  26.699  1.00  0.00     0.059 A 
ATOM     44  F   UNL A   1      43.823  31.106  27.453  1.00  0.00    -0.206 F 
ATOM     45  C   UNL A   1      47.023  32.405  26.569  1.00  0.00     0.060 A 
BRANCH  45  46
ATOM     46  S   UNL A   1      47.722  33.995  26.089  1.00  0.00     0.124 S 
ATOM     47  O   UNL A   1      48.980  33.585  25.475  1.00  0.00    -0.237 OA
ATOM     48  O   UNL A   1      46.703  34.510  25.179  1.00  0.00    -0.237 OA
ATOM     49  O   UNL A   1      47.840  34.708  27.357  1.00  0.00    -0.744 OA
ENDBRANCH  45  46
ENDBRANCH  24  38
BRANCH  25  50
ATOM     50  C   UNL A   1      38.311  31.669  30.978  1.00  0.00     0.058 A 
ATOM     51  C   UNL A   1      37.910  31.897  29.649  1.00  0.00     0.135 A 
ATOM     52  C   UNL A   1      37.460  32.195  31.974  1.00  0.00     0.135 A 
ATOM     53  F   UNL A   1      38.635  31.402  28.635  1.00  0.00    -0.206 F 
ATOM     54  C   UNL A   1      36.731  32.588  29.330  1.00  0.00     0.059 A 
ATOM     55  C   UNL A   1      36.290  32.894  31.682  1.00  0.00     0.059 A 
ATOM     56  F   UNL A   1      37.696  31.970  33.275  1.00  0.00    -0.206 F 
ATOM     57  C   UNL A   1      35.920  33.073  30.357  1.00  0.00     0.060 A 
BRANCH  57  58
ATOM     58  S   UNL A   1      34.329  33.841  29.964  1.00  0.00     0.124 S 
ATOM     59  O   UNL A   1      33.788  34.111  31.292  1.00  0.00    -0.237 OA
ATOM     60  O   UNL A   1      34.733  35.009  29.190  1.00  0.00    -0.237 OA
ATOM     61  O   UNL A   1      33.630  32.806  29.207  1.00  0.00    -0.744 OA
ENDBRANCH  57  58
ENDBRANCH  25  50
BRANCH  37  62
ATOM     62  C   UNL A   1      43.305  28.790  33.759  1.00  0.00     0.058 A 
ATOM     63  C   UNL A   1      42.431  27.687  33.783  1.00  0.00     0.135 A 
ATOM     64  C   UNL A   1      44.013  29.065  34.937  1.00  0.00     0.135 A 
ATOM     65  F   UNL A   1      41.800  27.287  32.673  1.00  0.00    -0.206 F 
ATOM     66  C   UNL A   1      42.245  26.914  34.931  1.00  0.00     0.059 A 
ATOM     67  C   UNL A   1      43.866  28.291  36.086  1.00  0.00     0.059 A 
ATOM     68  F   UNL A   1      44.915  30.060  34.960  1.00  0.00    -0.206 F 
ATOM     69  C   UNL A   1      42.973  27.221  36.079  1.00  0.00     0.060 A 
BRANCH  69  70
ATOM     70  S   UNL A   1      42.805  26.164  37.534  1.00  0.00     0.124 S 
ATOM     71  O   UNL A   1      43.334  24.892  37.054  1.00  0.00    -0.237 OA
ATOM     72  O   UNL A   1      43.624  26.856  38.526  1.00  0.00    -0.237 OA
ATOM     73  O   UNL A   1      41.369  26.182  37.805  1.00  0.00    -0.744 OA
ENDBRANCH  69  70
ENDBRANCH  37  62
ENDBRANCH  11  12
ENDBRANCH   4   6
ENDBRANCH   1   2
BRANCH   1  74
ATOM     74  C   UNL A   1      35.604  22.778  24.987  1.00  0.00     0.023 C 
BRANCH  74  75
ATOM     75  C   UNL A   1      35.582  21.554  25.907  1.00  0.00     0.023 C 
BRANCH  75  76
ATOM     76  C   UNL A   1      34.215  20.905  26.102  1.00  0.00     0.116 C 
BRANCH  76  77
ATOM     77  N   UNL A   1      33.350  21.059  24.944  1.00  0.00    -0.351 N 
ATOM     78  C   UNL A   1      32.843  20.089  24.107  1.00  0.00     0.271 C 
ATOM     79  H   UNL A   1      33.091  21.984  24.728  1.00  0.00     0.163 HD
ATOM     80  O   UNL A   1      32.215  20.430  23.113  1.00  0.00    -0.267 OA
BRANCH  78  81
ATOM     81  C   UNL A   1      33.063  18.682  24.467  1.00  0.00     0.154 A 
ATOM     82  C   UNL A   1      34.265  17.907  24.267  1.00  0.00     0.089 A 
ATOM     83  N   UNL A   1      32.086  17.938  25.048  1.00  0.00    -0.143 NA
ATOM     84  C   UNL A   1      33.924  16.660  24.705  1.00  0.00     0.199 A 
ATOM     85  N   UNL A   1      32.670  16.764  25.146  1.00  0.00    -0.135 N 
ATOM     86  N   UNL A   1      34.342  15.380  24.850  1.00  0.00    -0.109 NA
ATOM     87  N   UNL A   1      32.309  15.556  25.512  1.00  0.00    -0.177 N 
ATOM     88  N   UNL A   1      33.377  14.705  25.358  1.00  0.00    -0.050 NA
ATOM     89  H   UNL A   1      31.417  15.301  25.843  1.00  0.00     0.216 HD
ENDBRANCH  78  81
ENDBRANCH  76  77
ENDBRANCH  75  76
ENDBRANCH  74  75
ENDBRANCH   1  74
TORSDOF 14
ENDMDL
