MODEL 1
REMARK VINA RESULT:     -15.2      0.000      0.000
REMARK SMILES Cc1cccc(OC2(C(=O)NCCCCNC(=O)c3ccc(-c4c5nc(c(-c6c(F)cc(S(=O)(=O)[O-])cc6F)c6ccc([nH]6)c(-c6c(F)cc(S(=O)(=O)[O-])cc6F)c6nc(c(-c7c(F)cc(S(=O)(=O)[O-])cc7F)c7ccc4[nH]7)C=C6)C=C5)cc3)CCN(C(=O)c3cnc[nH]c3=O)CC2)c1
REMARK SMILES IDX 14 1 13 2 12 3 11 4 9 5 10 6 8 8 85 9 98 10 86 11 97 12
REMARK SMILES IDX 87 13 88 14 89 15 7 16 6 17 1 18 2 19 3 20 99 21 4 22 5 23
REMARK SMILES IDX 90 24 91 25 95 26 92 27 94 28 96 29 93 30 15 32 16 33 17 34
REMARK SMILES IDX 18 36 19 37 20 38 84 39 21 40 83 41 22 42 23 43 24 44 77 45
REMARK SMILES IDX 25 46 82 47 76 48 78 49 26 50 81 51 75 52 74 53 27 55 61 56
REMARK SMILES IDX 40 57 60 58 41 59 44 60 59 61 79 62 42 63 43 64 58 66 80 67
REMARK SMILES IDX 45 68 28 69 29 70 38 71 30 72 31 73 37 74 39 75 32 76 33 77
REMARK SMILES IDX 34 78 35 79 36 80 62 81 63 82 72 83 64 84 65 85 71 86 73 87
REMARK SMILES IDX 66 88 67 89 68 90 69 91 70 92 46 93 47 94 56 95 48 96 49 97
REMARK SMILES IDX 55 98 57 99 50 100 51 101 52 102 53 103 54 104
REMARK H PARENT 11 7 94 31 16 35 78 54 44 65
REMARK Flexibility Score: inf
ROOT
ATOM      1  C   UNL A   1      33.087  30.090  26.341  1.00  0.00     0.023 C 
ENDROOT
BRANCH   1   2
ATOM      2  C   UNL A   1      31.901  29.297  26.872  1.00  0.00     0.023 C 
BRANCH   2   3
ATOM      3  C   UNL A   1      32.067  27.759  26.900  1.00  0.00     0.116 C 
BRANCH   3   4
ATOM      4  N   UNL A   1      30.853  26.937  26.809  1.00  0.00    -0.353 N 
ATOM      5  C   UNL A   1      30.523  25.739  26.233  1.00  0.00     0.264 C 
ATOM      6  O   UNL A   1      29.473  25.233  26.656  1.00  0.00    -0.270 OA
ATOM      7  H   UNL A   1      30.089  27.347  27.277  1.00  0.00     0.163 HD
BRANCH   5   8
ATOM      8  C   UNL A   1      31.361  25.014  25.126  1.00  0.00     0.190 C 
ATOM      9  C   UNL A   1      32.842  25.084  25.469  1.00  0.00     0.080 C 
ATOM     10  C   UNL A   1      30.928  23.522  25.038  1.00  0.00     0.080 C 
ATOM     11  C   UNL A   1      33.749  24.232  24.614  1.00  0.00     0.124 C 
ATOM     12  C   UNL A   1      31.898  22.707  24.161  1.00  0.00     0.124 C 
ATOM     13  N   UNL A   1      33.256  22.872  24.665  1.00  0.00    -0.338 N 
ATOM     14  C   UNL A   1      33.819  22.004  25.588  1.00  0.00     0.261 C 
ATOM     15  O   UNL A   1      34.411  22.377  26.596  1.00  0.00    -0.269 OA
BRANCH   8  16
ATOM     16  O   UNL A   1      30.917  25.558  23.864  1.00  0.00    -0.477 OA
BRANCH  16  17
ATOM     17  C   UNL A   1      30.550  26.800  23.480  1.00  0.00     0.121 A 
ATOM     18  C   UNL A   1      27.682  29.262  23.054  1.00  0.00     0.044 C 
ATOM     19  C   UNL A   1      29.074  28.700  23.088  1.00  0.00    -0.047 A 
ATOM     20  C   UNL A   1      30.176  29.535  22.903  1.00  0.00     0.003 A 
ATOM     21  C   UNL A   1      29.277  27.328  23.323  1.00  0.00     0.049 A 
ATOM     22  C   UNL A   1      31.462  29.009  22.974  1.00  0.00     0.004 A 
ATOM     23  C   UNL A   1      31.640  27.656  23.273  1.00  0.00     0.046 A 
ENDBRANCH  16  17
ENDBRANCH   8  16
BRANCH  14  24
ATOM     24  C   UNL A   1      33.750  20.577  25.245  1.00  0.00     0.123 A 
ATOM     25  C   UNL A   1      32.586  19.916  25.288  1.00  0.00     0.132 A 
ATOM     26  C   UNL A   1      34.965  19.798  24.945  1.00  0.00     0.263 A 
ATOM     27  N   UNL A   1      32.433  18.575  25.016  1.00  0.00    -0.246 NA
ATOM     28  N   UNL A   1      34.756  18.467  24.722  1.00  0.00    -0.312 N 
ATOM     29  O   UNL A   1      36.094  20.275  24.903  1.00  0.00    -0.269 OA
ATOM     30  C   UNL A   1      33.511  17.915  24.762  1.00  0.00     0.199 A 
ATOM     31  H   UNL A   1      35.528  17.889  24.528  1.00  0.00     0.171 HD
ENDBRANCH  14  24
ENDBRANCH   5   8
ENDBRANCH   3   4
ENDBRANCH   2   3
ENDBRANCH   1   2
BRANCH   1  32
ATOM     32  C   UNL A   1      34.341  29.827  27.149  1.00  0.00     0.116 C 
BRANCH  32  33
ATOM     33  N   UNL A   1      35.077  31.027  27.531  1.00  0.00    -0.352 N 
ATOM     34  C   UNL A   1      36.323  31.085  28.138  1.00  0.00     0.251 C 
ATOM     35  H   UNL A   1      34.642  31.889  27.338  1.00  0.00     0.163 HD
ATOM     36  O   UNL A   1      36.776  32.107  28.621  1.00  0.00    -0.269 OA
BRANCH  34  37
ATOM     37  C   UNL A   1      37.126  29.845  28.084  1.00  0.00     0.039 A 
ATOM     38  C   UNL A   1      37.199  29.087  29.258  1.00  0.00     0.014 A 
ATOM     39  C   UNL A   1      38.059  29.695  27.063  1.00  0.00     0.014 A 
ATOM     40  C   UNL A   1      38.333  28.319  29.502  1.00  0.00     0.010 A 
ATOM     41  C   UNL A   1      39.229  29.024  27.354  1.00  0.00     0.010 A 
ATOM     42  C   UNL A   1      39.385  28.374  28.590  1.00  0.00    -0.014 A 
BRANCH  42  43
ATOM     43  C   UNL A   1      40.712  27.824  28.848  1.00  0.00     0.031 A 
ATOM     44  C   UNL A   1      40.995  26.421  28.471  1.00  0.00     0.074 A 
ATOM     45  C   UNL A   1      41.701  28.613  29.323  1.00  0.00     0.049 A 
ATOM     46  N   UNL A   1      42.007  25.734  28.876  1.00  0.00    -0.248 NA
ATOM     47  C   UNL A   1      40.092  25.654  27.620  1.00  0.00     0.031 C 
ATOM     48  C   UNL A   1      43.135  28.344  29.292  1.00  0.00     0.029 A 
ATOM     49  N   UNL A   1      41.581  29.750  30.122  1.00  0.00    -0.354 N 
ATOM     50  C   UNL A   1      42.046  24.562  28.150  1.00  0.00     0.074 A 
ATOM     51  C   UNL A   1      40.802  24.542  27.418  1.00  0.00     0.031 C 
ATOM     52  C   UNL A   1      43.746  29.116  30.203  1.00  0.00     0.029 A 
ATOM     53  C   UNL A   1      42.709  29.791  30.963  1.00  0.00     0.049 A 
ATOM     54  H   UNL A   1      40.845  30.403  30.102  1.00  0.00     0.167 HD
ATOM     55  C   UNL A   1      43.185  23.809  28.160  1.00  0.00     0.037 A 
ATOM     56  C   UNL A   1      42.576  29.709  32.321  1.00  0.00     0.037 A 
ATOM     57  C   UNL A   1      44.141  24.334  29.136  1.00  0.00     0.049 A 
ATOM     58  C   UNL A   1      43.226  28.483  32.930  1.00  0.00     0.074 A 
ATOM     59  C   UNL A   1      45.238  25.173  29.021  1.00  0.00     0.029 A 
ATOM     60  N   UNL A   1      43.840  24.268  30.494  1.00  0.00    -0.354 N 
ATOM     61  N   UNL A   1      43.600  27.437  32.247  1.00  0.00    -0.248 NA
ATOM     62  C   UNL A   1      43.493  28.337  34.359  1.00  0.00     0.031 C 
ATOM     63  C   UNL A   1      45.545  25.677  30.311  1.00  0.00     0.029 A 
ATOM     64  C   UNL A   1      44.652  25.125  31.214  1.00  0.00     0.049 A 
ATOM     65  H   UNL A   1      43.144  23.694  30.887  1.00  0.00     0.167 HD
ATOM     66  C   UNL A   1      44.099  26.483  33.097  1.00  0.00     0.074 A 
ATOM     67  C   UNL A   1      44.040  27.109  34.406  1.00  0.00     0.031 C 
ATOM     68  C   UNL A   1      44.507  25.255  32.658  1.00  0.00     0.037 A 
BRANCH  55  69
ATOM     69  C   UNL A   1      43.540  22.805  27.075  1.00  0.00     0.058 A 
ATOM     70  C   UNL A   1      42.843  21.579  26.972  1.00  0.00     0.135 A 
ATOM     71  C   UNL A   1      44.603  22.942  26.160  1.00  0.00     0.135 A 
ATOM     72  F   UNL A   1      41.738  21.339  27.690  1.00  0.00    -0.206 F 
ATOM     73  C   UNL A   1      43.249  20.536  26.135  1.00  0.00     0.059 A 
ATOM     74  C   UNL A   1      45.067  21.893  25.358  1.00  0.00     0.059 A 
ATOM     75  F   UNL A   1      45.201  24.120  25.955  1.00  0.00    -0.206 F 
ATOM     76  C   UNL A   1      44.390  20.685  25.361  1.00  0.00     0.060 A 
BRANCH  76  77
ATOM     77  S   UNL A   1      44.956  19.301  24.355  1.00  0.00     0.124 S 
ATOM     78  O   UNL A   1      44.552  19.709  23.012  1.00  0.00    -0.237 OA
ATOM     79  O   UNL A   1      46.392  19.305  24.614  1.00  0.00    -0.237 OA
ATOM     80  O   UNL A   1      44.225  18.160  24.901  1.00  0.00    -0.744 OA
ENDBRANCH  76  77
ENDBRANCH  55  69
BRANCH  56  81
ATOM     81  C   UNL A   1      41.344  30.378  32.824  1.00  0.00     0.058 A 
ATOM     82  C   UNL A   1      40.248  29.557  33.157  1.00  0.00     0.135 A 
ATOM     83  C   UNL A   1      41.389  31.661  33.386  1.00  0.00     0.135 A 
ATOM     84  F   UNL A   1      40.152  28.322  32.636  1.00  0.00    -0.206 F 
ATOM     85  C   UNL A   1      39.331  29.923  34.134  1.00  0.00     0.059 A 
ATOM     86  C   UNL A   1      40.472  32.053  34.364  1.00  0.00     0.059 A 
ATOM     87  F   UNL A   1      42.408  32.488  33.108  1.00  0.00    -0.206 F 
ATOM     88  C   UNL A   1      39.494  31.148  34.779  1.00  0.00     0.060 A 
BRANCH  88  89
ATOM     89  S   UNL A   1      38.547  31.431  36.294  1.00  0.00     0.124 S 
ATOM     90  O   UNL A   1      37.448  32.260  35.812  1.00  0.00    -0.237 OA
ATOM     91  O   UNL A   1      38.195  30.063  36.671  1.00  0.00    -0.237 OA
ATOM     92  O   UNL A   1      39.505  32.097  37.168  1.00  0.00    -0.744 OA
ENDBRANCH  88  89
ENDBRANCH  56  81
BRANCH  68  93
ATOM     93  C   UNL A   1      44.888  24.085  33.535  1.00  0.00     0.058 A 
ATOM     94  C   UNL A   1      44.008  23.049  33.891  1.00  0.00     0.135 A 
ATOM     95  C   UNL A   1      46.235  23.905  33.936  1.00  0.00     0.135 A 
ATOM     96  F   UNL A   1      42.733  23.045  33.479  1.00  0.00    -0.206 F 
ATOM     97  C   UNL A   1      44.416  21.947  34.647  1.00  0.00     0.059 A 
ATOM     98  C   UNL A   1      46.674  22.788  34.641  1.00  0.00     0.059 A 
ATOM     99  F   UNL A   1      47.179  24.813  33.641  1.00  0.00    -0.206 F 
ATOM    100  C   UNL A   1      45.752  21.824  35.018  1.00  0.00     0.060 A 
BRANCH 100 101
ATOM    101  S   UNL A   1      46.304  20.377  35.939  1.00  0.00     0.124 S 
ATOM    102  O   UNL A   1      45.769  20.655  37.268  1.00  0.00    -0.237 OA
ATOM    103  O   UNL A   1      45.671  19.272  35.224  1.00  0.00    -0.237 OA
ATOM    104  O   UNL A   1      47.757  20.441  35.814  1.00  0.00    -0.744 OA
ENDBRANCH 100 101
ENDBRANCH  68  93
ENDBRANCH  42  43
ENDBRANCH  34  37
ENDBRANCH  32  33
ENDBRANCH   1  32
TORSDOF 17
ENDMDL
MODEL 2
REMARK VINA RESULT:     -14.8      4.782     11.420
REMARK SMILES Cc1cccc(OC2(C(=O)NCCCCNC(=O)c3ccc(-c4c5nc(c(-c6c(F)cc(S(=O)(=O)[O-])cc6F)c6ccc([nH]6)c(-c6c(F)cc(S(=O)(=O)[O-])cc6F)c6nc(c(-c7c(F)cc(S(=O)(=O)[O-])cc7F)c7ccc4[nH]7)C=C6)C=C5)cc3)CCN(C(=O)c3cnc[nH]c3=O)CC2)c1
REMARK SMILES IDX 14 1 13 2 12 3 11 4 9 5 10 6 8 8 85 9 98 10 86 11 97 12
REMARK SMILES IDX 87 13 88 14 89 15 7 16 6 17 1 18 2 19 3 20 99 21 4 22 5 23
REMARK SMILES IDX 90 24 91 25 95 26 92 27 94 28 96 29 93 30 15 32 16 33 17 34
REMARK SMILES IDX 18 36 19 37 20 38 84 39 21 40 83 41 22 42 23 43 24 44 77 45
REMARK SMILES IDX 25 46 82 47 76 48 78 49 26 50 81 51 75 52 74 53 27 55 61 56
REMARK SMILES IDX 40 57 60 58 41 59 44 60 59 61 79 62 42 63 43 64 58 66 80 67
REMARK SMILES IDX 45 68 28 69 29 70 38 71 30 72 31 73 37 74 39 75 32 76 33 77
REMARK SMILES IDX 34 78 35 79 36 80 62 81 63 82 72 83 64 84 65 85 71 86 73 87
REMARK SMILES IDX 66 88 67 89 68 90 69 91 70 92 46 93 47 94 56 95 48 96 49 97
REMARK SMILES IDX 55 98 57 99 50 100 51 101 52 102 53 103 54 104
REMARK H PARENT 11 7 94 31 16 35 78 54 44 65
REMARK Flexibility Score: inf
ROOT
ATOM      1  C   UNL A   1      37.845  21.966  25.285  1.00  0.00     0.023 C 
ENDROOT
BRANCH   1   2
ATOM      2  C   UNL A   1      36.828  22.412  24.243  1.00  0.00     0.023 C 
BRANCH   2   3
ATOM      3  C   UNL A   1      35.367  21.960  24.479  1.00  0.00     0.116 C 
BRANCH   3   4
ATOM      4  N   UNL A   1      34.930  21.752  25.866  1.00  0.00    -0.353 N 
ATOM      5  C   UNL A   1      33.724  21.650  26.507  1.00  0.00     0.264 C 
ATOM      6  O   UNL A   1      33.782  21.154  27.642  1.00  0.00    -0.270 OA
ATOM      7  H   UNL A   1      35.690  21.665  26.487  1.00  0.00     0.163 HD
BRANCH   5   8
ATOM      8  C   UNL A   1      32.349  22.103  25.910  1.00  0.00     0.190 C 
ATOM      9  C   UNL A   1      31.545  22.844  26.968  1.00  0.00     0.080 C 
ATOM     10  C   UNL A   1      32.593  23.048  24.698  1.00  0.00     0.080 C 
ATOM     11  C   UNL A   1      30.299  23.538  26.470  1.00  0.00     0.124 C 
ATOM     12  C   UNL A   1      31.287  23.731  24.246  1.00  0.00     0.124 C 
ATOM     13  N   UNL A   1      30.684  24.415  25.384  1.00  0.00    -0.338 N 
ATOM     14  C   UNL A   1      30.939  25.746  25.674  1.00  0.00     0.261 C 
ATOM     15  O   UNL A   1      31.234  26.152  26.795  1.00  0.00    -0.269 OA
BRANCH   8  16
ATOM     16  O   UNL A   1      31.770  20.930  25.297  1.00  0.00    -0.477 OA
BRANCH  16  17
ATOM     17  C   UNL A   1      32.309  19.806  24.777  1.00  0.00     0.121 A 
ATOM     18  C   UNL A   1      33.650  16.318  25.487  1.00  0.00     0.044 C 
ATOM     19  C   UNL A   1      33.200  17.538  24.736  1.00  0.00    -0.047 A 
ATOM     20  C   UNL A   1      33.118  17.517  23.343  1.00  0.00     0.003 A 
ATOM     21  C   UNL A   1      32.842  18.705  25.433  1.00  0.00     0.049 A 
ATOM     22  C   UNL A   1      32.664  18.640  22.660  1.00  0.00     0.004 A 
ATOM     23  C   UNL A   1      32.253  19.766  23.378  1.00  0.00     0.046 A 
ENDBRANCH  16  17
ENDBRANCH   8  16
BRANCH  14  24
ATOM     24  C   UNL A   1      30.745  26.688  24.564  1.00  0.00     0.123 A 
ATOM     25  C   UNL A   1      29.518  26.962  24.103  1.00  0.00     0.132 A 
ATOM     26  C   UNL A   1      31.889  27.282  23.850  1.00  0.00     0.263 A 
ATOM     27  N   UNL A   1      29.245  27.804  23.048  1.00  0.00    -0.246 NA
ATOM     28  N   UNL A   1      31.558  28.076  22.790  1.00  0.00    -0.312 N 
ATOM     29  O   UNL A   1      33.062  27.089  24.152  1.00  0.00    -0.269 OA
ATOM     30  C   UNL A   1      30.262  28.307  22.437  1.00  0.00     0.199 A 
ATOM     31  H   UNL A   1      32.277  28.494  22.264  1.00  0.00     0.171 HD
ENDBRANCH  14  24
ENDBRANCH   5   8
ENDBRANCH   3   4
ENDBRANCH   2   3
ENDBRANCH   1   2
BRANCH   1  32
ATOM     32  C   UNL A   1      38.337  23.130  26.119  1.00  0.00     0.116 C 
BRANCH  32  33
ATOM     33  N   UNL A   1      39.575  22.872  26.845  1.00  0.00    -0.352 N 
ATOM     34  C   UNL A   1      40.424  23.814  27.409  1.00  0.00     0.251 C 
ATOM     35  H   UNL A   1      39.836  21.928  26.947  1.00  0.00     0.163 HD
ATOM     36  O   UNL A   1      41.542  23.540  27.810  1.00  0.00    -0.269 OA
BRANCH  34  37
ATOM     37  C   UNL A   1      39.860  25.168  27.589  1.00  0.00     0.039 A 
ATOM     38  C   UNL A   1      40.356  26.177  26.756  1.00  0.00     0.014 A 
ATOM     39  C   UNL A   1      39.199  25.466  28.777  1.00  0.00     0.014 A 
ATOM     40  C   UNL A   1      40.375  27.490  27.216  1.00  0.00     0.010 A 
ATOM     41  C   UNL A   1      39.319  26.746  29.276  1.00  0.00     0.010 A 
ATOM     42  C   UNL A   1      39.947  27.748  28.516  1.00  0.00    -0.014 A 
BRANCH  42  43
ATOM     43  C   UNL A   1      40.149  29.022  29.199  1.00  0.00     0.031 A 
ATOM     44  C   UNL A   1      39.103  30.064  29.101  1.00  0.00     0.074 A 
ATOM     45  C   UNL A   1      41.223  29.208  29.999  1.00  0.00     0.049 A 
ATOM     46  N   UNL A   1      39.260  31.304  29.415  1.00  0.00    -0.248 NA
ATOM     47  C   UNL A   1      37.774  29.776  28.574  1.00  0.00     0.031 C 
ATOM     48  C   UNL A   1      41.394  30.239  31.018  1.00  0.00     0.029 A 
ATOM     49  N   UNL A   1      42.477  28.607  29.903  1.00  0.00    -0.354 N 
ATOM     50  C   UNL A   1      38.021  31.909  29.397  1.00  0.00     0.074 A 
ATOM     51  C   UNL A   1      37.139  30.924  28.819  1.00  0.00     0.031 C 
ATOM     52  C   UNL A   1      42.700  30.372  31.292  1.00  0.00     0.029 A 
ATOM     53  C   UNL A   1      43.427  29.548  30.343  1.00  0.00     0.049 A 
ATOM     54  H   UNL A   1      42.665  27.694  29.587  1.00  0.00     0.167 HD
ATOM     55  C   UNL A   1      37.867  33.129  29.992  1.00  0.00     0.037 A 
ATOM     56  C   UNL A   1      44.392  30.020  29.498  1.00  0.00     0.037 A 
ATOM     57  C   UNL A   1      39.163  33.668  30.406  1.00  0.00     0.049 A 
ATOM     58  C   UNL A   1      44.300  31.508  29.229  1.00  0.00     0.074 A 
ATOM     59  C   UNL A   1      39.838  33.670  31.617  1.00  0.00     0.029 A 
ATOM     60  N   UNL A   1      40.096  34.029  29.438  1.00  0.00    -0.354 N 
ATOM     61  N   UNL A   1      43.251  32.236  29.492  1.00  0.00    -0.248 NA
ATOM     62  C   UNL A   1      45.380  32.289  28.630  1.00  0.00     0.031 C 
ATOM     63  C   UNL A   1      41.203  33.954  31.359  1.00  0.00     0.029 A 
ATOM     64  C   UNL A   1      41.354  34.152  29.997  1.00  0.00     0.049 A 
ATOM     65  H   UNL A   1      39.889  34.175  28.487  1.00  0.00     0.167 HD
ATOM     66  C   UNL A   1      43.468  33.527  29.080  1.00  0.00     0.074 A 
ATOM     67  C   UNL A   1      44.829  33.514  28.577  1.00  0.00     0.031 C 
ATOM     68  C   UNL A   1      42.507  34.495  29.175  1.00  0.00     0.037 A 
BRANCH  55  69
ATOM     69  C   UNL A   1      36.527  33.670  30.467  1.00  0.00     0.058 A 
ATOM     70  C   UNL A   1      35.577  34.156  29.540  1.00  0.00     0.135 A 
ATOM     71  C   UNL A   1      36.146  33.820  31.815  1.00  0.00     0.135 A 
ATOM     72  F   UNL A   1      35.735  33.987  28.220  1.00  0.00    -0.206 F 
ATOM     73  C   UNL A   1      34.422  34.846  29.919  1.00  0.00     0.059 A 
ATOM     74  C   UNL A   1      35.030  34.560  32.221  1.00  0.00     0.059 A 
ATOM     75  F   UNL A   1      36.804  33.200  32.801  1.00  0.00    -0.206 F 
ATOM     76  C   UNL A   1      34.177  35.083  31.262  1.00  0.00     0.060 A 
BRANCH  76  77
ATOM     77  S   UNL A   1      32.734  36.053  31.735  1.00  0.00     0.124 S 
ATOM     78  O   UNL A   1      32.250  36.537  30.445  1.00  0.00    -0.237 OA
ATOM     79  O   UNL A   1      31.898  35.054  32.392  1.00  0.00    -0.237 OA
ATOM     80  O   UNL A   1      33.286  37.082  32.613  1.00  0.00    -0.744 OA
ENDBRANCH  76  77
ENDBRANCH  55  69
BRANCH  56  81
ATOM     81  C   UNL A   1      44.870  28.992  28.532  1.00  0.00     0.058 A 
ATOM     82  C   UNL A   1      44.266  28.966  27.258  1.00  0.00     0.135 A 
ATOM     83  C   UNL A   1      46.132  28.397  28.665  1.00  0.00     0.135 A 
ATOM     84  F   UNL A   1      43.052  29.512  27.080  1.00  0.00    -0.206 F 
ATOM     85  C   UNL A   1      44.953  28.527  26.133  1.00  0.00     0.059 A 
ATOM     86  C   UNL A   1      46.836  27.940  27.548  1.00  0.00     0.059 A 
ATOM     87  F   UNL A   1      46.757  28.391  29.852  1.00  0.00    -0.206 F 
ATOM     88  C   UNL A   1      46.264  28.079  26.283  1.00  0.00     0.060 A 
BRANCH  88  89
ATOM     89  S   UNL A   1      47.261  27.888  24.785  1.00  0.00     0.124 S 
ATOM     90  O   UNL A   1      46.974  26.509  24.405  1.00  0.00    -0.237 OA
ATOM     91  O   UNL A   1      46.684  28.919  23.925  1.00  0.00    -0.237 OA
ATOM     92  O   UNL A   1      48.618  28.146  25.252  1.00  0.00    -0.744 OA
ENDBRANCH  88  89
ENDBRANCH  56  81
BRANCH  68  93
ATOM     93  C   UNL A   1      42.588  35.881  28.579  1.00  0.00     0.058 A 
ATOM     94  C   UNL A   1      42.097  36.221  27.308  1.00  0.00     0.135 A 
ATOM     95  C   UNL A   1      43.055  36.965  29.362  1.00  0.00     0.135 A 
ATOM     96  F   UNL A   1      41.528  35.304  26.513  1.00  0.00    -0.206 F 
ATOM     97  C   UNL A   1      42.128  37.530  26.818  1.00  0.00     0.059 A 
ATOM     98  C   UNL A   1      43.043  38.284  28.916  1.00  0.00     0.059 A 
ATOM     99  F   UNL A   1      43.532  36.778  30.603  1.00  0.00    -0.206 F 
ATOM    100  C   UNL A   1      42.602  38.556  27.629  1.00  0.00     0.060 A 
BRANCH 100 101
ATOM    101  S   UNL A   1      42.589  40.257  27.035  1.00  0.00     0.124 S 
ATOM    102  O   UNL A   1      43.122  40.973  28.190  1.00  0.00    -0.237 OA
ATOM    103  O   UNL A   1      43.464  40.203  25.868  1.00  0.00    -0.237 OA
ATOM    104  O   UNL A   1      41.179  40.493  26.739  1.00  0.00    -0.744 OA
ENDBRANCH 100 101
ENDBRANCH  68  93
ENDBRANCH  42  43
ENDBRANCH  34  37
ENDBRANCH  32  33
ENDBRANCH   1  32
TORSDOF 17
ENDMDL
MODEL 3
REMARK VINA RESULT:     -14.5      1.407      2.388
REMARK SMILES Cc1cccc(OC2(C(=O)NCCCCNC(=O)c3ccc(-c4c5nc(c(-c6c(F)cc(S(=O)(=O)[O-])cc6F)c6ccc([nH]6)c(-c6c(F)cc(S(=O)(=O)[O-])cc6F)c6nc(c(-c7c(F)cc(S(=O)(=O)[O-])cc7F)c7ccc4[nH]7)C=C6)C=C5)cc3)CCN(C(=O)c3cnc[nH]c3=O)CC2)c1
REMARK SMILES IDX 14 1 13 2 12 3 11 4 9 5 10 6 8 8 85 9 98 10 86 11 97 12
REMARK SMILES IDX 87 13 88 14 89 15 7 16 6 17 1 18 2 19 3 20 99 21 4 22 5 23
REMARK SMILES IDX 90 24 91 25 95 26 92 27 94 28 96 29 93 30 15 32 16 33 17 34
REMARK SMILES IDX 18 36 19 37 20 38 84 39 21 40 83 41 22 42 23 43 24 44 77 45
REMARK SMILES IDX 25 46 82 47 76 48 78 49 26 50 81 51 75 52 74 53 27 55 61 56
REMARK SMILES IDX 40 57 60 58 41 59 44 60 59 61 79 62 42 63 43 64 58 66 80 67
REMARK SMILES IDX 45 68 28 69 29 70 38 71 30 72 31 73 37 74 39 75 32 76 33 77
REMARK SMILES IDX 34 78 35 79 36 80 62 81 63 82 72 83 64 84 65 85 71 86 73 87
REMARK SMILES IDX 66 88 67 89 68 90 69 91 70 92 46 93 47 94 56 95 48 96 49 97
REMARK SMILES IDX 55 98 57 99 50 100 51 101 52 102 53 103 54 104
REMARK H PARENT 11 7 94 31 16 35 78 54 44 65
REMARK Flexibility Score: inf
ROOT
ATOM      1  C   UNL A   1      34.328  29.059  27.155  1.00  0.00     0.023 C 
ENDROOT
BRANCH   1   2
ATOM      2  C   UNL A   1      32.934  29.212  26.562  1.00  0.00     0.023 C 
BRANCH   2   3
ATOM      3  C   UNL A   1      32.848  29.954  25.207  1.00  0.00     0.116 C 
BRANCH   3   4
ATOM      4  N   UNL A   1      33.619  29.413  24.080  1.00  0.00    -0.353 N 
ATOM      5  C   UNL A   1      33.466  28.375  23.199  1.00  0.00     0.264 C 
ATOM      6  O   UNL A   1      34.181  28.445  22.188  1.00  0.00    -0.270 OA
ATOM      7  H   UNL A   1      34.447  29.919  23.917  1.00  0.00     0.163 HD
BRANCH   5   8
ATOM      8  C   UNL A   1      32.486  27.169  23.393  1.00  0.00     0.190 C 
ATOM      9  C   UNL A   1      32.281  26.450  22.068  1.00  0.00     0.080 C 
ATOM     10  C   UNL A   1      33.086  26.173  24.427  1.00  0.00     0.080 C 
ATOM     11  C   UNL A   1      31.545  25.134  22.149  1.00  0.00     0.124 C 
ATOM     12  C   UNL A   1      32.297  24.849  24.454  1.00  0.00     0.124 C 
ATOM     13  N   UNL A   1      32.239  24.297  23.105  1.00  0.00    -0.338 N 
ATOM     14  C   UNL A   1      33.176  23.393  22.629  1.00  0.00     0.261 C 
ATOM     15  O   UNL A   1      33.732  23.504  21.540  1.00  0.00    -0.269 OA
BRANCH   8  16
ATOM     16  O   UNL A   1      31.330  27.696  24.080  1.00  0.00    -0.477 OA
BRANCH  16  17
ATOM     17  C   UNL A   1      30.169  28.231  23.643  1.00  0.00     0.121 A 
ATOM     18  C   UNL A   1      28.529  30.985  21.596  1.00  0.00     0.044 C 
ATOM     19  C   UNL A   1      28.697  29.747  22.429  1.00  0.00    -0.047 A 
ATOM     20  C   UNL A   1      27.612  28.900  22.659  1.00  0.00     0.003 A 
ATOM     21  C   UNL A   1      29.954  29.426  22.971  1.00  0.00     0.049 A 
ATOM     22  C   UNL A   1      27.790  27.737  23.401  1.00  0.00     0.004 A 
ATOM     23  C   UNL A   1      29.061  27.406  23.875  1.00  0.00     0.046 A 
ENDBRANCH  16  17
ENDBRANCH   8  16
BRANCH  14  24
ATOM     24  C   UNL A   1      33.411  22.215  23.473  1.00  0.00     0.123 A 
ATOM     25  C   UNL A   1      32.459  21.286  23.636  1.00  0.00     0.132 A 
ATOM     26  C   UNL A   1      34.652  22.061  24.253  1.00  0.00     0.263 A 
ATOM     27  N   UNL A   1      32.579  20.170  24.433  1.00  0.00    -0.246 NA
ATOM     28  N   UNL A   1      34.697  20.956  25.053  1.00  0.00    -0.312 N 
ATOM     29  O   UNL A   1      35.587  22.854  24.217  1.00  0.00    -0.269 OA
ATOM     30  C   UNL A   1      33.671  20.061  25.108  1.00  0.00     0.199 A 
ATOM     31  H   UNL A   1      35.495  20.801  25.609  1.00  0.00     0.171 HD
ENDBRANCH  14  24
ENDBRANCH   5   8
ENDBRANCH   3   4
ENDBRANCH   2   3
ENDBRANCH   1   2
BRANCH   1  32
ATOM     32  C   UNL A   1      34.448  29.765  28.489  1.00  0.00     0.116 C 
BRANCH  32  33
ATOM     33  N   UNL A   1      35.261  30.975  28.462  1.00  0.00    -0.352 N 
ATOM     34  C   UNL A   1      36.628  31.068  28.681  1.00  0.00     0.251 C 
ATOM     35  H   UNL A   1      34.789  31.817  28.266  1.00  0.00     0.163 HD
ATOM     36  O   UNL A   1      37.199  32.130  28.855  1.00  0.00    -0.269 OA
BRANCH  34  37
ATOM     37  C   UNL A   1      37.383  29.800  28.598  1.00  0.00     0.039 A 
ATOM     38  C   UNL A   1      37.519  29.066  29.781  1.00  0.00     0.014 A 
ATOM     39  C   UNL A   1      38.232  29.595  27.514  1.00  0.00     0.014 A 
ATOM     40  C   UNL A   1      38.643  28.264  29.958  1.00  0.00     0.010 A 
ATOM     41  C   UNL A   1      39.397  28.891  27.733  1.00  0.00     0.010 A 
ATOM     42  C   UNL A   1      39.624  28.263  28.969  1.00  0.00    -0.014 A 
BRANCH  42  43
ATOM     43  C   UNL A   1      40.948  27.673  29.141  1.00  0.00     0.031 A 
ATOM     44  C   UNL A   1      41.169  26.268  28.728  1.00  0.00     0.074 A 
ATOM     45  C   UNL A   1      41.985  28.428  29.567  1.00  0.00     0.049 A 
ATOM     46  N   UNL A   1      42.183  25.548  29.063  1.00  0.00    -0.248 NA
ATOM     47  C   UNL A   1      40.196  25.540  27.922  1.00  0.00     0.031 C 
ATOM     48  C   UNL A   1      43.407  28.119  29.448  1.00  0.00     0.029 A 
ATOM     49  N   UNL A   1      41.945  29.555  30.387  1.00  0.00    -0.354 N 
ATOM     50  C   UNL A   1      42.146  24.387  28.321  1.00  0.00     0.074 A 
ATOM     51  C   UNL A   1      40.862  24.412  27.663  1.00  0.00     0.031 C 
ATOM     52  C   UNL A   1      44.092  28.861  30.331  1.00  0.00     0.029 A 
ATOM     53  C   UNL A   1      43.121  29.552  31.161  1.00  0.00     0.049 A 
ATOM     54  H   UNL A   1      41.227  30.228  30.419  1.00  0.00     0.167 HD
ATOM     55  C   UNL A   1      43.262  23.603  28.253  1.00  0.00     0.037 A 
ATOM     56  C   UNL A   1      43.065  29.453  32.522  1.00  0.00     0.037 A 
ATOM     57  C   UNL A   1      44.288  24.087  29.178  1.00  0.00     0.049 A 
ATOM     58  C   UNL A   1      43.715  28.201  33.075  1.00  0.00     0.074 A 
ATOM     59  C   UNL A   1      45.400  24.897  29.009  1.00  0.00     0.029 A 
ATOM     60  N   UNL A   1      44.066  24.008  30.550  1.00  0.00    -0.354 N 
ATOM     61  N   UNL A   1      44.019  27.155  32.357  1.00  0.00    -0.248 NA
ATOM     62  C   UNL A   1      44.061  28.025  34.484  1.00  0.00     0.031 C 
ATOM     63  C   UNL A   1      45.796  25.373  30.285  1.00  0.00     0.029 A 
ATOM     64  C   UNL A   1      44.943  24.831  31.232  1.00  0.00     0.049 A 
ATOM     65  H   UNL A   1      43.379  23.447  30.975  1.00  0.00     0.167 HD
ATOM     66  C   UNL A   1      44.540  26.175  33.163  1.00  0.00     0.074 A 
ATOM     67  C   UNL A   1      44.576  26.783  34.482  1.00  0.00     0.031 C 
ATOM     68  C   UNL A   1      44.886  24.943  32.684  1.00  0.00     0.037 A 
BRANCH  55  69
ATOM     69  C   UNL A   1      43.524  22.606  27.135  1.00  0.00     0.058 A 
ATOM     70  C   UNL A   1      42.790  21.401  27.058  1.00  0.00     0.135 A 
ATOM     71  C   UNL A   1      44.534  22.728  26.160  1.00  0.00     0.135 A 
ATOM     72  F   UNL A   1      41.723  21.179  27.838  1.00  0.00    -0.206 F 
ATOM     73  C   UNL A   1      43.117  20.360  26.184  1.00  0.00     0.059 A 
ATOM     74  C   UNL A   1      44.921  21.680  25.318  1.00  0.00     0.059 A 
ATOM     75  F   UNL A   1      45.151  23.894  25.935  1.00  0.00    -0.206 F 
ATOM     76  C   UNL A   1      44.212  20.490  25.345  1.00  0.00     0.060 A 
BRANCH  76  77
ATOM     77  S   UNL A   1      44.680  19.107  24.289  1.00  0.00     0.124 S 
ATOM     78  O   UNL A   1      43.691  18.095  24.648  1.00  0.00    -0.237 OA
ATOM     79  O   UNL A   1      44.542  19.684  22.955  1.00  0.00    -0.237 OA
ATOM     80  O   UNL A   1      46.048  18.808  24.703  1.00  0.00    -0.744 OA
ENDBRANCH  76  77
ENDBRANCH  55  69
BRANCH  56  81
ATOM     81  C   UNL A   1      41.885  30.148  33.107  1.00  0.00     0.058 A 
ATOM     82  C   UNL A   1      41.942  31.553  33.208  1.00  0.00     0.135 A 
ATOM     83  C   UNL A   1      40.619  29.547  33.125  1.00  0.00     0.135 A 
ATOM     84  F   UNL A   1      43.131  32.178  33.206  1.00  0.00    -0.206 F 
ATOM     85  C   UNL A   1      40.796  32.337  33.153  1.00  0.00     0.059 A 
ATOM     86  C   UNL A   1      39.454  30.315  33.080  1.00  0.00     0.059 A 
ATOM     87  F   UNL A   1      40.502  28.214  33.032  1.00  0.00    -0.206 F 
ATOM     88  C   UNL A   1      39.560  31.705  33.022  1.00  0.00     0.060 A 
BRANCH  88  89
ATOM     89  S   UNL A   1      38.141  32.729  32.563  1.00  0.00     0.124 S 
ATOM     90  O   UNL A   1      38.699  33.562  31.504  1.00  0.00    -0.237 OA
ATOM     91  O   UNL A   1      37.182  31.712  32.135  1.00  0.00    -0.237 OA
ATOM     92  O   UNL A   1      37.812  33.420  33.804  1.00  0.00    -0.744 OA
ENDBRANCH  88  89
ENDBRANCH  56  81
BRANCH  68  93
ATOM     93  C   UNL A   1      45.285  23.750  33.520  1.00  0.00     0.058 A 
ATOM     94  C   UNL A   1      46.558  23.578  34.090  1.00  0.00     0.135 A 
ATOM     95  C   UNL A   1      44.316  22.788  33.895  1.00  0.00     0.135 A 
ATOM     96  F   UNL A   1      47.532  24.479  33.903  1.00  0.00    -0.206 F 
ATOM     97  C   UNL A   1      46.869  22.495  34.917  1.00  0.00     0.059 A 
ATOM     98  C   UNL A   1      44.588  21.732  34.762  1.00  0.00     0.059 A 
ATOM     99  F   UNL A   1      43.056  22.850  33.436  1.00  0.00    -0.206 F 
ATOM    100  C   UNL A   1      45.878  21.576  35.248  1.00  0.00     0.060 A 
BRANCH 100 101
ATOM    101  S   UNL A   1      46.248  20.211  36.363  1.00  0.00     0.124 S 
ATOM    102  O   UNL A   1      47.688  20.063  36.176  1.00  0.00    -0.237 OA
ATOM    103  O   UNL A   1      45.832  20.728  37.663  1.00  0.00    -0.237 OA
ATOM    104  O   UNL A   1      45.426  19.124  35.839  1.00  0.00    -0.744 OA
ENDBRANCH 100 101
ENDBRANCH  68  93
ENDBRANCH  42  43
ENDBRANCH  34  37
ENDBRANCH  32  33
ENDBRANCH   1  32
TORSDOF 17
ENDMDL
