MODEL 1
REMARK VINA RESULT:     -12.6      0.000      0.000
REMARK SMILES Cc1c(NC(=O)c2cccc(NC(=O)[C@H]3CC=CC[C@H]3C(=O)NCCCCNC(=O)c3ccc(-c4c5nc(c(-c6c(F)cc(S(=O)(=O)[O-])cc6F)c6ccc([nH]6)c(-c6c(F)cc(S(=O)(=O)[O-])cc6F)c6nc(c(-c7c(F)cc(S(=O)(=O)[O-])cc7F)c7ccc4[nH]7)C=C6)C=C5)cc3)c2)c(=O)n(-c2ccccc2)n1C
REMARK SMILES IDX 24 1 23 2 21 3 22 4 20 6 15 7 16 8 17 9 19 10 18 11 13 12
REMARK SMILES IDX 12 13 14 15 11 16 7 17 8 18 97 19 9 20 10 21 5 22 4 23 6 25
REMARK SMILES IDX 3 26 1 27 2 28 107 29 98 30 100 31 108 32 99 33 101 34
REMARK SMILES IDX 102 35 106 36 103 37 105 38 104 39 25 40 26 41 27 42 28 43
REMARK SMILES IDX 29 44 30 46 31 47 32 48 96 49 33 50 95 51 34 52 35 53 36 54
REMARK SMILES IDX 89 55 37 56 94 57 88 58 90 59 38 60 93 61 87 62 86 63 39 65
REMARK SMILES IDX 73 66 52 67 72 68 53 69 56 70 71 71 91 72 54 73 55 74 70 76
REMARK SMILES IDX 92 77 57 78 40 79 41 80 50 81 42 82 43 83 49 84 51 85 44 86
REMARK SMILES IDX 45 87 46 88 47 89 48 90 74 91 75 92 84 93 76 94 77 95 83 96
REMARK SMILES IDX 85 97 78 98 79 99 80 100 81 101 82 102 58 103 59 104 68 105
REMARK SMILES IDX 60 106 61 107 67 108 69 109 62 110 63 111 64 112 65 113
REMARK SMILES IDX 66 114
REMARK H PARENT 23 5 12 14 4 24 28 45 90 64 56 75
REMARK Flexibility Score: inf
ROOT
ATOM      1  C   UNL A   1      32.341  28.897  27.193  1.00  0.00     0.116 C 
ENDROOT
BRANCH   1   2
ATOM      2  N   UNL A   1      33.178  27.770  26.857  1.00  0.00    -0.356 N 
ATOM      3  C   UNL A   1      33.251  27.015  25.736  1.00  0.00     0.224 C 
ATOM      4  O   UNL A   1      34.002  26.033  25.784  1.00  0.00    -0.275 OA
ATOM      5  H   UNL A   1      33.806  27.504  27.566  1.00  0.00     0.163 HD
BRANCH   3   6
ATOM      6  C   UNL A   1      32.435  27.270  24.471  1.00  0.00     0.095 C 
ATOM      7  C   UNL A   1      31.627  26.060  23.982  1.00  0.00     0.095 C 
ATOM      8  C   UNL A   1      31.237  26.276  22.509  1.00  0.00     0.041 C 
ATOM      9  C   UNL A   1      30.690  27.660  22.262  1.00  0.00    -0.030 C 
ATOM     10  C   UNL A   1      31.758  28.627  24.326  1.00  0.00     0.041 C 
ATOM     11  C   UNL A   1      30.908  28.700  23.084  1.00  0.00    -0.030 C 
BRANCH   7  12
ATOM     12  C   UNL A   1      30.335  25.672  24.680  1.00  0.00     0.228 C 
ATOM     13  N   UNL A   1      30.258  24.625  25.558  1.00  0.00    -0.326 N 
ATOM     14  H   UNL A   1      29.337  24.481  25.875  1.00  0.00     0.169 HD
ATOM     15  O   UNL A   1      29.267  26.243  24.435  1.00  0.00    -0.274 OA
BRANCH  13  16
ATOM     16  C   UNL A   1      31.158  23.698  26.126  1.00  0.00     0.041 A 
ATOM     17  C   UNL A   1      32.233  21.531  25.854  1.00  0.00     0.042 A 
ATOM     18  C   UNL A   1      32.980  21.721  27.013  1.00  0.00     0.014 A 
ATOM     19  C   UNL A   1      31.249  22.458  25.474  1.00  0.00     0.040 A 
ATOM     20  C   UNL A   1      32.856  22.916  27.698  1.00  0.00     0.003 A 
ATOM     21  C   UNL A   1      31.999  23.913  27.219  1.00  0.00     0.026 A 
BRANCH  17  22
ATOM     22  C   UNL A   1      32.590  20.375  25.010  1.00  0.00     0.255 C 
ATOM     23  N   UNL A   1      33.796  20.306  24.344  1.00  0.00    -0.316 N 
ATOM     24  H   UNL A   1      33.874  19.528  23.746  1.00  0.00     0.170 HD
ATOM     25  O   UNL A   1      31.779  19.459  24.882  1.00  0.00    -0.269 OA
BRANCH  23  26
ATOM     26  C   UNL A   1      34.905  21.110  24.352  1.00  0.00     0.130 A 
ATOM     27  C   UNL A   1      34.002  22.951  22.879  1.00  0.00     0.069 C 
ATOM     28  C   UNL A   1      34.999  22.339  23.810  1.00  0.00     0.061 A 
ATOM     29  N   UNL A   1      36.144  23.014  24.243  1.00  0.00    -0.283 N 
ATOM     30  C   UNL A   1      36.268  20.848  24.947  1.00  0.00     0.295 A 
ATOM     31  N   UNL A   1      36.882  22.102  25.030  1.00  0.00    -0.216 N 
ATOM     32  C   UNL A   1      36.873  24.038  23.508  1.00  0.00     0.172 C 
ATOM     33  O   UNL A   1      36.705  19.756  25.243  1.00  0.00    -0.265 OA
BRANCH  31  34
ATOM     34  C   UNL A   1      38.021  22.443  25.787  1.00  0.00     0.067 A 
ATOM     35  C   UNL A   1      38.095  23.674  26.447  1.00  0.00     0.028 A 
ATOM     36  C   UNL A   1      39.121  21.577  25.867  1.00  0.00     0.028 A 
ATOM     37  C   UNL A   1      39.210  24.003  27.224  1.00  0.00     0.002 A 
ATOM     38  C   UNL A   1      40.249  21.917  26.620  1.00  0.00     0.002 A 
ATOM     39  C   UNL A   1      40.286  23.125  27.310  1.00  0.00     0.000 A 
ENDBRANCH  31  34
ENDBRANCH  23  26
ENDBRANCH  17  22
ENDBRANCH  13  16
ENDBRANCH   7  12
ENDBRANCH   3   6
ENDBRANCH   1   2
BRANCH   1  40
ATOM     40  C   UNL A   1      33.148  30.194  27.289  1.00  0.00     0.023 C 
BRANCH  40  41
ATOM     41  C   UNL A   1      34.664  30.064  27.440  1.00  0.00     0.023 C 
BRANCH  41  42
ATOM     42  C   UNL A   1      35.398  31.377  27.642  1.00  0.00     0.116 C 
BRANCH  42  43
ATOM     43  N   UNL A   1      34.901  32.151  28.783  1.00  0.00    -0.352 N 
ATOM     44  C   UNL A   1      35.176  31.927  30.122  1.00  0.00     0.251 C 
ATOM     45  H   UNL A   1      34.309  32.909  28.576  1.00  0.00     0.163 HD
ATOM     46  O   UNL A   1      34.425  32.325  31.003  1.00  0.00    -0.269 OA
BRANCH  44  47
ATOM     47  C   UNL A   1      36.426  31.220  30.448  1.00  0.00     0.039 A 
ATOM     48  C   UNL A   1      36.509  29.831  30.535  1.00  0.00     0.014 A 
ATOM     49  C   UNL A   1      37.559  32.018  30.574  1.00  0.00     0.014 A 
ATOM     50  C   UNL A   1      37.772  29.253  30.667  1.00  0.00     0.010 A 
ATOM     51  C   UNL A   1      38.797  31.447  30.495  1.00  0.00     0.010 A 
ATOM     52  C   UNL A   1      38.916  30.071  30.621  1.00  0.00    -0.014 A 
BRANCH  52  53
ATOM     53  C   UNL A   1      40.261  29.513  30.574  1.00  0.00     0.031 A 
ATOM     54  C   UNL A   1      40.876  29.326  31.916  1.00  0.00     0.074 A 
ATOM     55  C   UNL A   1      40.804  29.003  29.443  1.00  0.00     0.049 A 
ATOM     56  N   UNL A   1      41.808  30.039  32.455  1.00  0.00    -0.248 NA
ATOM     57  C   UNL A   1      40.255  28.369  32.850  1.00  0.00     0.031 C 
ATOM     58  C   UNL A   1      40.183  28.830  28.122  1.00  0.00     0.029 A 
ATOM     59  N   UNL A   1      42.026  28.437  29.259  1.00  0.00    -0.354 N 
ATOM     60  C   UNL A   1      42.081  29.444  33.683  1.00  0.00     0.074 A 
ATOM     61  C   UNL A   1      40.956  28.593  33.966  1.00  0.00     0.031 C 
ATOM     62  C   UNL A   1      40.935  28.000  27.364  1.00  0.00     0.029 A 
ATOM     63  C   UNL A   1      42.176  27.730  28.065  1.00  0.00     0.049 A 
ATOM     64  H   UNL A   1      42.752  28.520  29.919  1.00  0.00     0.167 HD
ATOM     65  C   UNL A   1      43.334  29.497  34.218  1.00  0.00     0.037 A 
ATOM     66  C   UNL A   1      43.245  26.974  27.695  1.00  0.00     0.037 A 
ATOM     67  C   UNL A   1      44.134  30.484  33.532  1.00  0.00     0.049 A 
ATOM     68  C   UNL A   1      44.388  27.431  28.530  1.00  0.00     0.074 A 
ATOM     69  C   UNL A   1      44.019  31.843  33.311  1.00  0.00     0.029 A 
ATOM     70  N   UNL A   1      45.028  30.024  32.593  1.00  0.00    -0.354 N 
ATOM     71  N   UNL A   1      44.911  28.626  28.445  1.00  0.00    -0.248 NA
ATOM     72  C   UNL A   1      44.602  26.743  29.795  1.00  0.00     0.031 C 
ATOM     73  C   UNL A   1      44.444  32.030  31.963  1.00  0.00     0.029 A 
ATOM     74  C   UNL A   1      44.891  30.801  31.472  1.00  0.00     0.049 A 
ATOM     75  H   UNL A   1      45.652  29.271  32.704  1.00  0.00     0.167 HD
ATOM     76  C   UNL A   1      45.133  29.010  29.761  1.00  0.00     0.074 A 
ATOM     77  C   UNL A   1      44.979  27.784  30.544  1.00  0.00     0.031 C 
ATOM     78  C   UNL A   1      45.125  30.325  30.126  1.00  0.00     0.037 A 
BRANCH  65  79
ATOM     79  C   UNL A   1      43.969  28.412  35.060  1.00  0.00     0.058 A 
ATOM     80  C   UNL A   1      44.616  28.776  36.262  1.00  0.00     0.135 A 
ATOM     81  C   UNL A   1      44.225  27.099  34.610  1.00  0.00     0.135 A 
ATOM     82  F   UNL A   1      44.444  29.998  36.789  1.00  0.00    -0.206 F 
ATOM     83  C   UNL A   1      45.520  27.936  36.911  1.00  0.00     0.059 A 
ATOM     84  C   UNL A   1      45.081  26.225  35.271  1.00  0.00     0.059 A 
ATOM     85  F   UNL A   1      43.735  26.621  33.461  1.00  0.00    -0.206 F 
ATOM     86  C   UNL A   1      45.758  26.665  36.396  1.00  0.00     0.060 A 
BRANCH  86  87
ATOM     87  S   UNL A   1      46.989  25.612  37.180  1.00  0.00     0.124 S 
ATOM     88  O   UNL A   1      46.146  24.673  37.911  1.00  0.00    -0.237 OA
ATOM     89  O   UNL A   1      47.699  25.073  36.025  1.00  0.00    -0.237 OA
ATOM     90  O   UNL A   1      47.755  26.546  38.000  1.00  0.00    -0.744 OA
ENDBRANCH  86  87
ENDBRANCH  65  79
BRANCH  66  91
ATOM     91  C   UNL A   1      43.261  25.677  26.960  1.00  0.00     0.058 A 
ATOM     92  C   UNL A   1      43.485  25.623  25.571  1.00  0.00     0.135 A 
ATOM     93  C   UNL A   1      43.360  24.449  27.645  1.00  0.00     0.135 A 
ATOM     94  F   UNL A   1      43.429  26.744  24.836  1.00  0.00    -0.206 F 
ATOM     95  C   UNL A   1      43.840  24.438  24.911  1.00  0.00     0.059 A 
ATOM     96  C   UNL A   1      43.708  23.255  27.010  1.00  0.00     0.059 A 
ATOM     97  F   UNL A   1      43.211  24.391  28.977  1.00  0.00    -0.206 F 
ATOM     98  C   UNL A   1      43.973  23.261  25.645  1.00  0.00     0.060 A 
BRANCH  98  99
ATOM     99  S   UNL A   1      44.608  21.768  24.837  1.00  0.00     0.124 S 
ATOM    100  O   UNL A   1      43.633  20.763  25.247  1.00  0.00    -0.237 OA
ATOM    101  O   UNL A   1      44.582  22.143  23.428  1.00  0.00    -0.237 OA
ATOM    102  O   UNL A   1      45.942  21.612  25.412  1.00  0.00    -0.744 OA
ENDBRANCH  98  99
ENDBRANCH  66  91
BRANCH  78 103
ATOM    103  C   UNL A   1      45.170  31.382  29.052  1.00  0.00     0.058 A 
ATOM    104  C   UNL A   1      46.333  31.804  28.381  1.00  0.00     0.135 A 
ATOM    105  C   UNL A   1      43.941  31.836  28.550  1.00  0.00     0.135 A 
ATOM    106  F   UNL A   1      47.541  31.349  28.740  1.00  0.00    -0.206 F 
ATOM    107  C   UNL A   1      46.271  32.650  27.269  1.00  0.00     0.059 A 
ATOM    108  C   UNL A   1      43.855  32.652  27.429  1.00  0.00     0.059 A 
ATOM    109  F   UNL A   1      42.794  31.424  29.114  1.00  0.00    -0.206 F 
ATOM    110  C   UNL A   1      45.025  33.062  26.794  1.00  0.00     0.060 A 
BRANCH 110 111
ATOM    111  S   UNL A   1      44.930  34.075  25.302  1.00  0.00     0.124 S 
ATOM    112  O   UNL A   1      43.983  35.113  25.695  1.00  0.00    -0.237 OA
ATOM    113  O   UNL A   1      46.312  34.512  25.125  1.00  0.00    -0.237 OA
ATOM    114  O   UNL A   1      44.447  33.143  24.286  1.00  0.00    -0.744 OA
ENDBRANCH 110 111
ENDBRANCH  78 103
ENDBRANCH  52  53
ENDBRANCH  44  47
ENDBRANCH  42  43
ENDBRANCH  41  42
ENDBRANCH  40  41
ENDBRANCH   1  40
TORSDOF 19
ENDMDL
MODEL 2
REMARK VINA RESULT:     -12.5      2.691      9.330
REMARK SMILES Cc1c(NC(=O)c2cccc(NC(=O)[C@H]3CC=CC[C@H]3C(=O)NCCCCNC(=O)c3ccc(-c4c5nc(c(-c6c(F)cc(S(=O)(=O)[O-])cc6F)c6ccc([nH]6)c(-c6c(F)cc(S(=O)(=O)[O-])cc6F)c6nc(c(-c7c(F)cc(S(=O)(=O)[O-])cc7F)c7ccc4[nH]7)C=C6)C=C5)cc3)c2)c(=O)n(-c2ccccc2)n1C
REMARK SMILES IDX 24 1 23 2 21 3 22 4 20 6 15 7 16 8 17 9 19 10 18 11 13 12
REMARK SMILES IDX 12 13 14 15 11 16 7 17 8 18 97 19 9 20 10 21 5 22 4 23 6 25
REMARK SMILES IDX 3 26 1 27 2 28 107 29 98 30 100 31 108 32 99 33 101 34
REMARK SMILES IDX 102 35 106 36 103 37 105 38 104 39 25 40 26 41 27 42 28 43
REMARK SMILES IDX 29 44 30 46 31 47 32 48 96 49 33 50 95 51 34 52 35 53 36 54
REMARK SMILES IDX 89 55 37 56 94 57 88 58 90 59 38 60 93 61 87 62 86 63 39 65
REMARK SMILES IDX 73 66 52 67 72 68 53 69 56 70 71 71 91 72 54 73 55 74 70 76
REMARK SMILES IDX 92 77 57 78 40 79 41 80 50 81 42 82 43 83 49 84 51 85 44 86
REMARK SMILES IDX 45 87 46 88 47 89 48 90 74 91 75 92 84 93 76 94 77 95 83 96
REMARK SMILES IDX 85 97 78 98 79 99 80 100 81 101 82 102 58 103 59 104 68 105
REMARK SMILES IDX 60 106 61 107 67 108 69 109 62 110 63 111 64 112 65 113
REMARK SMILES IDX 66 114
REMARK H PARENT 23 5 12 14 4 24 28 45 90 64 56 75
REMARK Flexibility Score: inf
ROOT
ATOM      1  C   UNL A   1      37.288  21.424  25.468  1.00  0.00     0.116 C 
ENDROOT
BRANCH   1   2
ATOM      2  N   UNL A   1      37.030  22.162  24.254  1.00  0.00    -0.356 N 
ATOM      3  C   UNL A   1      35.869  22.558  23.681  1.00  0.00     0.224 C 
ATOM      4  O   UNL A   1      35.961  23.087  22.567  1.00  0.00    -0.275 OA
ATOM      5  H   UNL A   1      37.837  22.422  23.756  1.00  0.00     0.163 HD
BRANCH   3   6
ATOM      6  C   UNL A   1      34.488  22.340  24.293  1.00  0.00     0.095 C 
ATOM      7  C   UNL A   1      33.433  23.369  23.864  1.00  0.00     0.095 C 
ATOM      8  C   UNL A   1      32.261  23.337  24.861  1.00  0.00     0.041 C 
ATOM      9  C   UNL A   1      31.816  21.929  25.170  1.00  0.00    -0.030 C 
ATOM     10  C   UNL A   1      33.998  20.905  24.443  1.00  0.00     0.041 C 
ATOM     11  C   UNL A   1      32.585  20.847  24.964  1.00  0.00    -0.030 C 
BRANCH   7  12
ATOM     12  C   UNL A   1      32.788  23.274  22.492  1.00  0.00     0.228 C 
ATOM     13  N   UNL A   1      32.466  24.379  21.752  1.00  0.00    -0.326 N 
ATOM     14  H   UNL A   1      32.008  24.137  20.915  1.00  0.00     0.169 HD
ATOM     15  O   UNL A   1      32.455  22.189  22.004  1.00  0.00    -0.274 OA
BRANCH  13  16
ATOM     16  C   UNL A   1      32.621  25.776  21.878  1.00  0.00     0.041 A 
ATOM     17  C   UNL A   1      31.471  27.891  22.240  1.00  0.00     0.042 A 
ATOM     18  C   UNL A   1      32.680  28.583  22.248  1.00  0.00     0.014 A 
ATOM     19  C   UNL A   1      31.432  26.518  21.945  1.00  0.00     0.040 A 
ATOM     20  C   UNL A   1      33.858  27.868  22.125  1.00  0.00     0.003 A 
ATOM     21  C   UNL A   1      33.824  26.474  22.004  1.00  0.00     0.026 A 
BRANCH  17  22
ATOM     22  C   UNL A   1      30.268  28.642  22.644  1.00  0.00     0.255 C 
ATOM     23  N   UNL A   1      30.085  29.079  23.939  1.00  0.00    -0.316 N 
ATOM     24  H   UNL A   1      29.203  29.487  24.098  1.00  0.00     0.170 HD
ATOM     25  O   UNL A   1      29.396  28.864  21.806  1.00  0.00    -0.269 OA
BRANCH  23  26
ATOM     26  C   UNL A   1      30.890  29.054  25.047  1.00  0.00     0.130 A 
ATOM     27  C   UNL A   1      30.505  26.644  25.693  1.00  0.00     0.069 C 
ATOM     28  C   UNL A   1      31.191  27.968  25.786  1.00  0.00     0.061 A 
ATOM     29  N   UNL A   1      32.261  28.208  26.652  1.00  0.00    -0.283 N 
ATOM     30  C   UNL A   1      31.629  30.188  25.715  1.00  0.00     0.295 A 
ATOM     31  N   UNL A   1      32.587  29.577  26.529  1.00  0.00    -0.216 N 
ATOM     32  C   UNL A   1      32.499  27.554  27.932  1.00  0.00     0.172 C 
ATOM     33  O   UNL A   1      31.384  31.367  25.567  1.00  0.00    -0.265 OA
BRANCH  31  34
ATOM     34  C   UNL A   1      33.717  30.181  27.115  1.00  0.00     0.067 A 
ATOM     35  C   UNL A   1      34.956  29.532  27.112  1.00  0.00     0.028 A 
ATOM     36  C   UNL A   1      33.622  31.430  27.747  1.00  0.00     0.028 A 
ATOM     37  C   UNL A   1      36.086  30.142  27.664  1.00  0.00     0.002 A 
ATOM     38  C   UNL A   1      34.745  32.029  28.326  1.00  0.00     0.002 A 
ATOM     39  C   UNL A   1      35.981  31.390  28.271  1.00  0.00     0.000 A 
ENDBRANCH  31  34
ENDBRANCH  23  26
ENDBRANCH  17  22
ENDBRANCH  13  16
ENDBRANCH   7  12
ENDBRANCH   3   6
ENDBRANCH   1   2
BRANCH   1  40
ATOM     40  C   UNL A   1      38.777  21.108  25.633  1.00  0.00     0.023 C 
BRANCH  40  41
ATOM     41  C   UNL A   1      39.591  22.031  26.540  1.00  0.00     0.023 C 
BRANCH  41  42
ATOM     42  C   UNL A   1      40.956  21.495  26.932  1.00  0.00     0.116 C 
BRANCH  42  43
ATOM     43  N   UNL A   1      42.015  21.851  25.984  1.00  0.00    -0.352 N 
ATOM     44  C   UNL A   1      42.451  23.126  25.665  1.00  0.00     0.251 C 
ATOM     45  H   UNL A   1      42.462  21.105  25.524  1.00  0.00     0.163 HD
ATOM     46  O   UNL A   1      43.014  23.362  24.603  1.00  0.00    -0.269 OA
BRANCH  44  47
ATOM     47  C   UNL A   1      42.243  24.184  26.669  1.00  0.00     0.039 A 
ATOM     48  C   UNL A   1      42.818  24.146  27.939  1.00  0.00     0.014 A 
ATOM     49  C   UNL A   1      41.507  25.285  26.244  1.00  0.00     0.014 A 
ATOM     50  C   UNL A   1      42.710  25.279  28.745  1.00  0.00     0.010 A 
ATOM     51  C   UNL A   1      41.581  26.455  26.946  1.00  0.00     0.010 A 
ATOM     52  C   UNL A   1      42.109  26.442  28.228  1.00  0.00    -0.014 A 
BRANCH  52  53
ATOM     53  C   UNL A   1      42.126  27.706  28.953  1.00  0.00     0.031 A 
ATOM     54  C   UNL A   1      43.218  28.623  28.528  1.00  0.00     0.074 A 
ATOM     55  C   UNL A   1      41.116  28.099  29.765  1.00  0.00     0.049 A 
ATOM     56  N   UNL A   1      44.304  28.895  29.171  1.00  0.00    -0.248 NA
ATOM     57  C   UNL A   1      43.207  29.142  27.148  1.00  0.00     0.031 C 
ATOM     58  C   UNL A   1      39.830  27.434  30.021  1.00  0.00     0.029 A 
ATOM     59  N   UNL A   1      40.989  29.247  30.481  1.00  0.00    -0.354 N 
ATOM     60  C   UNL A   1      44.978  29.837  28.398  1.00  0.00     0.074 A 
ATOM     61  C   UNL A   1      44.388  29.765  27.089  1.00  0.00     0.031 C 
ATOM     62  C   UNL A   1      38.980  28.293  30.627  1.00  0.00     0.029 A 
ATOM     63  C   UNL A   1      39.708  29.499  30.971  1.00  0.00     0.049 A 
ATOM     64  H   UNL A   1      41.746  29.857  30.641  1.00  0.00     0.167 HD
ATOM     65  C   UNL A   1      45.769  30.780  28.985  1.00  0.00     0.037 A 
ATOM     66  C   UNL A   1      39.286  30.626  31.606  1.00  0.00     0.037 A 
ATOM     67  C   UNL A   1      46.038  30.429  30.360  1.00  0.00     0.049 A 
ATOM     68  C   UNL A   1      40.510  31.302  32.116  1.00  0.00     0.074 A 
ATOM     69  C   UNL A   1      46.622  29.346  30.988  1.00  0.00     0.029 A 
ATOM     70  N   UNL A   1      45.301  31.073  31.327  1.00  0.00    -0.354 N 
ATOM     71  N   UNL A   1      41.282  30.792  33.039  1.00  0.00    -0.248 NA
ATOM     72  C   UNL A   1      41.141  32.279  31.242  1.00  0.00     0.031 C 
ATOM     73  C   UNL A   1      45.816  29.115  32.141  1.00  0.00     0.029 A 
ATOM     74  C   UNL A   1      44.854  30.125  32.210  1.00  0.00     0.049 A 
ATOM     75  H   UNL A   1      45.126  32.041  31.376  1.00  0.00     0.167 HD
ATOM     76  C   UNL A   1      42.574  31.045  32.600  1.00  0.00     0.074 A 
ATOM     77  C   UNL A   1      42.422  32.018  31.517  1.00  0.00     0.031 C 
ATOM     78  C   UNL A   1      43.612  30.229  32.946  1.00  0.00     0.037 A 
BRANCH  65  79
ATOM     79  C   UNL A   1      45.964  32.193  28.478  1.00  0.00     0.058 A 
ATOM     80  C   UNL A   1      47.278  32.699  28.368  1.00  0.00     0.135 A 
ATOM     81  C   UNL A   1      44.935  33.154  28.377  1.00  0.00     0.135 A 
ATOM     82  F   UNL A   1      48.337  31.878  28.444  1.00  0.00    -0.206 F 
ATOM     83  C   UNL A   1      47.549  34.063  28.263  1.00  0.00     0.059 A 
ATOM     84  C   UNL A   1      45.182  34.513  28.218  1.00  0.00     0.059 A 
ATOM     85  F   UNL A   1      43.642  32.845  28.518  1.00  0.00    -0.206 F 
ATOM     86  C   UNL A   1      46.491  34.965  28.205  1.00  0.00     0.060 A 
BRANCH  86  87
ATOM     87  S   UNL A   1      46.838  36.730  28.158  1.00  0.00     0.124 S 
ATOM     88  O   UNL A   1      47.638  36.837  26.944  1.00  0.00    -0.237 OA
ATOM     89  O   UNL A   1      45.495  37.297  28.094  1.00  0.00    -0.237 OA
ATOM     90  O   UNL A   1      47.553  36.963  29.410  1.00  0.00    -0.744 OA
ENDBRANCH  86  87
ENDBRANCH  65  79
BRANCH  66  91
ATOM     91  C   UNL A   1      37.977  31.330  31.487  1.00  0.00     0.058 A 
ATOM     92  C   UNL A   1      36.861  30.940  32.252  1.00  0.00     0.135 A 
ATOM     93  C   UNL A   1      37.875  32.584  30.851  1.00  0.00     0.135 A 
ATOM     94  F   UNL A   1      36.871  29.770  32.909  1.00  0.00    -0.206 F 
ATOM     95  C   UNL A   1      35.739  31.764  32.422  1.00  0.00     0.059 A 
ATOM     96  C   UNL A   1      36.767  33.421  31.001  1.00  0.00     0.059 A 
ATOM     97  F   UNL A   1      38.897  33.076  30.134  1.00  0.00    -0.206 F 
ATOM     98  C   UNL A   1      35.712  33.016  31.811  1.00  0.00     0.060 A 
BRANCH  98  99
ATOM     99  S   UNL A   1      34.353  34.160  32.172  1.00  0.00     0.124 S 
ATOM    100  O   UNL A   1      33.749  34.338  30.855  1.00  0.00    -0.237 OA
ATOM    101  O   UNL A   1      33.562  33.407  33.138  1.00  0.00    -0.237 OA
ATOM    102  O   UNL A   1      35.034  35.335  32.709  1.00  0.00    -0.744 OA
ENDBRANCH  98  99
ENDBRANCH  66  91
BRANCH  78 103
ATOM    103  C   UNL A   1      43.414  29.220  34.048  1.00  0.00     0.058 A 
ATOM    104  C   UNL A   1      43.445  29.510  35.425  1.00  0.00     0.135 A 
ATOM    105  C   UNL A   1      42.971  27.943  33.673  1.00  0.00     0.135 A 
ATOM    106  F   UNL A   1      43.771  30.732  35.866  1.00  0.00    -0.206 F 
ATOM    107  C   UNL A   1      43.067  28.563  36.382  1.00  0.00     0.059 A 
ATOM    108  C   UNL A   1      42.561  26.998  34.605  1.00  0.00     0.059 A 
ATOM    109  F   UNL A   1      42.866  27.626  32.371  1.00  0.00    -0.206 F 
ATOM    110  C   UNL A   1      42.617  27.311  35.961  1.00  0.00     0.060 A 
BRANCH 110 111
ATOM    111  S   UNL A   1      42.033  26.116  37.183  1.00  0.00     0.124 S 
ATOM    112  O   UNL A   1      42.221  24.847  36.487  1.00  0.00    -0.237 OA
ATOM    113  O   UNL A   1      42.925  26.357  38.314  1.00  0.00    -0.237 OA
ATOM    114  O   UNL A   1      40.643  26.505  37.406  1.00  0.00    -0.744 OA
ENDBRANCH 110 111
ENDBRANCH  78 103
ENDBRANCH  52  53
ENDBRANCH  44  47
ENDBRANCH  42  43
ENDBRANCH  41  42
ENDBRANCH  40  41
ENDBRANCH   1  40
TORSDOF 19
ENDMDL
MODEL 3
REMARK VINA RESULT:     -12.2      4.974     12.413
REMARK SMILES Cc1c(NC(=O)c2cccc(NC(=O)[C@H]3CC=CC[C@H]3C(=O)NCCCCNC(=O)c3ccc(-c4c5nc(c(-c6c(F)cc(S(=O)(=O)[O-])cc6F)c6ccc([nH]6)c(-c6c(F)cc(S(=O)(=O)[O-])cc6F)c6nc(c(-c7c(F)cc(S(=O)(=O)[O-])cc7F)c7ccc4[nH]7)C=C6)C=C5)cc3)c2)c(=O)n(-c2ccccc2)n1C
REMARK SMILES IDX 24 1 23 2 21 3 22 4 20 6 15 7 16 8 17 9 19 10 18 11 13 12
REMARK SMILES IDX 12 13 14 15 11 16 7 17 8 18 97 19 9 20 10 21 5 22 4 23 6 25
REMARK SMILES IDX 3 26 1 27 2 28 107 29 98 30 100 31 108 32 99 33 101 34
REMARK SMILES IDX 102 35 106 36 103 37 105 38 104 39 25 40 26 41 27 42 28 43
REMARK SMILES IDX 29 44 30 46 31 47 32 48 96 49 33 50 95 51 34 52 35 53 36 54
REMARK SMILES IDX 89 55 37 56 94 57 88 58 90 59 38 60 93 61 87 62 86 63 39 65
REMARK SMILES IDX 73 66 52 67 72 68 53 69 56 70 71 71 91 72 54 73 55 74 70 76
REMARK SMILES IDX 92 77 57 78 40 79 41 80 50 81 42 82 43 83 49 84 51 85 44 86
REMARK SMILES IDX 45 87 46 88 47 89 48 90 74 91 75 92 84 93 76 94 77 95 83 96
REMARK SMILES IDX 85 97 78 98 79 99 80 100 81 101 82 102 58 103 59 104 68 105
REMARK SMILES IDX 60 106 61 107 67 108 69 109 62 110 63 111 64 112 65 113
REMARK SMILES IDX 66 114
REMARK H PARENT 23 5 12 14 4 24 28 45 90 64 56 75
REMARK Flexibility Score: inf
ROOT
ATOM      1  C   UNL A   1      45.136  26.468  25.794  1.00  0.00     0.116 C 
ENDROOT
BRANCH   1   2
ATOM      2  N   UNL A   1      45.839  27.019  24.659  1.00  0.00    -0.356 N 
ATOM      3  C   UNL A   1      46.950  27.789  24.586  1.00  0.00     0.224 C 
ATOM      4  O   UNL A   1      47.256  28.203  23.461  1.00  0.00    -0.275 OA
ATOM      5  H   UNL A   1      45.442  26.796  23.788  1.00  0.00     0.163 HD
BRANCH   3   6
ATOM      6  C   UNL A   1      47.788  28.210  25.790  1.00  0.00     0.095 C 
ATOM      7  C   UNL A   1      47.506  27.411  27.070  1.00  0.00     0.095 C 
ATOM      8  C   UNL A   1      48.037  28.196  28.282  1.00  0.00     0.041 C 
ATOM      9  C   UNL A   1      49.431  28.726  28.051  1.00  0.00    -0.030 C 
ATOM     10  C   UNL A   1      49.244  28.585  25.544  1.00  0.00     0.041 C 
ATOM     11  C   UNL A   1      49.972  28.879  26.830  1.00  0.00    -0.030 C 
BRANCH   7  12
ATOM     12  C   UNL A   1      48.064  26.008  27.233  1.00  0.00     0.228 C 
ATOM     13  N   UNL A   1      47.780  25.223  28.318  1.00  0.00    -0.326 N 
ATOM     14  H   UNL A   1      48.266  24.368  28.288  1.00  0.00     0.169 HD
ATOM     15  O   UNL A   1      48.864  25.528  26.422  1.00  0.00    -0.274 OA
BRANCH  13  16
ATOM     16  C   UNL A   1      46.970  25.324  29.469  1.00  0.00     0.041 A 
ATOM     17  C   UNL A   1      46.940  25.795  31.858  1.00  0.00     0.042 A 
ATOM     18  C   UNL A   1      45.553  25.670  31.896  1.00  0.00     0.014 A 
ATOM     19  C   UNL A   1      47.653  25.514  30.681  1.00  0.00     0.040 A 
ATOM     20  C   UNL A   1      44.873  25.426  30.717  1.00  0.00     0.003 A 
ATOM     21  C   UNL A   1      45.574  25.317  29.512  1.00  0.00     0.026 A 
BRANCH  17  22
ATOM     22  C   UNL A   1      47.597  26.321  33.068  1.00  0.00     0.255 C 
ATOM     23  N   UNL A   1      47.992  25.494  34.099  1.00  0.00    -0.316 N 
ATOM     24  H   UNL A   1      48.335  25.978  34.885  1.00  0.00     0.170 HD
ATOM     25  O   UNL A   1      47.777  27.534  33.168  1.00  0.00    -0.269 OA
BRANCH  23  26
ATOM     26  C   UNL A   1      47.998  24.132  34.242  1.00  0.00     0.130 A 
ATOM     27  C   UNL A   1      50.367  23.721  33.469  1.00  0.00     0.069 C 
ATOM     28  C   UNL A   1      49.062  23.321  34.081  1.00  0.00     0.061 A 
ATOM     29  N   UNL A   1      48.823  22.041  34.586  1.00  0.00    -0.283 N 
ATOM     30  C   UNL A   1      46.863  23.205  34.603  1.00  0.00     0.295 A 
ATOM     31  N   UNL A   1      47.472  22.010  34.996  1.00  0.00    -0.216 N 
ATOM     32  C   UNL A   1      49.432  20.802  34.122  1.00  0.00     0.172 C 
ATOM     33  O   UNL A   1      45.684  23.477  34.522  1.00  0.00    -0.265 OA
BRANCH  31  34
ATOM     34  C   UNL A   1      46.882  20.948  35.711  1.00  0.00     0.067 A 
ATOM     35  C   UNL A   1      46.040  20.035  35.067  1.00  0.00     0.028 A 
ATOM     36  C   UNL A   1      47.092  20.801  37.090  1.00  0.00     0.028 A 
ATOM     37  C   UNL A   1      45.478  18.964  35.766  1.00  0.00     0.002 A 
ATOM     38  C   UNL A   1      46.507  19.747  37.797  1.00  0.00     0.002 A 
ATOM     39  C   UNL A   1      45.711  18.819  37.131  1.00  0.00     0.000 A 
ENDBRANCH  31  34
ENDBRANCH  23  26
ENDBRANCH  17  22
ENDBRANCH  13  16
ENDBRANCH   7  12
ENDBRANCH   3   6
ENDBRANCH   1   2
BRANCH   1  40
ATOM     40  C   UNL A   1      45.027  24.943  25.708  1.00  0.00     0.023 C 
BRANCH  40  41
ATOM     41  C   UNL A   1      43.688  24.364  25.251  1.00  0.00     0.023 C 
BRANCH  41  42
ATOM     42  C   UNL A   1      43.433  22.933  25.689  1.00  0.00     0.116 C 
BRANCH  42  43
ATOM     43  N   UNL A   1      42.082  22.460  25.372  1.00  0.00    -0.352 N 
ATOM     44  C   UNL A   1      40.944  22.620  26.144  1.00  0.00     0.251 C 
ATOM     45  H   UNL A   1      41.973  21.978  24.522  1.00  0.00     0.163 HD
ATOM     46  O   UNL A   1      39.984  21.867  26.032  1.00  0.00    -0.269 OA
BRANCH  44  47
ATOM     47  C   UNL A   1      40.916  23.753  27.084  1.00  0.00     0.039 A 
ATOM     48  C   UNL A   1      41.774  23.849  28.180  1.00  0.00     0.014 A 
ATOM     49  C   UNL A   1      40.039  24.785  26.765  1.00  0.00     0.014 A 
ATOM     50  C   UNL A   1      41.793  25.043  28.899  1.00  0.00     0.010 A 
ATOM     51  C   UNL A   1      40.209  26.013  27.337  1.00  0.00     0.010 A 
ATOM     52  C   UNL A   1      41.022  26.133  28.454  1.00  0.00    -0.014 A 
BRANCH  52  53
ATOM     53  C   UNL A   1      41.136  27.455  29.055  1.00  0.00     0.031 A 
ATOM     54  C   UNL A   1      42.193  28.302  28.438  1.00  0.00     0.074 A 
ATOM     55  C   UNL A   1      40.224  27.945  29.928  1.00  0.00     0.049 A 
ATOM     56  N   UNL A   1      43.345  28.602  28.938  1.00  0.00    -0.248 NA
ATOM     57  C   UNL A   1      42.046  28.696  27.025  1.00  0.00     0.031 C 
ATOM     58  C   UNL A   1      38.961  27.340  30.374  1.00  0.00     0.029 A 
ATOM     59  N   UNL A   1      40.192  29.156  30.545  1.00  0.00    -0.354 N 
ATOM     60  C   UNL A   1      43.950  29.453  28.018  1.00  0.00     0.074 A 
ATOM     61  C   UNL A   1      43.225  29.281  26.788  1.00  0.00     0.031 C 
ATOM     62  C   UNL A   1      38.193  28.271  30.984  1.00  0.00     0.029 A 
ATOM     63  C   UNL A   1      38.973  29.484  31.139  1.00  0.00     0.049 A 
ATOM     64  H   UNL A   1      40.971  29.757  30.570  1.00  0.00     0.167 HD
ATOM     65  C   UNL A   1      44.813  30.424  28.432  1.00  0.00     0.037 A 
ATOM     66  C   UNL A   1      38.639  30.673  31.709  1.00  0.00     0.037 A 
ATOM     67  C   UNL A   1      45.219  30.189  29.798  1.00  0.00     0.049 A 
ATOM     68  C   UNL A   1      39.921  31.359  32.027  1.00  0.00     0.074 A 
ATOM     69  C   UNL A   1      45.848  29.151  30.459  1.00  0.00     0.029 A 
ATOM     70  N   UNL A   1      44.599  30.936  30.773  1.00  0.00    -0.354 N 
ATOM     71  N   UNL A   1      40.777  30.913  32.909  1.00  0.00    -0.248 NA
ATOM     72  C   UNL A   1      40.474  32.238  31.007  1.00  0.00     0.031 C 
ATOM     73  C   UNL A   1      45.163  29.045  31.705  1.00  0.00     0.029 A 
ATOM     74  C   UNL A   1      44.231  30.082  31.780  1.00  0.00     0.049 A 
ATOM     75  H   UNL A   1      44.446  31.908  30.752  1.00  0.00     0.167 HD
ATOM     76  C   UNL A   1      42.020  31.093  32.318  1.00  0.00     0.074 A 
ATOM     77  C   UNL A   1      41.772  31.969  31.172  1.00  0.00     0.031 C 
ATOM     78  C   UNL A   1      43.075  30.283  32.627  1.00  0.00     0.037 A 
BRANCH  65  79
ATOM     79  C   UNL A   1      44.978  31.780  27.781  1.00  0.00     0.058 A 
ATOM     80  C   UNL A   1      46.222  32.107  27.198  1.00  0.00     0.135 A 
ATOM     81  C   UNL A   1      44.090  32.863  27.957  1.00  0.00     0.135 A 
ATOM     82  F   UNL A   1      47.145  31.158  26.977  1.00  0.00    -0.206 F 
ATOM     83  C   UNL A   1      46.590  33.419  26.903  1.00  0.00     0.059 A 
ATOM     84  C   UNL A   1      44.416  34.172  27.620  1.00  0.00     0.059 A 
ATOM     85  F   UNL A   1      42.898  32.731  28.548  1.00  0.00    -0.206 F 
ATOM     86  C   UNL A   1      45.683  34.448  27.133  1.00  0.00     0.060 A 
BRANCH  86  87
ATOM     87  S   UNL A   1      46.186  36.150  26.837  1.00  0.00     0.124 S 
ATOM     88  O   UNL A   1      46.845  36.037  25.541  1.00  0.00    -0.237 OA
ATOM     89  O   UNL A   1      44.904  36.847  26.846  1.00  0.00    -0.237 OA
ATOM     90  O   UNL A   1      47.061  36.443  27.968  1.00  0.00    -0.744 OA
ENDBRANCH  86  87
ENDBRANCH  65  79
BRANCH  66  91
ATOM     91  C   UNL A   1      37.337  31.398  31.662  1.00  0.00     0.058 A 
ATOM     92  C   UNL A   1      36.580  31.625  32.827  1.00  0.00     0.135 A 
ATOM     93  C   UNL A   1      36.956  32.144  30.528  1.00  0.00     0.135 A 
ATOM     94  F   UNL A   1      36.879  30.973  33.961  1.00  0.00    -0.206 F 
ATOM     95  C   UNL A   1      35.548  32.572  32.882  1.00  0.00     0.059 A 
ATOM     96  C   UNL A   1      35.929  33.091  30.557  1.00  0.00     0.059 A 
ATOM     97  F   UNL A   1      37.636  32.041  29.377  1.00  0.00    -0.206 F 
ATOM     98  C   UNL A   1      35.245  33.319  31.745  1.00  0.00     0.060 A 
BRANCH  98  99
ATOM     99  S   UNL A   1      34.042  34.670  31.855  1.00  0.00     0.124 S 
ATOM    100  O   UNL A   1      33.136  34.185  32.892  1.00  0.00    -0.237 OA
ATOM    101  O   UNL A   1      34.881  35.804  32.224  1.00  0.00    -0.237 OA
ATOM    102  O   UNL A   1      33.474  34.729  30.511  1.00  0.00    -0.744 OA
ENDBRANCH  98  99
ENDBRANCH  66  91
BRANCH  78 103
ATOM    103  C   UNL A   1      42.976  29.382  33.831  1.00  0.00     0.058 A 
ATOM    104  C   UNL A   1      42.419  28.090  33.831  1.00  0.00     0.135 A 
ATOM    105  C   UNL A   1      43.664  29.782  34.987  1.00  0.00     0.135 A 
ATOM    106  F   UNL A   1      41.821  27.596  32.738  1.00  0.00    -0.206 F 
ATOM    107  C   UNL A   1      42.532  27.242  34.938  1.00  0.00     0.059 A 
ATOM    108  C   UNL A   1      43.814  28.945  36.086  1.00  0.00     0.059 A 
ATOM    109  F   UNL A   1      44.265  30.983  35.027  1.00  0.00    -0.206 F 
ATOM    110  C   UNL A   1      43.241  27.677  36.059  1.00  0.00     0.060 A 
BRANCH 110 111
ATOM    111  S   UNL A   1      43.475  26.554  37.454  1.00  0.00     0.124 S 
ATOM    112  O   UNL A   1      44.207  27.390  38.401  1.00  0.00    -0.237 OA
ATOM    113  O   UNL A   1      42.104  26.223  37.830  1.00  0.00    -0.237 OA
ATOM    114  O   UNL A   1      44.237  25.448  36.880  1.00  0.00    -0.744 OA
ENDBRANCH 110 111
ENDBRANCH  78 103
ENDBRANCH  52  53
ENDBRANCH  44  47
ENDBRANCH  42  43
ENDBRANCH  41  42
ENDBRANCH  40  41
ENDBRANCH   1  40
TORSDOF 19
ENDMDL
