MODEL 1
REMARK VINA RESULT:     -12.7      0.000      0.000
REMARK SMILES CC(C)C[C@H](C(=O)NCCCCNC(=O)c1ccc(-c2c3nc(c(-c4c(F)cc(S(=O)(=O)[O-])cc4F)c4ccc([nH]4)c(-c4c(F)cc(S(=O)(=O)[O-])cc4F)c4nc(c(-c5c(F)cc(S(=O)(=O)[O-])cc5F)c5ccc2[nH]5)C=C4)C=C3)cc1)N1C(=O)/C(=C2\C(=O)Nc3ccc(Br)cc32)SC1=S
REMARK SMILES IDX 11 1 10 2 9 3 8 4 6 5 7 6 5 8 4 9 2 10 1 11 3 12 82 13 83 14
REMARK SMILES IDX 98 15 84 16 85 17 97 18 99 19 86 20 87 21 96 22 88 23 89 24
REMARK SMILES IDX 90 25 95 26 91 28 93 29 92 30 94 31 12 32 13 33 14 34 15 36
REMARK SMILES IDX 16 37 17 38 81 39 18 40 80 41 19 42 20 43 21 44 74 45 22 46
REMARK SMILES IDX 79 47 73 48 75 49 23 50 78 51 72 52 71 53 24 55 58 56 37 57
REMARK SMILES IDX 57 58 38 59 41 60 56 61 76 62 39 63 40 64 55 66 77 67 42 68
REMARK SMILES IDX 25 69 26 70 35 71 27 72 28 73 34 74 36 75 29 76 30 77 31 78
REMARK SMILES IDX 32 79 33 80 59 81 60 82 69 83 61 84 62 85 68 86 70 87 63 88
REMARK SMILES IDX 64 89 65 90 66 91 67 92 43 93 44 94 53 95 45 96 46 97 52 98
REMARK SMILES IDX 54 99 47 100 48 101 49 102 50 103 51 104
REMARK H PARENT 8 7 89 27 13 35 75 54 41 65
REMARK Flexibility Score: inf
ROOT
ATOM      1  C   UNL A   1      38.710  23.596  26.689  1.00  0.00     0.023 C 
ENDROOT
BRANCH   1   2
ATOM      2  C   UNL A   1      38.338  22.506  25.699  1.00  0.00     0.023 C 
BRANCH   2   3
ATOM      3  C   UNL A   1      37.044  22.729  24.932  1.00  0.00     0.116 C 
BRANCH   3   4
ATOM      4  N   UNL A   1      36.131  23.567  25.688  1.00  0.00    -0.354 N 
ATOM      5  C   UNL A   1      34.767  23.540  25.752  1.00  0.00     0.243 C 
ATOM      6  O   UNL A   1      34.212  24.366  26.476  1.00  0.00    -0.273 OA
ATOM      7  H   UNL A   1      36.561  24.260  26.240  1.00  0.00     0.163 HD
BRANCH   5   8
ATOM      8  C   UNL A   1      33.969  22.524  24.907  1.00  0.00     0.181 C 
BRANCH   8   9
ATOM      9  C   UNL A   1      33.926  21.130  25.587  1.00  0.00     0.038 C 
BRANCH   9  10
ATOM     10  C   UNL A   1      33.897  19.850  24.749  1.00  0.00    -0.015 C 
ATOM     11  C   UNL A   1      35.283  19.208  24.715  1.00  0.00     0.007 C 
ATOM     12  C   UNL A   1      32.882  18.843  25.308  1.00  0.00     0.007 C 
ENDBRANCH   9  10
ENDBRANCH   8   9
BRANCH   8  13
ATOM     13  N   UNL A   1      32.786  23.158  24.263  1.00  0.00    -0.280 N 
ATOM     14  C   UNL A   1      33.030  24.051  23.214  1.00  0.00     0.267 C 
ATOM     15  C   UNL A   1      31.461  23.070  24.637  1.00  0.00     0.149 C 
ATOM     16  O   UNL A   1      34.033  24.043  22.518  1.00  0.00    -0.268 OA
ATOM     17  C   UNL A   1      31.872  24.995  23.045  1.00  0.00     0.093 C 
ATOM     18  S   UNL A   1      30.490  24.159  23.643  1.00  0.00    -0.053 SA
ATOM     19  S   UNL A   1      30.702  22.225  25.851  1.00  0.00    -0.052 S 
ATOM     20  C   UNL A   1      31.901  26.291  22.669  1.00  0.00     0.069 C 
ATOM     21  C   UNL A   1      33.150  27.021  22.217  1.00  0.00     0.257 C 
ATOM     22  C   UNL A   1      30.821  27.316  22.671  1.00  0.00     0.013 A 
ATOM     23  O   UNL A   1      34.295  26.622  22.150  1.00  0.00    -0.269 OA
ATOM     24  N   UNL A   1      32.748  28.311  21.931  1.00  0.00    -0.321 N 
ATOM     25  C   UNL A   1      31.399  28.498  22.190  1.00  0.00     0.049 A 
ATOM     26  C   UNL A   1      29.497  27.350  23.088  1.00  0.00     0.026 A 
ATOM     27  H   UNL A   1      33.346  29.013  21.586  1.00  0.00     0.170 HD
ATOM     28  C   UNL A   1      30.710  29.690  22.048  1.00  0.00     0.028 A 
ATOM     29  C   UNL A   1      28.781  28.551  22.962  1.00  0.00     0.018 A 
ATOM     30  C   UNL A   1      29.371  29.709  22.433  1.00  0.00     0.018 A 
ATOM     31  Br  UNL A   1      26.976  28.619  23.531  1.00  0.00    -0.051 Br
ENDBRANCH   8  13
ENDBRANCH   5   8
ENDBRANCH   3   4
ENDBRANCH   2   3
ENDBRANCH   1   2
BRANCH   1  32
ATOM     32  C   UNL A   1      40.172  23.588  27.085  1.00  0.00     0.116 C 
BRANCH  32  33
ATOM     33  N   UNL A   1      41.030  24.224  26.095  1.00  0.00    -0.352 N 
ATOM     34  C   UNL A   1      41.458  25.528  26.043  1.00  0.00     0.251 C 
ATOM     35  H   UNL A   1      41.344  23.642  25.366  1.00  0.00     0.163 HD
ATOM     36  O   UNL A   1      42.038  25.944  25.044  1.00  0.00    -0.269 OA
BRANCH  34  37
ATOM     37  C   UNL A   1      41.186  26.426  27.184  1.00  0.00     0.039 A 
ATOM     38  C   UNL A   1      40.235  26.048  28.134  1.00  0.00     0.014 A 
ATOM     39  C   UNL A   1      41.889  27.624  27.332  1.00  0.00     0.014 A 
ATOM     40  C   UNL A   1      40.022  26.859  29.249  1.00  0.00     0.010 A 
ATOM     41  C   UNL A   1      41.768  28.358  28.502  1.00  0.00     0.010 A 
ATOM     42  C   UNL A   1      40.803  28.008  29.454  1.00  0.00    -0.014 A 
BRANCH  42  43
ATOM     43  C   UNL A   1      40.574  28.899  30.618  1.00  0.00     0.031 A 
ATOM     44  C   UNL A   1      41.434  28.749  31.847  1.00  0.00     0.074 A 
ATOM     45  C   UNL A   1      39.584  29.811  30.582  1.00  0.00     0.049 A 
ATOM     46  N   UNL A   1      41.392  29.420  32.970  1.00  0.00    -0.248 NA
ATOM     47  C   UNL A   1      42.450  27.683  31.831  1.00  0.00     0.031 C 
ATOM     48  C   UNL A   1      38.652  30.009  29.470  1.00  0.00     0.029 A 
ATOM     49  N   UNL A   1      39.199  30.748  31.506  1.00  0.00    -0.354 N 
ATOM     50  C   UNL A   1      42.357  28.844  33.790  1.00  0.00     0.074 A 
ATOM     51  C   UNL A   1      42.916  27.725  33.068  1.00  0.00     0.031 C 
ATOM     52  C   UNL A   1      37.835  31.035  29.757  1.00  0.00     0.029 A 
ATOM     53  C   UNL A   1      38.157  31.542  31.086  1.00  0.00     0.049 A 
ATOM     54  H   UNL A   1      39.628  30.844  32.386  1.00  0.00     0.167 HD
ATOM     55  C   UNL A   1      42.768  29.234  35.019  1.00  0.00     0.037 A 
ATOM     56  C   UNL A   1      37.540  32.568  31.704  1.00  0.00     0.037 A 
ATOM     57  C   UNL A   1      42.229  30.373  35.714  1.00  0.00     0.049 A 
ATOM     58  C   UNL A   1      38.023  32.991  33.066  1.00  0.00     0.074 A 
ATOM     59  C   UNL A   1      42.614  30.896  36.934  1.00  0.00     0.029 A 
ATOM     60  N   UNL A   1      41.186  31.162  35.249  1.00  0.00    -0.354 N 
ATOM     61  N   UNL A   1      38.986  32.483  33.797  1.00  0.00    -0.248 NA
ATOM     62  C   UNL A   1      37.342  34.139  33.680  1.00  0.00     0.031 C 
ATOM     63  C   UNL A   1      41.764  31.966  37.236  1.00  0.00     0.029 A 
ATOM     64  C   UNL A   1      40.899  32.155  36.170  1.00  0.00     0.049 A 
ATOM     65  H   UNL A   1      40.720  31.034  34.392  1.00  0.00     0.167 HD
ATOM     66  C   UNL A   1      39.059  33.278  34.937  1.00  0.00     0.074 A 
ATOM     67  C   UNL A   1      38.045  34.302  34.792  1.00  0.00     0.031 C 
ATOM     68  C   UNL A   1      39.894  33.175  36.002  1.00  0.00     0.037 A 
BRANCH  55  69
ATOM     69  C   UNL A   1      43.847  28.424  35.687  1.00  0.00     0.058 A 
ATOM     70  C   UNL A   1      45.212  28.671  35.464  1.00  0.00     0.135 A 
ATOM     71  C   UNL A   1      43.510  27.394  36.581  1.00  0.00     0.135 A 
ATOM     72  F   UNL A   1      45.595  29.629  34.603  1.00  0.00    -0.206 F 
ATOM     73  C   UNL A   1      46.201  27.908  36.075  1.00  0.00     0.059 A 
ATOM     74  C   UNL A   1      44.483  26.642  37.232  1.00  0.00     0.059 A 
ATOM     75  F   UNL A   1      42.223  27.109  36.832  1.00  0.00    -0.206 F 
ATOM     76  C   UNL A   1      45.827  26.895  36.959  1.00  0.00     0.060 A 
BRANCH  76  77
ATOM     77  S   UNL A   1      47.123  25.919  37.749  1.00  0.00     0.124 S 
ATOM     78  O   UNL A   1      46.570  24.571  37.655  1.00  0.00    -0.237 OA
ATOM     79  O   UNL A   1      48.278  26.191  36.900  1.00  0.00    -0.237 OA
ATOM     80  O   UNL A   1      47.194  26.474  39.097  1.00  0.00    -0.744 OA
ENDBRANCH  76  77
ENDBRANCH  55  69
BRANCH  56  81
ATOM     81  C   UNL A   1      36.436  33.296  31.021  1.00  0.00     0.058 A 
ATOM     82  C   UNL A   1      36.691  34.126  29.918  1.00  0.00     0.135 A 
ATOM     83  C   UNL A   1      35.106  33.178  31.452  1.00  0.00     0.135 A 
ATOM     84  F   UNL A   1      37.946  34.276  29.468  1.00  0.00    -0.206 F 
ATOM     85  C   UNL A   1      35.675  34.830  29.282  1.00  0.00     0.059 A 
ATOM     86  C   UNL A   1      34.067  33.848  30.814  1.00  0.00     0.059 A 
ATOM     87  F   UNL A   1      34.804  32.382  32.490  1.00  0.00    -0.206 F 
ATOM     88  C   UNL A   1      34.363  34.682  29.737  1.00  0.00     0.060 A 
BRANCH  88  89
ATOM     89  S   UNL A   1      33.046  35.569  28.878  1.00  0.00     0.124 S 
ATOM     90  O   UNL A   1      32.427  34.500  28.103  1.00  0.00    -0.237 OA
ATOM     91  O   UNL A   1      32.257  36.093  29.989  1.00  0.00    -0.237 OA
ATOM     92  O   UNL A   1      33.769  36.573  28.103  1.00  0.00    -0.744 OA
ENDBRANCH  88  89
ENDBRANCH  56  81
BRANCH  68  93
ATOM     93  C   UNL A   1      39.795  34.238  37.064  1.00  0.00     0.058 A 
ATOM     94  C   UNL A   1      39.076  34.044  38.254  1.00  0.00     0.135 A 
ATOM     95  C   UNL A   1      40.461  35.463  36.894  1.00  0.00     0.135 A 
ATOM     96  F   UNL A   1      38.421  32.892  38.468  1.00  0.00    -0.206 F 
ATOM     97  C   UNL A   1      38.982  35.044  39.216  1.00  0.00     0.059 A 
ATOM     98  C   UNL A   1      40.413  36.463  37.860  1.00  0.00     0.059 A 
ATOM     99  F   UNL A   1      41.178  35.697  35.783  1.00  0.00    -0.206 F 
ATOM    100  C   UNL A   1      39.653  36.251  39.009  1.00  0.00     0.060 A 
BRANCH 100 101
ATOM    101  S   UNL A   1      39.526  37.540  40.265  1.00  0.00     0.124 S 
ATOM    102  O   UNL A   1      40.919  37.952  40.404  1.00  0.00    -0.237 OA
ATOM    103  O   UNL A   1      38.638  38.508  39.630  1.00  0.00    -0.237 OA
ATOM    104  O   UNL A   1      38.962  36.840  41.415  1.00  0.00    -0.744 OA
ENDBRANCH 100 101
ENDBRANCH  68  93
ENDBRANCH  42  43
ENDBRANCH  34  37
ENDBRANCH  32  33
ENDBRANCH   1  32
TORSDOF 17
ENDMDL
MODEL 2
REMARK VINA RESULT:     -12.5      1.196      1.600
REMARK SMILES CC(C)C[C@H](C(=O)NCCCCNC(=O)c1ccc(-c2c3nc(c(-c4c(F)cc(S(=O)(=O)[O-])cc4F)c4ccc([nH]4)c(-c4c(F)cc(S(=O)(=O)[O-])cc4F)c4nc(c(-c5c(F)cc(S(=O)(=O)[O-])cc5F)c5ccc2[nH]5)C=C4)C=C3)cc1)N1C(=O)/C(=C2\C(=O)Nc3ccc(Br)cc32)SC1=S
REMARK SMILES IDX 11 1 10 2 9 3 8 4 6 5 7 6 5 8 4 9 2 10 1 11 3 12 82 13 83 14
REMARK SMILES IDX 98 15 84 16 85 17 97 18 99 19 86 20 87 21 96 22 88 23 89 24
REMARK SMILES IDX 90 25 95 26 91 28 93 29 92 30 94 31 12 32 13 33 14 34 15 36
REMARK SMILES IDX 16 37 17 38 81 39 18 40 80 41 19 42 20 43 21 44 74 45 22 46
REMARK SMILES IDX 79 47 73 48 75 49 23 50 78 51 72 52 71 53 24 55 58 56 37 57
REMARK SMILES IDX 57 58 38 59 41 60 56 61 76 62 39 63 40 64 55 66 77 67 42 68
REMARK SMILES IDX 25 69 26 70 35 71 27 72 28 73 34 74 36 75 29 76 30 77 31 78
REMARK SMILES IDX 32 79 33 80 59 81 60 82 69 83 61 84 62 85 68 86 70 87 63 88
REMARK SMILES IDX 64 89 65 90 66 91 67 92 43 93 44 94 53 95 45 96 46 97 52 98
REMARK SMILES IDX 54 99 47 100 48 101 49 102 50 103 51 104
REMARK H PARENT 8 7 89 27 13 35 75 54 41 65
REMARK Flexibility Score: inf
ROOT
ATOM      1  C   UNL A   1      39.982  22.206  26.900  1.00  0.00     0.023 C 
ENDROOT
BRANCH   1   2
ATOM      2  C   UNL A   1      38.601  22.726  26.536  1.00  0.00     0.023 C 
BRANCH   2   3
ATOM      3  C   UNL A   1      37.742  21.782  25.711  1.00  0.00     0.116 C 
BRANCH   3   4
ATOM      4  N   UNL A   1      37.502  22.323  24.385  1.00  0.00    -0.354 N 
ATOM      5  C   UNL A   1      36.366  22.313  23.627  1.00  0.00     0.243 C 
ATOM      6  O   UNL A   1      36.414  22.845  22.518  1.00  0.00    -0.273 OA
ATOM      7  H   UNL A   1      38.278  22.765  23.969  1.00  0.00     0.163 HD
BRANCH   5   8
ATOM      8  C   UNL A   1      35.089  21.621  24.148  1.00  0.00     0.181 C 
BRANCH   8   9
ATOM      9  C   UNL A   1      35.423  20.301  24.893  1.00  0.00     0.038 C 
BRANCH   9  10
ATOM     10  C   UNL A   1      34.424  19.142  24.920  1.00  0.00    -0.015 C 
ATOM     11  C   UNL A   1      33.158  19.518  24.150  1.00  0.00     0.007 C 
ATOM     12  C   UNL A   1      35.033  17.871  24.311  1.00  0.00     0.007 C 
ENDBRANCH   9  10
ENDBRANCH   8   9
BRANCH   8  13
ATOM     13  N   UNL A   1      34.093  22.610  24.641  1.00  0.00    -0.280 N 
ATOM     14  C   UNL A   1      33.280  23.232  23.686  1.00  0.00     0.267 C 
ATOM     15  C   UNL A   1      33.930  23.092  25.924  1.00  0.00     0.149 C 
ATOM     16  O   UNL A   1      33.017  22.761  22.591  1.00  0.00    -0.268 OA
ATOM     17  C   UNL A   1      32.753  24.538  24.211  1.00  0.00     0.093 C 
ATOM     18  S   UNL A   1      32.723  24.380  25.926  1.00  0.00    -0.053 SA
ATOM     19  S   UNL A   1      34.703  22.734  27.352  1.00  0.00    -0.052 S 
ATOM     20  C   UNL A   1      32.510  25.675  23.526  1.00  0.00     0.069 C 
ATOM     21  C   UNL A   1      32.617  25.803  22.019  1.00  0.00     0.257 C 
ATOM     22  C   UNL A   1      32.177  27.041  24.017  1.00  0.00     0.013 A 
ATOM     23  O   UNL A   1      32.961  24.977  21.197  1.00  0.00    -0.269 OA
ATOM     24  N   UNL A   1      32.294  27.114  21.729  1.00  0.00    -0.321 N 
ATOM     25  C   UNL A   1      32.036  27.845  22.878  1.00  0.00     0.049 A 
ATOM     26  C   UNL A   1      32.063  27.637  25.265  1.00  0.00     0.026 A 
ATOM     27  H   UNL A   1      32.252  27.485  20.818  1.00  0.00     0.170 HD
ATOM     28  C   UNL A   1      31.730  29.194  22.922  1.00  0.00     0.028 A 
ATOM     29  C   UNL A   1      31.762  29.007  25.334  1.00  0.00     0.018 A 
ATOM     30  C   UNL A   1      31.580  29.779  24.178  1.00  0.00     0.018 A 
ATOM     31  Br  UNL A   1      31.609  29.839  27.028  1.00  0.00    -0.051 Br
ENDBRANCH   8  13
ENDBRANCH   5   8
ENDBRANCH   3   4
ENDBRANCH   2   3
ENDBRANCH   1   2
BRANCH   1  32
ATOM     32  C   UNL A   1      40.951  23.291  27.323  1.00  0.00     0.116 C 
BRANCH  32  33
ATOM     33  N   UNL A   1      41.481  24.046  26.196  1.00  0.00    -0.352 N 
ATOM     34  C   UNL A   1      41.658  25.403  26.081  1.00  0.00     0.251 C 
ATOM     35  H   UNL A   1      41.750  23.512  25.414  1.00  0.00     0.163 HD
ATOM     36  O   UNL A   1      41.957  25.893  24.996  1.00  0.00    -0.269 OA
BRANCH  34  37
ATOM     37  C   UNL A   1      41.452  26.263  27.264  1.00  0.00     0.039 A 
ATOM     38  C   UNL A   1      42.296  27.356  27.465  1.00  0.00     0.014 A 
ATOM     39  C   UNL A   1      40.408  26.008  28.158  1.00  0.00     0.014 A 
ATOM     40  C   UNL A   1      42.065  28.211  28.543  1.00  0.00     0.010 A 
ATOM     41  C   UNL A   1      40.104  26.929  29.149  1.00  0.00     0.010 A 
ATOM     42  C   UNL A   1      40.953  28.017  29.380  1.00  0.00    -0.014 A 
BRANCH  42  43
ATOM     43  C   UNL A   1      40.704  28.897  30.548  1.00  0.00     0.031 A 
ATOM     44  C   UNL A   1      41.557  28.753  31.783  1.00  0.00     0.074 A 
ATOM     45  C   UNL A   1      39.700  29.795  30.511  1.00  0.00     0.049 A 
ATOM     46  N   UNL A   1      41.499  29.417  32.909  1.00  0.00    -0.248 NA
ATOM     47  C   UNL A   1      42.590  27.702  31.766  1.00  0.00     0.031 C 
ATOM     48  C   UNL A   1      38.773  29.986  29.394  1.00  0.00     0.029 A 
ATOM     49  N   UNL A   1      39.295  30.721  31.438  1.00  0.00    -0.354 N 
ATOM     50  C   UNL A   1      42.467  28.850  33.731  1.00  0.00     0.074 A 
ATOM     51  C   UNL A   1      43.046  27.743  33.007  1.00  0.00     0.031 C 
ATOM     52  C   UNL A   1      37.939  30.997  29.682  1.00  0.00     0.029 A 
ATOM     53  C   UNL A   1      38.245  31.501  31.016  1.00  0.00     0.049 A 
ATOM     54  H   UNL A   1      39.717  30.817  32.322  1.00  0.00     0.167 HD
ATOM     55  C   UNL A   1      42.864  29.239  34.965  1.00  0.00     0.037 A 
ATOM     56  C   UNL A   1      37.609  32.515  31.635  1.00  0.00     0.037 A 
ATOM     57  C   UNL A   1      42.303  30.365  35.663  1.00  0.00     0.049 A 
ATOM     58  C   UNL A   1      38.076  32.937  33.003  1.00  0.00     0.074 A 
ATOM     59  C   UNL A   1      42.672  30.887  36.889  1.00  0.00     0.029 A 
ATOM     60  N   UNL A   1      41.252  31.141  35.197  1.00  0.00    -0.354 N 
ATOM     61  N   UNL A   1      39.042  32.439  33.738  1.00  0.00    -0.248 NA
ATOM     62  C   UNL A   1      37.374  34.071  33.620  1.00  0.00     0.031 C 
ATOM     63  C   UNL A   1      41.804  31.942  37.192  1.00  0.00     0.029 A 
ATOM     64  C   UNL A   1      40.943  32.125  36.121  1.00  0.00     0.049 A 
ATOM     65  H   UNL A   1      40.793  31.012  34.335  1.00  0.00     0.167 HD
ATOM     66  C   UNL A   1      39.096  33.227  34.883  1.00  0.00     0.074 A 
ATOM     67  C   UNL A   1      38.068  34.237  34.737  1.00  0.00     0.031 C 
ATOM     68  C   UNL A   1      39.925  33.131  35.953  1.00  0.00     0.037 A 
BRANCH  55  69
ATOM     69  C   UNL A   1      43.950  28.441  35.636  1.00  0.00     0.058 A 
ATOM     70  C   UNL A   1      45.312  28.714  35.429  1.00  0.00     0.135 A 
ATOM     71  C   UNL A   1      43.623  27.397  36.517  1.00  0.00     0.135 A 
ATOM     72  F   UNL A   1      45.687  29.687  34.582  1.00  0.00    -0.206 F 
ATOM     73  C   UNL A   1      46.309  27.962  36.041  1.00  0.00     0.059 A 
ATOM     74  C   UNL A   1      44.603  26.655  37.169  1.00  0.00     0.059 A 
ATOM     75  F   UNL A   1      42.338  27.087  36.752  1.00  0.00    -0.206 F 
ATOM     76  C   UNL A   1      45.944  26.934  36.913  1.00  0.00     0.060 A 
BRANCH  76  77
ATOM     77  S   UNL A   1      47.250  25.973  37.705  1.00  0.00     0.124 S 
ATOM     78  O   UNL A   1      47.112  26.389  39.098  1.00  0.00    -0.237 OA
ATOM     79  O   UNL A   1      46.848  24.601  37.411  1.00  0.00    -0.237 OA
ATOM     80  O   UNL A   1      48.462  26.427  37.033  1.00  0.00    -0.744 OA
ENDBRANCH  76  77
ENDBRANCH  55  69
BRANCH  56  81
ATOM     81  C   UNL A   1      36.498  33.230  30.950  1.00  0.00     0.058 A 
ATOM     82  C   UNL A   1      36.746  34.059  29.844  1.00  0.00     0.135 A 
ATOM     83  C   UNL A   1      35.169  33.101  31.380  1.00  0.00     0.135 A 
ATOM     84  F   UNL A   1      38.000  34.219  29.394  1.00  0.00    -0.206 F 
ATOM     85  C   UNL A   1      35.724  34.752  29.205  1.00  0.00     0.059 A 
ATOM     86  C   UNL A   1      34.124  33.759  30.739  1.00  0.00     0.059 A 
ATOM     87  F   UNL A   1      34.874  32.306  32.421  1.00  0.00    -0.206 F 
ATOM     88  C   UNL A   1      34.413  34.593  29.659  1.00  0.00     0.060 A 
BRANCH  88  89
ATOM     89  S   UNL A   1      33.089  35.465  28.797  1.00  0.00     0.124 S 
ATOM     90  O   UNL A   1      33.833  36.489  28.072  1.00  0.00    -0.237 OA
ATOM     91  O   UNL A   1      32.504  34.403  27.983  1.00  0.00    -0.237 OA
ATOM     92  O   UNL A   1      32.244  35.950  29.884  1.00  0.00    -0.744 OA
ENDBRANCH  88  89
ENDBRANCH  56  81
BRANCH  68  93
ATOM     93  C   UNL A   1      39.803  34.186  37.021  1.00  0.00     0.058 A 
ATOM     94  C   UNL A   1      39.032  33.995  38.178  1.00  0.00     0.135 A 
ATOM     95  C   UNL A   1      40.499  35.398  36.890  1.00  0.00     0.135 A 
ATOM     96  F   UNL A   1      38.346  32.855  38.353  1.00  0.00    -0.206 F 
ATOM     97  C   UNL A   1      38.919  34.988  39.145  1.00  0.00     0.059 A 
ATOM     98  C   UNL A   1      40.431  36.390  37.863  1.00  0.00     0.059 A 
ATOM     99  F   UNL A   1      41.266  35.628  35.812  1.00  0.00    -0.206 F 
ATOM    100  C   UNL A   1      39.621  36.183  38.978  1.00  0.00     0.060 A 
BRANCH 100 101
ATOM    101  S   UNL A   1      39.467  37.463  40.241  1.00  0.00     0.124 S 
ATOM    102  O   UNL A   1      40.844  37.935  40.347  1.00  0.00    -0.237 OA
ATOM    103  O   UNL A   1      38.524  38.393  39.629  1.00  0.00    -0.237 OA
ATOM    104  O   UNL A   1      38.961  36.737  41.401  1.00  0.00    -0.744 OA
ENDBRANCH 100 101
ENDBRANCH  68  93
ENDBRANCH  42  43
ENDBRANCH  34  37
ENDBRANCH  32  33
ENDBRANCH   1  32
TORSDOF 17
ENDMDL
MODEL 3
REMARK VINA RESULT:     -12.5      5.920      8.031
REMARK SMILES CC(C)C[C@H](C(=O)NCCCCNC(=O)c1ccc(-c2c3nc(c(-c4c(F)cc(S(=O)(=O)[O-])cc4F)c4ccc([nH]4)c(-c4c(F)cc(S(=O)(=O)[O-])cc4F)c4nc(c(-c5c(F)cc(S(=O)(=O)[O-])cc5F)c5ccc2[nH]5)C=C4)C=C3)cc1)N1C(=O)/C(=C2\C(=O)Nc3ccc(Br)cc32)SC1=S
REMARK SMILES IDX 11 1 10 2 9 3 8 4 6 5 7 6 5 8 4 9 2 10 1 11 3 12 82 13 83 14
REMARK SMILES IDX 98 15 84 16 85 17 97 18 99 19 86 20 87 21 96 22 88 23 89 24
REMARK SMILES IDX 90 25 95 26 91 28 93 29 92 30 94 31 12 32 13 33 14 34 15 36
REMARK SMILES IDX 16 37 17 38 81 39 18 40 80 41 19 42 20 43 21 44 74 45 22 46
REMARK SMILES IDX 79 47 73 48 75 49 23 50 78 51 72 52 71 53 24 55 58 56 37 57
REMARK SMILES IDX 57 58 38 59 41 60 56 61 76 62 39 63 40 64 55 66 77 67 42 68
REMARK SMILES IDX 25 69 26 70 35 71 27 72 28 73 34 74 36 75 29 76 30 77 31 78
REMARK SMILES IDX 32 79 33 80 59 81 60 82 69 83 61 84 62 85 68 86 70 87 63 88
REMARK SMILES IDX 64 89 65 90 66 91 67 92 43 93 44 94 53 95 45 96 46 97 52 98
REMARK SMILES IDX 54 99 47 100 48 101 49 102 50 103 51 104
REMARK H PARENT 8 7 89 27 13 35 75 54 41 65
REMARK Flexibility Score: inf
ROOT
ATOM      1  C   UNL A   1      38.774  20.963  25.452  1.00  0.00     0.023 C 
ENDROOT
BRANCH   1   2
ATOM      2  C   UNL A   1      38.287  22.383  25.682  1.00  0.00     0.023 C 
BRANCH   2   3
ATOM      3  C   UNL A   1      37.105  22.818  24.829  1.00  0.00     0.116 C 
BRANCH   3   4
ATOM      4  N   UNL A   1      36.201  23.663  25.588  1.00  0.00    -0.354 N 
ATOM      5  C   UNL A   1      34.838  23.633  25.674  1.00  0.00     0.243 C 
ATOM      6  O   UNL A   1      34.292  24.468  26.395  1.00  0.00    -0.273 OA
ATOM      7  H   UNL A   1      36.637  24.366  26.122  1.00  0.00     0.163 HD
BRANCH   5   8
ATOM      8  C   UNL A   1      34.030  22.602  24.857  1.00  0.00     0.181 C 
BRANCH   8   9
ATOM      9  C   UNL A   1      34.005  21.217  25.558  1.00  0.00     0.038 C 
BRANCH   9  10
ATOM     10  C   UNL A   1      33.945  19.926  24.739  1.00  0.00    -0.015 C 
ATOM     11  C   UNL A   1      35.313  19.244  24.728  1.00  0.00     0.007 C 
ATOM     12  C   UNL A   1      32.897  18.958  25.304  1.00  0.00     0.007 C 
ENDBRANCH   9  10
ENDBRANCH   8   9
BRANCH   8  13
ATOM     13  N   UNL A   1      32.834  23.222  24.224  1.00  0.00    -0.280 N 
ATOM     14  C   UNL A   1      33.059  24.126  23.180  1.00  0.00     0.267 C 
ATOM     15  C   UNL A   1      31.512  23.110  24.605  1.00  0.00     0.149 C 
ATOM     16  O   UNL A   1      34.058  24.138  22.479  1.00  0.00    -0.268 OA
ATOM     17  C   UNL A   1      31.885  25.053  23.024  1.00  0.00     0.093 C 
ATOM     18  S   UNL A   1      30.519  24.191  23.624  1.00  0.00    -0.053 SA
ATOM     19  S   UNL A   1      30.774  22.245  25.817  1.00  0.00    -0.052 S 
ATOM     20  C   UNL A   1      31.891  26.351  22.657  1.00  0.00     0.069 C 
ATOM     21  C   UNL A   1      33.126  27.104  22.203  1.00  0.00     0.257 C 
ATOM     22  C   UNL A   1      30.795  27.359  22.672  1.00  0.00     0.013 A 
ATOM     23  O   UNL A   1      34.277  26.723  22.127  1.00  0.00    -0.269 OA
ATOM     24  N   UNL A   1      32.703  28.390  21.929  1.00  0.00    -0.321 N 
ATOM     25  C   UNL A   1      31.353  28.554  22.196  1.00  0.00     0.049 A 
ATOM     26  C   UNL A   1      29.474  27.370  23.097  1.00  0.00     0.026 A 
ATOM     27  H   UNL A   1      33.288  29.103  21.585  1.00  0.00     0.170 HD
ATOM     28  C   UNL A   1      30.645  29.736  22.067  1.00  0.00     0.028 A 
ATOM     29  C   UNL A   1      28.738  28.561  22.983  1.00  0.00     0.018 A 
ATOM     30  C   UNL A   1      29.308  29.731  22.460  1.00  0.00     0.018 A 
ATOM     31  Br  UNL A   1      26.936  28.596  23.563  1.00  0.00    -0.051 Br
ENDBRANCH   8  13
ENDBRANCH   5   8
ENDBRANCH   3   4
ENDBRANCH   2   3
ENDBRANCH   1   2
BRANCH   1  32
ATOM     32  C   UNL A   1      39.580  20.400  26.604  1.00  0.00     0.116 C 
BRANCH  32  33
ATOM     33  N   UNL A   1      40.632  19.493  26.168  1.00  0.00    -0.352 N 
ATOM     34  C   UNL A   1      41.949  19.774  25.899  1.00  0.00     0.251 C 
ATOM     35  H   UNL A   1      40.364  18.553  26.050  1.00  0.00     0.163 HD
ATOM     36  O   UNL A   1      42.664  18.925  25.375  1.00  0.00    -0.269 OA
BRANCH  34  37
ATOM     37  C   UNL A   1      42.483  21.114  26.219  1.00  0.00     0.039 A 
ATOM     38  C   UNL A   1      42.660  22.039  25.189  1.00  0.00     0.014 A 
ATOM     39  C   UNL A   1      42.779  21.467  27.538  1.00  0.00     0.014 A 
ATOM     40  C   UNL A   1      43.099  23.328  25.493  1.00  0.00     0.010 A 
ATOM     41  C   UNL A   1      43.089  22.782  27.850  1.00  0.00     0.010 A 
ATOM     42  C   UNL A   1      43.295  23.716  26.828  1.00  0.00    -0.014 A 
BRANCH  42  43
ATOM     43  C   UNL A   1      43.788  25.073  27.173  1.00  0.00     0.031 A 
ATOM     44  C   UNL A   1      45.239  25.415  26.951  1.00  0.00     0.074 A 
ATOM     45  C   UNL A   1      42.945  25.977  27.710  1.00  0.00     0.049 A 
ATOM     46  N   UNL A   1      45.869  26.536  27.191  1.00  0.00    -0.248 NA
ATOM     47  C   UNL A   1      46.107  24.348  26.422  1.00  0.00     0.031 C 
ATOM     48  C   UNL A   1      41.535  25.742  28.023  1.00  0.00     0.029 A 
ATOM     49  N   UNL A   1      43.154  27.280  28.082  1.00  0.00    -0.354 N 
ATOM     50  C   UNL A   1      47.200  26.299  26.863  1.00  0.00     0.074 A 
ATOM     51  C   UNL A   1      47.302  24.910  26.479  1.00  0.00     0.031 C 
ATOM     52  C   UNL A   1      40.994  26.876  28.496  1.00  0.00     0.029 A 
ATOM     53  C   UNL A   1      42.025  27.906  28.557  1.00  0.00     0.049 A 
ATOM     54  H   UNL A   1      44.029  27.725  28.016  1.00  0.00     0.167 HD
ATOM     55  C   UNL A   1      48.237  27.168  26.848  1.00  0.00     0.037 A 
ATOM     56  C   UNL A   1      41.844  29.171  28.982  1.00  0.00     0.037 A 
ATOM     57  C   UNL A   1      48.115  28.558  27.199  1.00  0.00     0.049 A 
ATOM     58  C   UNL A   1      43.011  30.123  28.945  1.00  0.00     0.074 A 
ATOM     59  C   UNL A   1      49.085  29.543  27.158  1.00  0.00     0.029 A 
ATOM     60  N   UNL A   1      46.952  29.159  27.658  1.00  0.00    -0.354 N 
ATOM     61  N   UNL A   1      44.246  29.904  28.562  1.00  0.00    -0.248 NA
ATOM     62  C   UNL A   1      42.752  31.501  29.384  1.00  0.00     0.031 C 
ATOM     63  C   UNL A   1      48.524  30.726  27.650  1.00  0.00     0.029 A 
ATOM     64  C   UNL A   1      47.185  30.497  27.927  1.00  0.00     0.049 A 
ATOM     65  H   UNL A   1      46.088  28.701  27.776  1.00  0.00     0.167 HD
ATOM     66  C   UNL A   1      44.902  31.126  28.669  1.00  0.00     0.074 A 
ATOM     67  C   UNL A   1      43.921  32.080  29.147  1.00  0.00     0.031 C 
ATOM     68  C   UNL A   1      46.193  31.435  28.389  1.00  0.00     0.037 A 
BRANCH  55  69
ATOM     69  C   UNL A   1      49.588  26.641  26.441  1.00  0.00     0.058 A 
ATOM     70  C   UNL A   1      50.429  25.971  27.345  1.00  0.00     0.135 A 
ATOM     71  C   UNL A   1      50.040  26.791  25.120  1.00  0.00     0.135 A 
ATOM     72  F   UNL A   1      50.060  25.815  28.627  1.00  0.00    -0.206 F 
ATOM     73  C   UNL A   1      51.681  25.501  26.964  1.00  0.00     0.059 A 
ATOM     74  C   UNL A   1      51.273  26.297  24.708  1.00  0.00     0.059 A 
ATOM     75  F   UNL A   1      49.281  27.426  24.213  1.00  0.00    -0.206 F 
ATOM     76  C   UNL A   1      52.095  25.667  25.642  1.00  0.00     0.060 A 
BRANCH  76  77
ATOM     77  S   UNL A   1      53.719  25.044  25.162  1.00  0.00     0.124 S 
ATOM     78  O   UNL A   1      54.579  25.681  26.156  1.00  0.00    -0.237 OA
ATOM     79  O   UNL A   1      53.552  23.601  25.301  1.00  0.00    -0.237 OA
ATOM     80  O   UNL A   1      53.879  25.527  23.795  1.00  0.00    -0.744 OA
ENDBRANCH  76  77
ENDBRANCH  55  69
BRANCH  56  81
ATOM     81  C   UNL A   1      40.500  29.624  29.432  1.00  0.00     0.058 A 
ATOM     82  C   UNL A   1      39.469  29.855  28.508  1.00  0.00     0.135 A 
ATOM     83  C   UNL A   1      40.215  29.831  30.790  1.00  0.00     0.135 A 
ATOM     84  F   UNL A   1      39.690  29.673  27.197  1.00  0.00    -0.206 F 
ATOM     85  C   UNL A   1      38.213  30.298  28.908  1.00  0.00     0.059 A 
ATOM     86  C   UNL A   1      38.957  30.245  31.220  1.00  0.00     0.059 A 
ATOM     87  F   UNL A   1      41.159  29.607  31.718  1.00  0.00    -0.206 F 
ATOM     88  C   UNL A   1      37.966  30.488  30.270  1.00  0.00     0.060 A 
BRANCH  88  89
ATOM     89  S   UNL A   1      36.320  31.025  30.782  1.00  0.00     0.124 S 
ATOM     90  O   UNL A   1      35.997  30.044  31.812  1.00  0.00    -0.237 OA
ATOM     91  O   UNL A   1      36.575  32.384  31.250  1.00  0.00    -0.237 OA
ATOM     92  O   UNL A   1      35.539  30.929  29.552  1.00  0.00    -0.744 OA
ENDBRANCH  88  89
ENDBRANCH  56  81
BRANCH  68  93
ATOM     93  C   UNL A   1      46.606  32.876  28.527  1.00  0.00     0.058 A 
ATOM     94  C   UNL A   1      47.144  33.392  29.716  1.00  0.00     0.135 A 
ATOM     95  C   UNL A   1      46.485  33.747  27.430  1.00  0.00     0.135 A 
ATOM     96  F   UNL A   1      47.282  32.604  30.793  1.00  0.00    -0.206 F 
ATOM     97  C   UNL A   1      47.505  34.731  29.827  1.00  0.00     0.059 A 
ATOM     98  C   UNL A   1      46.875  35.080  27.508  1.00  0.00     0.059 A 
ATOM     99  F   UNL A   1      45.993  33.303  26.262  1.00  0.00    -0.206 F 
ATOM    100  C   UNL A   1      47.364  35.568  28.718  1.00  0.00     0.060 A 
BRANCH 100 101
ATOM    101  S   UNL A   1      47.837  37.302  28.875  1.00  0.00     0.124 S 
ATOM    102  O   UNL A   1      46.989  37.929  27.866  1.00  0.00    -0.237 OA
ATOM    103  O   UNL A   1      47.494  37.594  30.263  1.00  0.00    -0.237 OA
ATOM    104  O   UNL A   1      49.266  37.293  28.577  1.00  0.00    -0.744 OA
ENDBRANCH 100 101
ENDBRANCH  68  93
ENDBRANCH  42  43
ENDBRANCH  34  37
ENDBRANCH  32  33
ENDBRANCH   1  32
TORSDOF 17
ENDMDL
