MODEL 1
REMARK VINA RESULT:     -12.4      0.000      0.000
REMARK SMILES O=C(NCCCCNC(=O)[C@H]1C=C[C@H](NC(=O)[C@]23C[C@H]4C[C@H](C[C@H](C4)C2)C3)C1)c1ccc(-c2c3nc(c(-c4c(F)cc(S(=O)(=O)[O-])cc4F)c4ccc([nH]4)c(-c4c(F)cc(S(=O)(=O)[O-])cc4F)c4nc(c(-c5c(F)cc(S(=O)(=O)[O-])cc5F)c5ccc2[nH]5)C=C4)C=C3)cc1
REMARK SMILES IDX 5 1 4 2 3 3 1 4 2 5 29 7 30 8 94 9 31 10 93 11 32 12 33 13
REMARK SMILES IDX 34 14 87 15 35 16 92 17 86 18 88 19 36 20 91 21 85 22 84 23
REMARK SMILES IDX 37 25 71 26 50 27 70 28 51 29 54 30 69 31 89 32 52 33 53 34
REMARK SMILES IDX 68 36 90 37 55 38 38 39 39 40 48 41 40 42 41 43 47 44 49 45
REMARK SMILES IDX 42 46 43 47 44 48 45 49 46 50 72 51 73 52 82 53 74 54 75 55
REMARK SMILES IDX 81 56 83 57 76 58 77 59 78 60 79 61 80 62 56 63 57 64 66 65
REMARK SMILES IDX 58 66 59 67 65 68 67 69 60 70 61 71 62 72 63 73 64 74 6 75
REMARK SMILES IDX 7 76 8 77 9 78 10 80 11 81 12 82 28 83 13 84 14 85 15 86
REMARK SMILES IDX 16 87 17 89 18 90 19 91 26 92 27 93 20 94 24 95 22 96 21 97
REMARK SMILES IDX 25 98 23 99
REMARK H PARENT 3 6 88 24 54 35 8 79 15 88
REMARK Flexibility Score: inf
ROOT
ATOM      1  C   UNL A   1      34.059  28.198  25.606  1.00  0.00     0.023 C 
ENDROOT
BRANCH   1   2
ATOM      2  C   UNL A   1      33.801  28.316  27.100  1.00  0.00     0.116 C 
BRANCH   2   3
ATOM      3  N   UNL A   1      33.582  29.688  27.537  1.00  0.00    -0.352 N 
ATOM      4  O   UNL A   1      34.171  31.643  28.513  1.00  0.00    -0.269 OA
ATOM      5  C   UNL A   1      34.498  30.533  28.113  1.00  0.00     0.251 C 
ATOM      6  H   UNL A   1      32.675  30.050  27.404  1.00  0.00     0.163 HD
BRANCH   5   7
ATOM      7  C   UNL A   1      35.868  30.028  28.289  1.00  0.00     0.039 A 
ATOM      8  C   UNL A   1      36.258  29.504  29.523  1.00  0.00     0.014 A 
ATOM      9  C   UNL A   1      36.787  30.206  27.255  1.00  0.00     0.014 A 
ATOM     10  C   UNL A   1      37.604  29.286  29.768  1.00  0.00     0.010 A 
ATOM     11  C   UNL A   1      38.130  29.908  27.479  1.00  0.00     0.010 A 
ATOM     12  C   UNL A   1      38.551  29.481  28.748  1.00  0.00    -0.014 A 
BRANCH  12  13
ATOM     13  C   UNL A   1      39.975  29.181  29.021  1.00  0.00     0.031 A 
ATOM     14  C   UNL A   1      40.579  27.863  28.634  1.00  0.00     0.074 A 
ATOM     15  C   UNL A   1      40.721  30.142  29.598  1.00  0.00     0.049 A 
ATOM     16  N   UNL A   1      41.810  27.449  28.790  1.00  0.00    -0.248 NA
ATOM     17  C   UNL A   1      39.691  26.877  28.000  1.00  0.00     0.031 C 
ATOM     18  C   UNL A   1      40.222  31.455  30.018  1.00  0.00     0.029 A 
ATOM     19  N   UNL A   1      42.054  30.180  29.904  1.00  0.00    -0.354 N 
ATOM     20  C   UNL A   1      41.839  26.145  28.310  1.00  0.00     0.074 A 
ATOM     21  C   UNL A   1      40.499  25.833  27.860  1.00  0.00     0.031 C 
ATOM     22  C   UNL A   1      41.247  32.191  30.469  1.00  0.00     0.029 A 
ATOM     23  C   UNL A   1      42.458  31.383  30.429  1.00  0.00     0.049 A 
ATOM     24  H   UNL A   1      42.663  29.420  29.761  1.00  0.00     0.167 HD
ATOM     25  C   UNL A   1      42.889  25.292  28.254  1.00  0.00     0.037 A 
ATOM     26  C   UNL A   1      43.673  31.788  30.842  1.00  0.00     0.037 A 
ATOM     27  C   UNL A   1      44.225  25.632  28.676  1.00  0.00     0.049 A 
ATOM     28  C   UNL A   1      44.822  30.831  30.745  1.00  0.00     0.074 A 
ATOM     29  C   UNL A   1      45.370  24.856  28.627  1.00  0.00     0.029 A 
ATOM     30  N   UNL A   1      44.595  26.853  29.223  1.00  0.00    -0.354 N 
ATOM     31  N   UNL A   1      44.833  29.605  30.281  1.00  0.00    -0.248 NA
ATOM     32  C   UNL A   1      46.120  31.308  31.237  1.00  0.00     0.031 C 
ATOM     33  C   UNL A   1      46.425  25.597  29.172  1.00  0.00     0.029 A 
ATOM     34  C   UNL A   1      45.945  26.848  29.529  1.00  0.00     0.049 A 
ATOM     35  H   UNL A   1      43.986  27.612  29.371  1.00  0.00     0.167 HD
ATOM     36  C   UNL A   1      46.141  29.161  30.418  1.00  0.00     0.074 A 
ATOM     37  C   UNL A   1      46.896  30.260  30.990  1.00  0.00     0.031 C 
ATOM     38  C   UNL A   1      46.670  27.953  30.104  1.00  0.00     0.037 A 
BRANCH  25  39
ATOM     39  C   UNL A   1      42.634  23.901  27.745  1.00  0.00     0.058 A 
ATOM     40  C   UNL A   1      42.424  22.818  28.613  1.00  0.00     0.135 A 
ATOM     41  C   UNL A   1      42.569  23.652  26.364  1.00  0.00     0.135 A 
ATOM     42  F   UNL A   1      42.491  22.995  29.942  1.00  0.00    -0.206 F 
ATOM     43  C   UNL A   1      42.185  21.533  28.131  1.00  0.00     0.059 A 
ATOM     44  C   UNL A   1      42.312  22.381  25.858  1.00  0.00     0.059 A 
ATOM     45  F   UNL A   1      42.764  24.652  25.488  1.00  0.00    -0.206 F 
ATOM     46  C   UNL A   1      42.136  21.324  26.752  1.00  0.00     0.060 A 
BRANCH  46  47
ATOM     47  S   UNL A   1      41.836  19.653  26.136  1.00  0.00     0.124 S 
ATOM     48  O   UNL A   1      42.733  19.603  24.986  1.00  0.00    -0.237 OA
ATOM     49  O   UNL A   1      42.219  18.823  27.274  1.00  0.00    -0.237 OA
ATOM     50  O   UNL A   1      40.411  19.659  25.821  1.00  0.00    -0.744 OA
ENDBRANCH  46  47
ENDBRANCH  25  39
BRANCH  26  51
ATOM     51  C   UNL A   1      43.846  33.166  31.364  1.00  0.00     0.058 A 
ATOM     52  C   UNL A   1      44.215  34.216  30.511  1.00  0.00     0.135 A 
ATOM     53  C   UNL A   1      43.585  33.472  32.708  1.00  0.00     0.135 A 
ATOM     54  F   UNL A   1      44.473  33.970  29.218  1.00  0.00    -0.206 F 
ATOM     55  C   UNL A   1      44.323  35.522  30.974  1.00  0.00     0.059 A 
ATOM     56  C   UNL A   1      43.663  34.774  33.189  1.00  0.00     0.059 A 
ATOM     57  F   UNL A   1      43.206  32.503  33.556  1.00  0.00    -0.206 F 
ATOM     58  C   UNL A   1      44.041  35.792  32.314  1.00  0.00     0.060 A 
BRANCH  58  59
ATOM     59  S   UNL A   1      44.106  37.501  32.892  1.00  0.00     0.124 S 
ATOM     60  O   UNL A   1      45.466  37.582  33.412  1.00  0.00    -0.237 OA
ATOM     61  O   UNL A   1      43.843  38.254  31.669  1.00  0.00    -0.237 OA
ATOM     62  O   UNL A   1      43.042  37.556  33.890  1.00  0.00    -0.744 OA
ENDBRANCH  58  59
ENDBRANCH  26  51
BRANCH  38  63
ATOM     63  C   UNL A   1      48.137  27.775  30.362  1.00  0.00     0.058 A 
ATOM     64  C   UNL A   1      49.095  28.105  29.392  1.00  0.00     0.135 A 
ATOM     65  C   UNL A   1      48.587  27.276  31.594  1.00  0.00     0.135 A 
ATOM     66  F   UNL A   1      48.711  28.576  28.195  1.00  0.00    -0.206 F 
ATOM     67  C   UNL A   1      50.454  27.920  29.625  1.00  0.00     0.059 A 
ATOM     68  C   UNL A   1      49.941  27.103  31.856  1.00  0.00     0.059 A 
ATOM     69  F   UNL A   1      47.707  26.953  32.554  1.00  0.00    -0.206 F 
ATOM     70  C   UNL A   1      50.866  27.413  30.859  1.00  0.00     0.060 A 
BRANCH  70  71
ATOM     71  S   UNL A   1      52.631  27.182  31.159  1.00  0.00     0.124 S 
ATOM     72  O   UNL A   1      53.195  28.354  30.499  1.00  0.00    -0.237 OA
ATOM     73  O   UNL A   1      52.706  27.177  32.617  1.00  0.00    -0.237 OA
ATOM     74  O   UNL A   1      52.916  25.901  30.520  1.00  0.00    -0.744 OA
ENDBRANCH  70  71
ENDBRANCH  38  63
ENDBRANCH  12  13
ENDBRANCH   5   7
ENDBRANCH   2   3
ENDBRANCH   1   2
BRANCH   1  75
ATOM     75  C   UNL A   1      33.224  29.153  24.754  1.00  0.00     0.023 C 
BRANCH  75  76
ATOM     76  C   UNL A   1      33.399  28.954  23.249  1.00  0.00     0.116 C 
BRANCH  76  77
ATOM     77  N   UNL A   1      32.211  29.332  22.527  1.00  0.00    -0.356 N 
ATOM     78  C   UNL A   1      30.971  28.796  22.526  1.00  0.00     0.227 C 
ATOM     79  H   UNL A   1      32.321  30.111  21.936  1.00  0.00     0.163 HD
ATOM     80  O   UNL A   1      30.176  29.261  21.697  1.00  0.00    -0.274 OA
BRANCH  78  81
ATOM     81  C   UNL A   1      30.509  27.655  23.437  1.00  0.00     0.103 C 
ATOM     82  C   UNL A   1      29.024  27.428  23.494  1.00  0.00    -0.016 C 
ATOM     83  C   UNL A   1      31.067  26.231  23.406  1.00  0.00     0.047 C 
ATOM     84  C   UNL A   1      28.748  26.190  23.932  1.00  0.00    -0.006 C 
ATOM     85  C   UNL A   1      29.985  25.370  24.057  1.00  0.00     0.106 C 
BRANCH  85  86
ATOM     86  N   UNL A   1      30.239  24.817  25.378  1.00  0.00    -0.349 N 
ATOM     87  C   UNL A   1      31.142  24.110  26.089  1.00  0.00     0.226 C 
ATOM     88  H   UNL A   1      29.479  25.037  25.963  1.00  0.00     0.164 HD
ATOM     89  O   UNL A   1      30.741  23.820  27.228  1.00  0.00    -0.274 OA
BRANCH  87  90
ATOM     90  C   UNL A   1      32.539  23.640  25.639  1.00  0.00     0.050 C 
ATOM     91  C   UNL A   1      33.083  22.603  26.683  1.00  0.00     0.020 C 
ATOM     92  C   UNL A   1      33.561  24.790  25.627  1.00  0.00     0.020 C 
ATOM     93  C   UNL A   1      32.501  22.875  24.300  1.00  0.00     0.020 C 
ATOM     94  C   UNL A   1      34.490  22.100  26.300  1.00  0.00    -0.010 C 
ATOM     95  C   UNL A   1      34.953  24.304  25.201  1.00  0.00    -0.010 C 
ATOM     96  C   UNL A   1      33.911  22.423  23.878  1.00  0.00    -0.010 C 
ATOM     97  C   UNL A   1      34.434  21.425  24.920  1.00  0.00     0.007 C 
ATOM     98  C   UNL A   1      35.455  23.292  26.236  1.00  0.00     0.007 C 
ATOM     99  C   UNL A   1      34.866  23.629  23.822  1.00  0.00     0.007 C 
ENDBRANCH  87  90
ENDBRANCH  85  86
ENDBRANCH  78  81
ENDBRANCH  76  77
ENDBRANCH  75  76
ENDBRANCH   1  75
TORSDOF 16
ENDMDL
MODEL 2
REMARK VINA RESULT:     -12.2      0.386      8.177
REMARK SMILES O=C(NCCCCNC(=O)[C@H]1C=C[C@H](NC(=O)[C@]23C[C@H]4C[C@H](C[C@H](C4)C2)C3)C1)c1ccc(-c2c3nc(c(-c4c(F)cc(S(=O)(=O)[O-])cc4F)c4ccc([nH]4)c(-c4c(F)cc(S(=O)(=O)[O-])cc4F)c4nc(c(-c5c(F)cc(S(=O)(=O)[O-])cc5F)c5ccc2[nH]5)C=C4)C=C3)cc1
REMARK SMILES IDX 5 1 4 2 3 3 1 4 2 5 29 7 30 8 94 9 31 10 93 11 32 12 33 13
REMARK SMILES IDX 34 14 87 15 35 16 92 17 86 18 88 19 36 20 91 21 85 22 84 23
REMARK SMILES IDX 37 25 71 26 50 27 70 28 51 29 54 30 69 31 89 32 52 33 53 34
REMARK SMILES IDX 68 36 90 37 55 38 38 39 39 40 48 41 40 42 41 43 47 44 49 45
REMARK SMILES IDX 42 46 43 47 44 48 45 49 46 50 72 51 73 52 82 53 74 54 75 55
REMARK SMILES IDX 81 56 83 57 76 58 77 59 78 60 79 61 80 62 56 63 57 64 66 65
REMARK SMILES IDX 58 66 59 67 65 68 67 69 60 70 61 71 62 72 63 73 64 74 6 75
REMARK SMILES IDX 7 76 8 77 9 78 10 80 11 81 12 82 28 83 13 84 14 85 15 86
REMARK SMILES IDX 16 87 17 89 18 90 19 91 26 92 27 93 20 94 24 95 22 96 21 97
REMARK SMILES IDX 25 98 23 99
REMARK H PARENT 3 6 88 24 54 35 8 79 15 88
REMARK Flexibility Score: inf
ROOT
ATOM      1  C   UNL A   1      34.035  28.165  25.546  1.00  0.00     0.023 C 
ENDROOT
BRANCH   1   2
ATOM      2  C   UNL A   1      33.806  28.259  27.046  1.00  0.00     0.116 C 
BRANCH   2   3
ATOM      3  N   UNL A   1      33.561  29.620  27.504  1.00  0.00    -0.352 N 
ATOM      4  O   UNL A   1      34.109  31.568  28.519  1.00  0.00    -0.269 OA
ATOM      5  C   UNL A   1      34.457  30.469  28.104  1.00  0.00     0.251 C 
ATOM      6  H   UNL A   1      32.650  29.970  27.368  1.00  0.00     0.163 HD
BRANCH   5   7
ATOM      7  C   UNL A   1      35.834  29.983  28.284  1.00  0.00     0.039 A 
ATOM      8  C   UNL A   1      36.251  29.544  29.542  1.00  0.00     0.014 A 
ATOM      9  C   UNL A   1      36.731  30.098  27.222  1.00  0.00     0.014 A 
ATOM     10  C   UNL A   1      37.603  29.349  29.773  1.00  0.00     0.010 A 
ATOM     11  C   UNL A   1      38.080  29.821  27.438  1.00  0.00     0.010 A 
ATOM     12  C   UNL A   1      38.529  29.480  28.724  1.00  0.00    -0.014 A 
BRANCH  12  13
ATOM     13  C   UNL A   1      39.959  29.206  28.987  1.00  0.00     0.031 A 
ATOM     14  C   UNL A   1      40.833  30.222  29.664  1.00  0.00     0.074 A 
ATOM     15  C   UNL A   1      40.446  28.002  28.632  1.00  0.00     0.049 A 
ATOM     16  N   UNL A   1      42.099  30.134  29.980  1.00  0.00    -0.248 NA
ATOM     17  C   UNL A   1      40.213  31.506  30.026  1.00  0.00     0.031 C 
ATOM     18  C   UNL A   1      39.677  26.950  27.961  1.00  0.00     0.029 A 
ATOM     19  N   UNL A   1      41.685  27.448  28.806  1.00  0.00    -0.354 N 
ATOM     20  C   UNL A   1      42.440  31.358  30.542  1.00  0.00     0.074 A 
ATOM     21  C   UNL A   1      41.246  32.177  30.521  1.00  0.00     0.031 C 
ATOM     22  C   UNL A   1      40.443  25.857  27.838  1.00  0.00     0.029 A 
ATOM     23  C   UNL A   1      41.770  26.152  28.360  1.00  0.00     0.049 A 
ATOM     24  H   UNL A   1      42.440  27.931  29.212  1.00  0.00     0.167 HD
ATOM     25  C   UNL A   1      43.640  31.756  31.027  1.00  0.00     0.037 A 
ATOM     26  C   UNL A   1      42.808  25.296  28.365  1.00  0.00     0.037 A 
ATOM     27  C   UNL A   1      44.810  30.915  31.070  1.00  0.00     0.049 A 
ATOM     28  C   UNL A   1      44.117  25.756  28.931  1.00  0.00     0.074 A 
ATOM     29  C   UNL A   1      46.064  31.207  31.576  1.00  0.00     0.029 A 
ATOM     30  N   UNL A   1      44.865  29.614  30.591  1.00  0.00    -0.354 N 
ATOM     31  N   UNL A   1      44.419  26.915  29.466  1.00  0.00    -0.248 NA
ATOM     32  C   UNL A   1      45.228  24.799  28.884  1.00  0.00     0.031 C 
ATOM     33  C   UNL A   1      46.887  30.091  31.374  1.00  0.00     0.029 A 
ATOM     34  C   UNL A   1      46.135  29.093  30.775  1.00  0.00     0.049 A 
ATOM     35  H   UNL A   1      44.113  29.131  30.180  1.00  0.00     0.167 HD
ATOM     36  C   UNL A   1      45.756  26.826  29.828  1.00  0.00     0.074 A 
ATOM     37  C   UNL A   1      46.197  25.492  29.468  1.00  0.00     0.031 C 
ATOM     38  C   UNL A   1      46.549  27.764  30.402  1.00  0.00     0.037 A 
BRANCH  25  39
ATOM     39  C   UNL A   1      43.758  33.170  31.525  1.00  0.00     0.058 A 
ATOM     40  C   UNL A   1      43.604  33.497  32.881  1.00  0.00     0.135 A 
ATOM     41  C   UNL A   1      44.060  34.213  30.633  1.00  0.00     0.135 A 
ATOM     42  F   UNL A   1      43.298  32.542  33.775  1.00  0.00    -0.206 F 
ATOM     43  C   UNL A   1      43.718  34.809  33.332  1.00  0.00     0.059 A 
ATOM     44  C   UNL A   1      44.199  35.529  31.063  1.00  0.00     0.059 A 
ATOM     45  F   UNL A   1      44.217  33.956  29.324  1.00  0.00    -0.206 F 
ATOM     46  C   UNL A   1      44.010  35.819  32.414  1.00  0.00     0.060 A 
BRANCH  46  47
ATOM     47  S   UNL A   1      44.147  37.520  33.007  1.00  0.00     0.124 S 
ATOM     48  O   UNL A   1      42.941  37.641  33.819  1.00  0.00    -0.237 OA
ATOM     49  O   UNL A   1      45.407  37.497  33.744  1.00  0.00    -0.237 OA
ATOM     50  O   UNL A   1      44.158  38.307  31.778  1.00  0.00    -0.744 OA
ENDBRANCH  46  47
ENDBRANCH  25  39
BRANCH  26  51
ATOM     51  C   UNL A   1      42.628  23.925  27.828  1.00  0.00     0.058 A 
ATOM     52  C   UNL A   1      42.481  22.830  28.690  1.00  0.00     0.135 A 
ATOM     53  C   UNL A   1      42.536  23.692  26.447  1.00  0.00     0.135 A 
ATOM     54  F   UNL A   1      42.560  23.006  30.018  1.00  0.00    -0.206 F 
ATOM     55  C   UNL A   1      42.252  21.548  28.202  1.00  0.00     0.059 A 
ATOM     56  C   UNL A   1      42.284  22.424  25.937  1.00  0.00     0.059 A 
ATOM     57  F   UNL A   1      42.647  24.715  25.585  1.00  0.00    -0.206 F 
ATOM     58  C   UNL A   1      42.151  21.356  26.823  1.00  0.00     0.060 A 
BRANCH  58  59
ATOM     59  S   UNL A   1      41.776  19.704  26.198  1.00  0.00     0.124 S 
ATOM     60  O   UNL A   1      40.341  19.801  25.959  1.00  0.00    -0.237 OA
ATOM     61  O   UNL A   1      42.618  19.623  25.008  1.00  0.00    -0.237 OA
ATOM     62  O   UNL A   1      42.178  18.833  27.298  1.00  0.00    -0.744 OA
ENDBRANCH  58  59
ENDBRANCH  26  51
BRANCH  38  63
ATOM     63  C   UNL A   1      47.966  27.363  30.685  1.00  0.00     0.058 A 
ATOM     64  C   UNL A   1      48.995  27.612  29.763  1.00  0.00     0.135 A 
ATOM     65  C   UNL A   1      48.299  26.730  31.892  1.00  0.00     0.135 A 
ATOM     66  F   UNL A   1      48.722  28.206  28.590  1.00  0.00    -0.206 F 
ATOM     67  C   UNL A   1      50.305  27.221  30.018  1.00  0.00     0.059 A 
ATOM     68  C   UNL A   1      49.606  26.350  32.177  1.00  0.00     0.059 A 
ATOM     69  F   UNL A   1      47.350  26.477  32.807  1.00  0.00    -0.206 F 
ATOM     70  C   UNL A   1      50.598  26.586  31.226  1.00  0.00     0.060 A 
BRANCH  70  71
ATOM     71  S   UNL A   1      52.302  26.087  31.555  1.00  0.00     0.124 S 
ATOM     72  O   UNL A   1      52.886  26.145  30.219  1.00  0.00    -0.237 OA
ATOM     73  O   UNL A   1      52.757  27.112  32.491  1.00  0.00    -0.237 OA
ATOM     74  O   UNL A   1      52.158  24.750  32.122  1.00  0.00    -0.744 OA
ENDBRANCH  70  71
ENDBRANCH  38  63
ENDBRANCH  12  13
ENDBRANCH   5   7
ENDBRANCH   2   3
ENDBRANCH   1   2
BRANCH   1  75
ATOM     75  C   UNL A   1      33.215  29.163  24.729  1.00  0.00     0.023 C 
BRANCH  75  76
ATOM     76  C   UNL A   1      33.365  28.996  23.217  1.00  0.00     0.116 C 
BRANCH  76  77
ATOM     77  N   UNL A   1      32.159  29.373  22.525  1.00  0.00    -0.356 N 
ATOM     78  C   UNL A   1      30.924  28.827  22.543  1.00  0.00     0.227 C 
ATOM     79  H   UNL A   1      32.252  30.158  21.939  1.00  0.00     0.163 HD
ATOM     80  O   UNL A   1      30.108  29.295  21.736  1.00  0.00    -0.274 OA
BRANCH  78  81
ATOM     81  C   UNL A   1      30.489  27.673  23.451  1.00  0.00     0.103 C 
ATOM     82  C   UNL A   1      29.011  27.406  23.501  1.00  0.00    -0.016 C 
ATOM     83  C   UNL A   1      31.085  26.264  23.420  1.00  0.00     0.047 C 
ATOM     84  C   UNL A   1      28.767  26.160  23.937  1.00  0.00    -0.006 C 
ATOM     85  C   UNL A   1      30.025  25.374  24.065  1.00  0.00     0.106 C 
BRANCH  85  86
ATOM     86  N   UNL A   1      30.289  24.826  25.386  1.00  0.00    -0.349 N 
ATOM     87  C   UNL A   1      31.206  24.139  26.100  1.00  0.00     0.226 C 
ATOM     88  H   UNL A   1      29.522  25.028  25.970  1.00  0.00     0.164 HD
ATOM     89  O   UNL A   1      30.809  23.839  27.237  1.00  0.00    -0.274 OA
BRANCH  87  90
ATOM     90  C   UNL A   1      32.615  23.702  25.653  1.00  0.00     0.050 C 
ATOM     91  C   UNL A   1      32.487  22.855  24.339  1.00  0.00     0.020 C 
ATOM     92  C   UNL A   1      33.287  22.774  26.680  1.00  0.00     0.020 C 
ATOM     93  C   UNL A   1      33.510  24.899  25.270  1.00  0.00     0.020 C 
ATOM     94  C   UNL A   1      33.865  22.371  23.842  1.00  0.00    -0.010 C 
ATOM     95  C   UNL A   1      34.677  22.327  26.211  1.00  0.00    -0.010 C 
ATOM     96  C   UNL A   1      34.909  24.429  24.832  1.00  0.00    -0.010 C 
ATOM     97  C   UNL A   1      34.762  23.587  23.558  1.00  0.00     0.007 C 
ATOM     98  C   UNL A   1      34.521  21.506  24.927  1.00  0.00     0.007 C 
ATOM     99  C   UNL A   1      35.551  23.561  25.929  1.00  0.00     0.007 C 
ENDBRANCH  87  90
ENDBRANCH  85  86
ENDBRANCH  78  81
ENDBRANCH  76  77
ENDBRANCH  75  76
ENDBRANCH   1  75
TORSDOF 16
ENDMDL
MODEL 3
REMARK VINA RESULT:     -12.0      2.593      8.651
REMARK SMILES O=C(NCCCCNC(=O)[C@H]1C=C[C@H](NC(=O)[C@]23C[C@H]4C[C@H](C[C@H](C4)C2)C3)C1)c1ccc(-c2c3nc(c(-c4c(F)cc(S(=O)(=O)[O-])cc4F)c4ccc([nH]4)c(-c4c(F)cc(S(=O)(=O)[O-])cc4F)c4nc(c(-c5c(F)cc(S(=O)(=O)[O-])cc5F)c5ccc2[nH]5)C=C4)C=C3)cc1
REMARK SMILES IDX 5 1 4 2 3 3 1 4 2 5 29 7 30 8 94 9 31 10 93 11 32 12 33 13
REMARK SMILES IDX 34 14 87 15 35 16 92 17 86 18 88 19 36 20 91 21 85 22 84 23
REMARK SMILES IDX 37 25 71 26 50 27 70 28 51 29 54 30 69 31 89 32 52 33 53 34
REMARK SMILES IDX 68 36 90 37 55 38 38 39 39 40 48 41 40 42 41 43 47 44 49 45
REMARK SMILES IDX 42 46 43 47 44 48 45 49 46 50 72 51 73 52 82 53 74 54 75 55
REMARK SMILES IDX 81 56 83 57 76 58 77 59 78 60 79 61 80 62 56 63 57 64 66 65
REMARK SMILES IDX 58 66 59 67 65 68 67 69 60 70 61 71 62 72 63 73 64 74 6 75
REMARK SMILES IDX 7 76 8 77 9 78 10 80 11 81 12 82 28 83 13 84 14 85 15 86
REMARK SMILES IDX 16 87 17 89 18 90 19 91 26 92 27 93 20 94 24 95 22 96 21 97
REMARK SMILES IDX 25 98 23 99
REMARK H PARENT 3 6 88 24 54 35 8 79 15 88
REMARK Flexibility Score: inf
ROOT
ATOM      1  C   UNL A   1      34.035  29.043  27.253  1.00  0.00     0.023 C 
ENDROOT
BRANCH   1   2
ATOM      2  C   UNL A   1      35.320  29.757  27.638  1.00  0.00     0.116 C 
BRANCH   2   3
ATOM      3  N   UNL A   1      35.297  30.288  28.995  1.00  0.00    -0.352 N 
ATOM      4  O   UNL A   1      36.163  30.701  31.045  1.00  0.00    -0.269 OA
ATOM      5  C   UNL A   1      36.329  30.297  29.901  1.00  0.00     0.251 C 
ATOM      6  H   UNL A   1      34.446  30.684  29.295  1.00  0.00     0.163 HD
BRANCH   5   7
ATOM      7  C   UNL A   1      37.620  29.745  29.463  1.00  0.00     0.039 A 
ATOM      8  C   UNL A   1      38.507  29.229  30.410  1.00  0.00     0.014 A 
ATOM      9  C   UNL A   1      37.984  29.871  28.122  1.00  0.00     0.014 A 
ATOM     10  C   UNL A   1      39.814  28.966  30.035  1.00  0.00     0.010 A 
ATOM     11  C   UNL A   1      39.277  29.526  27.734  1.00  0.00     0.010 A 
ATOM     12  C   UNL A   1      40.210  29.106  28.695  1.00  0.00    -0.014 A 
BRANCH  12  13
ATOM     13  C   UNL A   1      41.598  28.759  28.314  1.00  0.00     0.031 A 
ATOM     14  C   UNL A   1      42.699  29.777  28.382  1.00  0.00     0.074 A 
ATOM     15  C   UNL A   1      41.849  27.492  27.937  1.00  0.00     0.049 A 
ATOM     16  N   UNL A   1      43.967  29.632  28.097  1.00  0.00    -0.248 NA
ATOM     17  C   UNL A   1      42.334  31.135  28.814  1.00  0.00     0.031 C 
ATOM     18  C   UNL A   1      40.842  26.431  27.831  1.00  0.00     0.029 A 
ATOM     19  N   UNL A   1      43.021  26.871  27.601  1.00  0.00    -0.354 N 
ATOM     20  C   UNL A   1      44.547  30.882  28.278  1.00  0.00     0.074 A 
ATOM     21  C   UNL A   1      43.489  31.778  28.694  1.00  0.00     0.031 C 
ATOM     22  C   UNL A   1      41.450  25.279  27.517  1.00  0.00     0.029 A 
ATOM     23  C   UNL A   1      42.873  25.531  27.338  1.00  0.00     0.049 A 
ATOM     24  H   UNL A   1      43.886  27.339  27.552  1.00  0.00     0.167 HD
ATOM     25  C   UNL A   1      45.841  31.242  28.110  1.00  0.00     0.037 A 
ATOM     26  C   UNL A   1      43.785  24.608  26.983  1.00  0.00     0.037 A 
ATOM     27  C   UNL A   1      46.888  30.328  27.726  1.00  0.00     0.049 A 
ATOM     28  C   UNL A   1      45.214  25.030  26.828  1.00  0.00     0.074 A 
ATOM     29  C   UNL A   1      48.239  30.581  27.565  1.00  0.00     0.029 A 
ATOM     30  N   UNL A   1      46.698  28.981  27.448  1.00  0.00    -0.354 N 
ATOM     31  N   UNL A   1      45.745  26.215  27.012  1.00  0.00    -0.248 NA
ATOM     32  C   UNL A   1      46.166  23.995  26.408  1.00  0.00     0.031 C 
ATOM     33  C   UNL A   1      48.860  29.393  27.160  1.00  0.00     0.029 A 
ATOM     34  C   UNL A   1      47.903  28.393  27.103  1.00  0.00     0.049 A 
ATOM     35  H   UNL A   1      45.833  28.513  27.491  1.00  0.00     0.167 HD
ATOM     36  C   UNL A   1      47.097  26.069  26.736  1.00  0.00     0.074 A 
ATOM     37  C   UNL A   1      47.305  24.675  26.392  1.00  0.00     0.031 C 
ATOM     38  C   UNL A   1      48.079  27.004  26.759  1.00  0.00     0.037 A 
BRANCH  25  39
ATOM     39  C   UNL A   1      46.195  32.690  28.310  1.00  0.00     0.058 A 
ATOM     40  C   UNL A   1      46.161  33.616  27.257  1.00  0.00     0.135 A 
ATOM     41  C   UNL A   1      46.547  33.163  29.585  1.00  0.00     0.135 A 
ATOM     42  F   UNL A   1      45.847  33.215  26.014  1.00  0.00    -0.206 F 
ATOM     43  C   UNL A   1      46.489  34.955  27.454  1.00  0.00     0.059 A 
ATOM     44  C   UNL A   1      46.860  34.501  29.810  1.00  0.00     0.059 A 
ATOM     45  F   UNL A   1      46.598  32.319  30.628  1.00  0.00    -0.206 F 
ATOM     46  C   UNL A   1      46.842  35.387  28.733  1.00  0.00     0.060 A 
BRANCH  46  47
ATOM     47  S   UNL A   1      47.275  37.124  28.977  1.00  0.00     0.124 S 
ATOM     48  O   UNL A   1      46.972  37.300  30.394  1.00  0.00    -0.237 OA
ATOM     49  O   UNL A   1      48.691  37.148  28.626  1.00  0.00    -0.237 OA
ATOM     50  O   UNL A   1      46.390  37.826  28.053  1.00  0.00    -0.744 OA
ENDBRANCH  46  47
ENDBRANCH  25  39
BRANCH  26  51
ATOM     51  C   UNL A   1      43.358  23.203  26.770  1.00  0.00     0.058 A 
ATOM     52  C   UNL A   1      43.335  22.647  25.484  1.00  0.00     0.135 A 
ATOM     53  C   UNL A   1      43.027  22.372  27.852  1.00  0.00     0.135 A 
ATOM     54  F   UNL A   1      43.646  23.404  24.420  1.00  0.00    -0.206 F 
ATOM     55  C   UNL A   1      42.995  21.315  25.275  1.00  0.00     0.059 A 
ATOM     56  C   UNL A   1      42.708  21.032  27.671  1.00  0.00     0.059 A 
ATOM     57  F   UNL A   1      43.059  22.855  29.103  1.00  0.00    -0.206 F 
ATOM     58  C   UNL A   1      42.687  20.514  26.376  1.00  0.00     0.060 A 
BRANCH  58  59
ATOM     59  S   UNL A   1      42.322  18.766  26.108  1.00  0.00     0.124 S 
ATOM     60  O   UNL A   1      43.251  18.436  25.034  1.00  0.00    -0.237 OA
ATOM     61  O   UNL A   1      42.619  18.182  27.413  1.00  0.00    -0.237 OA
ATOM     62  O   UNL A   1      40.909  18.773  25.744  1.00  0.00    -0.744 OA
ENDBRANCH  58  59
ENDBRANCH  26  51
BRANCH  38  63
ATOM     63  C   UNL A   1      49.462  26.534  26.418  1.00  0.00     0.058 A 
ATOM     64  C   UNL A   1      50.286  25.928  27.378  1.00  0.00     0.135 A 
ATOM     65  C   UNL A   1      49.964  26.685  25.116  1.00  0.00     0.135 A 
ATOM     66  F   UNL A   1      49.853  25.772  28.639  1.00  0.00    -0.206 F 
ATOM     67  C   UNL A   1      51.576  25.511  27.066  1.00  0.00     0.059 A 
ATOM     68  C   UNL A   1      51.242  26.256  24.776  1.00  0.00     0.059 A 
ATOM     69  F   UNL A   1      49.209  27.253  24.163  1.00  0.00    -0.206 F 
ATOM     70  C   UNL A   1      52.046  25.685  25.763  1.00  0.00     0.060 A 
BRANCH  70  71
ATOM     71  S   UNL A   1      53.718  25.136  25.361  1.00  0.00     0.124 S 
ATOM     72  O   UNL A   1      54.488  25.723  26.452  1.00  0.00    -0.237 OA
ATOM     73  O   UNL A   1      53.588  23.681  25.387  1.00  0.00    -0.237 OA
ATOM     74  O   UNL A   1      53.954  25.713  24.042  1.00  0.00    -0.744 OA
ENDBRANCH  70  71
ENDBRANCH  38  63
ENDBRANCH  12  13
ENDBRANCH   5   7
ENDBRANCH   2   3
ENDBRANCH   1   2
BRANCH   1  75
ATOM     75  C   UNL A   1      33.534  29.380  25.849  1.00  0.00     0.023 C 
BRANCH  75  76
ATOM     76  C   UNL A   1      32.154  30.038  25.825  1.00  0.00     0.116 C 
BRANCH  76  77
ATOM     77  N   UNL A   1      31.619  30.089  24.489  1.00  0.00    -0.356 N 
ATOM     78  C   UNL A   1      30.949  29.163  23.770  1.00  0.00     0.227 C 
ATOM     79  H   UNL A   1      31.767  30.943  24.021  1.00  0.00     0.163 HD
ATOM     80  O   UNL A   1      30.723  29.449  22.586  1.00  0.00    -0.274 OA
BRANCH  78  81
ATOM     81  C   UNL A   1      30.495  27.801  24.303  1.00  0.00     0.103 C 
ATOM     82  C   UNL A   1      29.153  27.327  23.818  1.00  0.00    -0.016 C 
ATOM     83  C   UNL A   1      31.336  26.524  24.269  1.00  0.00     0.047 C 
ATOM     84  C   UNL A   1      29.038  25.997  23.962  1.00  0.00    -0.006 C 
ATOM     85  C   UNL A   1      30.326  25.384  24.387  1.00  0.00     0.106 C 
BRANCH  85  86
ATOM     86  N   UNL A   1      30.278  24.624  25.626  1.00  0.00    -0.349 N 
ATOM     87  C   UNL A   1      30.968  23.726  26.361  1.00  0.00     0.226 C 
ATOM     88  H   UNL A   1      29.442  24.842  26.098  1.00  0.00     0.164 HD
ATOM     89  O   UNL A   1      30.336  23.323  27.351  1.00  0.00    -0.274 OA
BRANCH  87  90
ATOM     90  C   UNL A   1      32.380  23.171  26.091  1.00  0.00     0.050 C 
ATOM     91  C   UNL A   1      33.390  24.370  26.034  1.00  0.00     0.020 C 
ATOM     92  C   UNL A   1      32.479  22.480  24.720  1.00  0.00     0.020 C 
ATOM     93  C   UNL A   1      32.890  22.274  27.238  1.00  0.00     0.020 C 
ATOM     94  C   UNL A   1      34.827  23.885  25.751  1.00  0.00    -0.010 C 
ATOM     95  C   UNL A   1      33.896  21.955  24.454  1.00  0.00    -0.010 C 
ATOM     96  C   UNL A   1      34.300  21.735  26.936  1.00  0.00    -0.010 C 
ATOM     97  C   UNL A   1      35.270  22.922  26.864  1.00  0.00     0.007 C 
ATOM     98  C   UNL A   1      34.859  23.146  24.407  1.00  0.00     0.007 C 
ATOM     99  C   UNL A   1      34.315  21.000  25.584  1.00  0.00     0.007 C 
ENDBRANCH  87  90
ENDBRANCH  85  86
ENDBRANCH  78  81
ENDBRANCH  76  77
ENDBRANCH  75  76
ENDBRANCH   1  75
TORSDOF 16
ENDMDL
